MODEL 1
REMARK VINA RESULT:    -6.381      0.000      0.000
REMARK INTER + INTRA:          -7.942
REMARK INTER:                  -7.687
REMARK INTRA:                  -0.255
REMARK UNBOUND:                -0.255
REMARK SMILES O=c1c(O)c(-c2ccc(O)c(O)c2)oc2cc(O)cc(O)c12
REMARK SMILES IDX 5 1 3 2 2 3 1 4 22 5 20 6 19 7 17 8 16 9 15 10 14 11 6 12
REMARK SMILES IDX 7 13 8 14 9 15 13 16 11 17 10 18 12 20 4 22 21 24 18 26
REMARK H PARENT 10 19 12 21 4 23 21 25 18 27
REMARK Flexibility Score: inf
ROOT
ATOM      1  C   UNL     1     -22.088  -6.142  -7.333  1.00  0.00     0.180 A 
ATOM      2  C   UNL     1     -23.095  -5.866  -6.391  1.00  0.00     0.208 A 
ATOM      3  C   UNL     1     -23.420  -6.842  -5.436  1.00  0.00     0.238 A 
ATOM      4  O   UNL     1     -24.359  -6.611  -4.631  1.00  0.00    -0.285 OA
ATOM      5  C   UNL     1     -22.722  -8.074  -5.423  1.00  0.00     0.111 A 
ATOM      6  C   UNL     1     -22.940  -9.119  -4.475  1.00  0.00     0.134 A 
ATOM      7  C   UNL     1     -22.285 -10.346  -4.636  1.00  0.00     0.093 A 
ATOM      8  C   UNL     1     -21.370 -10.543  -5.674  1.00  0.00     0.123 A 
ATOM      9  C   UNL     1     -21.107  -9.509  -6.569  1.00  0.00     0.094 A 
ATOM     10  C   UNL     1     -21.772  -8.286  -6.455  1.00  0.00     0.146 A 
ATOM     11  O   UNL     1     -21.498  -7.331  -7.336  1.00  0.00    -0.452 OA
ENDROOT
BRANCH   1  12
ATOM     12  C   UNL     1     -21.673  -5.153  -8.355  1.00  0.00     0.025 A 
ATOM     13  C   UNL     1     -20.445  -4.475  -8.261  1.00  0.00     0.016 A 
ATOM     14  C   UNL     1     -20.064  -3.564  -9.250  1.00  0.00     0.051 A 
ATOM     15  C   UNL     1     -20.892  -3.328 -10.351  1.00  0.00     0.157 A 
ATOM     16  C   UNL     1     -22.493  -4.930  -9.473  1.00  0.00     0.062 A 
ATOM     17  C   UNL     1     -22.112  -4.016 -10.466  1.00  0.00     0.158 A 
BRANCH  15  18
ATOM     18  O   UNL     1     -20.486  -2.412 -11.321  1.00  0.00    -0.504 OA
ATOM     19  H   UNL     1     -21.132  -1.767 -11.757  1.00  0.00     0.293 HD
ENDBRANCH  15  18
BRANCH  17  20
ATOM     20  O   UNL     1     -22.939  -3.790 -11.565  1.00  0.00    -0.504 OA
ATOM     21  H   UNL     1     -22.635  -3.231 -12.353  1.00  0.00     0.293 HD
ENDBRANCH  17  20
ENDBRANCH   1  12
BRANCH   2  22
ATOM     22  O   UNL     1     -23.786  -4.652  -6.436  1.00  0.00    -0.502 OA
ATOM     23  H   UNL     1     -23.340  -3.780  -6.691  1.00  0.00     0.293 HD
ENDBRANCH   2  22
BRANCH   6  24
ATOM     24  O   UNL     1     -23.762  -8.994  -3.351  1.00  0.00    -0.507 OA
ATOM     25  H   UNL     1     -24.162  -8.126  -3.025  1.00  0.00     0.293 HD
ENDBRANCH   6  24
BRANCH   8  26
ATOM     26  O   UNL     1     -20.711 -11.762  -5.818  1.00  0.00    -0.508 OA
ATOM     27  H   UNL     1     -20.314 -12.247  -5.022  1.00  0.00     0.293 HD
ENDBRANCH   8  26
TORSDOF 6
ENDMDL
MODEL 2
REMARK VINA RESULT:    -6.278      1.514      6.582
REMARK INTER + INTRA:          -7.817
REMARK INTER:                  -7.506
REMARK INTRA:                  -0.312
REMARK UNBOUND:                -0.255
REMARK SMILES O=c1c(O)c(-c2ccc(O)c(O)c2)oc2cc(O)cc(O)c12
REMARK SMILES IDX 5 1 3 2 2 3 1 4 22 5 20 6 19 7 17 8 16 9 15 10 14 11 6 12
REMARK SMILES IDX 7 13 8 14 9 15 13 16 11 17 10 18 12 20 4 22 21 24 18 26
REMARK H PARENT 10 19 12 21 4 23 21 25 18 27
REMARK Flexibility Score: inf
ROOT
ATOM      1  C   UNL     1     -21.573  -7.863  -6.748  1.00  0.00     0.180 A 
ATOM      2  C   UNL     1     -22.238  -7.052  -5.812  1.00  0.00     0.208 A 
ATOM      3  C   UNL     1     -22.672  -5.776  -6.203  1.00  0.00     0.238 A 
ATOM      4  O   UNL     1     -23.218  -5.033  -5.345  1.00  0.00    -0.285 OA
ATOM      5  C   UNL     1     -22.452  -5.332  -7.530  1.00  0.00     0.111 A 
ATOM      6  C   UNL     1     -22.884  -4.075  -8.047  1.00  0.00     0.134 A 
ATOM      7  C   UNL     1     -22.497  -3.687  -9.335  1.00  0.00     0.093 A 
ATOM      8  C   UNL     1     -21.748  -4.540 -10.149  1.00  0.00     0.123 A 
ATOM      9  C   UNL     1     -21.371  -5.794  -9.675  1.00  0.00     0.094 A 
ATOM     10  C   UNL     1     -21.711  -6.194  -8.381  1.00  0.00     0.146 A 
ATOM     11  O   UNL     1     -21.323  -7.394  -7.965  1.00  0.00    -0.452 OA
ENDROOT
BRANCH   1  12
ATOM     12  C   UNL     1     -21.108  -9.230  -6.417  1.00  0.00     0.025 A 
ATOM     13  C   UNL     1     -19.792  -9.471  -5.986  1.00  0.00     0.016 A 
ATOM     14  C   UNL     1     -19.382 -10.765  -5.657  1.00  0.00     0.051 A 
ATOM     15  C   UNL     1     -20.280 -11.833  -5.739  1.00  0.00     0.157 A 
ATOM     16  C   UNL     1     -22.013 -10.301  -6.478  1.00  0.00     0.062 A 
ATOM     17  C   UNL     1     -21.604 -11.601  -6.148  1.00  0.00     0.158 A 
BRANCH  15  18
ATOM     18  O   UNL     1     -19.842 -13.114  -5.405  1.00  0.00    -0.504 OA
ATOM     19  H   UNL     1     -19.841 -13.874  -6.073  1.00  0.00     0.293 HD
ENDBRANCH  15  18
BRANCH  17  20
ATOM     20  O   UNL     1     -22.506 -12.661  -6.226  1.00  0.00    -0.504 OA
ATOM     21  H   UNL     1     -22.726 -13.231  -5.418  1.00  0.00     0.293 HD
ENDBRANCH  17  20
ENDBRANCH   1  12
BRANCH   2  22
ATOM     22  O   UNL     1     -22.426  -7.500  -4.501  1.00  0.00    -0.502 OA
ATOM     23  H   UNL     1     -22.000  -7.044  -3.704  1.00  0.00     0.293 HD
ENDBRANCH   2  22
BRANCH   6  24
ATOM     24  O   UNL     1     -23.712  -3.188  -7.352  1.00  0.00    -0.507 OA
ATOM     25  H   UNL     1     -24.486  -3.464  -6.766  1.00  0.00     0.293 HD
ENDBRANCH   6  24
BRANCH   8  26
ATOM     26  O   UNL     1     -21.380  -4.153 -11.436  1.00  0.00    -0.508 OA
ATOM     27  H   UNL     1     -20.726  -4.697 -11.987  1.00  0.00     0.293 HD
ENDBRANCH   8  26
TORSDOF 6
ENDMDL
MODEL 3
REMARK VINA RESULT:    -5.930      1.292      2.905
REMARK INTER + INTRA:          -7.398
REMARK INTER:                  -7.075
REMARK INTRA:                  -0.324
REMARK UNBOUND:                -0.255
REMARK SMILES O=c1c(O)c(-c2ccc(O)c(O)c2)oc2cc(O)cc(O)c12
REMARK SMILES IDX 5 1 3 2 2 3 1 4 22 5 20 6 19 7 17 8 16 9 15 10 14 11 6 12
REMARK SMILES IDX 7 13 8 14 9 15 13 16 11 17 10 18 12 20 4 22 21 24 18 26
REMARK H PARENT 10 19 12 21 4 23 21 25 18 27
REMARK Flexibility Score: inf
ROOT
ATOM      1  C   UNL     1     -21.664  -6.273  -7.364  1.00  0.00     0.180 A 
ATOM      2  C   UNL     1     -21.292  -7.619  -7.522  1.00  0.00     0.208 A 
ATOM      3  C   UNL     1     -21.626  -8.540  -6.516  1.00  0.00     0.238 A 
ATOM      4  O   UNL     1     -21.242  -9.733  -6.637  1.00  0.00    -0.285 OA
ATOM      5  C   UNL     1     -22.344  -8.108  -5.374  1.00  0.00     0.111 A 
ATOM      6  C   UNL     1     -22.770  -8.962  -4.314  1.00  0.00     0.134 A 
ATOM      7  C   UNL     1     -23.358  -8.404  -3.172  1.00  0.00     0.093 A 
ATOM      8  C   UNL     1     -23.594  -7.030  -3.081  1.00  0.00     0.123 A 
ATOM      9  C   UNL     1     -23.235  -6.196  -4.137  1.00  0.00     0.094 A 
ATOM     10  C   UNL     1     -22.614  -6.718  -5.274  1.00  0.00     0.146 A 
ATOM     11  O   UNL     1     -22.278  -5.886  -6.252  1.00  0.00    -0.452 OA
ENDROOT
BRANCH   1  12
ATOM     12  C   UNL     1     -21.369  -5.248  -8.392  1.00  0.00     0.025 A 
ATOM     13  C   UNL     1     -20.164  -4.524  -8.378  1.00  0.00     0.016 A 
ATOM     14  C   UNL     1     -19.898  -3.578  -9.372  1.00  0.00     0.051 A 
ATOM     15  C   UNL     1     -20.819  -3.352 -10.398  1.00  0.00     0.157 A 
ATOM     16  C   UNL     1     -22.283  -5.034  -9.436  1.00  0.00     0.062 A 
ATOM     17  C   UNL     1     -22.017  -4.085 -10.434  1.00  0.00     0.158 A 
BRANCH  15  18
ATOM     18  O   UNL     1     -20.525  -2.401 -11.376  1.00  0.00    -0.504 OA
ATOM     19  H   UNL     1     -19.595  -2.020 -11.493  1.00  0.00     0.293 HD
ENDBRANCH  15  18
BRANCH  17  20
ATOM     20  O   UNL     1     -22.937  -3.869 -11.459  1.00  0.00    -0.504 OA
ATOM     21  H   UNL     1     -23.820  -4.364 -11.492  1.00  0.00     0.293 HD
ENDBRANCH  17  20
ENDBRANCH   1  12
BRANCH   2  22
ATOM     22  O   UNL     1     -20.565  -8.021  -8.645  1.00  0.00    -0.502 OA
ATOM     23  H   UNL     1     -19.582  -7.807  -8.763  1.00  0.00     0.293 HD
ENDBRANCH   2  22
BRANCH   6  24
ATOM     24  O   UNL     1     -22.665 -10.356  -4.344  1.00  0.00    -0.507 OA
ATOM     25  H   UNL     1     -23.209 -10.960  -4.942  1.00  0.00     0.293 HD
ENDBRANCH   6  24
BRANCH   8  26
ATOM     26  O   UNL     1     -24.194  -6.486  -1.948  1.00  0.00    -0.508 OA
ATOM     27  H   UNL     1     -25.190  -6.569  -1.783  1.00  0.00     0.293 HD
ENDBRANCH   8  26
TORSDOF 6
ENDMDL
MODEL 4
REMARK VINA RESULT:    -5.627      4.467      7.762
REMARK INTER + INTRA:          -7.033
REMARK INTER:                  -6.843
REMARK INTRA:                  -0.190
REMARK UNBOUND:                -0.255
REMARK SMILES O=c1c(O)c(-c2ccc(O)c(O)c2)oc2cc(O)cc(O)c12
REMARK SMILES IDX 5 1 3 2 2 3 1 4 22 5 20 6 19 7 17 8 16 9 15 10 14 11 6 12
REMARK SMILES IDX 7 13 8 14 9 15 13 16 11 17 10 18 12 20 4 22 21 24 18 26
REMARK H PARENT 10 19 12 21 4 23 21 25 18 27
REMARK Flexibility Score: inf
ROOT
ATOM      1  C   UNL     1     -21.586 -13.151  -6.055  1.00  0.00     0.180 A 
ATOM      2  C   UNL     1     -21.331 -14.079  -5.030  1.00  0.00     0.208 A 
ATOM      3  C   UNL     1     -21.759 -15.406  -5.192  1.00  0.00     0.238 A 
ATOM      4  O   UNL     1     -21.578 -16.220  -4.248  1.00  0.00    -0.285 OA
ATOM      5  C   UNL     1     -22.420 -15.793  -6.384  1.00  0.00     0.111 A 
ATOM      6  C   UNL     1     -22.861 -17.119  -6.672  1.00  0.00     0.134 A 
ATOM      7  C   UNL     1     -23.619 -17.360  -7.824  1.00  0.00     0.093 A 
ATOM      8  C   UNL     1     -23.896 -16.335  -8.731  1.00  0.00     0.123 A 
ATOM      9  C   UNL     1     -23.420 -15.049  -8.487  1.00  0.00     0.094 A 
ATOM     10  C   UNL     1     -22.692 -14.770  -7.329  1.00  0.00     0.146 A 
ATOM     11  O   UNL     1     -22.265 -13.529  -7.131  1.00  0.00    -0.452 OA
ENDROOT
BRANCH   1  12
ATOM     12  C   UNL     1     -21.144 -11.740  -5.967  1.00  0.00     0.025 A 
ATOM     13  C   UNL     1     -19.780 -11.401  -5.926  1.00  0.00     0.016 A 
ATOM     14  C   UNL     1     -19.386 -10.062  -5.867  1.00  0.00     0.051 A 
ATOM     15  C   UNL     1     -20.343  -9.043  -5.863  1.00  0.00     0.157 A 
ATOM     16  C   UNL     1     -22.102 -10.713  -5.984  1.00  0.00     0.062 A 
ATOM     17  C   UNL     1     -21.708  -9.369  -5.924  1.00  0.00     0.158 A 
BRANCH  15  18
ATOM     18  O   UNL     1     -19.919  -7.716  -5.803  1.00  0.00    -0.504 OA
ATOM     19  H   UNL     1     -19.456  -7.335  -4.987  1.00  0.00     0.293 HD
ENDBRANCH  15  18
BRANCH  17  20
ATOM     20  O   UNL     1     -22.667  -8.357  -5.927  1.00  0.00    -0.504 OA
ATOM     21  H   UNL     1     -22.489  -7.458  -6.358  1.00  0.00     0.293 HD
ENDBRANCH  17  20
ENDBRANCH   1  12
BRANCH   2  22
ATOM     22  O   UNL     1     -20.698 -13.672  -3.853  1.00  0.00    -0.502 OA
ATOM     23  H   UNL     1     -21.192 -13.205  -3.103  1.00  0.00     0.293 HD
ENDBRANCH   2  22
BRANCH   6  24
ATOM     24  O   UNL     1     -22.559 -18.232  -5.880  1.00  0.00    -0.507 OA
ATOM     25  H   UNL     1     -22.467 -19.175  -6.225  1.00  0.00     0.293 HD
ENDBRANCH   6  24
BRANCH   8  26
ATOM     26  O   UNL     1     -24.639 -16.587  -9.883  1.00  0.00    -0.508 OA
ATOM     27  H   UNL     1     -25.428 -17.222  -9.877  1.00  0.00     0.293 HD
ENDBRANCH   8  26
TORSDOF 6
ENDMDL
MODEL 5
REMARK VINA RESULT:    -5.594      2.313      3.130
REMARK INTER + INTRA:          -6.993
REMARK INTER:                  -6.937
REMARK INTRA:                  -0.056
REMARK UNBOUND:                -0.255
REMARK SMILES O=c1c(O)c(-c2ccc(O)c(O)c2)oc2cc(O)cc(O)c12
REMARK SMILES IDX 5 1 3 2 2 3 1 4 22 5 20 6 19 7 17 8 16 9 15 10 14 11 6 12
REMARK SMILES IDX 7 13 8 14 9 15 13 16 11 17 10 18 12 20 4 22 21 24 18 26
REMARK H PARENT 10 19 12 21 4 23 21 25 18 27
REMARK Flexibility Score: inf
ROOT
ATOM      1  C   UNL     1     -22.175  -5.674  -6.882  1.00  0.00     0.180 A 
ATOM      2  C   UNL     1     -21.767  -4.557  -6.132  1.00  0.00     0.208 A 
ATOM      3  C   UNL     1     -21.933  -4.577  -4.738  1.00  0.00     0.238 A 
ATOM      4  O   UNL     1     -21.617  -3.553  -4.077  1.00  0.00    -0.285 OA
ATOM      5  C   UNL     1     -22.488  -5.719  -4.110  1.00  0.00     0.111 A 
ATOM      6  C   UNL     1     -22.665  -5.864  -2.702  1.00  0.00     0.134 A 
ATOM      7  C   UNL     1     -23.343  -6.981  -2.202  1.00  0.00     0.093 A 
ATOM      8  C   UNL     1     -23.794  -7.991  -3.055  1.00  0.00     0.123 A 
ATOM      9  C   UNL     1     -23.574  -7.887  -4.427  1.00  0.00     0.094 A 
ATOM     10  C   UNL     1     -22.932  -6.766  -4.958  1.00  0.00     0.146 A 
ATOM     11  O   UNL     1     -22.752  -6.702  -6.272  1.00  0.00    -0.452 OA
ENDROOT
BRANCH   1  12
ATOM     12  C   UNL     1     -22.010  -5.738  -8.353  1.00  0.00     0.025 A 
ATOM     13  C   UNL     1     -21.311  -6.792  -8.966  1.00  0.00     0.016 A 
ATOM     14  C   UNL     1     -21.188  -6.844 -10.357  1.00  0.00     0.051 A 
ATOM     15  C   UNL     1     -21.771  -5.856 -11.155  1.00  0.00     0.157 A 
ATOM     16  C   UNL     1     -22.613  -4.758  -9.159  1.00  0.00     0.062 A 
ATOM     17  C   UNL     1     -22.490  -4.809 -10.555  1.00  0.00     0.158 A 
BRANCH  15  18
ATOM     18  O   UNL     1     -21.631  -5.934 -12.541  1.00  0.00    -0.504 OA
ATOM     19  H   UNL     1     -22.111  -5.300 -13.167  1.00  0.00     0.293 HD
ENDBRANCH  15  18
BRANCH  17  20
ATOM     20  O   UNL     1     -23.080  -3.824 -11.346  1.00  0.00    -0.504 OA
ATOM     21  H   UNL     1     -22.964  -3.811 -12.352  1.00  0.00     0.293 HD
ENDBRANCH  17  20
ENDBRANCH   1  12
BRANCH   2  22
ATOM     22  O   UNL     1     -21.243  -3.432  -6.773  1.00  0.00    -0.502 OA
ATOM     23  H   UNL     1     -21.607  -3.088  -7.653  1.00  0.00     0.293 HD
ENDBRANCH   2  22
BRANCH   6  24
ATOM     24  O   UNL     1     -22.171  -4.959  -1.756  1.00  0.00    -0.507 OA
ATOM     25  H   UNL     1     -22.627  -4.734  -0.884  1.00  0.00     0.293 HD
ENDBRANCH   6  24
BRANCH   8  26
ATOM     26  O   UNL     1     -24.455  -9.108  -2.548  1.00  0.00    -0.508 OA
ATOM     27  H   UNL     1     -24.408  -9.351  -1.566  1.00  0.00     0.293 HD
ENDBRANCH   8  26
TORSDOF 6
ENDMDL
MODEL 6
REMARK VINA RESULT:    -5.578      1.299      3.212
REMARK INTER + INTRA:          -6.974
REMARK INTER:                  -6.642
REMARK INTRA:                  -0.333
REMARK UNBOUND:                -0.255
REMARK SMILES O=c1c(O)c(-c2ccc(O)c(O)c2)oc2cc(O)cc(O)c12
REMARK SMILES IDX 5 1 3 2 2 3 1 4 22 5 20 6 19 7 17 8 16 9 15 10 14 11 6 12
REMARK SMILES IDX 7 13 8 14 9 15 13 16 11 17 10 18 12 20 4 22 21 24 18 26
REMARK H PARENT 10 19 12 21 4 23 21 25 18 27
REMARK Flexibility Score: inf
ROOT
ATOM      1  C   UNL     1     -21.321  -6.770  -7.595  1.00  0.00     0.180 A 
ATOM      2  C   UNL     1     -20.487  -7.902  -7.600  1.00  0.00     0.208 A 
ATOM      3  C   UNL     1     -20.696  -8.905  -6.640  1.00  0.00     0.238 A 
ATOM      4  O   UNL     1     -19.912  -9.889  -6.614  1.00  0.00    -0.285 OA
ATOM      5  C   UNL     1     -21.747  -8.772  -5.699  1.00  0.00     0.111 A 
ATOM      6  C   UNL     1     -22.074  -9.745  -4.708  1.00  0.00     0.134 A 
ATOM      7  C   UNL     1     -23.048  -9.451  -3.746  1.00  0.00     0.093 A 
ATOM      8  C   UNL     1     -23.753  -8.244  -3.781  1.00  0.00     0.123 A 
ATOM      9  C   UNL     1     -23.480  -7.313  -4.780  1.00  0.00     0.094 A 
ATOM     10  C   UNL     1     -22.489  -7.564  -5.731  1.00  0.00     0.146 A 
ATOM     11  O   UNL     1     -22.255  -6.644  -6.660  1.00  0.00    -0.452 OA
ENDROOT
BRANCH   1  12
ATOM     12  C   UNL     1     -21.179  -5.683  -8.591  1.00  0.00     0.025 A 
ATOM     13  C   UNL     1     -21.824  -5.744  -9.839  1.00  0.00     0.016 A 
ATOM     14  C   UNL     1     -21.694  -4.696 -10.754  1.00  0.00     0.051 A 
ATOM     15  C   UNL     1     -20.933  -3.568 -10.433  1.00  0.00     0.157 A 
ATOM     16  C   UNL     1     -20.432  -4.539  -8.264  1.00  0.00     0.062 A 
ATOM     17  C   UNL     1     -20.300  -3.486  -9.181  1.00  0.00     0.158 A 
BRANCH  15  18
ATOM     18  O   UNL     1     -20.820  -2.538 -11.366  1.00  0.00    -0.504 OA
ATOM     19  H   UNL     1     -21.106  -2.652 -12.331  1.00  0.00     0.293 HD
ENDBRANCH  15  18
BRANCH  17  20
ATOM     20  O   UNL     1     -19.546  -2.362  -8.852  1.00  0.00    -0.504 OA
ATOM     21  H   UNL     1     -18.718  -2.105  -9.377  1.00  0.00     0.293 HD
ENDBRANCH  17  20
ENDBRANCH   1  12
BRANCH   2  22
ATOM     22  O   UNL     1     -19.442  -8.003  -8.522  1.00  0.00    -0.502 OA
ATOM     23  H   UNL     1     -18.472  -7.887  -8.260  1.00  0.00     0.293 HD
ENDBRANCH   2  22
BRANCH   6  24
ATOM     24  O   UNL     1     -21.497 -11.017  -4.641  1.00  0.00    -0.507 OA
ATOM     25  H   UNL     1     -21.526 -11.620  -3.832  1.00  0.00     0.293 HD
ENDBRANCH   6  24
BRANCH   8  26
ATOM     26  O   UNL     1     -24.732  -7.966  -2.829  1.00  0.00    -0.508 OA
ATOM     27  H   UNL     1     -24.745  -7.088  -2.324  1.00  0.00     0.293 HD
ENDBRANCH   8  26
TORSDOF 6
ENDMDL
MODEL 7
REMARK VINA RESULT:    -5.566      2.257      6.967
REMARK INTER + INTRA:          -6.960
REMARK INTER:                  -6.643
REMARK INTRA:                  -0.316
REMARK UNBOUND:                -0.255
REMARK SMILES O=c1c(O)c(-c2ccc(O)c(O)c2)oc2cc(O)cc(O)c12
REMARK SMILES IDX 5 1 3 2 2 3 1 4 22 5 20 6 19 7 17 8 16 9 15 10 14 11 6 12
REMARK SMILES IDX 7 13 8 14 9 15 13 16 11 17 10 18 12 20 4 22 21 24 18 26
REMARK H PARENT 10 19 12 21 4 23 21 25 18 27
REMARK Flexibility Score: inf
ROOT
ATOM      1  C   UNL     1     -21.792  -9.968  -6.330  1.00  0.00     0.180 A 
ATOM      2  C   UNL     1     -22.502  -9.424  -5.245  1.00  0.00     0.208 A 
ATOM      3  C   UNL     1     -22.702  -8.036  -5.190  1.00  0.00     0.238 A 
ATOM      4  O   UNL     1     -23.291  -7.549  -4.189  1.00  0.00    -0.285 OA
ATOM      5  C   UNL     1     -22.206  -7.210  -6.228  1.00  0.00     0.111 A 
ATOM      6  C   UNL     1     -22.385  -5.796  -6.295  1.00  0.00     0.134 A 
ATOM      7  C   UNL     1     -21.739  -5.065  -7.299  1.00  0.00     0.093 A 
ATOM      8  C   UNL     1     -20.973  -5.705  -8.277  1.00  0.00     0.123 A 
ATOM      9  C   UNL     1     -20.840  -7.091  -8.253  1.00  0.00     0.094 A 
ATOM     10  C   UNL     1     -21.443  -7.844  -7.243  1.00  0.00     0.146 A 
ATOM     11  O   UNL     1     -21.283  -9.162  -7.253  1.00  0.00    -0.452 OA
ENDROOT
BRANCH   1  12
ATOM     12  C   UNL     1     -21.563 -11.425  -6.470  1.00  0.00     0.025 A 
ATOM     13  C   UNL     1     -20.478 -12.059  -5.839  1.00  0.00     0.016 A 
ATOM     14  C   UNL     1     -20.295 -13.438  -5.966  1.00  0.00     0.051 A 
ATOM     15  C   UNL     1     -21.195 -14.205  -6.711  1.00  0.00     0.157 A 
ATOM     16  C   UNL     1     -22.477 -12.201  -7.200  1.00  0.00     0.062 A 
ATOM     17  C   UNL     1     -22.294 -13.586  -7.329  1.00  0.00     0.158 A 
BRANCH  15  18
ATOM     18  O   UNL     1     -20.986 -15.579  -6.821  1.00  0.00    -0.504 OA
ATOM     19  H   UNL     1     -21.141 -16.212  -6.046  1.00  0.00     0.293 HD
ENDBRANCH  15  18
BRANCH  17  20
ATOM     20  O   UNL     1     -23.199 -14.345  -8.068  1.00  0.00    -0.504 OA
ATOM     21  H   UNL     1     -23.955 -13.915  -8.588  1.00  0.00     0.293 HD
ENDBRANCH  17  20
ENDBRANCH   1  12
BRANCH   2  22
ATOM     22  O   UNL     1     -22.964 -10.254  -4.220  1.00  0.00    -0.502 OA
ATOM     23  H   UNL     1     -22.374 -10.940  -3.768  1.00  0.00     0.293 HD
ENDBRANCH   2  22
BRANCH   6  24
ATOM     24  O   UNL     1     -23.204  -5.071  -5.424  1.00  0.00    -0.507 OA
ATOM     25  H   UNL     1     -23.366  -4.077  -5.482  1.00  0.00     0.293 HD
ENDBRANCH   6  24
BRANCH   8  26
ATOM     26  O   UNL     1     -20.346  -4.970  -9.281  1.00  0.00    -0.508 OA
ATOM     27  H   UNL     1     -19.843  -5.425 -10.035  1.00  0.00     0.293 HD
ENDBRANCH   8  26
TORSDOF 6
ENDMDL
MODEL 8
REMARK VINA RESULT:    -5.420      2.858      5.510
REMARK INTER + INTRA:          -6.784
REMARK INTER:                  -6.457
REMARK INTRA:                  -0.327
REMARK UNBOUND:                -0.255
REMARK SMILES O=c1c(O)c(-c2ccc(O)c(O)c2)oc2cc(O)cc(O)c12
REMARK SMILES IDX 5 1 3 2 2 3 1 4 22 5 20 6 19 7 17 8 16 9 15 10 14 11 6 12
REMARK SMILES IDX 7 13 8 14 9 15 13 16 11 17 10 18 12 20 4 22 21 24 18 26
REMARK H PARENT 10 19 12 21 4 23 21 25 18 27
REMARK Flexibility Score: inf
ROOT
ATOM      1  C   UNL     1     -21.681 -10.207  -5.862  1.00  0.00     0.180 A 
ATOM      2  C   UNL     1     -20.716 -10.593  -4.915  1.00  0.00     0.208 A 
ATOM      3  C   UNL     1     -20.317 -11.938  -4.860  1.00  0.00     0.238 A 
ATOM      4  O   UNL     1     -19.493 -12.288  -3.975  1.00  0.00    -0.285 OA
ATOM      5  C   UNL     1     -20.875 -12.876  -5.763  1.00  0.00     0.111 A 
ATOM      6  C   UNL     1     -20.515 -14.255  -5.823  1.00  0.00     0.134 A 
ATOM      7  C   UNL     1     -21.225 -15.119  -6.665  1.00  0.00     0.093 A 
ATOM      8  C   UNL     1     -22.239 -14.639  -7.499  1.00  0.00     0.123 A 
ATOM      9  C   UNL     1     -22.557 -13.283  -7.490  1.00  0.00     0.094 A 
ATOM     10  C   UNL     1     -21.891 -12.404  -6.633  1.00  0.00     0.146 A 
ATOM     11  O   UNL     1     -22.233 -11.121  -6.650  1.00  0.00    -0.452 OA
ENDROOT
BRANCH   1  12
ATOM     12  C   UNL     1     -22.134  -8.803  -5.997  1.00  0.00     0.025 A 
ATOM     13  C   UNL     1     -21.415  -7.873  -6.770  1.00  0.00     0.016 A 
ATOM     14  C   UNL     1     -21.874  -6.560  -6.902  1.00  0.00     0.051 A 
ATOM     15  C   UNL     1     -23.060  -6.160  -6.280  1.00  0.00     0.157 A 
ATOM     16  C   UNL     1     -23.336  -8.403  -5.391  1.00  0.00     0.062 A 
ATOM     17  C   UNL     1     -23.798  -7.085  -5.524  1.00  0.00     0.158 A 
BRANCH  15  18
ATOM     18  O   UNL     1     -23.492  -4.842  -6.430  1.00  0.00    -0.504 OA
ATOM     19  H   UNL     1     -24.340  -4.607  -6.931  1.00  0.00     0.293 HD
ENDBRANCH  15  18
BRANCH  17  20
ATOM     20  O   UNL     1     -24.984  -6.694  -4.907  1.00  0.00    -0.504 OA
ATOM     21  H   UNL     1     -25.828  -7.251  -4.975  1.00  0.00     0.293 HD
ENDBRANCH  17  20
ENDBRANCH   1  12
BRANCH   2  22
ATOM     22  O   UNL     1     -20.194  -9.656  -4.020  1.00  0.00    -0.502 OA
ATOM     23  H   UNL     1     -20.099  -8.675  -4.252  1.00  0.00     0.293 HD
ENDBRANCH   2  22
BRANCH   6  24
ATOM     24  O   UNL     1     -19.457 -14.818  -5.101  1.00  0.00    -0.507 OA
ATOM     25  H   UNL     1     -19.091 -15.747  -5.249  1.00  0.00     0.293 HD
ENDBRANCH   6  24
BRANCH   8  26
ATOM     26  O   UNL     1     -22.930 -15.502  -8.346  1.00  0.00    -0.508 OA
ATOM     27  H   UNL     1     -23.475 -16.277  -7.985  1.00  0.00     0.293 HD
ENDBRANCH   8  26
TORSDOF 6
ENDMDL
MODEL 9
REMARK VINA RESULT:    -5.380      6.922      9.287
REMARK INTER + INTRA:          -6.736
REMARK INTER:                  -6.432
REMARK INTRA:                  -0.304
REMARK UNBOUND:                -0.255
REMARK SMILES O=c1c(O)c(-c2ccc(O)c(O)c2)oc2cc(O)cc(O)c12
REMARK SMILES IDX 5 1 3 2 2 3 1 4 22 5 20 6 19 7 17 8 16 9 15 10 14 11 6 12
REMARK SMILES IDX 7 13 8 14 9 15 13 16 11 17 10 18 12 20 4 22 21 24 18 26
REMARK H PARENT 10 19 12 21 4 23 21 25 18 27
REMARK Flexibility Score: inf
ROOT
ATOM      1  C   UNL     1     -22.907 -13.550  -3.961  1.00  0.00     0.180 A 
ATOM      2  C   UNL     1     -22.648 -12.171  -4.042  1.00  0.00     0.208 A 
ATOM      3  C   UNL     1     -23.418 -11.287  -3.270  1.00  0.00     0.238 A 
ATOM      4  O   UNL     1     -23.218 -10.050  -3.387  1.00  0.00    -0.285 OA
ATOM      5  C   UNL     1     -24.425 -11.795  -2.413  1.00  0.00     0.111 A 
ATOM      6  C   UNL     1     -25.238 -10.994  -1.556  1.00  0.00     0.134 A 
ATOM      7  C   UNL     1     -26.292 -11.589  -0.850  1.00  0.00     0.093 A 
ATOM      8  C   UNL     1     -26.519 -12.965  -0.920  1.00  0.00     0.123 A 
ATOM      9  C   UNL     1     -25.694 -13.763  -1.709  1.00  0.00     0.094 A 
ATOM     10  C   UNL     1     -24.658 -13.194  -2.453  1.00  0.00     0.146 A 
ATOM     11  O   UNL     1     -23.901 -13.990  -3.199  1.00  0.00    -0.452 OA
ENDROOT
BRANCH   1  12
ATOM     12  C   UNL     1     -22.121 -14.546  -4.726  1.00  0.00     0.025 A 
ATOM     13  C   UNL     1     -20.842 -14.950  -4.304  1.00  0.00     0.016 A 
ATOM     14  C   UNL     1     -20.129 -15.908  -5.029  1.00  0.00     0.051 A 
ATOM     15  C   UNL     1     -20.684 -16.486  -6.174  1.00  0.00     0.157 A 
ATOM     16  C   UNL     1     -22.684 -15.144  -5.865  1.00  0.00     0.062 A 
ATOM     17  C   UNL     1     -21.970 -16.106  -6.594  1.00  0.00     0.158 A 
BRANCH  15  18
ATOM     18  O   UNL     1     -19.948 -17.439  -6.877  1.00  0.00    -0.504 OA
ATOM     19  H   UNL     1     -19.439 -17.210  -7.722  1.00  0.00     0.293 HD
ENDBRANCH  15  18
BRANCH  17  20
ATOM     20  O   UNL     1     -22.532 -16.683  -7.731  1.00  0.00    -0.504 OA
ATOM     21  H   UNL     1     -23.327 -16.266  -8.200  1.00  0.00     0.293 HD
ENDBRANCH  17  20
ENDBRANCH   1  12
BRANCH   2  22
ATOM     22  O   UNL     1     -21.664 -11.690  -4.910  1.00  0.00    -0.502 OA
ATOM     23  H   UNL     1     -20.886 -12.258  -5.220  1.00  0.00     0.293 HD
ENDBRANCH   2  22
BRANCH   6  24
ATOM     24  O   UNL     1     -25.038  -9.627  -1.342  1.00  0.00    -0.507 OA
ATOM     25  H   UNL     1     -25.625  -9.043  -0.766  1.00  0.00     0.293 HD
ENDBRANCH   6  24
BRANCH   8  26
ATOM     26  O   UNL     1     -27.560 -13.551  -0.202  1.00  0.00    -0.508 OA
ATOM     27  H   UNL     1     -28.530 -13.380  -0.439  1.00  0.00     0.293 HD
ENDBRANCH   8  26
TORSDOF 6
ENDMDL
