MODEL 1
REMARK VINA RESULT:    -2.834      0.000      0.000
REMARK INTER + INTRA:         -12.772
REMARK INTER:                  -7.142
REMARK INTRA:                  -5.630
REMARK UNBOUND:                -5.630
REMARK SMILES CCCCCCCCCCCCCCCCCCCCCCCCCCCC(=O)[O-]
REMARK SMILES IDX 15 1 16 2 17 3 18 4 19 5 20 6 21 7 22 8 23 9 24 10 25 11
REMARK SMILES IDX 26 12 27 13 28 14 29 15 30 16 14 17 13 18 12 19 11 20 10 21
REMARK SMILES IDX 9 22 8 23 7 24 6 25 5 26 4 27 3 28 2 29 1 30
REMARK H PARENT
REMARK Flexibility Score: inf
ROOT
ATOM      1  C   UNL     1    -102.394 -29.791 -11.550  1.00  0.00     0.000 C 
ENDROOT
BRANCH   1   2
ATOM      2  C   UNL     1    -101.637 -28.511 -11.162  1.00  0.00     0.000 C 
BRANCH   2   3
ATOM      3  C   UNL     1    -101.273 -27.645 -12.379  1.00  0.00     0.000 C 
BRANCH   3   4
ATOM      4  C   UNL     1    -102.151 -27.946 -13.608  1.00  0.00     0.000 C 
BRANCH   4   5
ATOM      5  C   UNL     1    -101.576 -27.470 -14.958  1.00  0.00     0.000 C 
BRANCH   5   6
ATOM      6  C   UNL     1    -102.622 -26.997 -15.986  1.00  0.00     0.000 C 
BRANCH   6   7
ATOM      7  C   UNL     1    -103.940 -26.557 -15.331  1.00  0.00     0.000 C 
BRANCH   7   8
ATOM      8  C   UNL     1    -104.166 -25.050 -15.500  1.00  0.00     0.000 C 
BRANCH   8   9
ATOM      9  C   UNL     1    -104.654 -24.420 -14.188  1.00  0.00     0.000 C 
BRANCH   9  10
ATOM     10  C   UNL     1    -104.878 -25.455 -13.070  1.00  0.00     0.000 C 
BRANCH  10  11
ATOM     11  C   UNL     1    -104.023 -25.242 -11.808  1.00  0.00     0.000 C 
BRANCH  11  12
ATOM     12  C   UNL     1    -104.502 -26.079 -10.612  1.00  0.00     0.006 C 
BRANCH  12  13
ATOM     13  C   UNL     1    -103.565 -25.909  -9.410  1.00  0.00     0.053 C 
BRANCH  13  14
ATOM     14  C   UNL     1    -103.674 -24.527  -8.846  1.00  0.00     0.041 C 
ATOM     15  O   UNL     1    -102.644 -23.923  -8.445  1.00  0.00    -0.550 OA
ATOM     16  O   UNL     1    -104.912 -23.899  -8.776  1.00  0.00    -0.550 OA
ENDBRANCH  13  14
ENDBRANCH  12  13
ENDBRANCH  11  12
ENDBRANCH  10  11
ENDBRANCH   9  10
ENDBRANCH   8   9
ENDBRANCH   7   8
ENDBRANCH   6   7
ENDBRANCH   5   6
ENDBRANCH   4   5
ENDBRANCH   3   4
ENDBRANCH   2   3
ENDBRANCH   1   2
BRANCH   1  17
ATOM     17  C   UNL     1    -101.543 -31.060 -11.363  1.00  0.00     0.000 C 
BRANCH  17  18
ATOM     18  C   UNL     1    -100.310 -30.817 -10.477  1.00  0.00     0.000 C 
BRANCH  18  19
ATOM     19  C   UNL     1     -98.994 -31.157 -11.199  1.00  0.00     0.000 C 
BRANCH  19  20
ATOM     20  C   UNL     1     -98.060 -29.942 -11.345  1.00  0.00     0.000 C 
BRANCH  20  21
ATOM     21  C   UNL     1     -97.735 -29.540 -12.796  1.00  0.00     0.000 C 
BRANCH  21  22
ATOM     22  C   UNL     1     -98.864 -29.883 -13.779  1.00  0.00    -0.000 C 
BRANCH  22  23
ATOM     23  C   UNL     1     -98.456 -31.031 -14.712  1.00  0.00    -0.000 C 
BRANCH  23  24
ATOM     24  C   UNL     1     -99.635 -31.976 -14.967  1.00  0.00    -0.000 C 
BRANCH  24  25
ATOM     25  C   UNL     1    -100.965 -31.209 -14.966  1.00  0.00    -0.000 C 
BRANCH  25  26
ATOM     26  C   UNL     1    -101.378 -30.729 -16.367  1.00  0.00    -0.000 C 
BRANCH  26  27
ATOM     27  C   UNL     1    -102.863 -30.949 -16.719  1.00  0.00    -0.000 C 
BRANCH  27  28
ATOM     28  C   UNL     1    -103.772 -31.143 -15.487  1.00  0.00    -0.000 C 
BRANCH  28  29
ATOM     29  C   UNL     1    -104.881 -30.082 -15.406  1.00  0.00    -0.003 C 
ATOM     30  C   UNL     1    -105.250 -29.776 -13.957  1.00  0.00     0.004 C 
ENDBRANCH  28  29
ENDBRANCH  27  28
ENDBRANCH  26  27
ENDBRANCH  25  26
ENDBRANCH  24  25
ENDBRANCH  23  24
ENDBRANCH  22  23
ENDBRANCH  21  22
ENDBRANCH  20  21
ENDBRANCH  19  20
ENDBRANCH  18  19
ENDBRANCH  17  18
ENDBRANCH   1  17
TORSDOF 26
ENDMDL
MODEL 2
REMARK VINA RESULT:    -2.791      2.801      7.949
REMARK INTER + INTRA:         -12.662
REMARK INTER:                  -7.201
REMARK INTRA:                  -5.461
REMARK UNBOUND:                -5.630
REMARK SMILES CCCCCCCCCCCCCCCCCCCCCCCCCCCC(=O)[O-]
REMARK SMILES IDX 15 1 16 2 17 3 18 4 19 5 20 6 21 7 22 8 23 9 24 10 25 11
REMARK SMILES IDX 26 12 27 13 28 14 29 15 30 16 14 17 13 18 12 19 11 20 10 21
REMARK SMILES IDX 9 22 8 23 7 24 6 25 5 26 4 27 3 28 2 29 1 30
REMARK H PARENT
REMARK Flexibility Score: inf
ROOT
ATOM      1  C   UNL     1    -103.876 -25.756 -16.325  1.00  0.00     0.000 C 
ENDROOT
BRANCH   1   2
ATOM      2  C   UNL     1    -102.692 -26.590 -15.810  1.00  0.00     0.000 C 
BRANCH   2   3
ATOM      3  C   UNL     1    -102.629 -27.988 -16.448  1.00  0.00     0.000 C 
BRANCH   3   4
ATOM      4  C   UNL     1    -102.258 -29.088 -15.435  1.00  0.00     0.000 C 
BRANCH   4   5
ATOM      5  C   UNL     1    -103.449 -29.710 -14.676  1.00  0.00     0.000 C 
BRANCH   5   6
ATOM      6  C   UNL     1    -104.837 -29.401 -15.269  1.00  0.00     0.000 C 
BRANCH   6   7
ATOM      7  C   UNL     1    -105.691 -28.517 -14.349  1.00  0.00     0.000 C 
BRANCH   7   8
ATOM      8  C   UNL     1    -105.157 -28.534 -12.912  1.00  0.00     0.000 C 
BRANCH   8   9
ATOM      9  C   UNL     1    -105.071 -27.110 -12.344  1.00  0.00     0.000 C 
BRANCH   9  10
ATOM     10  C   UNL     1    -103.628 -26.579 -12.263  1.00  0.00     0.000 C 
BRANCH  10  11
ATOM     11  C   UNL     1    -102.670 -27.433 -11.415  1.00  0.00     0.000 C 
BRANCH  11  12
ATOM     12  C   UNL     1    -101.353 -27.755 -12.138  1.00  0.00     0.006 C 
BRANCH  12  13
ATOM     13  C   UNL     1    -100.896 -29.187 -11.841  1.00  0.00     0.053 C 
BRANCH  13  14
ATOM     14  C   UNL     1     -99.436 -29.346 -12.127  1.00  0.00     0.041 C 
ATOM     15  O   UNL     1     -98.710 -30.031 -11.358  1.00  0.00    -0.550 OA
ATOM     16  O   UNL     1     -98.876 -28.748 -13.250  1.00  0.00    -0.550 OA
ENDBRANCH  13  14
ENDBRANCH  12  13
ENDBRANCH  11  12
ENDBRANCH  10  11
ENDBRANCH   9  10
ENDBRANCH   8   9
ENDBRANCH   7   8
ENDBRANCH   6   7
ENDBRANCH   5   6
ENDBRANCH   4   5
ENDBRANCH   3   4
ENDBRANCH   2   3
ENDBRANCH   1   2
BRANCH   1  17
ATOM     17  C   UNL     1    -104.258 -24.616 -15.365  1.00  0.00     0.000 C 
BRANCH  17  18
ATOM     18  C   UNL     1    -105.742 -24.658 -14.961  1.00  0.00     0.000 C 
BRANCH  18  19
ATOM     19  C   UNL     1    -106.105 -23.557 -13.950  1.00  0.00     0.000 C 
BRANCH  19  20
ATOM     20  C   UNL     1    -105.003 -23.318 -12.902  1.00  0.00     0.000 C 
BRANCH  20  21
ATOM     21  C   UNL     1    -105.031 -21.933 -12.230  1.00  0.00     0.000 C 
BRANCH  21  22
ATOM     22  C   UNL     1    -104.025 -21.806 -11.077  1.00  0.00    -0.000 C 
BRANCH  22  23
ATOM     23  C   UNL     1    -104.678 -21.181  -9.838  1.00  0.00    -0.000 C 
BRANCH  23  24
ATOM     24  C   UNL     1    -106.140 -21.624  -9.706  1.00  0.00    -0.000 C 
BRANCH  24  25
ATOM     25  C   UNL     1    -106.261 -22.856  -8.796  1.00  0.00    -0.000 C 
BRANCH  25  26
ATOM     26  C   UNL     1    -106.469 -24.160  -9.583  1.00  0.00    -0.000 C 
BRANCH  26  27
ATOM     27  C   UNL     1    -105.529 -25.316  -9.186  1.00  0.00    -0.000 C 
BRANCH  27  28
ATOM     28  C   UNL     1    -104.414 -24.901  -8.204  1.00  0.00    -0.000 C 
BRANCH  28  29
ATOM     29  C   UNL     1    -103.071 -24.659  -8.912  1.00  0.00    -0.003 C 
ATOM     30  C   UNL     1    -102.291 -23.529  -8.247  1.00  0.00     0.004 C 
ENDBRANCH  28  29
ENDBRANCH  27  28
ENDBRANCH  26  27
ENDBRANCH  25  26
ENDBRANCH  24  25
ENDBRANCH  23  24
ENDBRANCH  22  23
ENDBRANCH  21  22
ENDBRANCH  20  21
ENDBRANCH  19  20
ENDBRANCH  18  19
ENDBRANCH  17  18
ENDBRANCH   1  17
TORSDOF 26
ENDMDL
MODEL 3
REMARK VINA RESULT:    -2.730      1.977      5.296
REMARK INTER + INTRA:         -12.510
REMARK INTER:                  -7.805
REMARK INTRA:                  -4.705
REMARK UNBOUND:                -5.630
REMARK SMILES CCCCCCCCCCCCCCCCCCCCCCCCCCCC(=O)[O-]
REMARK SMILES IDX 15 1 16 2 17 3 18 4 19 5 20 6 21 7 22 8 23 9 24 10 25 11
REMARK SMILES IDX 26 12 27 13 28 14 29 15 30 16 14 17 13 18 12 19 11 20 10 21
REMARK SMILES IDX 9 22 8 23 7 24 6 25 5 26 4 27 3 28 2 29 1 30
REMARK H PARENT
REMARK Flexibility Score: inf
ROOT
ATOM      1  C   UNL     1    -102.718 -26.958 -15.691  1.00  0.00     0.000 C 
ENDROOT
BRANCH   1   2
ATOM      2  C   UNL     1    -103.480 -26.074 -16.691  1.00  0.00     0.000 C 
BRANCH   2   3
ATOM      3  C   UNL     1    -104.227 -24.915 -16.011  1.00  0.00     0.000 C 
BRANCH   3   4
ATOM      4  C   UNL     1    -104.242 -25.037 -14.475  1.00  0.00     0.000 C 
BRANCH   4   5
ATOM      5  C   UNL     1    -105.078 -23.969 -13.740  1.00  0.00     0.000 C 
BRANCH   5   6
ATOM      6  C   UNL     1    -104.677 -23.717 -12.274  1.00  0.00     0.000 C 
BRANCH   6   7
ATOM      7  C   UNL     1    -105.371 -24.676 -11.296  1.00  0.00     0.000 C 
BRANCH   7   8
ATOM      8  C   UNL     1    -105.290 -24.153  -9.857  1.00  0.00     0.000 C 
BRANCH   8   9
ATOM      9  C   UNL     1    -103.858 -23.717  -9.514  1.00  0.00     0.000 C 
BRANCH   9  10
ATOM     10  C   UNL     1    -103.034 -24.831  -8.843  1.00  0.00     0.000 C 
BRANCH  10  11
ATOM     11  C   UNL     1    -103.863 -25.894  -8.101  1.00  0.00     0.000 C 
BRANCH  11  12
ATOM     12  C   UNL     1    -104.097 -25.548  -6.622  1.00  0.00     0.006 C 
BRANCH  12  13
ATOM     13  C   UNL     1    -103.453 -26.592  -5.703  1.00  0.00     0.053 C 
BRANCH  13  14
ATOM     14  C   UNL     1    -101.972 -26.393  -5.632  1.00  0.00     0.041 C 
ATOM     15  O   UNL     1    -101.192 -27.364  -5.817  1.00  0.00    -0.550 OA
ATOM     16  O   UNL     1    -101.450 -25.129  -5.377  1.00  0.00    -0.550 OA
ENDBRANCH  13  14
ENDBRANCH  12  13
ENDBRANCH  11  12
ENDBRANCH  10  11
ENDBRANCH   9  10
ENDBRANCH   8   9
ENDBRANCH   7   8
ENDBRANCH   6   7
ENDBRANCH   5   6
ENDBRANCH   4   5
ENDBRANCH   3   4
ENDBRANCH   2   3
ENDBRANCH   1   2
BRANCH   1  17
ATOM     17  C   UNL     1    -101.901 -28.064 -16.382  1.00  0.00     0.000 C 
BRANCH  17  18
ATOM     18  C   UNL     1    -102.321 -29.474 -15.931  1.00  0.00     0.000 C 
BRANCH  18  19
ATOM     19  C   UNL     1    -103.580 -29.455 -15.047  1.00  0.00     0.000 C 
BRANCH  19  20
ATOM     20  C   UNL     1    -103.571 -30.553 -13.967  1.00  0.00     0.000 C 
BRANCH  20  21
ATOM     21  C   UNL     1    -104.263 -30.173 -12.645  1.00  0.00     0.000 C 
BRANCH  21  22
ATOM     22  C   UNL     1    -104.682 -28.696 -12.591  1.00  0.00    -0.000 C 
BRANCH  22  23
ATOM     23  C   UNL     1    -103.954 -27.956 -11.462  1.00  0.00    -0.000 C 
BRANCH  23  24
ATOM     24  C   UNL     1    -102.728 -27.207 -11.998  1.00  0.00    -0.000 C 
BRANCH  24  25
ATOM     25  C   UNL     1    -101.439 -27.995 -11.724  1.00  0.00    -0.000 C 
BRANCH  25  26
ATOM     26  C   UNL     1    -100.485 -28.015 -12.930  1.00  0.00    -0.000 C 
BRANCH  26  27
ATOM     27  C   UNL     1     -99.375 -29.082 -12.863  1.00  0.00    -0.000 C 
BRANCH  27  28
ATOM     28  C   UNL     1     -99.359 -30.041 -14.072  1.00  0.00    -0.000 C 
BRANCH  28  29
ATOM     29  C   UNL     1     -99.975 -31.410 -13.741  1.00  0.00    -0.003 C 
ATOM     30  C   UNL     1    -100.303 -31.524 -12.256  1.00  0.00     0.004 C 
ENDBRANCH  28  29
ENDBRANCH  27  28
ENDBRANCH  26  27
ENDBRANCH  25  26
ENDBRANCH  24  25
ENDBRANCH  23  24
ENDBRANCH  22  23
ENDBRANCH  21  22
ENDBRANCH  20  21
ENDBRANCH  19  20
ENDBRANCH  18  19
ENDBRANCH  17  18
ENDBRANCH   1  17
TORSDOF 26
ENDMDL
MODEL 4
REMARK VINA RESULT:    -2.724      2.687      5.795
REMARK INTER + INTRA:         -12.494
REMARK INTER:                  -6.372
REMARK INTRA:                  -6.122
REMARK UNBOUND:                -5.630
REMARK SMILES CCCCCCCCCCCCCCCCCCCCCCCCCCCC(=O)[O-]
REMARK SMILES IDX 15 1 16 2 17 3 18 4 19 5 20 6 21 7 22 8 23 9 24 10 25 11
REMARK SMILES IDX 26 12 27 13 28 14 29 15 30 16 14 17 13 18 12 19 11 20 10 21
REMARK SMILES IDX 9 22 8 23 7 24 6 25 5 26 4 27 3 28 2 29 1 30
REMARK H PARENT
REMARK Flexibility Score: inf
ROOT
ATOM      1  C   UNL     1    -102.150 -30.908 -11.091  1.00  0.00     0.000 C 
ENDROOT
BRANCH   1   2
ATOM      2  C   UNL     1    -101.457 -31.277 -12.411  1.00  0.00     0.000 C 
BRANCH   2   3
ATOM      3  C   UNL     1    -101.110 -32.773 -12.501  1.00  0.00     0.000 C 
BRANCH   3   4
ATOM      4  C   UNL     1    -100.951 -33.261 -13.954  1.00  0.00     0.000 C 
BRANCH   4   5
ATOM      5  C   UNL     1     -99.635 -32.846 -14.644  1.00  0.00     0.000 C 
BRANCH   5   6
ATOM      6  C   UNL     1     -98.356 -33.094 -13.821  1.00  0.00     0.000 C 
BRANCH   6   7
ATOM      7  C   UNL     1     -97.410 -31.885 -13.817  1.00  0.00     0.000 C 
BRANCH   7   8
ATOM      8  C   UNL     1     -98.174 -30.583 -14.080  1.00  0.00     0.000 C 
BRANCH   8   9
ATOM      9  C   UNL     1     -97.811 -29.516 -13.037  1.00  0.00     0.000 C 
BRANCH   9  10
ATOM     10  C   UNL     1     -96.601 -29.909 -12.170  1.00  0.00     0.000 C 
BRANCH  10  11
ATOM     11  C   UNL     1     -96.896 -30.044 -10.665  1.00  0.00     0.000 C 
BRANCH  11  12
ATOM     12  C   UNL     1     -98.399 -30.125 -10.354  1.00  0.00     0.006 C 
BRANCH  12  13
ATOM     13  C   UNL     1     -98.768 -31.495  -9.776  1.00  0.00     0.053 C 
BRANCH  13  14
ATOM     14  C   UNL     1     -99.335 -31.351  -8.398  1.00  0.00     0.041 C 
ATOM     15  O   UNL     1     -99.486 -32.365  -7.666  1.00  0.00    -0.550 OA
ATOM     16  O   UNL     1     -99.683 -30.095  -7.915  1.00  0.00    -0.550 OA
ENDBRANCH  13  14
ENDBRANCH  12  13
ENDBRANCH  11  12
ENDBRANCH  10  11
ENDBRANCH   9  10
ENDBRANCH   8   9
ENDBRANCH   7   8
ENDBRANCH   6   7
ENDBRANCH   5   6
ENDBRANCH   4   5
ENDBRANCH   3   4
ENDBRANCH   2   3
ENDBRANCH   1   2
BRANCH   1  17
ATOM     17  C   UNL     1    -101.961 -29.427 -10.718  1.00  0.00     0.000 C 
BRANCH  17  18
ATOM     18  C   UNL     1    -103.103 -28.538 -11.238  1.00  0.00     0.000 C 
BRANCH  18  19
ATOM     19  C   UNL     1    -102.650 -27.608 -12.377  1.00  0.00     0.000 C 
BRANCH  19  20
ATOM     20  C   UNL     1    -101.131 -27.660 -12.625  1.00  0.00     0.000 C 
BRANCH  20  21
ATOM     21  C   UNL     1    -100.713 -27.696 -14.106  1.00  0.00     0.000 C 
BRANCH  21  22
ATOM     22  C   UNL     1    -101.859 -27.328 -15.061  1.00  0.00    -0.000 C 
BRANCH  22  23
ATOM     23  C   UNL     1    -101.838 -28.210 -16.316  1.00  0.00    -0.000 C 
BRANCH  23  24
ATOM     24  C   UNL     1    -101.126 -29.539 -16.040  1.00  0.00    -0.000 C 
BRANCH  24  25
ATOM     25  C   UNL     1    -101.897 -30.714 -16.660  1.00  0.00    -0.000 C 
BRANCH  25  26
ATOM     26  C   UNL     1    -103.411 -30.635 -16.404  1.00  0.00    -0.000 C 
BRANCH  26  27
ATOM     27  C   UNL     1    -103.852 -31.042 -14.984  1.00  0.00    -0.000 C 
BRANCH  27  28
ATOM     28  C   UNL     1    -104.731 -29.987 -14.279  1.00  0.00    -0.000 C 
BRANCH  28  29
ATOM     29  C   UNL     1    -105.474 -29.084 -15.277  1.00  0.00    -0.003 C 
ATOM     30  C   UNL     1    -105.456 -27.627 -14.823  1.00  0.00     0.004 C 
ENDBRANCH  28  29
ENDBRANCH  27  28
ENDBRANCH  26  27
ENDBRANCH  25  26
ENDBRANCH  24  25
ENDBRANCH  23  24
ENDBRANCH  22  23
ENDBRANCH  21  22
ENDBRANCH  20  21
ENDBRANCH  19  20
ENDBRANCH  18  19
ENDBRANCH  17  18
ENDBRANCH   1  17
TORSDOF 26
ENDMDL
MODEL 5
REMARK VINA RESULT:    -2.716      1.672      4.539
REMARK INTER + INTRA:         -12.474
REMARK INTER:                  -8.048
REMARK INTRA:                  -4.426
REMARK UNBOUND:                -5.630
REMARK SMILES CCCCCCCCCCCCCCCCCCCCCCCCCCCC(=O)[O-]
REMARK SMILES IDX 15 1 16 2 17 3 18 4 19 5 20 6 21 7 22 8 23 9 24 10 25 11
REMARK SMILES IDX 26 12 27 13 28 14 29 15 30 16 14 17 13 18 12 19 11 20 10 21
REMARK SMILES IDX 9 22 8 23 7 24 6 25 5 26 4 27 3 28 2 29 1 30
REMARK H PARENT
REMARK Flexibility Score: inf
ROOT
ATOM      1  C   UNL     1    -103.819 -29.320 -15.084  1.00  0.00     0.000 C 
ENDROOT
BRANCH   1   2
ATOM      2  C   UNL     1    -102.482 -29.409 -15.837  1.00  0.00     0.000 C 
BRANCH   2   3
ATOM      3  C   UNL     1    -102.002 -28.043 -16.357  1.00  0.00     0.000 C 
BRANCH   3   4
ATOM      4  C   UNL     1    -102.543 -26.866 -15.523  1.00  0.00     0.000 C 
BRANCH   4   5
ATOM      5  C   UNL     1    -103.508 -25.922 -16.270  1.00  0.00     0.000 C 
BRANCH   5   6
ATOM      6  C   UNL     1    -104.247 -24.904 -15.382  1.00  0.00     0.000 C 
BRANCH   6   7
ATOM      7  C   UNL     1    -105.567 -25.453 -14.821  1.00  0.00     0.000 C 
BRANCH   7   8
ATOM      8  C   UNL     1    -105.936 -24.767 -13.501  1.00  0.00     0.000 C 
BRANCH   8   9
ATOM      9  C   UNL     1    -104.677 -24.447 -12.681  1.00  0.00     0.000 C 
BRANCH   9  10
ATOM     10  C   UNL     1    -104.650 -22.999 -12.160  1.00  0.00     0.000 C 
BRANCH  10  11
ATOM     11  C   UNL     1    -104.459 -22.860 -10.639  1.00  0.00     0.000 C 
BRANCH  11  12
ATOM     12  C   UNL     1    -104.141 -24.196  -9.950  1.00  0.00     0.006 C 
BRANCH  12  13
ATOM     13  C   UNL     1    -103.157 -23.998  -8.791  1.00  0.00     0.053 C 
BRANCH  13  14
ATOM     14  C   UNL     1    -103.188 -25.174  -7.866  1.00  0.00     0.041 C 
ATOM     15  O   UNL     1    -103.698 -26.263  -8.242  1.00  0.00    -0.550 OA
ATOM     16  O   UNL     1    -102.639 -25.073  -6.592  1.00  0.00    -0.550 OA
ENDBRANCH  13  14
ENDBRANCH  12  13
ENDBRANCH  11  12
ENDBRANCH  10  11
ENDBRANCH   9  10
ENDBRANCH   8   9
ENDBRANCH   7   8
ENDBRANCH   6   7
ENDBRANCH   5   6
ENDBRANCH   4   5
ENDBRANCH   3   4
ENDBRANCH   2   3
ENDBRANCH   1   2
BRANCH   1  17
ATOM     17  C   UNL     1    -103.830 -30.166 -13.799  1.00  0.00     0.000 C 
BRANCH  17  18
ATOM     18  C   UNL     1    -104.836 -29.644 -12.759  1.00  0.00     0.000 C 
BRANCH  18  19
ATOM     19  C   UNL     1    -104.693 -28.131 -12.516  1.00  0.00     0.000 C 
BRANCH  19  20
ATOM     20  C   UNL     1    -103.730 -27.797 -11.362  1.00  0.00     0.000 C 
BRANCH  20  21
ATOM     21  C   UNL     1    -102.359 -27.247 -11.795  1.00  0.00     0.000 C 
BRANCH  21  22
ATOM     22  C   UNL     1    -101.289 -28.341 -11.924  1.00  0.00    -0.000 C 
BRANCH  22  23
ATOM     23  C   UNL     1    -100.307 -28.024 -13.060  1.00  0.00    -0.000 C 
BRANCH  23  24
ATOM     24  C   UNL     1     -99.536 -29.278 -13.485  1.00  0.00    -0.000 C 
BRANCH  24  25
ATOM     25  C   UNL     1     -98.059 -29.180 -13.075  1.00  0.00    -0.000 C 
BRANCH  25  26
ATOM     26  C   UNL     1     -97.380 -30.555 -12.958  1.00  0.00    -0.000 C 
BRANCH  26  27
ATOM     27  C   UNL     1     -97.588 -31.270 -11.608  1.00  0.00    -0.000 C 
BRANCH  27  28
ATOM     28  C   UNL     1     -97.028 -30.491 -10.399  1.00  0.00    -0.000 C 
BRANCH  28  29
ATOM     29  C   UNL     1     -98.089 -30.261  -9.311  1.00  0.00    -0.003 C 
ATOM     30  C   UNL     1     -99.476 -30.674  -9.793  1.00  0.00     0.004 C 
ENDBRANCH  28  29
ENDBRANCH  27  28
ENDBRANCH  26  27
ENDBRANCH  25  26
ENDBRANCH  24  25
ENDBRANCH  23  24
ENDBRANCH  22  23
ENDBRANCH  21  22
ENDBRANCH  20  21
ENDBRANCH  19  20
ENDBRANCH  18  19
ENDBRANCH  17  18
ENDBRANCH   1  17
TORSDOF 26
ENDMDL
MODEL 6
REMARK VINA RESULT:    -2.701      2.658      6.777
REMARK INTER + INTRA:         -12.436
REMARK INTER:                  -6.809
REMARK INTRA:                  -5.627
REMARK UNBOUND:                -5.630
REMARK SMILES CCCCCCCCCCCCCCCCCCCCCCCCCCCC(=O)[O-]
REMARK SMILES IDX 15 1 16 2 17 3 18 4 19 5 20 6 21 7 22 8 23 9 24 10 25 11
REMARK SMILES IDX 26 12 27 13 28 14 29 15 30 16 14 17 13 18 12 19 11 20 10 21
REMARK SMILES IDX 9 22 8 23 7 24 6 25 5 26 4 27 3 28 2 29 1 30
REMARK H PARENT
REMARK Flexibility Score: inf
ROOT
ATOM      1  C   UNL     1    -101.974 -27.272 -15.400  1.00  0.00     0.000 C 
ENDROOT
BRANCH   1   2
ATOM      2  C   UNL     1    -102.076 -28.411 -16.427  1.00  0.00     0.000 C 
BRANCH   2   3
ATOM      3  C   UNL     1    -101.073 -29.545 -16.157  1.00  0.00     0.000 C 
BRANCH   3   4
ATOM      4  C   UNL     1    -101.752 -30.922 -16.030  1.00  0.00     0.000 C 
BRANCH   4   5
ATOM      5  C   UNL     1    -102.789 -31.040 -14.894  1.00  0.00     0.000 C 
BRANCH   5   6
ATOM      6  C   UNL     1    -102.207 -31.388 -13.510  1.00  0.00     0.000 C 
BRANCH   6   7
ATOM      7  C   UNL     1    -100.825 -32.053 -13.598  1.00  0.00     0.000 C 
BRANCH   7   8
ATOM      8  C   UNL     1     -99.781 -31.266 -12.797  1.00  0.00     0.000 C 
BRANCH   8   9
ATOM      9  C   UNL     1     -98.705 -30.685 -13.726  1.00  0.00     0.000 C 
BRANCH   9  10
ATOM     10  C   UNL     1     -97.886 -29.560 -13.068  1.00  0.00     0.000 C 
BRANCH  10  11
ATOM     11  C   UNL     1     -96.433 -29.931 -12.723  1.00  0.00     0.000 C 
BRANCH  11  12
ATOM     12  C   UNL     1     -96.148 -29.903 -11.214  1.00  0.00     0.006 C 
BRANCH  12  13
ATOM     13  C   UNL     1     -96.384 -31.279 -10.582  1.00  0.00     0.053 C 
BRANCH  13  14
ATOM     14  C   UNL     1     -97.604 -31.260  -9.715  1.00  0.00     0.041 C 
ATOM     15  O   UNL     1     -97.975 -32.307  -9.121  1.00  0.00    -0.550 OA
ATOM     16  O   UNL     1     -98.325 -30.083  -9.551  1.00  0.00    -0.550 OA
ENDBRANCH  13  14
ENDBRANCH  12  13
ENDBRANCH  11  12
ENDBRANCH  10  11
ENDBRANCH   9  10
ENDBRANCH   8   9
ENDBRANCH   7   8
ENDBRANCH   6   7
ENDBRANCH   5   6
ENDBRANCH   4   5
ENDBRANCH   3   4
ENDBRANCH   2   3
ENDBRANCH   1   2
BRANCH   1  17
ATOM     17  C   UNL     1    -101.209 -27.687 -14.131  1.00  0.00     0.000 C 
BRANCH  17  18
ATOM     18  C   UNL     1    -102.049 -27.514 -12.855  1.00  0.00     0.000 C 
BRANCH  18  19
ATOM     19  C   UNL     1    -101.442 -28.255 -11.650  1.00  0.00     0.000 C 
BRANCH  19  20
ATOM     20  C   UNL     1    -102.470 -28.535 -10.538  1.00  0.00     0.000 C 
BRANCH  20  21
ATOM     21  C   UNL     1    -103.693 -29.364 -10.975  1.00  0.00     0.000 C 
BRANCH  21  22
ATOM     22  C   UNL     1    -105.028 -28.704 -10.599  1.00  0.00    -0.000 C 
BRANCH  22  23
ATOM     23  C   UNL     1    -105.810 -28.287 -11.851  1.00  0.00    -0.000 C 
BRANCH  23  24
ATOM     24  C   UNL     1    -105.338 -29.073 -13.080  1.00  0.00    -0.000 C 
BRANCH  24  25
ATOM     25  C   UNL     1    -105.354 -28.190 -14.337  1.00  0.00    -0.000 C 
BRANCH  25  26
ATOM     26  C   UNL     1    -105.782 -26.743 -14.043  1.00  0.00    -0.000 C 
BRANCH  26  27
ATOM     27  C   UNL     1    -104.831 -25.660 -14.590  1.00  0.00    -0.000 C 
BRANCH  27  28
ATOM     28  C   UNL     1    -104.629 -24.467 -13.631  1.00  0.00    -0.000 C 
BRANCH  28  29
ATOM     29  C   UNL     1    -105.246 -24.720 -12.246  1.00  0.00    -0.003 C 
ATOM     30  C   UNL     1    -104.172 -25.054 -11.215  1.00  0.00     0.004 C 
ENDBRANCH  28  29
ENDBRANCH  27  28
ENDBRANCH  26  27
ENDBRANCH  25  26
ENDBRANCH  24  25
ENDBRANCH  23  24
ENDBRANCH  22  23
ENDBRANCH  21  22
ENDBRANCH  20  21
ENDBRANCH  19  20
ENDBRANCH  18  19
ENDBRANCH  17  18
ENDBRANCH   1  17
TORSDOF 26
ENDMDL
MODEL 7
REMARK VINA RESULT:    -2.690      1.624      3.920
REMARK INTER + INTRA:         -12.409
REMARK INTER:                  -7.175
REMARK INTRA:                  -5.235
REMARK UNBOUND:                -5.630
REMARK SMILES CCCCCCCCCCCCCCCCCCCCCCCCCCCC(=O)[O-]
REMARK SMILES IDX 15 1 16 2 17 3 18 4 19 5 20 6 21 7 22 8 23 9 24 10 25 11
REMARK SMILES IDX 26 12 27 13 28 14 29 15 30 16 14 17 13 18 12 19 11 20 10 21
REMARK SMILES IDX 9 22 8 23 7 24 6 25 5 26 4 27 3 28 2 29 1 30
REMARK H PARENT
REMARK Flexibility Score: inf
ROOT
ATOM      1  C   UNL     1    -104.728 -28.104 -11.540  1.00  0.00     0.000 C 
ENDROOT
BRANCH   1   2
ATOM      2  C   UNL     1    -105.498 -29.352 -12.000  1.00  0.00     0.000 C 
BRANCH   2   3
ATOM      3  C   UNL     1    -104.624 -30.320 -12.816  1.00  0.00     0.000 C 
BRANCH   3   4
ATOM      4  C   UNL     1    -104.724 -30.076 -14.334  1.00  0.00     0.000 C 
BRANCH   4   5
ATOM      5  C   UNL     1    -105.759 -29.015 -14.761  1.00  0.00     0.000 C 
BRANCH   5   6
ATOM      6  C   UNL     1    -105.487 -28.344 -16.121  1.00  0.00     0.000 C 
BRANCH   6   7
ATOM      7  C   UNL     1    -106.187 -26.984 -16.262  1.00  0.00     0.000 C 
BRANCH   7   8
ATOM      8  C   UNL     1    -105.361 -26.023 -17.125  1.00  0.00     0.000 C 
BRANCH   8   9
ATOM      9  C   UNL     1    -104.183 -25.446 -16.326  1.00  0.00     0.000 C 
BRANCH   9  10
ATOM     10  C   UNL     1    -104.628 -24.502 -15.194  1.00  0.00     0.000 C 
BRANCH  10  11
ATOM     11  C   UNL     1    -104.318 -25.002 -13.772  1.00  0.00     0.000 C 
BRANCH  11  12
ATOM     12  C   UNL     1    -105.338 -24.517 -12.730  1.00  0.00     0.006 C 
BRANCH  12  13
ATOM     13  C   UNL     1    -104.652 -24.184 -11.401  1.00  0.00     0.053 C 
BRANCH  13  14
ATOM     14  C   UNL     1    -104.450 -22.707 -11.266  1.00  0.00     0.041 C 
ATOM     15  O   UNL     1    -103.685 -22.251 -10.376  1.00  0.00    -0.550 OA
ATOM     16  O   UNL     1    -105.097 -21.833 -12.133  1.00  0.00    -0.550 OA
ENDBRANCH  13  14
ENDBRANCH  12  13
ENDBRANCH  11  12
ENDBRANCH  10  11
ENDBRANCH   9  10
ENDBRANCH   8   9
ENDBRANCH   7   8
ENDBRANCH   6   7
ENDBRANCH   5   6
ENDBRANCH   4   5
ENDBRANCH   3   4
ENDBRANCH   2   3
ENDBRANCH   1   2
BRANCH   1  17
ATOM     17  C   UNL     1    -103.274 -28.417 -11.146  1.00  0.00     0.000 C 
BRANCH  17  18
ATOM     18  C   UNL     1    -102.281 -27.373 -11.684  1.00  0.00     0.000 C 
BRANCH  18  19
ATOM     19  C   UNL     1    -101.017 -28.020 -12.279  1.00  0.00     0.000 C 
BRANCH  19  20
ATOM     20  C   UNL     1    -100.824 -27.695 -13.772  1.00  0.00     0.000 C 
BRANCH  20  21
ATOM     21  C   UNL     1    -102.101 -27.779 -14.628  1.00  0.00     0.000 C 
BRANCH  21  22
ATOM     22  C   UNL     1    -101.822 -28.199 -16.079  1.00  0.00    -0.000 C 
BRANCH  22  23
ATOM     23  C   UNL     1    -100.891 -29.417 -16.133  1.00  0.00    -0.000 C 
BRANCH  23  24
ATOM     24  C   UNL     1    -101.695 -30.723 -16.138  1.00  0.00    -0.000 C 
BRANCH  24  25
ATOM     25  C   UNL     1    -101.016 -31.790 -15.267  1.00  0.00    -0.000 C 
BRANCH  25  26
ATOM     26  C   UNL     1    -100.873 -31.357 -13.798  1.00  0.00    -0.000 C 
BRANCH  26  27
ATOM     27  C   UNL     1     -99.462 -31.534 -13.203  1.00  0.00    -0.000 C 
BRANCH  27  28
ATOM     28  C   UNL     1     -98.377 -30.698 -13.913  1.00  0.00    -0.000 C 
BRANCH  28  29
ATOM     29  C   UNL     1     -97.726 -29.668 -12.976  1.00  0.00    -0.003 C 
ATOM     30  C   UNL     1     -97.977 -30.015 -11.512  1.00  0.00     0.004 C 
ENDBRANCH  28  29
ENDBRANCH  27  28
ENDBRANCH  26  27
ENDBRANCH  25  26
ENDBRANCH  24  25
ENDBRANCH  23  24
ENDBRANCH  22  23
ENDBRANCH  21  22
ENDBRANCH  20  21
ENDBRANCH  19  20
ENDBRANCH  18  19
ENDBRANCH  17  18
ENDBRANCH   1  17
TORSDOF 26
ENDMDL
MODEL 8
REMARK VINA RESULT:    -2.689      2.189      5.577
REMARK INTER + INTRA:         -12.406
REMARK INTER:                  -7.533
REMARK INTRA:                  -4.873
REMARK UNBOUND:                -5.630
REMARK SMILES CCCCCCCCCCCCCCCCCCCCCCCCCCCC(=O)[O-]
REMARK SMILES IDX 15 1 16 2 17 3 18 4 19 5 20 6 21 7 22 8 23 9 24 10 25 11
REMARK SMILES IDX 26 12 27 13 28 14 29 15 30 16 14 17 13 18 12 19 11 20 10 21
REMARK SMILES IDX 9 22 8 23 7 24 6 25 5 26 4 27 3 28 2 29 1 30
REMARK H PARENT
REMARK Flexibility Score: inf
ROOT
ATOM      1  C   UNL     1    -104.229 -24.762 -14.863  1.00  0.00     0.000 C 
ENDROOT
BRANCH   1   2
ATOM      2  C   UNL     1    -104.991 -24.435 -13.568  1.00  0.00     0.000 C 
BRANCH   2   3
ATOM      3  C   UNL     1    -105.315 -22.937 -13.433  1.00  0.00     0.000 C 
BRANCH   3   4
ATOM      4  C   UNL     1    -105.329 -22.462 -11.968  1.00  0.00     0.000 C 
BRANCH   4   5
ATOM      5  C   UNL     1    -104.401 -21.270 -11.655  1.00  0.00     0.000 C 
BRANCH   5   6
ATOM      6  C   UNL     1    -103.494 -21.450 -10.423  1.00  0.00     0.000 C 
BRANCH   6   7
ATOM      7  C   UNL     1    -104.076 -22.433  -9.397  1.00  0.00     0.000 C 
BRANCH   7   8
ATOM      8  C   UNL     1    -102.971 -23.052  -8.534  1.00  0.00     0.000 C 
BRANCH   8   9
ATOM      9  C   UNL     1    -103.078 -24.584  -8.525  1.00  0.00     0.000 C 
BRANCH   9  10
ATOM     10  C   UNL     1    -103.353 -25.176  -9.919  1.00  0.00     0.000 C 
BRANCH  10  11
ATOM     11  C   UNL     1    -104.476 -26.228  -9.968  1.00  0.00     0.000 C 
BRANCH  11  12
ATOM     12  C   UNL     1    -105.875 -25.606 -10.098  1.00  0.00     0.006 C 
BRANCH  12  13
ATOM     13  C   UNL     1    -106.818 -26.527 -10.879  1.00  0.00     0.053 C 
BRANCH  13  14
ATOM     14  C   UNL     1    -106.995 -27.830 -10.164  1.00  0.00     0.041 C 
ATOM     15  O   UNL     1    -107.538 -27.862  -9.028  1.00  0.00    -0.550 OA
ATOM     16  O   UNL     1    -106.573 -29.015 -10.759  1.00  0.00    -0.550 OA
ENDBRANCH  13  14
ENDBRANCH  12  13
ENDBRANCH  11  12
ENDBRANCH  10  11
ENDBRANCH   9  10
ENDBRANCH   8   9
ENDBRANCH   7   8
ENDBRANCH   6   7
ENDBRANCH   5   6
ENDBRANCH   4   5
ENDBRANCH   3   4
ENDBRANCH   2   3
ENDBRANCH   1   2
BRANCH   1  17
ATOM     17  C   UNL     1    -105.025 -25.690 -15.798  1.00  0.00     0.000 C 
BRANCH  17  18
ATOM     18  C   UNL     1    -104.112 -26.572 -16.667  1.00  0.00     0.000 C 
BRANCH  18  19
ATOM     19  C   UNL     1    -102.742 -26.821 -16.012  1.00  0.00     0.000 C 
BRANCH  19  20
ATOM     20  C   UNL     1    -101.985 -28.007 -16.636  1.00  0.00     0.000 C 
BRANCH  20  21
ATOM     21  C   UNL     1    -102.431 -29.397 -16.144  1.00  0.00     0.000 C 
BRANCH  21  22
ATOM     22  C   UNL     1    -101.258 -30.371 -15.961  1.00  0.00    -0.000 C 
BRANCH  22  23
ATOM     23  C   UNL     1    -101.473 -31.271 -14.737  1.00  0.00    -0.000 C 
BRANCH  23  24
ATOM     24  C   UNL     1    -100.233 -31.278 -13.837  1.00  0.00    -0.000 C 
BRANCH  24  25
ATOM     25  C   UNL     1     -99.373 -30.028 -14.075  1.00  0.00    -0.000 C 
BRANCH  25  26
ATOM     26  C   UNL     1     -99.524 -28.980 -12.960  1.00  0.00    -0.000 C 
BRANCH  26  27
ATOM     27  C   UNL     1    -100.453 -27.797 -13.301  1.00  0.00    -0.000 C 
BRANCH  27  28
ATOM     28  C   UNL     1    -101.617 -27.613 -12.304  1.00  0.00    -0.000 C 
BRANCH  28  29
ATOM     29  C   UNL     1    -102.674 -28.722 -12.428  1.00  0.00    -0.003 C 
ATOM     30  C   UNL     1    -103.982 -28.179 -12.996  1.00  0.00     0.004 C 
ENDBRANCH  28  29
ENDBRANCH  27  28
ENDBRANCH  26  27
ENDBRANCH  25  26
ENDBRANCH  24  25
ENDBRANCH  23  24
ENDBRANCH  22  23
ENDBRANCH  21  22
ENDBRANCH  20  21
ENDBRANCH  19  20
ENDBRANCH  18  19
ENDBRANCH  17  18
ENDBRANCH   1  17
TORSDOF 26
ENDMDL
MODEL 9
REMARK VINA RESULT:    -2.648      2.835      7.984
REMARK INTER + INTRA:         -12.304
REMARK INTER:                  -7.742
REMARK INTRA:                  -4.562
REMARK UNBOUND:                -5.630
REMARK SMILES CCCCCCCCCCCCCCCCCCCCCCCCCCCC(=O)[O-]
REMARK SMILES IDX 15 1 16 2 17 3 18 4 19 5 20 6 21 7 22 8 23 9 24 10 25 11
REMARK SMILES IDX 26 12 27 13 28 14 29 15 30 16 14 17 13 18 12 19 11 20 10 21
REMARK SMILES IDX 9 22 8 23 7 24 6 25 5 26 4 27 3 28 2 29 1 30
REMARK H PARENT
REMARK Flexibility Score: inf
ROOT
ATOM      1  C   UNL     1    -102.748 -26.682 -16.169  1.00  0.00     0.000 C 
ENDROOT
BRANCH   1   2
ATOM      2  C   UNL     1    -102.056 -28.037 -16.385  1.00  0.00     0.000 C 
BRANCH   2   3
ATOM      3  C   UNL     1    -102.895 -29.220 -15.874  1.00  0.00     0.000 C 
BRANCH   3   4
ATOM      4  C   UNL     1    -102.045 -30.472 -15.587  1.00  0.00     0.000 C 
BRANCH   4   5
ATOM      5  C   UNL     1    -100.557 -30.358 -15.977  1.00  0.00     0.000 C 
BRANCH   5   6
ATOM      6  C   UNL     1     -99.574 -30.268 -14.794  1.00  0.00     0.000 C 
BRANCH   6   7
ATOM      7  C   UNL     1    -100.193 -30.742 -13.472  1.00  0.00     0.000 C 
BRANCH   7   8
ATOM      8  C   UNL     1     -99.981 -29.708 -12.359  1.00  0.00     0.000 C 
BRANCH   8   9
ATOM      9  C   UNL     1    -100.473 -28.322 -12.800  1.00  0.00     0.000 C 
BRANCH   9  10
ATOM     10  C   UNL     1    -101.630 -27.790 -11.936  1.00  0.00     0.000 C 
BRANCH  10  11
ATOM     11  C   UNL     1    -102.862 -27.312 -12.724  1.00  0.00     0.000 C 
BRANCH  11  12
ATOM     12  C   UNL     1    -104.107 -28.178 -12.473  1.00  0.00     0.006 C 
BRANCH  12  13
ATOM     13  C   UNL     1    -103.721 -29.540 -11.884  1.00  0.00     0.053 C 
BRANCH  13  14
ATOM     14  C   UNL     1    -104.471 -30.641 -12.566  1.00  0.00     0.041 C 
ATOM     15  O   UNL     1    -103.882 -31.711 -12.878  1.00  0.00    -0.550 OA
ATOM     16  O   UNL     1    -105.825 -30.494 -12.845  1.00  0.00    -0.550 OA
ENDBRANCH  13  14
ENDBRANCH  12  13
ENDBRANCH  11  12
ENDBRANCH  10  11
ENDBRANCH   9  10
ENDBRANCH   8   9
ENDBRANCH   7   8
ENDBRANCH   6   7
ENDBRANCH   5   6
ENDBRANCH   4   5
ENDBRANCH   3   4
ENDBRANCH   2   3
ENDBRANCH   1   2
BRANCH   1  17
ATOM     17  C   UNL     1    -104.084 -26.573 -16.925  1.00  0.00     0.000 C 
BRANCH  17  18
ATOM     18  C   UNL     1    -104.922 -25.367 -16.468  1.00  0.00     0.000 C 
BRANCH  18  19
ATOM     19  C   UNL     1    -104.320 -24.670 -15.234  1.00  0.00     0.000 C 
BRANCH  19  20
ATOM     20  C   UNL     1    -105.170 -24.859 -13.964  1.00  0.00     0.000 C 
BRANCH  20  21
ATOM     21  C   UNL     1    -104.777 -23.962 -12.776  1.00  0.00     0.000 C 
BRANCH  21  22
ATOM     22  C   UNL     1    -105.991 -23.370 -12.046  1.00  0.00    -0.000 C 
BRANCH  22  23
ATOM     23  C   UNL     1    -105.722 -21.925 -11.606  1.00  0.00    -0.000 C 
BRANCH  23  24
ATOM     24  C   UNL     1    -104.235 -21.578 -11.744  1.00  0.00    -0.000 C 
BRANCH  24  25
ATOM     25  C   UNL     1    -103.607 -21.295 -10.371  1.00  0.00    -0.000 C 
BRANCH  25  26
ATOM     26  C   UNL     1    -104.608 -21.449  -9.214  1.00  0.00    -0.000 C 
BRANCH  26  27
ATOM     27  C   UNL     1    -104.213 -22.489  -8.148  1.00  0.00    -0.000 C 
BRANCH  27  28
ATOM     28  C   UNL     1    -102.926 -23.270  -8.485  1.00  0.00    -0.000 C 
BRANCH  28  29
ATOM     29  C   UNL     1    -103.118 -24.791  -8.375  1.00  0.00    -0.003 C 
ATOM     30  C   UNL     1    -103.696 -25.371  -9.663  1.00  0.00     0.004 C 
ENDBRANCH  28  29
ENDBRANCH  27  28
ENDBRANCH  26  27
ENDBRANCH  25  26
ENDBRANCH  24  25
ENDBRANCH  23  24
ENDBRANCH  22  23
ENDBRANCH  21  22
ENDBRANCH  20  21
ENDBRANCH  19  20
ENDBRANCH  18  19
ENDBRANCH  17  18
ENDBRANCH   1  17
TORSDOF 26
ENDMDL
