MODEL 1
REMARK VINA RESULT:    -4.111      0.000      0.000
REMARK INTER + INTRA:          -6.873
REMARK INTER:                  -6.514
REMARK INTRA:                  -0.359
REMARK UNBOUND:                -0.359
REMARK SMILES CCCCCCCCCCCC(=O)[O-]
REMARK SMILES IDX 7 1 8 2 9 3 10 4 11 5 12 6 13 7 14 8 6 9 5 10 4 11 3 12 2 13
REMARK SMILES IDX 1 14
REMARK H PARENT
REMARK Flexibility Score: inf
ROOT
ATOM      1  C   UNL     1      42.549  11.914 -34.767  1.00  0.00     0.000 C 
ENDROOT
BRANCH   1   2
ATOM      2  C   UNL     1      42.101  12.360 -36.171  1.00  0.00     0.000 C 
BRANCH   2   3
ATOM      3  C   UNL     1      41.789  13.864 -36.250  1.00  0.00     0.000 C 
BRANCH   3   4
ATOM      4  C   UNL     1      40.407  14.210 -35.671  1.00  0.00     0.006 C 
BRANCH   4   5
ATOM      5  C   UNL     1      39.257  13.575 -36.464  1.00  0.00     0.053 C 
BRANCH   5   6
ATOM      6  C   UNL     1      37.944  13.889 -35.821  1.00  0.00     0.041 C 
ATOM      7  O   UNL     1      36.920  13.212 -36.104  1.00  0.00    -0.550 OA
ATOM      8  O   UNL     1      37.837  14.964 -34.947  1.00  0.00    -0.550 OA
ENDBRANCH   5   6
ENDBRANCH   4   5
ENDBRANCH   3   4
ENDBRANCH   2   3
ENDBRANCH   1   2
BRANCH   1   9
ATOM      9  C   UNL     1      44.039  12.145 -34.452  1.00  0.00     0.000 C 
BRANCH   9  10
ATOM     10  C   UNL     1      44.306  12.388 -32.959  1.00  0.00    -0.000 C 
BRANCH  10  11
ATOM     11  C   UNL     1      45.779  12.755 -32.718  1.00  0.00    -0.000 C 
BRANCH  11  12
ATOM     12  C   UNL     1      46.459  11.848 -31.676  1.00  0.00    -0.000 C 
BRANCH  12  13
ATOM     13  C   UNL     1      45.974  12.048 -30.229  1.00  0.00    -0.003 C 
ATOM     14  C   UNL     1      46.516  10.993 -29.266  1.00  0.00     0.004 C 
ENDBRANCH  12  13
ENDBRANCH  11  12
ENDBRANCH  10  11
ENDBRANCH   9  10
ENDBRANCH   1   9
TORSDOF 10
ENDMDL
MODEL 2
REMARK VINA RESULT:    -3.746      4.240      7.964
REMARK INTER + INTRA:          -6.295
REMARK INTER:                  -5.999
REMARK INTRA:                  -0.296
REMARK UNBOUND:                -0.359
REMARK SMILES CCCCCCCCCCCC(=O)[O-]
REMARK SMILES IDX 7 1 8 2 9 3 10 4 11 5 12 6 13 7 14 8 6 9 5 10 4 11 3 12 2 13
REMARK SMILES IDX 1 14
REMARK H PARENT
REMARK Flexibility Score: inf
ROOT
ATOM      1  C   UNL     1      42.916  11.934 -34.983  1.00  0.00     0.000 C 
ENDROOT
BRANCH   1   2
ATOM      2  C   UNL     1      44.300  12.354 -34.455  1.00  0.00     0.000 C 
BRANCH   2   3
ATOM      3  C   UNL     1      44.376  12.375 -32.919  1.00  0.00     0.000 C 
BRANCH   3   4
ATOM      4  C   UNL     1      45.706  12.946 -32.402  1.00  0.00     0.006 C 
BRANCH   4   5
ATOM      5  C   UNL     1      45.797  12.938 -30.870  1.00  0.00     0.053 C 
BRANCH   5   6
ATOM      6  C   UNL     1      46.349  11.634 -30.387  1.00  0.00     0.041 C 
ATOM      7  O   UNL     1      46.967  10.875 -31.179  1.00  0.00    -0.550 OA
ATOM      8  O   UNL     1      46.137  11.233 -29.074  1.00  0.00    -0.550 OA
ENDBRANCH   5   6
ENDBRANCH   4   5
ENDBRANCH   3   4
ENDBRANCH   2   3
ENDBRANCH   1   2
BRANCH   1   9
ATOM      9  C   UNL     1      42.496  12.589 -36.312  1.00  0.00     0.000 C 
BRANCH   9  10
ATOM     10  C   UNL     1      41.534  13.770 -36.121  1.00  0.00    -0.000 C 
BRANCH  10  11
ATOM     11  C   UNL     1      40.072  13.295 -36.132  1.00  0.00    -0.000 C 
BRANCH  11  12
ATOM     12  C   UNL     1      39.112  14.295 -35.463  1.00  0.00    -0.000 C 
BRANCH  12  13
ATOM     13  C   UNL     1      37.627  13.892 -35.505  1.00  0.00    -0.003 C 
ATOM     14  C   UNL     1      37.253  13.117 -36.767  1.00  0.00     0.004 C 
ENDBRANCH  12  13
ENDBRANCH  11  12
ENDBRANCH  10  11
ENDBRANCH   9  10
ENDBRANCH   1   9
TORSDOF 10
ENDMDL
MODEL 3
REMARK VINA RESULT:    -3.745     19.969     21.965
REMARK INTER + INTRA:          -6.294
REMARK INTER:                  -5.537
REMARK INTRA:                  -0.756
REMARK UNBOUND:                -0.359
REMARK SMILES CCCCCCCCCCCC(=O)[O-]
REMARK SMILES IDX 7 1 8 2 9 3 10 4 11 5 12 6 13 7 14 8 6 9 5 10 4 11 3 12 2 13
REMARK SMILES IDX 1 14
REMARK H PARENT
REMARK Flexibility Score: inf
ROOT
ATOM      1  C   UNL     1      55.800  27.525 -35.461  1.00  0.00     0.000 C 
ENDROOT
BRANCH   1   2
ATOM      2  C   UNL     1      55.841  26.641 -34.201  1.00  0.00     0.000 C 
BRANCH   2   3
ATOM      3  C   UNL     1      56.935  27.065 -33.206  1.00  0.00     0.000 C 
BRANCH   3   4
ATOM      4  C   UNL     1      56.358  27.711 -31.936  1.00  0.00     0.006 C 
BRANCH   4   5
ATOM      5  C   UNL     1      57.102  28.991 -31.533  1.00  0.00     0.053 C 
BRANCH   5   6
ATOM      6  C   UNL     1      56.186  29.916 -30.795  1.00  0.00     0.041 C 
ATOM      7  O   UNL     1      55.131  30.333 -31.342  1.00  0.00    -0.550 OA
ATOM      8  O   UNL     1      56.523  30.359 -29.522  1.00  0.00    -0.550 OA
ENDBRANCH   5   6
ENDBRANCH   4   5
ENDBRANCH   3   4
ENDBRANCH   2   3
ENDBRANCH   1   2
BRANCH   1   9
ATOM      9  C   UNL     1      56.239  28.985 -35.249  1.00  0.00     0.000 C 
BRANCH   9  10
ATOM     10  C   UNL     1      56.491  29.734 -36.566  1.00  0.00    -0.000 C 
BRANCH  10  11
ATOM     11  C   UNL     1      55.286  30.614 -36.935  1.00  0.00    -0.000 C 
BRANCH  11  12
ATOM     12  C   UNL     1      54.344  29.945 -37.953  1.00  0.00    -0.000 C 
BRANCH  12  13
ATOM     13  C   UNL     1      55.001  28.862 -38.827  1.00  0.00    -0.003 C 
ATOM     14  C   UNL     1      54.177  27.577 -38.907  1.00  0.00     0.004 C 
ENDBRANCH  12  13
ENDBRANCH  11  12
ENDBRANCH  10  11
ENDBRANCH   9  10
ENDBRANCH   1   9
TORSDOF 10
ENDMDL
MODEL 4
REMARK VINA RESULT:    -3.357     19.664     21.486
REMARK INTER + INTRA:          -5.679
REMARK INTER:                  -4.805
REMARK INTRA:                  -0.874
REMARK UNBOUND:                -0.359
REMARK SMILES CCCCCCCCCCCC(=O)[O-]
REMARK SMILES IDX 7 1 8 2 9 3 10 4 11 5 12 6 13 7 14 8 6 9 5 10 4 11 3 12 2 13
REMARK SMILES IDX 1 14
REMARK H PARENT
REMARK Flexibility Score: inf
ROOT
ATOM      1  C   UNL     1      55.613  26.001 -35.442  1.00  0.00     0.000 C 
ENDROOT
BRANCH   1   2
ATOM      2  C   UNL     1      56.628  26.468 -34.382  1.00  0.00     0.000 C 
BRANCH   2   3
ATOM      3  C   UNL     1      57.125  27.904 -34.619  1.00  0.00     0.000 C 
BRANCH   3   4
ATOM      4  C   UNL     1      56.750  28.855 -33.471  1.00  0.00     0.006 C 
BRANCH   4   5
ATOM      5  C   UNL     1      56.389  28.110 -32.179  1.00  0.00     0.053 C 
BRANCH   5   6
ATOM      6  C   UNL     1      55.978  29.079 -31.116  1.00  0.00     0.041 C 
ATOM      7  O   UNL     1      55.427  30.167 -31.428  1.00  0.00    -0.550 OA
ATOM      8  O   UNL     1      56.251  28.803 -29.782  1.00  0.00    -0.550 OA
ENDBRANCH   5   6
ENDBRANCH   4   5
ENDBRANCH   3   4
ENDBRANCH   2   3
ENDBRANCH   1   2
BRANCH   1   9
ATOM      9  C   UNL     1      54.983  27.126 -36.283  1.00  0.00     0.000 C 
BRANCH   9  10
ATOM     10  C   UNL     1      54.865  26.767 -37.772  1.00  0.00    -0.000 C 
BRANCH  10  11
ATOM     11  C   UNL     1      54.359  27.968 -38.587  1.00  0.00    -0.000 C 
BRANCH  11  12
ATOM     12  C   UNL     1      55.261  29.209 -38.448  1.00  0.00    -0.000 C 
BRANCH  12  13
ATOM     13  C   UNL     1      54.601  30.412 -37.750  1.00  0.00    -0.003 C 
ATOM     14  C   UNL     1      55.374  30.887 -36.521  1.00  0.00     0.004 C 
ENDBRANCH  12  13
ENDBRANCH  11  12
ENDBRANCH  10  11
ENDBRANCH   9  10
ENDBRANCH   1   9
TORSDOF 10
ENDMDL
MODEL 5
REMARK VINA RESULT:    -3.331     20.264     21.692
REMARK INTER + INTRA:          -5.638
REMARK INTER:                  -5.053
REMARK INTRA:                  -0.585
REMARK UNBOUND:                -0.359
REMARK SMILES CCCCCCCCCCCC(=O)[O-]
REMARK SMILES IDX 7 1 8 2 9 3 10 4 11 5 12 6 13 7 14 8 6 9 5 10 4 11 3 12 2 13
REMARK SMILES IDX 1 14
REMARK H PARENT
REMARK Flexibility Score: inf
ROOT
ATOM      1  C   UNL     1      56.342  28.306 -32.452  1.00  0.00     0.000 C 
ENDROOT
BRANCH   1   2
ATOM      2  C   UNL     1      56.364  27.204 -33.528  1.00  0.00     0.000 C 
BRANCH   2   3
ATOM      3  C   UNL     1      56.820  27.720 -34.904  1.00  0.00     0.000 C 
BRANCH   3   4
ATOM      4  C   UNL     1      55.649  27.899 -35.884  1.00  0.00     0.006 C 
BRANCH   4   5
ATOM      5  C   UNL     1      55.773  29.177 -36.726  1.00  0.00     0.053 C 
BRANCH   5   6
ATOM      6  C   UNL     1      55.083  29.003 -38.042  1.00  0.00     0.041 C 
ATOM      7  O   UNL     1      55.097  29.932 -38.892  1.00  0.00    -0.550 OA
ATOM      8  O   UNL     1      54.381  27.835 -38.310  1.00  0.00    -0.550 OA
ENDBRANCH   5   6
ENDBRANCH   4   5
ENDBRANCH   3   4
ENDBRANCH   2   3
ENDBRANCH   1   2
BRANCH   1   9
ATOM      9  C   UNL     1      56.149  29.737 -32.985  1.00  0.00     0.000 C 
BRANCH   9  10
ATOM     10  C   UNL     1      55.829  30.752 -31.878  1.00  0.00    -0.000 C 
BRANCH  10  11
ATOM     11  C   UNL     1      57.016  30.906 -30.915  1.00  0.00    -0.000 C 
BRANCH  11  12
ATOM     12  C   UNL     1      56.579  31.125 -29.455  1.00  0.00    -0.000 C 
BRANCH  12  13
ATOM     13  C   UNL     1      57.111  30.081 -28.457  1.00  0.00    -0.003 C 
ATOM     14  C   UNL     1      56.990  28.647 -28.971  1.00  0.00     0.004 C 
ENDBRANCH  12  13
ENDBRANCH  11  12
ENDBRANCH  10  11
ENDBRANCH   9  10
ENDBRANCH   1   9
TORSDOF 10
ENDMDL
MODEL 6
REMARK VINA RESULT:    -3.182      3.764      7.446
REMARK INTER + INTRA:          -5.401
REMARK INTER:                  -4.891
REMARK INTRA:                  -0.511
REMARK UNBOUND:                -0.359
REMARK SMILES CCCCCCCCCCCC(=O)[O-]
REMARK SMILES IDX 7 1 8 2 9 3 10 4 11 5 12 6 13 7 14 8 6 9 5 10 4 11 3 12 2 13
REMARK SMILES IDX 1 14
REMARK H PARENT
REMARK Flexibility Score: inf
ROOT
ATOM      1  C   UNL     1      41.828  12.617 -36.096  1.00  0.00     0.000 C 
ENDROOT
BRANCH   1   2
ATOM      2  C   UNL     1      42.556  11.727 -35.070  1.00  0.00     0.000 C 
BRANCH   2   3
ATOM      3  C   UNL     1      43.994  12.192 -34.789  1.00  0.00     0.000 C 
BRANCH   3   4
ATOM      4  C   UNL     1      44.236  12.494 -33.301  1.00  0.00     0.006 C 
BRANCH   4   5
ATOM      5  C   UNL     1      45.721  12.700 -32.972  1.00  0.00     0.053 C 
BRANCH   5   6
ATOM      6  C   UNL     1      46.010  12.266 -31.570  1.00  0.00     0.041 C 
ATOM      7  O   UNL     1      46.878  11.382 -31.346  1.00  0.00    -0.550 OA
ATOM      8  O   UNL     1      45.284  12.801 -30.513  1.00  0.00    -0.550 OA
ENDBRANCH   5   6
ENDBRANCH   4   5
ENDBRANCH   3   4
ENDBRANCH   2   3
ENDBRANCH   1   2
BRANCH   1   9
ATOM      9  C   UNL     1      41.720  14.104 -35.711  1.00  0.00     0.000 C 
BRANCH   9  10
ATOM     10  C   UNL     1      40.272  14.614 -35.688  1.00  0.00    -0.000 C 
BRANCH  10  11
ATOM     11  C   UNL     1      39.293  13.508 -36.112  1.00  0.00    -0.000 C 
BRANCH  11  12
ATOM     12  C   UNL     1      37.826  13.854 -35.800  1.00  0.00    -0.000 C 
BRANCH  12  13
ATOM     13  C   UNL     1      37.563  14.310 -34.353  1.00  0.00    -0.003 C 
ATOM     14  C   UNL     1      37.089  13.175 -33.446  1.00  0.00     0.004 C 
ENDBRANCH  12  13
ENDBRANCH  11  12
ENDBRANCH  10  11
ENDBRANCH   9  10
ENDBRANCH   1   9
TORSDOF 10
ENDMDL
MODEL 7
REMARK VINA RESULT:    -2.771     20.749     22.765
REMARK INTER + INTRA:          -4.751
REMARK INTER:                  -4.504
REMARK INTRA:                  -0.247
REMARK UNBOUND:                -0.359
REMARK SMILES CCCCCCCCCCCC(=O)[O-]
REMARK SMILES IDX 7 1 8 2 9 3 10 4 11 5 12 6 13 7 14 8 6 9 5 10 4 11 3 12 2 13
REMARK SMILES IDX 1 14
REMARK H PARENT
REMARK Flexibility Score: inf
ROOT
ATOM      1  C   UNL     1      56.098  28.360 -33.888  1.00  0.00     0.000 C 
ENDROOT
BRANCH   1   2
ATOM      2  C   UNL     1      56.537  29.762 -33.428  1.00  0.00     0.000 C 
BRANCH   2   3
ATOM      3  C   UNL     1      57.058  29.782 -31.981  1.00  0.00     0.000 C 
BRANCH   3   4
ATOM      4  C   UNL     1      55.949  30.081 -30.959  1.00  0.00     0.006 C 
BRANCH   4   5
ATOM      5  C   UNL     1      56.383  31.097 -29.894  1.00  0.00     0.053 C 
BRANCH   5   6
ATOM      6  C   UNL     1      56.758  30.397 -28.627  1.00  0.00     0.041 C 
ATOM      7  O   UNL     1      56.797  31.032 -27.539  1.00  0.00    -0.550 OA
ATOM      8  O   UNL     1      57.114  29.054 -28.653  1.00  0.00    -0.550 OA
ENDBRANCH   5   6
ENDBRANCH   4   5
ENDBRANCH   3   4
ENDBRANCH   2   3
ENDBRANCH   1   2
BRANCH   1   9
ATOM      9  C   UNL     1      56.745  27.870 -35.197  1.00  0.00     0.000 C 
BRANCH   9  10
ATOM     10  C   UNL     1      56.710  28.922 -36.315  1.00  0.00    -0.000 C 
BRANCH  10  11
ATOM     11  C   UNL     1      55.300  29.516 -36.465  1.00  0.00    -0.000 C 
BRANCH  11  12
ATOM     12  C   UNL     1      54.991  29.970 -37.904  1.00  0.00    -0.000 C 
BRANCH  12  13
ATOM     13  C   UNL     1      55.114  28.866 -38.970  1.00  0.00    -0.003 C 
ATOM     14  C   UNL     1      54.128  27.719 -38.758  1.00  0.00     0.004 C 
ENDBRANCH  12  13
ENDBRANCH  11  12
ENDBRANCH  10  11
ENDBRANCH   9  10
ENDBRANCH   1   9
TORSDOF 10
ENDMDL
