MODEL 1
REMARK VINA RESULT:    -7.203      0.000      0.000
REMARK INTER + INTRA:          -7.605
REMARK INTER:                  -7.835
REMARK INTRA:                   0.230
REMARK UNBOUND:                 0.230
REMARK SMILES CC1(C)CC[C@@]2(C(=O)[O-])CC[C@@]3(C)C(=CC[C@H]4[C@@]5(C)CC[C@@H](O)C(C)(C)[C@H]5CC[C@]43C)[C@H]2C1
REMARK SMILES IDX 6 1 5 2 10 3 32 4 4 5 11 6 14 7 33 8 2 9 12 10 15 11 1 12
REMARK SMILES IDX 3 13 13 14 30 15 16 16 17 17 29 18 31 19 18 20 28 21 27 22
REMARK SMILES IDX 20 23 19 24 24 25 21 26 22 27 25 28 26 29 7 30 8 31 9 32
REMARK SMILES IDX 23 33
REMARK H PARENT 23 34
REMARK Flexibility Score: inf
ROOT
ATOM      1  C   UNL     1       8.970  14.368 -22.490  1.00  0.00     0.017 C 
ATOM      2  C   UNL     1       9.534  15.757 -22.120  1.00  0.00     0.014 C 
ATOM      3  C   UNL     1       9.907  13.259 -21.934  1.00  0.00     0.014 C 
ATOM      4  C   UNL     1       7.507  14.172 -21.939  1.00  0.00     0.028 C 
ATOM      5  C   UNL     1       8.627  16.877 -22.619  1.00  0.00     0.007 C 
ATOM      6  C   UNL     1       9.901  13.154 -20.406  1.00  0.00     0.013 C 
ATOM      7  C   UNL     1       7.386  13.114 -20.825  1.00  0.00    -0.064 C 
ATOM      8  C   UNL     1       6.703  15.459 -21.540  1.00  0.00     0.015 C 
ATOM      9  C   UNL     1       7.252  16.891 -21.904  1.00  0.00    -0.035 C 
ATOM     10  C   UNL     1       8.479  12.929 -19.762  1.00  0.00    -0.006 C 
ATOM     11  C   UNL     1       6.195  12.506 -20.690  1.00  0.00    -0.027 C 
ATOM     12  C   UNL     1       6.239  17.613 -22.823  1.00  0.00     0.011 C 
ATOM     13  C   UNL     1       7.376  17.736 -20.608  1.00  0.00     0.011 C 
ATOM     14  C   UNL     1       8.242  14.079 -18.732  1.00  0.00     0.017 C 
ATOM     15  C   UNL     1       8.385  11.485 -19.041  1.00  0.00    -0.020 C 
ATOM     16  C   UNL     1       5.936  11.346 -19.788  1.00  0.00     0.032 C 
ATOM     17  C   UNL     1       6.903  11.188 -18.577  1.00  0.00     0.006 C 
ATOM     18  C   UNL     1       8.816  10.341 -20.018  1.00  0.00     0.008 C 
ATOM     19  C   UNL     1       9.368  11.491 -17.822  1.00  0.00     0.012 C 
ATOM     20  C   UNL     1       6.716   9.790 -17.780  1.00  0.00    -0.025 C 
ATOM     21  C   UNL     1       8.184   8.946 -19.778  1.00  0.00     0.005 C 
ATOM     22  C   UNL     1       7.697   8.655 -18.328  1.00  0.00     0.003 C 
ATOM     23  C   UNL     1       5.219   9.296 -17.794  1.00  0.00     0.010 C 
ATOM     24  C   UNL     1       7.029  10.059 -16.265  1.00  0.00     0.012 C 
ATOM     25  C   UNL     1       7.149   7.170 -18.161  1.00  0.00    -0.006 C 
ATOM     26  C   UNL     1       4.883   8.271 -18.885  1.00  0.00     0.033 C 
ATOM     27  C   UNL     1       5.738   6.985 -18.831  1.00  0.00     0.120 C 
ATOM     28  C   UNL     1       8.162   6.137 -18.743  1.00  0.00     0.014 C 
ATOM     29  C   UNL     1       7.052   6.794 -16.651  1.00  0.00     0.014 C 
ENDROOT
BRANCH   1  30
ATOM     30  C   UNL     1       8.992  14.243 -24.020  1.00  0.00     0.048 C 
ATOM     31  O   UNL     1       8.259  14.979 -24.735  1.00  0.00    -0.550 OA
ATOM     32  O   UNL     1       9.767  13.273 -24.649  1.00  0.00    -0.550 OA
ENDBRANCH   1  30
BRANCH  27  33
ATOM     33  O   UNL     1       5.862   6.479 -20.141  1.00  0.00    -0.393 OA
ATOM     34  H   UNL     1       6.481   5.705 -20.097  1.00  0.00     0.210 HD
ENDBRANCH  27  33
TORSDOF 2
ENDMDL
MODEL 2
REMARK VINA RESULT:    -7.122      2.294      4.129
REMARK INTER + INTRA:          -7.517
REMARK INTER:                  -7.304
REMARK INTRA:                  -0.213
REMARK UNBOUND:                 0.230
REMARK SMILES CC1(C)CC[C@@]2(C(=O)[O-])CC[C@@]3(C)C(=CC[C@H]4[C@@]5(C)CC[C@@H](O)C(C)(C)[C@H]5CC[C@]43C)[C@H]2C1
REMARK SMILES IDX 6 1 5 2 10 3 32 4 4 5 11 6 14 7 33 8 2 9 12 10 15 11 1 12
REMARK SMILES IDX 3 13 13 14 30 15 16 16 17 17 29 18 31 19 18 20 28 21 27 22
REMARK SMILES IDX 20 23 19 24 24 25 21 26 22 27 25 28 26 29 7 30 8 31 9 32
REMARK SMILES IDX 23 33
REMARK H PARENT 23 34
REMARK Flexibility Score: inf
ROOT
ATOM      1  C   UNL     1       6.280  13.863 -20.394  1.00  0.00     0.017 C 
ATOM      2  C   UNL     1       6.058  14.539 -21.765  1.00  0.00     0.014 C 
ATOM      3  C   UNL     1       5.121  12.868 -20.110  1.00  0.00     0.014 C 
ATOM      4  C   UNL     1       7.667  13.117 -20.336  1.00  0.00     0.028 C 
ATOM      5  C   UNL     1       7.193  15.503 -22.100  1.00  0.00     0.007 C 
ATOM      6  C   UNL     1       5.126  11.636 -21.022  1.00  0.00     0.013 C 
ATOM      7  C   UNL     1       7.557  11.582 -20.253  1.00  0.00    -0.064 C 
ATOM      8  C   UNL     1       8.753  13.517 -21.395  1.00  0.00     0.015 C 
ATOM      9  C   UNL     1       8.544  14.777 -22.319  1.00  0.00    -0.035 C 
ATOM     10  C   UNL     1       6.468  10.807 -21.009  1.00  0.00    -0.006 C 
ATOM     11  C   UNL     1       8.577  10.929 -19.670  1.00  0.00    -0.027 C 
ATOM     12  C   UNL     1       9.683  15.793 -22.068  1.00  0.00     0.011 C 
ATOM     13  C   UNL     1       8.639  14.342 -23.805  1.00  0.00     0.011 C 
ATOM     14  C   UNL     1       6.979  10.718 -22.482  1.00  0.00     0.017 C 
ATOM     15  C   UNL     1       6.236   9.330 -20.392  1.00  0.00    -0.020 C 
ATOM     16  C   UNL     1       8.575   9.472 -19.350  1.00  0.00     0.032 C 
ATOM     17  C   UNL     1       7.615   8.583 -20.198  1.00  0.00     0.006 C 
ATOM     18  C   UNL     1       5.537   9.410 -18.994  1.00  0.00     0.008 C 
ATOM     19  C   UNL     1       5.299   8.542 -21.369  1.00  0.00     0.012 C 
ATOM     20  C   UNL     1       7.486   7.066 -19.647  1.00  0.00    -0.025 C 
ATOM     21  C   UNL     1       5.833   8.256 -18.002  1.00  0.00     0.005 C 
ATOM     22  C   UNL     1       6.262   6.900 -18.636  1.00  0.00     0.003 C 
ATOM     23  C   UNL     1       8.829   6.556 -18.995  1.00  0.00     0.010 C 
ATOM     24  C   UNL     1       7.268   6.126 -20.886  1.00  0.00     0.012 C 
ATOM     25  C   UNL     1       6.454   5.757 -17.546  1.00  0.00    -0.006 C 
ATOM     26  C   UNL     1       8.902   6.691 -17.469  1.00  0.00     0.033 C 
ATOM     27  C   UNL     1       7.773   5.954 -16.712  1.00  0.00     0.120 C 
ATOM     28  C   UNL     1       5.221   5.687 -16.593  1.00  0.00     0.014 C 
ATOM     29  C   UNL     1       6.484   4.356 -18.229  1.00  0.00     0.014 C 
ENDROOT
BRANCH   1  30
ATOM     30  C   UNL     1       6.207  14.952 -19.315  1.00  0.00     0.048 C 
ATOM     31  O   UNL     1       7.250  15.345 -18.726  1.00  0.00    -0.550 OA
ATOM     32  O   UNL     1       4.984  15.482 -18.914  1.00  0.00    -0.550 OA
ENDBRANCH   1  30
BRANCH  27  33
ATOM     33  O   UNL     1       7.515   6.648 -15.513  1.00  0.00    -0.393 OA
ATOM     34  H   UNL     1       7.132   7.528 -15.762  1.00  0.00     0.210 HD
ENDBRANCH  27  33
TORSDOF 2
ENDMDL
MODEL 3
REMARK VINA RESULT:    -6.974      2.230      4.057
REMARK INTER + INTRA:          -7.356
REMARK INTER:                  -7.128
REMARK INTRA:                  -0.229
REMARK UNBOUND:                 0.230
REMARK SMILES CC1(C)CC[C@@]2(C(=O)[O-])CC[C@@]3(C)C(=CC[C@H]4[C@@]5(C)CC[C@@H](O)C(C)(C)[C@H]5CC[C@]43C)[C@H]2C1
REMARK SMILES IDX 6 1 5 2 10 3 32 4 4 5 11 6 14 7 33 8 2 9 12 10 15 11 1 12
REMARK SMILES IDX 3 13 13 14 30 15 16 16 17 17 29 18 31 19 18 20 28 21 27 22
REMARK SMILES IDX 20 23 19 24 24 25 21 26 22 27 25 28 26 29 7 30 8 31 9 32
REMARK SMILES IDX 23 33
REMARK H PARENT 23 34
REMARK Flexibility Score: inf
ROOT
ATOM      1  C   UNL     1       8.907  13.509 -22.751  1.00  0.00     0.017 C 
ATOM      2  C   UNL     1       8.258  14.265 -23.931  1.00  0.00     0.014 C 
ATOM      3  C   UNL     1       7.942  13.517 -21.532  1.00  0.00     0.014 C 
ATOM      4  C   UNL     1       9.275  12.029 -23.145  1.00  0.00     0.028 C 
ATOM      5  C   UNL     1       9.159  14.254 -25.162  1.00  0.00     0.007 C 
ATOM      6  C   UNL     1       6.683  12.669 -21.735  1.00  0.00     0.013 C 
ATOM      7  C   UNL     1       8.441  10.954 -22.421  1.00  0.00    -0.064 C 
ATOM      8  C   UNL     1       9.372  11.686 -24.674  1.00  0.00     0.015 C 
ATOM      9  C   UNL     1       9.337  12.834 -25.754  1.00  0.00    -0.035 C 
ATOM     10  C   UNL     1       6.952  11.160 -22.107  1.00  0.00    -0.006 C 
ATOM     11  C   UNL     1       9.010   9.746 -22.264  1.00  0.00    -0.027 C 
ATOM     12  C   UNL     1      10.652  12.813 -26.568  1.00  0.00     0.011 C 
ATOM     13  C   UNL     1       8.179  12.562 -26.751  1.00  0.00     0.011 C 
ATOM     14  C   UNL     1       6.210  10.867 -23.450  1.00  0.00     0.017 C 
ATOM     15  C   UNL     1       6.436  10.169 -20.939  1.00  0.00    -0.020 C 
ATOM     16  C   UNL     1       8.431   8.640 -21.447  1.00  0.00     0.032 C 
ATOM     17  C   UNL     1       6.888   8.682 -21.228  1.00  0.00     0.006 C 
ATOM     18  C   UNL     1       7.024  10.584 -19.550  1.00  0.00     0.008 C 
ATOM     19  C   UNL     1       4.875  10.280 -20.868  1.00  0.00     0.012 C 
ATOM     20  C   UNL     1       6.361   7.597 -20.148  1.00  0.00    -0.025 C 
ATOM     21  C   UNL     1       7.207   9.453 -18.506  1.00  0.00     0.005 C 
ATOM     22  C   UNL     1       6.285   8.209 -18.675  1.00  0.00     0.003 C 
ATOM     23  C   UNL     1       7.221   6.275 -20.165  1.00  0.00     0.010 C 
ATOM     24  C   UNL     1       4.926   7.139 -20.593  1.00  0.00     0.012 C 
ATOM     25  C   UNL     1       6.483   7.147 -17.506  1.00  0.00    -0.006 C 
ATOM     26  C   UNL     1       8.332   6.209 -19.110  1.00  0.00     0.033 C 
ATOM     27  C   UNL     1       7.833   6.353 -17.654  1.00  0.00     0.120 C 
ATOM     28  C   UNL     1       6.417   7.841 -16.110  1.00  0.00     0.014 C 
ATOM     29  C   UNL     1       5.295   6.138 -17.483  1.00  0.00     0.014 C 
ENDROOT
BRANCH   1  30
ATOM     30  C   UNL     1      10.163  14.284 -22.330  1.00  0.00     0.048 C 
ATOM     31  O   UNL     1      11.246  13.679 -22.103  1.00  0.00    -0.550 OA
ATOM     32  O   UNL     1      10.121  15.660 -22.124  1.00  0.00    -0.550 OA
ENDBRANCH   1  30
BRANCH  27  33
ATOM     33  O   UNL     1       8.857   6.948 -16.890  1.00  0.00    -0.393 OA
ATOM     34  H   UNL     1       9.229   7.692 -17.430  1.00  0.00     0.210 HD
ENDBRANCH  27  33
TORSDOF 2
ENDMDL
MODEL 4
REMARK VINA RESULT:    -6.500      1.458      8.095
REMARK INTER + INTRA:          -6.840
REMARK INTER:                  -6.633
REMARK INTRA:                  -0.207
REMARK UNBOUND:                 0.230
REMARK SMILES CC1(C)CC[C@@]2(C(=O)[O-])CC[C@@]3(C)C(=CC[C@H]4[C@@]5(C)CC[C@@H](O)C(C)(C)[C@H]5CC[C@]43C)[C@H]2C1
REMARK SMILES IDX 6 1 5 2 10 3 32 4 4 5 11 6 14 7 33 8 2 9 12 10 15 11 1 12
REMARK SMILES IDX 3 13 13 14 30 15 16 16 17 17 29 18 31 19 18 20 28 21 27 22
REMARK SMILES IDX 20 23 19 24 24 25 21 26 22 27 25 28 26 29 7 30 8 31 9 32
REMARK SMILES IDX 23 33
REMARK H PARENT 23 34
REMARK Flexibility Score: inf
ROOT
ATOM      1  C   UNL     1       5.819   6.959 -20.236  1.00  0.00     0.017 C 
ATOM      2  C   UNL     1       4.875   6.425 -19.136  1.00  0.00     0.014 C 
ATOM      3  C   UNL     1       5.130   8.129 -20.992  1.00  0.00     0.014 C 
ATOM      4  C   UNL     1       7.196   7.433 -19.635  1.00  0.00     0.028 C 
ATOM      5  C   UNL     1       5.525   5.293 -18.345  1.00  0.00     0.007 C 
ATOM      6  C   UNL     1       4.958   9.395 -20.146  1.00  0.00     0.013 C 
ATOM      7  C   UNL     1       7.434   8.954 -19.717  1.00  0.00    -0.064 C 
ATOM      8  C   UNL     1       7.585   6.910 -18.207  1.00  0.00     0.015 C 
ATOM      9  C   UNL     1       6.742   5.772 -17.515  1.00  0.00    -0.035 C 
ATOM     10  C   UNL     1       6.292   9.963 -19.523  1.00  0.00    -0.006 C 
ATOM     11  C   UNL     1       8.711   9.369 -19.753  1.00  0.00    -0.027 C 
ATOM     12  C   UNL     1       7.652   4.551 -17.245  1.00  0.00     0.011 C 
ATOM     13  C   UNL     1       6.236   6.278 -16.138  1.00  0.00     0.011 C 
ATOM     14  C   UNL     1       6.088  10.052 -17.977  1.00  0.00     0.017 C 
ATOM     15  C   UNL     1       6.653  11.413 -20.138  1.00  0.00    -0.020 C 
ATOM     16  C   UNL     1       9.134  10.779 -20.001  1.00  0.00     0.032 C 
ATOM     17  C   UNL     1       8.086  11.881 -19.661  1.00  0.00     0.006 C 
ATOM     18  C   UNL     1       6.663  11.373 -21.703  1.00  0.00     0.008 C 
ATOM     19  C   UNL     1       5.547  12.421 -19.676  1.00  0.00     0.012 C 
ATOM     20  C   UNL     1       8.515  13.357 -20.169  1.00  0.00    -0.025 C 
ATOM     21  C   UNL     1       7.592  12.386 -22.419  1.00  0.00     0.005 C 
ATOM     22  C   UNL     1       7.939  13.679 -21.623  1.00  0.00     0.003 C 
ATOM     23  C   UNL     1      10.077  13.570 -20.123  1.00  0.00     0.010 C 
ATOM     24  C   UNL     1       7.945  14.400 -19.143  1.00  0.00     0.012 C 
ATOM     25  C   UNL     1       8.820  14.694 -22.475  1.00  0.00    -0.006 C 
ATOM     26  C   UNL     1      10.806  13.325 -21.450  1.00  0.00     0.033 C 
ATOM     27  C   UNL     1      10.307  14.205 -22.619  1.00  0.00     0.120 C 
ATOM     28  C   UNL     1       8.191  14.927 -23.883  1.00  0.00     0.014 C 
ATOM     29  C   UNL     1       8.806  16.108 -21.816  1.00  0.00     0.014 C 
ENDROOT
BRANCH   1  30
ATOM     30  C   UNL     1       6.034   5.834 -21.258  1.00  0.00     0.048 C 
ATOM     31  O   UNL     1       7.128   5.207 -21.304  1.00  0.00    -0.550 OA
ATOM     32  O   UNL     1       5.057   5.525 -22.200  1.00  0.00    -0.550 OA
ENDBRANCH   1  30
BRANCH  27  33
ATOM     33  O   UNL     1      10.493  13.494 -23.821  1.00  0.00    -0.393 OA
ATOM     34  H   UNL     1      11.118  14.023 -24.380  1.00  0.00     0.210 HD
ENDBRANCH  27  33
TORSDOF 2
ENDMDL
MODEL 5
REMARK VINA RESULT:    -5.614      1.825      8.063
REMARK INTER + INTRA:          -5.877
REMARK INTER:                  -5.966
REMARK INTRA:                   0.089
REMARK UNBOUND:                 0.230
REMARK SMILES CC1(C)CC[C@@]2(C(=O)[O-])CC[C@@]3(C)C(=CC[C@H]4[C@@]5(C)CC[C@@H](O)C(C)(C)[C@H]5CC[C@]43C)[C@H]2C1
REMARK SMILES IDX 6 1 5 2 10 3 32 4 4 5 11 6 14 7 33 8 2 9 12 10 15 11 1 12
REMARK SMILES IDX 3 13 13 14 30 15 16 16 17 17 29 18 31 19 18 20 28 21 27 22
REMARK SMILES IDX 20 23 19 24 24 25 21 26 22 27 25 28 26 29 7 30 8 31 9 32
REMARK SMILES IDX 23 33
REMARK H PARENT 23 34
REMARK Flexibility Score: inf
ROOT
ATOM      1  C   UNL     1       7.084   7.139 -18.078  1.00  0.00     0.017 C 
ATOM      2  C   UNL     1       5.816   6.604 -17.377  1.00  0.00     0.014 C 
ATOM      3  C   UNL     1       6.800   7.331 -19.594  1.00  0.00     0.014 C 
ATOM      4  C   UNL     1       7.569   8.495 -17.438  1.00  0.00     0.028 C 
ATOM      5  C   UNL     1       6.040   6.430 -15.878  1.00  0.00     0.007 C 
ATOM      6  C   UNL     1       5.821   8.469 -19.900  1.00  0.00     0.013 C 
ATOM      7  C   UNL     1       7.429   9.719 -18.363  1.00  0.00    -0.064 C 
ATOM      8  C   UNL     1       7.044   8.850 -16.002  1.00  0.00     0.015 C 
ATOM      9  C   UNL     1       6.259   7.781 -15.150  1.00  0.00    -0.035 C 
ATOM     10  C   UNL     1       6.238   9.877 -19.321  1.00  0.00    -0.006 C 
ATOM     11  C   UNL     1       8.271  10.744 -18.149  1.00  0.00    -0.027 C 
ATOM     12  C   UNL     1       7.031   7.502 -13.839  1.00  0.00     0.011 C 
ATOM     13  C   UNL     1       4.876   8.360 -14.752  1.00  0.00     0.011 C 
ATOM     14  C   UNL     1       5.062  10.385 -18.428  1.00  0.00     0.017 C 
ATOM     15  C   UNL     1       6.551  10.928 -20.509  1.00  0.00    -0.020 C 
ATOM     16  C   UNL     1       8.398  11.933 -19.042  1.00  0.00     0.032 C 
ATOM     17  C   UNL     1       7.158  12.266 -19.925  1.00  0.00     0.006 C 
ATOM     18  C   UNL     1       7.587  10.338 -21.522  1.00  0.00     0.008 C 
ATOM     19  C   UNL     1       5.212  11.202 -21.275  1.00  0.00     0.012 C 
ATOM     20  C   UNL     1       7.444  13.413 -21.031  1.00  0.00    -0.025 C 
ATOM     21  C   UNL     1       8.479  11.356 -22.277  1.00  0.00     0.005 C 
ATOM     22  C   UNL     1       7.900  12.793 -22.431  1.00  0.00     0.003 C 
ATOM     23  C   UNL     1       8.486  14.482 -20.523  1.00  0.00     0.010 C 
ATOM     24  C   UNL     1       6.114  14.224 -21.232  1.00  0.00     0.012 C 
ATOM     25  C   UNL     1       8.845  13.737 -23.297  1.00  0.00    -0.006 C 
ATOM     26  C   UNL     1       9.934  14.239 -20.966  1.00  0.00     0.033 C 
ATOM     27  C   UNL     1      10.126  14.178 -22.498  1.00  0.00     0.120 C 
ATOM     28  C   UNL     1       9.254  13.038 -24.629  1.00  0.00     0.014 C 
ATOM     29  C   UNL     1       8.067  15.006 -23.759  1.00  0.00     0.014 C 
ENDROOT
BRANCH   1  30
ATOM     30  C   UNL     1       8.175   6.066 -17.961  1.00  0.00     0.048 C 
ATOM     31  O   UNL     1       7.874   4.867 -17.712  1.00  0.00    -0.550 OA
ATOM     32  O   UNL     1       9.523   6.401 -18.060  1.00  0.00    -0.550 OA
ENDBRANCH   1  30
BRANCH  27  33
ATOM     33  O   UNL     1      11.214  13.326 -22.776  1.00  0.00    -0.393 OA
ATOM     34  H   UNL     1      11.835  13.385 -22.005  1.00  0.00     0.210 HD
ENDBRANCH  27  33
TORSDOF 2
ENDMDL
MODEL 6
REMARK VINA RESULT:    -5.347      2.454      8.657
REMARK INTER + INTRA:          -5.586
REMARK INTER:                  -5.640
REMARK INTRA:                   0.053
REMARK UNBOUND:                 0.230
REMARK SMILES CC1(C)CC[C@@]2(C(=O)[O-])CC[C@@]3(C)C(=CC[C@H]4[C@@]5(C)CC[C@@H](O)C(C)(C)[C@H]5CC[C@]43C)[C@H]2C1
REMARK SMILES IDX 6 1 5 2 10 3 32 4 4 5 11 6 14 7 33 8 2 9 12 10 15 11 1 12
REMARK SMILES IDX 3 13 13 14 30 15 16 16 17 17 29 18 31 19 18 20 28 21 27 22
REMARK SMILES IDX 20 23 19 24 24 25 21 26 22 27 25 28 26 29 7 30 8 31 9 32
REMARK SMILES IDX 23 33
REMARK H PARENT 23 34
REMARK Flexibility Score: inf
ROOT
ATOM      1  C   UNL     1       6.970   6.456 -17.052  1.00  0.00     0.017 C 
ATOM      2  C   UNL     1       7.788   5.146 -17.090  1.00  0.00     0.014 C 
ATOM      3  C   UNL     1       7.934   7.671 -16.947  1.00  0.00     0.014 C 
ATOM      4  C   UNL     1       6.048   6.599 -18.321  1.00  0.00     0.028 C 
ATOM      5  C   UNL     1       6.880   3.927 -17.225  1.00  0.00     0.007 C 
ATOM      6  C   UNL     1       8.767   7.910 -18.211  1.00  0.00     0.013 C 
ATOM      7  C   UNL     1       6.454   7.741 -19.274  1.00  0.00    -0.064 C 
ATOM      8  C   UNL     1       5.742   5.300 -19.148  1.00  0.00     0.015 C 
ATOM      9  C   UNL     1       6.145   3.883 -18.588  1.00  0.00    -0.035 C 
ATOM     10  C   UNL     1       7.927   8.093 -19.534  1.00  0.00    -0.006 C 
ATOM     11  C   UNL     1       5.482   8.275 -20.033  1.00  0.00    -0.027 C 
ATOM     12  C   UNL     1       4.875   3.015 -18.422  1.00  0.00     0.011 C 
ATOM     13  C   UNL     1       7.056   3.166 -19.620  1.00  0.00     0.011 C 
ATOM     14  C   UNL     1       8.425   7.025 -20.559  1.00  0.00     0.017 C 
ATOM     15  C   UNL     1       8.097   9.585 -20.132  1.00  0.00    -0.020 C 
ATOM     16  C   UNL     1       5.647   9.490 -20.883  1.00  0.00     0.032 C 
ATOM     17  C   UNL     1       7.101   9.820 -21.337  1.00  0.00     0.006 C 
ATOM     18  C   UNL     1       7.789  10.665 -19.042  1.00  0.00     0.008 C 
ATOM     19  C   UNL     1       9.585   9.754 -20.589  1.00  0.00     0.012 C 
ATOM     20  C   UNL     1       7.241  11.266 -22.052  1.00  0.00    -0.025 C 
ATOM     21  C   UNL     1       7.253  12.029 -19.547  1.00  0.00     0.005 C 
ATOM     22  C   UNL     1       7.626  12.413 -21.009  1.00  0.00     0.003 C 
ATOM     23  C   UNL     1       5.945  11.655 -22.864  1.00  0.00     0.010 C 
ATOM     24  C   UNL     1       8.369  11.154 -23.139  1.00  0.00     0.012 C 
ATOM     25  C   UNL     1       7.109  13.866 -21.403  1.00  0.00    -0.006 C 
ATOM     26  C   UNL     1       4.954  12.554 -22.114  1.00  0.00     0.033 C 
ATOM     27  C   UNL     1       5.554  13.895 -21.633  1.00  0.00     0.120 C 
ATOM     28  C   UNL     1       7.512  14.910 -20.317  1.00  0.00     0.014 C 
ATOM     29  C   UNL     1       7.828  14.366 -22.693  1.00  0.00     0.014 C 
ENDROOT
BRANCH   1  30
ATOM     30  C   UNL     1       6.125   6.446 -15.770  1.00  0.00     0.048 C 
ATOM     31  O   UNL     1       5.049   5.791 -15.714  1.00  0.00    -0.550 OA
ATOM     32  O   UNL     1       6.489   7.212 -14.666  1.00  0.00    -0.550 OA
ENDBRANCH   1  30
BRANCH  27  33
ATOM     33  O   UNL     1       4.875  14.291 -20.463  1.00  0.00    -0.393 OA
ATOM     34  H   UNL     1       5.564  14.574 -19.808  1.00  0.00     0.210 HD
ENDBRANCH  27  33
TORSDOF 2
ENDMDL
MODEL 7
REMARK VINA RESULT:    -5.174      2.258      8.065
REMARK INTER + INTRA:          -5.398
REMARK INTER:                  -5.279
REMARK INTRA:                  -0.119
REMARK UNBOUND:                 0.230
REMARK SMILES CC1(C)CC[C@@]2(C(=O)[O-])CC[C@@]3(C)C(=CC[C@H]4[C@@]5(C)CC[C@@H](O)C(C)(C)[C@H]5CC[C@]43C)[C@H]2C1
REMARK SMILES IDX 6 1 5 2 10 3 32 4 4 5 11 6 14 7 33 8 2 9 12 10 15 11 1 12
REMARK SMILES IDX 3 13 13 14 30 15 16 16 17 17 29 18 31 19 18 20 28 21 27 22
REMARK SMILES IDX 20 23 19 24 24 25 21 26 22 27 25 28 26 29 7 30 8 31 9 32
REMARK SMILES IDX 23 33
REMARK H PARENT 23 34
REMARK Flexibility Score: inf
ROOT
ATOM      1  C   UNL     1       6.905   9.051 -17.589  1.00  0.00     0.017 C 
ATOM      2  C   UNL     1       7.731   7.764 -17.803  1.00  0.00     0.014 C 
ATOM      3  C   UNL     1       7.858  10.236 -17.265  1.00  0.00     0.014 C 
ATOM      4  C   UNL     1       6.023   9.389 -18.850  1.00  0.00     0.028 C 
ATOM      5  C   UNL     1       6.835   6.580 -18.156  1.00  0.00     0.007 C 
ATOM      6  C   UNL     1       8.729  10.669 -18.448  1.00  0.00     0.013 C 
ATOM      7  C   UNL     1       6.453  10.665 -19.600  1.00  0.00    -0.064 C 
ATOM      8  C   UNL     1       5.752   8.235 -19.878  1.00  0.00     0.015 C 
ATOM      9  C   UNL     1       6.145   6.748 -19.532  1.00  0.00    -0.035 C 
ATOM     10  C   UNL     1       7.931  11.055 -19.754  1.00  0.00    -0.006 C 
ATOM     11  C   UNL     1       5.503  11.311 -20.298  1.00  0.00    -0.027 C 
ATOM     12  C   UNL     1       4.875   5.864 -19.545  1.00  0.00     0.011 C 
ATOM     13  C   UNL     1       7.092   6.201 -20.633  1.00  0.00     0.011 C 
ATOM     14  C   UNL     1       8.468  10.159 -20.915  1.00  0.00     0.017 C 
ATOM     15  C   UNL     1       8.112  12.622 -20.107  1.00  0.00    -0.020 C 
ATOM     16  C   UNL     1       5.687  12.644 -20.943  1.00  0.00     0.032 C 
ATOM     17  C   UNL     1       7.154  13.041 -21.293  1.00  0.00     0.006 C 
ATOM     18  C   UNL     1       7.763  13.519 -18.873  1.00  0.00     0.008 C 
ATOM     19  C   UNL     1       9.613  12.861 -20.483  1.00  0.00     0.012 C 
ATOM     20  C   UNL     1       7.308  14.581 -21.769  1.00  0.00    -0.025 C 
ATOM     21  C   UNL     1       7.235  14.945 -19.177  1.00  0.00     0.005 C 
ATOM     22  C   UNL     1       7.652  15.552 -20.549  1.00  0.00     0.003 C 
ATOM     23  C   UNL     1       6.037  15.090 -22.552  1.00  0.00     0.010 C 
ATOM     24  C   UNL     1       8.471  14.640 -22.823  1.00  0.00     0.012 C 
ATOM     25  C   UNL     1       7.140  17.048 -20.728  1.00  0.00    -0.006 C 
ATOM     26  C   UNL     1       5.017  15.860 -21.705  1.00  0.00     0.033 C 
ATOM     27  C   UNL     1       5.593  17.111 -21.003  1.00  0.00     0.120 C 
ATOM     28  C   UNL     1       7.502  17.911 -19.481  1.00  0.00     0.014 C 
ATOM     29  C   UNL     1       7.897  17.743 -21.901  1.00  0.00     0.014 C 
ENDROOT
BRANCH   1  30
ATOM     30  C   UNL     1       6.019   8.841 -16.352  1.00  0.00     0.048 C 
ATOM     31  O   UNL     1       4.899   9.413 -16.258  1.00  0.00    -0.550 OA
ATOM     32  O   UNL     1       6.459   8.072 -15.279  1.00  0.00    -0.550 OA
ENDBRANCH   1  30
BRANCH  27  33
ATOM     33  O   UNL     1       4.875  17.319 -19.808  1.00  0.00    -0.393 OA
ATOM     34  H   UNL     1       4.169  17.987 -20.004  1.00  0.00     0.210 HD
ENDBRANCH  27  33
TORSDOF 2
ENDMDL
MODEL 8
REMARK VINA RESULT:    -4.782      2.537      4.084
REMARK INTER + INTRA:          -4.972
REMARK INTER:                  -5.264
REMARK INTRA:                   0.292
REMARK UNBOUND:                 0.230
REMARK SMILES CC1(C)CC[C@@]2(C(=O)[O-])CC[C@@]3(C)C(=CC[C@H]4[C@@]5(C)CC[C@@H](O)C(C)(C)[C@H]5CC[C@]43C)[C@H]2C1
REMARK SMILES IDX 6 1 5 2 10 3 32 4 4 5 11 6 14 7 33 8 2 9 12 10 15 11 1 12
REMARK SMILES IDX 3 13 13 14 30 15 16 16 17 17 29 18 31 19 18 20 28 21 27 22
REMARK SMILES IDX 20 23 19 24 24 25 21 26 22 27 25 28 26 29 7 30 8 31 9 32
REMARK SMILES IDX 23 33
REMARK H PARENT 23 34
REMARK Flexibility Score: inf
ROOT
ATOM      1  C   UNL     1       5.849  16.101 -20.364  1.00  0.00     0.017 C 
ATOM      2  C   UNL     1       5.786  17.064 -21.569  1.00  0.00     0.014 C 
ATOM      3  C   UNL     1       4.889  14.902 -20.604  1.00  0.00     0.014 C 
ATOM      4  C   UNL     1       7.315  15.584 -20.112  1.00  0.00     0.028 C 
ATOM      5  C   UNL     1       6.739  18.243 -21.390  1.00  0.00     0.007 C 
ATOM      6  C   UNL     1       5.344  13.961 -21.724  1.00  0.00     0.013 C 
ATOM      7  C   UNL     1       7.514  14.081 -20.390  1.00  0.00    -0.064 C 
ATOM      8  C   UNL     1       8.494  16.402 -20.749  1.00  0.00     0.015 C 
ATOM      9  C   UNL     1       8.227  17.810 -21.405  1.00  0.00    -0.035 C 
ATOM     10  C   UNL     1       6.795  13.369 -21.546  1.00  0.00    -0.006 C 
ATOM     11  C   UNL     1       8.501  13.463 -19.718  1.00  0.00    -0.027 C 
ATOM     12  C   UNL     1       9.049  18.889 -20.661  1.00  0.00     0.011 C 
ATOM     13  C   UNL     1       8.723  17.791 -22.875  1.00  0.00     0.011 C 
ATOM     14  C   UNL     1       7.615  13.740 -22.823  1.00  0.00     0.017 C 
ATOM     15  C   UNL     1       6.751  11.767 -21.338  1.00  0.00    -0.020 C 
ATOM     16  C   UNL     1       8.734  11.989 -19.726  1.00  0.00     0.032 C 
ATOM     17  C   UNL     1       8.184  11.213 -20.961  1.00  0.00     0.006 C 
ATOM     18  C   UNL     1       5.772  11.378 -20.181  1.00  0.00     0.008 C 
ATOM     19  C   UNL     1       6.228  11.123 -22.666  1.00  0.00     0.012 C 
ATOM     20  C   UNL     1       8.260   9.604 -20.797  1.00  0.00    -0.025 C 
ATOM     21  C   UNL     1       6.085  10.067 -19.415  1.00  0.00     0.005 C 
ATOM     22  C   UNL     1       6.911   9.000 -20.193  1.00  0.00     0.003 C 
ATOM     23  C   UNL     1       9.510   9.153 -19.948  1.00  0.00     0.010 C 
ATOM     24  C   UNL     1       8.510   8.991 -22.222  1.00  0.00     0.012 C 
ATOM     25  C   UNL     1       7.102   7.658 -19.358  1.00  0.00    -0.006 C 
ATOM     26  C   UNL     1       9.229   8.901 -18.461  1.00  0.00     0.033 C 
ATOM     27  C   UNL     1       8.144   7.833 -18.193  1.00  0.00     0.120 C 
ATOM     28  C   UNL     1       5.738   7.160 -18.791  1.00  0.00     0.014 C 
ATOM     29  C   UNL     1       7.569   6.501 -20.293  1.00  0.00     0.014 C 
ENDROOT
BRANCH   1  30
ATOM     30  C   UNL     1       5.323  16.852 -19.133  1.00  0.00     0.048 C 
ATOM     31  O   UNL     1       5.229  16.273 -18.017  1.00  0.00    -0.550 OA
ATOM     32  O   UNL     1       4.875  18.167 -19.234  1.00  0.00    -0.550 OA
ENDBRANCH   1  30
BRANCH  27  33
ATOM     33  O   UNL     1       7.500   8.149 -16.981  1.00  0.00    -0.393 OA
ATOM     34  H   UNL     1       7.805   9.054 -16.715  1.00  0.00     0.210 HD
ENDBRANCH  27  33
TORSDOF 2
ENDMDL
