MODEL 1
REMARK VINA RESULT:    70.324      0.000      0.000
REMARK INTER + INTRA:         115.407
REMARK INTER:                 115.546
REMARK INTRA:                  -0.139
REMARK UNBOUND:                -0.139
REMARK SMILES C[C@H]1O[C@@H](OC[C@@H]2O[C@@H](Oc3c(-c4ccc(O)c(O)c4)oc4cc(O)cc(O)c4c3=O)[C@H](O)[C@H](O)[C@@H]2O)[C@H](O)[C@H](O)[C@@H]1O
REMARK SMILES IDX 7 1 36 2 34 3 32 4 9 5 8 6 6 7 5 8 4 9 1 10 2 11 42 12 3 13
REMARK SMILES IDX 40 14 38 15 43 16 41 18 39 20 37 22 35 24 10 26 11 27 12 28
REMARK SMILES IDX 30 29 21 30 29 31 31 32 22 33 27 34 23 35 26 36 24 37 13 38
REMARK SMILES IDX 20 39 14 40 18 41 15 42 16 43 19 44 17 46 28 48 25 50 33 52
REMARK H PARENT 43 17 41 19 39 21 37 23 35 25 19 45 17 47 28 49 25 51 33 53
REMARK Flexibility Score: inf
ROOT
ATOM      1  C   UNL     1       9.719  74.907   4.665  1.00  0.00     0.180 C 
ATOM      2  C   UNL     1       8.820  76.133   4.981  1.00  0.00     0.177 C 
ATOM      3  C   UNL     1       9.345  77.369   4.226  1.00  0.00     0.180 C 
ATOM      4  C   UNL     1      10.852  77.561   4.487  1.00  0.00     0.214 C 
ATOM      5  C   UNL     1      11.597  76.249   4.190  1.00  0.00     0.339 C 
ATOM      6  O   UNL     1      11.083  75.176   4.971  1.00  0.00    -0.332 OA
ENDROOT
BRANCH   1   7
ATOM      7  C   UNL     1       9.266  73.674   5.459  1.00  0.00     0.198 C 
BRANCH   7   8
ATOM      8  O   UNL     1       9.609  72.508   4.733  1.00  0.00    -0.347 OA
BRANCH   8   9
ATOM      9  C   UNL     1       9.295  71.303   5.420  1.00  0.00     0.281 C 
ATOM     10  C   UNL     1      12.668  69.880   5.724  1.00  0.00     0.041 C 
ATOM     11  C   UNL     1      11.209  69.852   5.261  1.00  0.00     0.150 C 
ATOM     12  C   UNL     1      11.100  70.083   3.731  1.00  0.00     0.174 C 
ATOM     13  O   UNL     1      10.479  70.805   6.034  1.00  0.00    -0.344 OA
ATOM     14  C   UNL     1       9.621  69.995   3.273  1.00  0.00     0.179 C 
ATOM     15  C   UNL     1       8.643  70.318   4.424  1.00  0.00     0.202 C 
BRANCH  12  16
ATOM     16  O   UNL     1      11.878  69.146   3.030  1.00  0.00    -0.388 OA
ATOM     17  H   UNL     1      11.516  68.246   3.237  1.00  0.00     0.211 HD
ENDBRANCH  12  16
BRANCH  14  18
ATOM     18  O   UNL     1       9.323  68.725   2.743  1.00  0.00    -0.387 OA
ATOM     19  H   UNL     1      10.164  68.377   2.340  1.00  0.00     0.211 HD
ENDBRANCH  14  18
BRANCH  15  20
ATOM     20  O   UNL     1       8.270  69.141   5.098  1.00  0.00    -0.385 OA
ATOM     21  H   UNL     1       7.631  69.411   5.809  1.00  0.00     0.211 HD
ENDBRANCH  15  20
ENDBRANCH   8   9
ENDBRANCH   7   8
ENDBRANCH   1   7
BRANCH   2  22
ATOM     22  O   UNL     1       8.813  76.380   6.364  1.00  0.00    -0.387 OA
ATOM     23  H   UNL     1       9.151  75.562   6.811  1.00  0.00     0.211 HD
ENDBRANCH   2  22
BRANCH   3  24
ATOM     24  O   UNL     1       8.642  78.523   4.613  1.00  0.00    -0.387 OA
ATOM     25  H   UNL     1       9.328  79.221   4.798  1.00  0.00     0.211 HD
ENDBRANCH   3  24
BRANCH   5  26
ATOM     26  O   UNL     1      11.503  75.971   2.789  1.00  0.00    -0.454 OA
BRANCH  26  27
ATOM     27  C   UNL     1      12.027  76.738   1.732  1.00  0.00     0.214 A 
ATOM     28  C   UNL     1      11.869  76.248   0.420  1.00  0.00     0.180 A 
ATOM     29  C   UNL     1      12.676  77.976   1.911  1.00  0.00     0.239 A 
ATOM     30  O   UNL     1      12.264  76.973  -0.620  1.00  0.00    -0.452 OA
ATOM     31  C   UNL     1      13.097  78.711   0.778  1.00  0.00     0.111 A 
ATOM     32  O   UNL     1      12.891  78.416   3.075  1.00  0.00    -0.285 OA
ATOM     33  C   UNL     1      12.849  78.159  -0.501  1.00  0.00     0.146 A 
ATOM     34  C   UNL     1      13.737  79.971   0.867  1.00  0.00     0.134 A 
ATOM     35  C   UNL     1      13.213  78.855  -1.656  1.00  0.00     0.094 A 
ATOM     36  C   UNL     1      14.100  80.653  -0.304  1.00  0.00     0.093 A 
ATOM     37  C   UNL     1      13.832  80.101  -1.561  1.00  0.00     0.123 A 
BRANCH  28  38
ATOM     38  C   UNL     1      11.215  74.948   0.164  1.00  0.00     0.025 A 
ATOM     39  C   UNL     1      11.928  73.874  -0.397  1.00  0.00     0.062 A 
ATOM     40  C   UNL     1       9.862  74.779   0.498  1.00  0.00     0.016 A 
ATOM     41  C   UNL     1      11.305  72.629  -0.570  1.00  0.00     0.158 A 
ATOM     42  C   UNL     1       9.238  73.543   0.312  1.00  0.00     0.051 A 
ATOM     43  C   UNL     1       9.955  72.464  -0.212  1.00  0.00     0.157 A 
BRANCH  41  44
ATOM     44  O   UNL     1      12.024  71.556  -1.095  1.00  0.00    -0.504 OA
ATOM     45  H   UNL     1      12.276  71.517  -2.078  1.00  0.00     0.293 HD
ENDBRANCH  41  44
BRANCH  43  46
ATOM     46  O   UNL     1       9.310  71.236  -0.368  1.00  0.00    -0.504 OA
ATOM     47  H   UNL     1       8.402  71.049   0.040  1.00  0.00     0.293 HD
ENDBRANCH  43  46
ENDBRANCH  28  38
BRANCH  34  48
ATOM     48  O   UNL     1      14.018  80.547   2.107  1.00  0.00    -0.507 OA
ATOM     49  H   UNL     1      14.970  80.690   2.421  1.00  0.00     0.293 HD
ENDBRANCH  34  48
BRANCH  37  50
ATOM     50  O   UNL     1      14.185  80.782  -2.726  1.00  0.00    -0.508 OA
ATOM     51  H   UNL     1      13.971  80.405  -3.644  1.00  0.00     0.293 HD
ENDBRANCH  37  50
ENDBRANCH  26  27
ENDBRANCH   5  26
BRANCH   4  52
ATOM     52  O   UNL     1      11.087  77.934   5.822  1.00  0.00    -0.384 OA
ATOM     53  H   UNL     1      11.512  77.155   6.270  1.00  0.00     0.211 HD
ENDBRANCH   4  52
TORSDOF 16
ENDMDL
