MODEL 1
REMARK VINA RESULT:    -4.422      0.000      0.000
REMARK INTER + INTRA:          -6.646
REMARK INTER:                  -5.844
REMARK INTRA:                  -0.802
REMARK UNBOUND:                -0.802
REMARK SMILES CC[C@@H](C=C[C@@H](C)[C@@H]1CC[C@@H]2C3=CC[C@@H]4C[C@H](O)CC[C@@]4(C)[C@H]3CC[C@@]21C)C(C)C
REMARK SMILES IDX 6 1 7 2 5 3 4 4 3 5 2 6 1 7 28 8 29 9 30 10 8 11 9 12 26 13
REMARK SMILES IDX 10 14 11 15 25 16 27 17 12 18 24 19 23 20 13 21 21 22 14 23
REMARK SMILES IDX 15 24 20 25 22 26 16 27 19 28 17 29 18 30
REMARK H PARENT 18 31
REMARK Flexibility Score: inf
ROOT
ATOM      1  C   UNL     1      41.581   2.399  -7.546  1.00  0.00     0.012 C 
ATOM      2  C   UNL     1      42.325   1.341  -6.709  1.00  0.00     0.012 C 
ENDROOT
BRANCH   1   3
ATOM      3  C   UNL     1      40.568   1.718  -8.444  1.00  0.00    -0.028 C 
ATOM      4  C   UNL     1      39.244   1.931  -8.337  1.00  0.00    -0.027 C 
BRANCH   4   5
ATOM      5  C   UNL     1      38.212   1.244  -9.213  1.00  0.00     0.014 C 
BRANCH   5   6
ATOM      6  C   UNL     1      38.816  -0.030  -9.867  1.00  0.00     0.004 C 
ATOM      7  C   UNL     1      38.913  -1.225  -8.920  1.00  0.00     0.004 C 
ENDBRANCH   5   6
BRANCH   5   8
ATOM      8  C   UNL     1      37.525   2.274 -10.175  1.00  0.00    -0.011 C 
ATOM      9  C   UNL     1      37.449   3.710  -9.631  1.00  0.00     0.008 C 
ATOM     10  C   UNL     1      38.152   2.272 -11.580  1.00  0.00     0.008 C 
ENDBRANCH   5   8
ENDBRANCH   4   5
ENDBRANCH   1   3
BRANCH   1  11
ATOM     11  C   UNL     1      42.480   3.401  -8.359  1.00  0.00     0.002 C 
ATOM     12  C   UNL     1      43.502   4.235  -7.563  1.00  0.00     0.005 C 
ATOM     13  C   UNL     1      41.739   4.427  -9.259  1.00  0.00    -0.023 C 
ATOM     14  C   UNL     1      43.805   5.469  -8.420  1.00  0.00     0.009 C 
ATOM     15  C   UNL     1      42.895   5.375  -9.653  1.00  0.00     0.021 C 
ATOM     16  C   UNL     1      40.623   5.189  -8.475  1.00  0.00     0.008 C 
ATOM     17  C   UNL     1      41.143   3.747 -10.515  1.00  0.00     0.012 C 
ATOM     18  C   UNL     1      42.402   6.718 -10.169  1.00  0.00    -0.067 C 
ATOM     19  C   UNL     1      40.161   6.490  -9.156  1.00  0.00     0.009 C 
ATOM     20  C   UNL     1      41.351   7.457  -9.342  1.00  0.00     0.021 C 
ATOM     21  C   UNL     1      42.720   7.086 -11.431  1.00  0.00    -0.027 C 
ATOM     22  C   UNL     1      41.004   8.888  -9.916  1.00  0.00    -0.023 C 
ATOM     23  C   UNL     1      42.178   8.313 -12.110  1.00  0.00     0.031 C 
ATOM     24  C   UNL     1      40.869   8.796 -11.469  1.00  0.00     0.002 C 
ATOM     25  C   UNL     1      39.666   9.443  -9.336  1.00  0.00     0.010 C 
ATOM     26  C   UNL     1      42.162   9.844  -9.493  1.00  0.00     0.012 C 
ATOM     27  C   UNL     1      40.408  10.122 -12.119  1.00  0.00     0.036 C 
ATOM     28  C   UNL     1      39.254  10.782  -9.965  1.00  0.00     0.032 C 
ATOM     29  C   UNL     1      39.109  10.645 -11.489  1.00  0.00     0.114 C 
BRANCH  29  30
ATOM     30  O   UNL     1      38.795  11.890 -12.055  1.00  0.00    -0.393 OA
ATOM     31  H   UNL     1      37.948  11.770 -12.560  1.00  0.00     0.210 HD
ENDBRANCH  29  30
ENDBRANCH   1  11
TORSDOF 6
ENDMDL
MODEL 2
REMARK VINA RESULT:    -4.378     14.202     16.230
REMARK INTER + INTRA:          -6.587
REMARK INTER:                  -6.228
REMARK INTRA:                  -0.359
REMARK UNBOUND:                -0.802
REMARK SMILES CC[C@@H](C=C[C@@H](C)[C@@H]1CC[C@@H]2C3=CC[C@@H]4C[C@H](O)CC[C@@]4(C)[C@H]3CC[C@@]21C)C(C)C
REMARK SMILES IDX 6 1 7 2 5 3 4 4 3 5 2 6 1 7 28 8 29 9 30 10 8 11 9 12 26 13
REMARK SMILES IDX 10 14 11 15 25 16 27 17 12 18 24 19 23 20 13 21 21 22 14 23
REMARK SMILES IDX 15 24 20 25 22 26 16 27 19 28 17 29 18 30
REMARK H PARENT 18 31
REMARK Flexibility Score: inf
ROOT
ATOM      1  C   UNL     1      42.344  11.425   4.525  1.00  0.00     0.012 C 
ATOM      2  C   UNL     1      43.643  12.125   4.966  1.00  0.00     0.012 C 
ENDROOT
BRANCH   1   3
ATOM      3  C   UNL     1      42.148  11.607   3.033  1.00  0.00    -0.028 C 
ATOM      4  C   UNL     1      41.970  10.572   2.193  1.00  0.00    -0.027 C 
BRANCH   4   5
ATOM      5  C   UNL     1      41.792  10.731   0.694  1.00  0.00     0.014 C 
BRANCH   5   6
ATOM      6  C   UNL     1      41.178  12.120   0.364  1.00  0.00     0.004 C 
ATOM      7  C   UNL     1      39.651  12.125   0.311  1.00  0.00     0.004 C 
ENDBRANCH   5   6
BRANCH   5   8
ATOM      8  C   UNL     1      41.076   9.478   0.082  1.00  0.00    -0.011 C 
ATOM      9  C   UNL     1      41.515   9.120  -1.347  1.00  0.00     0.008 C 
ATOM     10  C   UNL     1      41.179   8.242   0.993  1.00  0.00     0.008 C 
ENDBRANCH   5   8
ENDBRANCH   4   5
ENDBRANCH   1   3
BRANCH   1  11
ATOM     11  C   UNL     1      41.043  11.808   5.320  1.00  0.00     0.002 C 
ATOM     12  C   UNL     1      41.065  11.605   6.848  1.00  0.00     0.005 C 
ATOM     13  C   UNL     1      39.719  11.147   4.848  1.00  0.00    -0.023 C 
ATOM     14  C   UNL     1      39.601  11.483   7.284  1.00  0.00     0.009 C 
ATOM     15  C   UNL     1      38.761  11.530   5.999  1.00  0.00     0.021 C 
ATOM     16  C   UNL     1      39.857   9.596   4.718  1.00  0.00     0.008 C 
ATOM     17  C   UNL     1      39.232  11.756   3.511  1.00  0.00     0.012 C 
ATOM     18  C   UNL     1      37.513  10.662   6.037  1.00  0.00    -0.067 C 
ATOM     19  C   UNL     1      38.511   8.852   4.686  1.00  0.00     0.009 C 
ATOM     20  C   UNL     1      37.696   9.146   5.965  1.00  0.00     0.021 C 
ATOM     21  C   UNL     1      36.305  11.252   5.890  1.00  0.00    -0.027 C 
ATOM     22  C   UNL     1      36.342   8.350   6.130  1.00  0.00    -0.023 C 
ATOM     23  C   UNL     1      35.011  10.498   5.763  1.00  0.00     0.031 C 
ATOM     24  C   UNL     1      35.230   9.053   5.290  1.00  0.00     0.002 C 
ATOM     25  C   UNL     1      36.469   6.873   5.642  1.00  0.00     0.010 C 
ATOM     26  C   UNL     1      35.998   8.342   7.651  1.00  0.00     0.012 C 
ATOM     27  C   UNL     1      33.890   8.280   5.285  1.00  0.00     0.036 C 
ATOM     28  C   UNL     1      35.134   6.114   5.689  1.00  0.00     0.032 C 
ATOM     29  C   UNL     1      34.074   6.825   4.833  1.00  0.00     0.114 C 
BRANCH  29  30
ATOM     30  O   UNL     1      32.845   6.154   4.938  1.00  0.00    -0.393 OA
ATOM     31  H   UNL     1      32.546   5.958   4.011  1.00  0.00     0.210 HD
ENDBRANCH  29  30
ENDBRANCH   1  11
TORSDOF 6
ENDMDL
MODEL 3
REMARK VINA RESULT:    -4.265      2.508      7.236
REMARK INTER + INTRA:          -6.438
REMARK INTER:                  -6.426
REMARK INTRA:                  -0.012
REMARK UNBOUND:                -0.802
REMARK SMILES CC[C@@H](C=C[C@@H](C)[C@@H]1CC[C@@H]2C3=CC[C@@H]4C[C@H](O)CC[C@@]4(C)[C@H]3CC[C@@]21C)C(C)C
REMARK SMILES IDX 6 1 7 2 5 3 4 4 3 5 2 6 1 7 28 8 29 9 30 10 8 11 9 12 26 13
REMARK SMILES IDX 10 14 11 15 25 16 27 17 12 18 24 19 23 20 13 21 21 22 14 23
REMARK SMILES IDX 15 24 20 25 22 26 16 27 19 28 17 29 18 30
REMARK H PARENT 18 31
REMARK Flexibility Score: inf
ROOT
ATOM      1  C   UNL     1      43.914   8.389  -9.895  1.00  0.00     0.012 C 
ATOM      2  C   UNL     1      43.654   9.037  -8.522  1.00  0.00     0.012 C 
ENDROOT
BRANCH   1   3
ATOM      3  C   UNL     1      43.044   9.052 -10.944  1.00  0.00    -0.028 C 
ATOM      4  C   UNL     1      42.016   9.861 -10.628  1.00  0.00    -0.027 C 
BRANCH   4   5
ATOM      5  C   UNL     1      41.120  10.519 -11.662  1.00  0.00     0.014 C 
BRANCH   5   6
ATOM      6  C   UNL     1      41.647  11.938 -12.013  1.00  0.00     0.004 C 
ATOM      7  C   UNL     1      43.158  12.095 -11.854  1.00  0.00     0.004 C 
ENDBRANCH   5   6
BRANCH   5   8
ATOM      8  C   UNL     1      39.613  10.408 -11.243  1.00  0.00    -0.011 C 
ATOM      9  C   UNL     1      39.381   9.996  -9.780  1.00  0.00     0.008 C 
ATOM     10  C   UNL     1      38.820  11.686 -11.566  1.00  0.00     0.008 C 
ENDBRANCH   5   8
ENDBRANCH   4   5
ENDBRANCH   1   3
BRANCH   1  11
ATOM     11  C   UNL     1      43.789   6.823  -9.961  1.00  0.00     0.002 C 
ATOM     12  C   UNL     1      44.115   6.145 -11.306  1.00  0.00     0.005 C 
ATOM     13  C   UNL     1      42.429   6.214  -9.525  1.00  0.00    -0.023 C 
ATOM     14  C   UNL     1      43.392   4.794 -11.290  1.00  0.00     0.009 C 
ATOM     15  C   UNL     1      42.594   4.746  -9.979  1.00  0.00     0.021 C 
ATOM     16  C   UNL     1      41.226   6.900 -10.249  1.00  0.00     0.008 C 
ATOM     17  C   UNL     1      42.244   6.290  -7.990  1.00  0.00     0.012 C 
ATOM     18  C   UNL     1      41.265   4.011 -10.084  1.00  0.00    -0.067 C 
ATOM     19  C   UNL     1      39.924   6.081 -10.206  1.00  0.00     0.009 C 
ATOM     20  C   UNL     1      40.133   4.693 -10.850  1.00  0.00     0.021 C 
ATOM     21  C   UNL     1      41.062   2.922  -9.309  1.00  0.00    -0.027 C 
ATOM     22  C   UNL     1      38.846   3.787 -10.990  1.00  0.00    -0.023 C 
ATOM     23  C   UNL     1      39.749   2.196  -9.208  1.00  0.00     0.031 C 
ATOM     24  C   UNL     1      38.567   3.082  -9.625  1.00  0.00     0.002 C 
ATOM     25  C   UNL     1      37.585   4.617 -11.384  1.00  0.00     0.010 C 
ATOM     26  C   UNL     1      39.134   2.755 -12.124  1.00  0.00     0.012 C 
ATOM     27  C   UNL     1      37.253   2.265  -9.620  1.00  0.00     0.036 C 
ATOM     28  C   UNL     1      36.302   3.774 -11.414  1.00  0.00     0.032 C 
ATOM     29  C   UNL     1      36.050   3.117 -10.048  1.00  0.00     0.114 C 
BRANCH  29  30
ATOM     30  O   UNL     1      34.911   2.300 -10.112  1.00  0.00    -0.393 OA
ATOM     31  H   UNL     1      34.581   2.341 -11.048  1.00  0.00     0.210 HD
ENDBRANCH  29  30
ENDBRANCH   1  11
TORSDOF 6
ENDMDL
MODEL 4
REMARK VINA RESULT:    -3.616     13.474     15.351
REMARK INTER + INTRA:          -5.581
REMARK INTER:                  -5.746
REMARK INTRA:                   0.165
REMARK UNBOUND:                -0.802
REMARK SMILES CC[C@@H](C=C[C@@H](C)[C@@H]1CC[C@@H]2C3=CC[C@@H]4C[C@H](O)CC[C@@]4(C)[C@H]3CC[C@@]21C)C(C)C
REMARK SMILES IDX 6 1 7 2 5 3 4 4 3 5 2 6 1 7 28 8 29 9 30 10 8 11 9 12 26 13
REMARK SMILES IDX 10 14 11 15 25 16 27 17 12 18 24 19 23 20 13 21 21 22 14 23
REMARK SMILES IDX 15 24 20 25 22 26 16 27 19 28 17 29 18 30
REMARK H PARENT 18 31
REMARK Flexibility Score: inf
ROOT
ATOM      1  C   UNL     1      42.217  11.149   1.781  1.00  0.00     0.012 C 
ATOM      2  C   UNL     1      43.078  12.125   0.957  1.00  0.00     0.012 C 
ENDROOT
BRANCH   1   3
ATOM      3  C   UNL     1      41.270  10.405   0.862  1.00  0.00    -0.028 C 
ATOM      4  C   UNL     1      41.696   9.694  -0.198  1.00  0.00    -0.027 C 
BRANCH   4   5
ATOM      5  C   UNL     1      40.763   8.959  -1.142  1.00  0.00     0.014 C 
BRANCH   5   6
ATOM      6  C   UNL     1      40.614   7.473  -0.711  1.00  0.00     0.004 C 
ATOM      7  C   UNL     1      41.081   7.193   0.717  1.00  0.00     0.004 C 
ENDBRANCH   5   6
BRANCH   5   8
ATOM      8  C   UNL     1      41.160   9.224  -2.635  1.00  0.00    -0.011 C 
ATOM      9  C   UNL     1      42.508   8.620  -3.060  1.00  0.00     0.008 C 
ATOM     10  C   UNL     1      40.056   8.800  -3.619  1.00  0.00     0.008 C 
ENDBRANCH   5   8
ENDBRANCH   4   5
ENDBRANCH   1   3
BRANCH   1  11
ATOM     11  C   UNL     1      41.453  11.764   3.010  1.00  0.00     0.002 C 
ATOM     12  C   UNL     1      42.220  11.859   4.343  1.00  0.00     0.005 C 
ATOM     13  C   UNL     1      40.091  11.114   3.378  1.00  0.00    -0.023 C 
ATOM     14  C   UNL     1      41.158  11.920   5.445  1.00  0.00     0.009 C 
ATOM     15  C   UNL     1      39.799  11.775   4.744  1.00  0.00     0.021 C 
ATOM     16  C   UNL     1      40.204   9.562   3.511  1.00  0.00     0.008 C 
ATOM     17  C   UNL     1      38.995  11.485   2.350  1.00  0.00     0.012 C 
ATOM     18  C   UNL     1      38.758  11.015   5.553  1.00  0.00    -0.067 C 
ATOM     19  C   UNL     1      39.039   8.916   4.283  1.00  0.00     0.009 C 
ATOM     20  C   UNL     1      38.938   9.506   5.707  1.00  0.00     0.021 C 
ATOM     21  C   UNL     1      37.610  11.646   5.891  1.00  0.00    -0.027 C 
ATOM     22  C   UNL     1      37.863   8.848   6.659  1.00  0.00    -0.023 C 
ATOM     23  C   UNL     1      36.445  10.969   6.557  1.00  0.00     0.031 C 
ATOM     24  C   UNL     1      36.459   9.449   6.338  1.00  0.00     0.002 C 
ATOM     25  C   UNL     1      37.790   7.300   6.479  1.00  0.00     0.010 C 
ATOM     26  C   UNL     1      38.301   9.156   8.125  1.00  0.00     0.012 C 
ATOM     27  C   UNL     1      35.314   8.780   7.135  1.00  0.00     0.036 C 
ATOM     28  C   UNL     1      36.675   6.654   7.314  1.00  0.00     0.032 C 
ATOM     29  C   UNL     1      35.307   7.256   6.953  1.00  0.00     0.114 C 
BRANCH  29  30
ATOM     30  O   UNL     1      34.309   6.701   7.769  1.00  0.00    -0.393 OA
ATOM     31  H   UNL     1      34.120   7.367   8.482  1.00  0.00     0.210 HD
ENDBRANCH  29  30
ENDBRANCH   1  11
TORSDOF 6
ENDMDL
MODEL 5
REMARK VINA RESULT:    -3.427      1.908      4.207
REMARK INTER + INTRA:          -5.330
REMARK INTER:                  -5.108
REMARK INTRA:                  -0.222
REMARK UNBOUND:                -0.802
REMARK SMILES CC[C@@H](C=C[C@@H](C)[C@@H]1CC[C@@H]2C3=CC[C@@H]4C[C@H](O)CC[C@@]4(C)[C@H]3CC[C@@]21C)C(C)C
REMARK SMILES IDX 6 1 7 2 5 3 4 4 3 5 2 6 1 7 28 8 29 9 30 10 8 11 9 12 26 13
REMARK SMILES IDX 10 14 11 15 25 16 27 17 12 18 24 19 23 20 13 21 21 22 14 23
REMARK SMILES IDX 15 24 20 25 22 26 16 27 19 28 17 29 18 30
REMARK H PARENT 18 31
REMARK Flexibility Score: inf
ROOT
ATOM      1  C   UNL     1      39.559   2.190  -7.912  1.00  0.00     0.012 C 
ATOM      2  C   UNL     1      39.151   2.737  -6.532  1.00  0.00     0.012 C 
ENDROOT
BRANCH   1   3
ATOM      3  C   UNL     1      41.021   1.790  -7.889  1.00  0.00    -0.028 C 
ATOM      4  C   UNL     1      41.930   2.409  -7.115  1.00  0.00    -0.027 C 
BRANCH   4   5
ATOM      5  C   UNL     1      43.402   2.037  -7.092  1.00  0.00     0.014 C 
BRANCH   5   6
ATOM      6  C   UNL     1      43.979   2.015  -8.535  1.00  0.00     0.004 C 
ATOM      7  C   UNL     1      43.974   3.378  -9.225  1.00  0.00     0.004 C 
ENDBRANCH   5   6
BRANCH   5   8
ATOM      8  C   UNL     1      43.639   0.759  -6.216  1.00  0.00    -0.011 C 
ATOM      9  C   UNL     1      42.616   0.554  -5.087  1.00  0.00     0.008 C 
ATOM     10  C   UNL     1      43.756  -0.519  -7.064  1.00  0.00     0.008 C 
ENDBRANCH   5   8
ENDBRANCH   4   5
ENDBRANCH   1   3
BRANCH   1  11
ATOM     11  C   UNL     1      39.240   3.109  -9.148  1.00  0.00     0.002 C 
ATOM     12  C   UNL     1      39.866   2.714 -10.500  1.00  0.00     0.005 C 
ATOM     13  C   UNL     1      39.551   4.621  -8.989  1.00  0.00    -0.023 C 
ATOM     14  C   UNL     1      39.903   3.993 -11.342  1.00  0.00     0.009 C 
ATOM     15  C   UNL     1      39.379   5.121 -10.441  1.00  0.00     0.021 C 
ATOM     16  C   UNL     1      41.006   4.865  -8.473  1.00  0.00     0.008 C 
ATOM     17  C   UNL     1      38.529   5.311  -8.053  1.00  0.00     0.012 C 
ATOM     18  C   UNL     1      40.042   6.470 -10.680  1.00  0.00    -0.067 C 
ATOM     19  C   UNL     1      41.517   6.298  -8.707  1.00  0.00     0.009 C 
ATOM     20  C   UNL     1      41.485   6.647 -10.212  1.00  0.00     0.021 C 
ATOM     21  C   UNL     1      39.272   7.513 -11.066  1.00  0.00    -0.027 C 
ATOM     22  C   UNL     1      42.101   8.045 -10.617  1.00  0.00    -0.023 C 
ATOM     23  C   UNL     1      39.773   8.924 -11.193  1.00  0.00     0.031 C 
ATOM     24  C   UNL     1      41.042   9.163 -10.361  1.00  0.00     0.002 C 
ATOM     25  C   UNL     1      43.383   8.381  -9.794  1.00  0.00     0.010 C 
ATOM     26  C   UNL     1      42.490   7.953 -12.125  1.00  0.00     0.012 C 
ATOM     27  C   UNL     1      41.589  10.588 -10.611  1.00  0.00     0.036 C 
ATOM     28  C   UNL     1      43.932   9.784 -10.092  1.00  0.00     0.032 C 
ATOM     29  C   UNL     1      42.869  10.856  -9.806  1.00  0.00     0.114 C 
BRANCH  29  30
ATOM     30  O   UNL     1      43.365  12.125 -10.145  1.00  0.00    -0.393 OA
ATOM     31  H   UNL     1      44.213  11.977 -10.643  1.00  0.00     0.210 HD
ENDBRANCH  29  30
ENDBRANCH   1  11
TORSDOF 6
ENDMDL
MODEL 6
REMARK VINA RESULT:    -3.100      1.598      2.750
REMARK INTER + INTRA:          -4.898
REMARK INTER:                  -6.629
REMARK INTRA:                   1.730
REMARK UNBOUND:                -0.802
REMARK SMILES CC[C@@H](C=C[C@@H](C)[C@@H]1CC[C@@H]2C3=CC[C@@H]4C[C@H](O)CC[C@@]4(C)[C@H]3CC[C@@]21C)C(C)C
REMARK SMILES IDX 6 1 7 2 5 3 4 4 3 5 2 6 1 7 28 8 29 9 30 10 8 11 9 12 26 13
REMARK SMILES IDX 10 14 11 15 25 16 27 17 12 18 24 19 23 20 13 21 21 22 14 23
REMARK SMILES IDX 15 24 20 25 22 26 16 27 19 28 17 29 18 30
REMARK H PARENT 18 31
REMARK Flexibility Score: inf
ROOT
ATOM      1  C   UNL     1      39.159   1.587  -8.652  1.00  0.00     0.012 C 
ATOM      2  C   UNL     1      39.026   0.056  -8.751  1.00  0.00     0.012 C 
ENDROOT
BRANCH   1   3
ATOM      3  C   UNL     1      38.344   2.241  -9.749  1.00  0.00    -0.028 C 
ATOM      4  C   UNL     1      37.149   2.815  -9.521  1.00  0.00    -0.027 C 
BRANCH   4   5
ATOM      5  C   UNL     1      36.307   3.457 -10.609  1.00  0.00     0.014 C 
BRANCH   5   6
ATOM      6  C   UNL     1      34.939   2.731 -10.737  1.00  0.00     0.004 C 
ATOM      7  C   UNL     1      34.109   2.741  -9.455  1.00  0.00     0.004 C 
ENDBRANCH   5   6
BRANCH   5   8
ATOM      8  C   UNL     1      37.140   3.634 -11.925  1.00  0.00    -0.011 C 
ATOM      9  C   UNL     1      37.825   5.002 -12.074  1.00  0.00     0.008 C 
ATOM     10  C   UNL     1      38.165   2.504 -12.125  1.00  0.00     0.008 C 
ENDBRANCH   5   8
ENDBRANCH   4   5
ENDBRANCH   1   3
BRANCH   1  11
ATOM     11  C   UNL     1      40.624   2.158  -8.616  1.00  0.00     0.002 C 
ATOM     12  C   UNL     1      41.210   2.506  -7.234  1.00  0.00     0.005 C 
ATOM     13  C   UNL     1      40.907   3.405  -9.496  1.00  0.00    -0.023 C 
ATOM     14  C   UNL     1      42.324   3.527  -7.487  1.00  0.00     0.009 C 
ATOM     15  C   UNL     1      42.310   3.818  -8.995  1.00  0.00     0.021 C 
ATOM     16  C   UNL     1      39.861   4.539  -9.253  1.00  0.00     0.008 C 
ATOM     17  C   UNL     1      40.956   3.033 -10.998  1.00  0.00     0.012 C 
ATOM     18  C   UNL     1      42.663   5.253  -9.357  1.00  0.00    -0.067 C 
ATOM     19  C   UNL     1      40.318   5.924  -9.744  1.00  0.00     0.009 C 
ATOM     20  C   UNL     1      41.634   6.340  -9.049  1.00  0.00     0.021 C 
ATOM     21  C   UNL     1      43.742   5.479 -10.141  1.00  0.00    -0.027 C 
ATOM     22  C   UNL     1      42.158   7.797  -9.363  1.00  0.00    -0.023 C 
ATOM     23  C   UNL     1      44.113   6.828 -10.689  1.00  0.00     0.031 C 
ATOM     24  C   UNL     1      42.913   7.785 -10.729  1.00  0.00     0.002 C 
ATOM     25  C   UNL     1      40.994   8.832  -9.450  1.00  0.00     0.010 C 
ATOM     26  C   UNL     1      43.099   8.207  -8.187  1.00  0.00     0.012 C 
ATOM     27  C   UNL     1      43.362   9.193 -11.188  1.00  0.00     0.036 C 
ATOM     28  C   UNL     1      41.472  10.231  -9.864  1.00  0.00     0.032 C 
ATOM     29  C   UNL     1      42.188  10.182 -11.223  1.00  0.00     0.114 C 
BRANCH  29  30
ATOM     30  O   UNL     1      42.674  11.456 -11.556  1.00  0.00    -0.393 OA
ATOM     31  H   UNL     1      43.656  11.366 -11.673  1.00  0.00     0.210 HD
ENDBRANCH  29  30
ENDBRANCH   1  11
TORSDOF 6
ENDMDL
MODEL 7
REMARK VINA RESULT:    -2.990     14.030     15.893
REMARK INTER + INTRA:          -4.753
REMARK INTER:                  -5.006
REMARK INTRA:                   0.253
REMARK UNBOUND:                -0.802
REMARK SMILES CC[C@@H](C=C[C@@H](C)[C@@H]1CC[C@@H]2C3=CC[C@@H]4C[C@H](O)CC[C@@]4(C)[C@H]3CC[C@@]21C)C(C)C
REMARK SMILES IDX 6 1 7 2 5 3 4 4 3 5 2 6 1 7 28 8 29 9 30 10 8 11 9 12 26 13
REMARK SMILES IDX 10 14 11 15 25 16 27 17 12 18 24 19 23 20 13 21 21 22 14 23
REMARK SMILES IDX 15 24 20 25 22 26 16 27 19 28 17 29 18 30
REMARK H PARENT 18 31
REMARK Flexibility Score: inf
ROOT
ATOM      1  C   UNL     1      41.794  10.670   3.591  1.00  0.00     0.012 C 
ATOM      2  C   UNL     1      41.912  12.125   3.101  1.00  0.00     0.012 C 
ENDROOT
BRANCH   1   3
ATOM      3  C   UNL     1      41.091   9.834   2.541  1.00  0.00    -0.028 C 
ATOM      4  C   UNL     1      41.656   9.533   1.357  1.00  0.00    -0.027 C 
BRANCH   4   5
ATOM      5  C   UNL     1      40.962   8.715   0.283  1.00  0.00     0.014 C 
BRANCH   5   6
ATOM      6  C   UNL     1      41.184   7.197   0.528  1.00  0.00     0.004 C 
ATOM      7  C   UNL     1      40.681   6.708   1.885  1.00  0.00     0.004 C 
ENDBRANCH   5   6
BRANCH   5   8
ATOM      8  C   UNL     1      41.314   9.259  -1.145  1.00  0.00    -0.011 C 
ATOM      9  C   UNL     1      42.662   8.777  -1.703  1.00  0.00     0.008 C 
ATOM     10  C   UNL     1      40.193   8.994  -2.165  1.00  0.00     0.008 C 
ENDBRANCH   5   8
ENDBRANCH   4   5
ENDBRANCH   1   3
BRANCH   1  11
ATOM     11  C   UNL     1      41.145  10.464   5.009  1.00  0.00     0.002 C 
ATOM     12  C   UNL     1      41.724   9.343   5.893  1.00  0.00     0.005 C 
ATOM     13  C   UNL     1      39.608  10.249   5.046  1.00  0.00    -0.023 C 
ATOM     14  C   UNL     1      40.621   8.972   6.890  1.00  0.00     0.009 C 
ATOM     15  C   UNL     1      39.397   9.819   6.516  1.00  0.00     0.021 C 
ATOM     16  C   UNL     1      39.153   9.129   4.057  1.00  0.00     0.008 C 
ATOM     17  C   UNL     1      38.848  11.565   4.751  1.00  0.00     0.012 C 
ATOM     18  C   UNL     1      38.063   9.121   6.737  1.00  0.00    -0.067 C 
ATOM     19  C   UNL     1      37.749   8.570   4.351  1.00  0.00     0.009 C 
ATOM     20  C   UNL     1      37.683   7.991   5.781  1.00  0.00     0.021 C 
ATOM     21  C   UNL     1      37.176   9.671   7.597  1.00  0.00    -0.027 C 
ATOM     22  C   UNL     1      36.336   7.269   6.180  1.00  0.00    -0.023 C 
ATOM     23  C   UNL     1      35.774   9.166   7.795  1.00  0.00     0.031 C 
ATOM     24  C   UNL     1      35.282   8.344   6.594  1.00  0.00     0.002 C 
ATOM     25  C   UNL     1      35.749   6.431   5.002  1.00  0.00     0.010 C 
ATOM     26  C   UNL     1      36.667   6.302   7.359  1.00  0.00     0.012 C 
ATOM     27  C   UNL     1      33.886   7.747   6.887  1.00  0.00     0.036 C 
ATOM     28  C   UNL     1      34.383   5.813   5.333  1.00  0.00     0.032 C 
ATOM     29  C   UNL     1      33.369   6.904   5.713  1.00  0.00     0.114 C 
BRANCH  29  30
ATOM     30  O   UNL     1      32.146   6.317   6.074  1.00  0.00    -0.393 OA
ATOM     31  H   UNL     1      31.723   5.998   5.234  1.00  0.00     0.210 HD
ENDBRANCH  29  30
ENDBRANCH   1  11
TORSDOF 6
ENDMDL
MODEL 8
REMARK VINA RESULT:    -2.880     15.112     16.780
REMARK INTER + INTRA:          -4.607
REMARK INTER:                  -5.406
REMARK INTRA:                   0.799
REMARK UNBOUND:                -0.802
REMARK SMILES CC[C@@H](C=C[C@@H](C)[C@@H]1CC[C@@H]2C3=CC[C@@H]4C[C@H](O)CC[C@@]4(C)[C@H]3CC[C@@]21C)C(C)C
REMARK SMILES IDX 6 1 7 2 5 3 4 4 3 5 2 6 1 7 28 8 29 9 30 10 8 11 9 12 26 13
REMARK SMILES IDX 10 14 11 15 25 16 27 17 12 18 24 19 23 20 13 21 21 22 14 23
REMARK SMILES IDX 15 24 20 25 22 26 16 27 19 28 17 29 18 30
REMARK H PARENT 18 31
REMARK Flexibility Score: inf
ROOT
ATOM      1  C   UNL     1      34.298   7.297   5.893  1.00  0.00     0.012 C 
ATOM      2  C   UNL     1      33.620   6.439   4.808  1.00  0.00     0.012 C 
ENDROOT
BRANCH   1   3
ATOM      3  C   UNL     1      34.388   8.735   5.425  1.00  0.00    -0.028 C 
ATOM      4  C   UNL     1      34.441   9.071   4.123  1.00  0.00    -0.027 C 
BRANCH   4   5
ATOM      5  C   UNL     1      34.552  10.503   3.633  1.00  0.00     0.014 C 
BRANCH   5   6
ATOM      6  C   UNL     1      34.099  11.494   4.741  1.00  0.00     0.004 C 
ATOM      7  C   UNL     1      35.205  11.869   5.727  1.00  0.00     0.004 C 
ENDBRANCH   5   6
BRANCH   5   8
ATOM      8  C   UNL     1      33.881  10.663   2.225  1.00  0.00    -0.011 C 
ATOM      9  C   UNL     1      32.367  10.393   2.199  1.00  0.00     0.008 C 
ATOM     10  C   UNL     1      34.187  12.026   1.581  1.00  0.00     0.008 C 
ENDBRANCH   5   8
ENDBRANCH   4   5
ENDBRANCH   1   3
BRANCH   1  11
ATOM     11  C   UNL     1      35.687   6.782   6.420  1.00  0.00     0.002 C 
ATOM     12  C   UNL     1      35.934   6.848   7.939  1.00  0.00     0.005 C 
ATOM     13  C   UNL     1      36.952   7.416   5.781  1.00  0.00    -0.023 C 
ATOM     14  C   UNL     1      37.455   6.860   8.125  1.00  0.00     0.009 C 
ATOM     15  C   UNL     1      38.063   6.886   6.715  1.00  0.00     0.021 C 
ATOM     16  C   UNL     1      36.893   8.977   5.799  1.00  0.00     0.008 C 
ATOM     17  C   UNL     1      37.169   6.905   4.336  1.00  0.00     0.012 C 
ATOM     18  C   UNL     1      39.353   7.686   6.606  1.00  0.00    -0.067 C 
ATOM     19  C   UNL     1      38.259   9.655   5.595  1.00  0.00     0.009 C 
ATOM     20  C   UNL     1      39.256   9.208   6.687  1.00  0.00     0.021 C 
ATOM     21  C   UNL     1      40.479   7.052   6.207  1.00  0.00    -0.027 C 
ATOM     22  C   UNL     1      40.666   9.920   6.678  1.00  0.00    -0.023 C 
ATOM     23  C   UNL     1      41.778   7.750   5.918  1.00  0.00     0.031 C 
ATOM     24  C   UNL     1      41.575   9.240   5.606  1.00  0.00     0.002 C 
ATOM     25  C   UNL     1      40.554  11.439   6.338  1.00  0.00     0.010 C 
ATOM     26  C   UNL     1      41.261   9.776   8.113  1.00  0.00     0.012 C 
ATOM     27  C   UNL     1      42.942   9.944   5.431  1.00  0.00     0.036 C 
ATOM     28  C   UNL     1      41.922  12.125   6.214  1.00  0.00     0.032 C 
ATOM     29  C   UNL     1      42.777  11.442   5.134  1.00  0.00     0.114 C 
BRANCH  29  30
ATOM     30  O   UNL     1      44.046  12.039   5.079  1.00  0.00    -0.393 OA
ATOM     31  H   UNL     1      44.044  12.778   5.743  1.00  0.00     0.210 HD
ENDBRANCH  29  30
ENDBRANCH   1  11
TORSDOF 6
ENDMDL
MODEL 9
REMARK VINA RESULT:    -2.801      3.229      8.222
REMARK INTER + INTRA:          -4.503
REMARK INTER:                  -4.461
REMARK INTRA:                  -0.042
REMARK UNBOUND:                -0.802
REMARK SMILES CC[C@@H](C=C[C@@H](C)[C@@H]1CC[C@@H]2C3=CC[C@@H]4C[C@H](O)CC[C@@]4(C)[C@H]3CC[C@@]21C)C(C)C
REMARK SMILES IDX 6 1 7 2 5 3 4 4 3 5 2 6 1 7 28 8 29 9 30 10 8 11 9 12 26 13
REMARK SMILES IDX 10 14 11 15 25 16 27 17 12 18 24 19 23 20 13 21 21 22 14 23
REMARK SMILES IDX 15 24 20 25 22 26 16 27 19 28 17 29 18 30
REMARK H PARENT 18 31
REMARK Flexibility Score: inf
ROOT
ATOM      1  C   UNL     1      39.518   8.190 -11.292  1.00  0.00     0.012 C 
ATOM      2  C   UNL     1      38.194   8.522 -12.005  1.00  0.00     0.012 C 
ENDROOT
BRANCH   1   3
ATOM      3  C   UNL     1      40.497   9.331 -11.477  1.00  0.00    -0.028 C 
ATOM      4  C   UNL     1      41.208   9.850 -10.459  1.00  0.00    -0.027 C 
BRANCH   4   5
ATOM      5  C   UNL     1      42.178  11.006 -10.620  1.00  0.00     0.014 C 
BRANCH   5   6
ATOM      6  C   UNL     1      41.878  11.790 -11.927  1.00  0.00     0.004 C 
ATOM      7  C   UNL     1      40.401  12.125 -12.124  1.00  0.00     0.004 C 
ENDBRANCH   5   6
BRANCH   5   8
ATOM      8  C   UNL     1      43.656  10.526 -10.406  1.00  0.00    -0.011 C 
ATOM      9  C   UNL     1      43.947   9.939  -9.015  1.00  0.00     0.008 C 
ATOM     10  C   UNL     1      44.118   9.549 -11.501  1.00  0.00     0.008 C 
ENDBRANCH   5   8
ENDBRANCH   4   5
ENDBRANCH   1   3
BRANCH   1  11
ATOM     11  C   UNL     1      40.178   6.810 -11.657  1.00  0.00     0.002 C 
ATOM     12  C   UNL     1      39.239   5.681 -12.125  1.00  0.00     0.005 C 
ATOM     13  C   UNL     1      41.076   6.158 -10.570  1.00  0.00    -0.023 C 
ATOM     14  C   UNL     1      39.983   4.368 -11.858  1.00  0.00     0.009 C 
ATOM     15  C   UNL     1      41.299   4.750 -11.165  1.00  0.00     0.021 C 
ATOM     16  C   UNL     1      40.353   6.083  -9.187  1.00  0.00     0.008 C 
ATOM     17  C   UNL     1      42.423   6.908 -10.430  1.00  0.00     0.012 C 
ATOM     18  C   UNL     1      41.772   3.743 -10.127  1.00  0.00    -0.067 C 
ATOM     19  C   UNL     1      40.989   5.082  -8.206  1.00  0.00     0.009 C 
ATOM     20  C   UNL     1      41.001   3.661  -8.810  1.00  0.00     0.021 C 
ATOM     21  C   UNL     1      42.973   3.145 -10.302  1.00  0.00    -0.027 C 
ATOM     22  C   UNL     1      41.513   2.504  -7.864  1.00  0.00    -0.023 C 
ATOM     23  C   UNL     1      43.619   2.247  -9.284  1.00  0.00     0.031 C 
ATOM     24  C   UNL     1      43.074   2.491  -7.870  1.00  0.00     0.002 C 
ATOM     25  C   UNL     1      41.026   2.692  -6.394  1.00  0.00     0.010 C 
ATOM     26  C   UNL     1      40.923   1.168  -8.414  1.00  0.00     0.012 C 
ATOM     27  C   UNL     1      43.678   1.471  -6.876  1.00  0.00     0.036 C 
ATOM     28  C   UNL     1      41.604   1.640  -5.435  1.00  0.00     0.032 C 
ATOM     29  C   UNL     1      43.140   1.676  -5.452  1.00  0.00     0.114 C 
BRANCH  29  30
ATOM     30  O   UNL     1      43.652   0.667  -4.621  1.00  0.00    -0.393 OA
ATOM     31  H   UNL     1      44.581   0.931  -4.389  1.00  0.00     0.210 HD
ENDBRANCH  29  30
ENDBRANCH   1  11
TORSDOF 6
ENDMDL
