MODEL 1
REMARK VINA RESULT:    -7.490      0.000      0.000
REMARK INTER + INTRA:          -9.275
REMARK INTER:                  -9.022
REMARK INTRA:                  -0.252
REMARK UNBOUND:                -0.252
REMARK SMILES Oc1cc(O)c2cc(O)c(-c3ccc(O)c(O)c3)[o+]c2c1
REMARK SMILES IDX 10 1 19 2 20 3 21 4 2 5 3 6 4 7 6 8 7 9 8 10 11 11 12 12
REMARK SMILES IDX 13 13 14 14 18 15 16 16 15 17 17 19 9 21 1 23 5 25
REMARK H PARENT 15 18 17 20 9 22 1 24 5 26
REMARK Flexibility Score: inf
ROOT
ATOM      1  C   UNL     1      24.054  -4.451  24.063  1.00  0.00     0.402 A 
ATOM      2  O   UNL     1      22.921  -4.914  23.540  1.00  0.00    -0.202 OA
ATOM      3  C   UNL     1      22.422  -4.484  22.386  1.00  0.00     0.368 A 
ATOM      4  C   UNL     1      21.223  -5.030  21.919  1.00  0.00     0.162 A 
ATOM      5  C   UNL     1      20.674  -4.593  20.710  1.00  0.00     0.128 A 
ATOM      6  C   UNL     1      21.325  -3.607  19.965  1.00  0.00     0.093 A 
ATOM      7  C   UNL     1      22.527  -3.045  20.412  1.00  0.00     0.136 A 
ATOM      8  C   UNL     1      23.090  -3.486  21.638  1.00  0.00     0.125 A 
ATOM      9  C   UNL     1      24.297  -2.989  22.155  1.00  0.00     0.078 A 
ATOM     10  C   UNL     1      24.793  -3.476  23.368  1.00  0.00     0.223 A 
ENDROOT
BRANCH   1  11
ATOM     11  C   UNL     1      24.503  -5.004  25.362  1.00  0.00     0.087 A 
ATOM     12  C   UNL     1      24.539  -4.213  26.521  1.00  0.00     0.022 A 
ATOM     13  C   UNL     1      24.943  -4.763  27.738  1.00  0.00     0.051 A 
ATOM     14  C   UNL     1      25.306  -6.111  27.828  1.00  0.00     0.157 A 
ATOM     15  C   UNL     1      24.844  -6.362  25.454  1.00  0.00     0.068 A 
ATOM     16  C   UNL     1      25.250  -6.923  26.671  1.00  0.00     0.158 A 
BRANCH  14  17
ATOM     17  O   UNL     1      25.705  -6.597  29.074  1.00  0.00    -0.504 OA
ATOM     18  H   UNL     1      25.373  -7.463  29.475  1.00  0.00     0.293 HD
ENDBRANCH  14  17
BRANCH  16  19
ATOM     19  O   UNL     1      25.587  -8.279  26.685  1.00  0.00    -0.504 OA
ATOM     20  H   UNL     1      24.934  -9.020  26.891  1.00  0.00     0.293 HD
ENDBRANCH  16  19
ENDBRANCH   1  11
BRANCH  10  21
ATOM     21  O   UNL     1      26.017  -3.019  23.859  1.00  0.00    -0.500 OA
ATOM     22  H   UNL     1      26.578  -3.577  24.491  1.00  0.00     0.294 HD
ENDBRANCH  10  21
BRANCH   5  23
ATOM     23  O   UNL     1      19.479  -5.132  20.238  1.00  0.00    -0.507 OA
ATOM     24  H   UNL     1      19.401  -5.510  19.301  1.00  0.00     0.293 HD
ENDBRANCH   5  23
BRANCH   7  25
ATOM     25  O   UNL     1      23.114  -2.062  19.610  1.00  0.00    -0.507 OA
ATOM     26  H   UNL     1      22.651  -1.214  19.317  1.00  0.00     0.293 HD
ENDBRANCH   7  25
TORSDOF 6
ENDMDL
MODEL 2
REMARK VINA RESULT:    -7.364     10.400     12.888
REMARK INTER + INTRA:          -9.123
REMARK INTER:                  -9.021
REMARK INTRA:                  -0.102
REMARK UNBOUND:                -0.252
REMARK SMILES Oc1cc(O)c2cc(O)c(-c3ccc(O)c(O)c3)[o+]c2c1
REMARK SMILES IDX 10 1 19 2 20 3 21 4 2 5 3 6 4 7 6 8 7 9 8 10 11 11 12 12
REMARK SMILES IDX 13 13 14 14 18 15 16 16 15 17 17 19 9 21 1 23 5 25
REMARK H PARENT 15 18 17 20 9 22 1 24 5 26
REMARK Flexibility Score: inf
ROOT
ATOM      1  C   UNL     1      23.207   6.530  23.784  1.00  0.00     0.402 A 
ATOM      2  O   UNL     1      23.394   6.183  25.056  1.00  0.00    -0.202 OA
ATOM      3  C   UNL     1      24.360   6.689  25.814  1.00  0.00     0.368 A 
ATOM      4  C   UNL     1      24.478   6.260  27.140  1.00  0.00     0.162 A 
ATOM      5  C   UNL     1      25.488   6.773  27.959  1.00  0.00     0.128 A 
ATOM      6  C   UNL     1      26.383   7.717  27.452  1.00  0.00     0.093 A 
ATOM      7  C   UNL     1      26.285   8.163  26.128  1.00  0.00     0.136 A 
ATOM      8  C   UNL     1      25.261   7.647  25.293  1.00  0.00     0.125 A 
ATOM      9  C   UNL     1      25.080   8.046  23.958  1.00  0.00     0.078 A 
ATOM     10  C   UNL     1      24.044   7.497  23.197  1.00  0.00     0.223 A 
ENDROOT
BRANCH   1  11
ATOM     11  C   UNL     1      22.100   5.887  23.039  1.00  0.00     0.087 A 
ATOM     12  C   UNL     1      22.317   5.260  21.802  1.00  0.00     0.022 A 
ATOM     13  C   UNL     1      21.262   4.642  21.130  1.00  0.00     0.051 A 
ATOM     14  C   UNL     1      19.975   4.624  21.680  1.00  0.00     0.157 A 
ATOM     15  C   UNL     1      20.815   5.852  23.604  1.00  0.00     0.068 A 
ATOM     16  C   UNL     1      19.751   5.234  22.937  1.00  0.00     0.158 A 
BRANCH  14  17
ATOM     17  O   UNL     1      18.964   3.993  20.955  1.00  0.00    -0.504 OA
ATOM     18  H   UNL     1      18.119   4.453  20.647  1.00  0.00     0.293 HD
ENDBRANCH  14  17
BRANCH  16  19
ATOM     19  O   UNL     1      18.498   5.248  23.555  1.00  0.00    -0.504 OA
ATOM     20  H   UNL     1      17.800   5.960  23.400  1.00  0.00     0.293 HD
ENDBRANCH  16  19
ENDBRANCH   1  11
BRANCH  10  21
ATOM     21  O   UNL     1      23.832   7.928  21.888  1.00  0.00    -0.500 OA
ATOM     22  H   UNL     1      24.373   7.564  21.113  1.00  0.00     0.294 HD
ENDBRANCH  10  21
BRANCH   5  23
ATOM     23  O   UNL     1      25.612   6.350  29.281  1.00  0.00    -0.507 OA
ATOM     24  H   UNL     1      25.859   5.394  29.510  1.00  0.00     0.293 HD
ENDBRANCH   5  23
BRANCH   7  25
ATOM     25  O   UNL     1      27.222   9.108  25.697  1.00  0.00    -0.507 OA
ATOM     26  H   UNL     1      27.544   9.197  24.744  1.00  0.00     0.293 HD
ENDBRANCH   7  25
TORSDOF 6
ENDMDL
MODEL 3
REMARK VINA RESULT:    -7.267     13.298     15.629
REMARK INTER + INTRA:          -9.006
REMARK INTER:                  -8.699
REMARK INTRA:                  -0.306
REMARK UNBOUND:                -0.252
REMARK SMILES Oc1cc(O)c2cc(O)c(-c3ccc(O)c(O)c3)[o+]c2c1
REMARK SMILES IDX 10 1 19 2 20 3 21 4 2 5 3 6 4 7 6 8 7 9 8 10 11 11 12 12
REMARK SMILES IDX 13 13 14 14 18 15 16 16 15 17 17 19 9 21 1 23 5 25
REMARK H PARENT 15 18 17 20 9 22 1 24 5 26
REMARK Flexibility Score: inf
ROOT
ATOM      1  C   UNL     1      29.562   6.891  18.836  1.00  0.00     0.402 A 
ATOM      2  O   UNL     1      30.725   6.381  19.235  1.00  0.00    -0.202 OA
ATOM      3  C   UNL     1      31.343   6.763  20.348  1.00  0.00     0.368 A 
ATOM      4  C   UNL     1      32.565   6.171  20.683  1.00  0.00     0.162 A 
ATOM      5  C   UNL     1      33.239   6.556  21.846  1.00  0.00     0.128 A 
ATOM      6  C   UNL     1      32.690   7.537  22.676  1.00  0.00     0.093 A 
ATOM      7  C   UNL     1      31.468   8.144  22.362  1.00  0.00     0.136 A 
ATOM      8  C   UNL     1      30.779   7.755  21.184  1.00  0.00     0.125 A 
ATOM      9  C   UNL     1      29.543   8.300  20.798  1.00  0.00     0.078 A 
ATOM     10  C   UNL     1      28.921   7.863  19.625  1.00  0.00     0.223 A 
ENDROOT
BRANCH   1  11
ATOM     11  C   UNL     1      28.976   6.389  17.571  1.00  0.00     0.087 A 
ATOM     12  C   UNL     1      27.922   5.462  17.569  1.00  0.00     0.022 A 
ATOM     13  C   UNL     1      27.372   5.022  16.364  1.00  0.00     0.051 A 
ATOM     14  C   UNL     1      27.849   5.506  15.141  1.00  0.00     0.157 A 
ATOM     15  C   UNL     1      29.442   6.893  16.346  1.00  0.00     0.068 A 
ATOM     16  C   UNL     1      28.896   6.458  15.133  1.00  0.00     0.158 A 
BRANCH  14  17
ATOM     17  O   UNL     1      27.258   5.022  13.973  1.00  0.00    -0.504 OA
ATOM     18  H   UNL     1      26.773   4.139  13.909  1.00  0.00     0.293 HD
ENDBRANCH  14  17
BRANCH  16  19
ATOM     19  O   UNL     1      29.418   6.993  13.953  1.00  0.00    -0.504 OA
ATOM     20  H   UNL     1      30.224   7.599  13.917  1.00  0.00     0.293 HD
ENDBRANCH  16  19
ENDBRANCH   1  11
BRANCH  10  21
ATOM     21  O   UNL     1      27.671   8.368  19.266  1.00  0.00    -0.500 OA
ATOM     22  H   UNL     1      27.452   8.618  18.309  1.00  0.00     0.294 HD
ENDBRANCH  10  21
BRANCH   5  23
ATOM     23  O   UNL     1      34.457   5.971  22.186  1.00  0.00    -0.507 OA
ATOM     24  H   UNL     1      34.845   6.060  23.118  1.00  0.00     0.293 HD
ENDBRANCH   5  23
BRANCH   7  25
ATOM     25  O   UNL     1      30.989   9.118  23.243  1.00  0.00    -0.507 OA
ATOM     26  H   UNL     1      30.062   9.120  23.642  1.00  0.00     0.293 HD
ENDBRANCH   7  25
TORSDOF 6
ENDMDL
MODEL 4
REMARK VINA RESULT:    -7.195      3.991      6.049
REMARK INTER + INTRA:          -8.920
REMARK INTER:                  -8.580
REMARK INTRA:                  -0.340
REMARK UNBOUND:                -0.252
REMARK SMILES Oc1cc(O)c2cc(O)c(-c3ccc(O)c(O)c3)[o+]c2c1
REMARK SMILES IDX 10 1 19 2 20 3 21 4 2 5 3 6 4 7 6 8 7 9 8 10 11 11 12 12
REMARK SMILES IDX 13 13 14 14 18 15 16 16 15 17 17 19 9 21 1 23 5 25
REMARK H PARENT 15 18 17 20 9 22 1 24 5 26
REMARK Flexibility Score: inf
ROOT
ATOM      1  C   UNL     1      23.926  -4.397  20.383  1.00  0.00     0.402 A 
ATOM      2  O   UNL     1      23.516  -4.921  19.231  1.00  0.00    -0.202 OA
ATOM      3  C   UNL     1      22.428  -5.676  19.120  1.00  0.00     0.368 A 
ATOM      4  C   UNL     1      22.080  -6.185  17.866  1.00  0.00     0.162 A 
ATOM      5  C   UNL     1      20.943  -6.985  17.721  1.00  0.00     0.128 A 
ATOM      6  C   UNL     1      20.151  -7.278  18.834  1.00  0.00     0.093 A 
ATOM      7  C   UNL     1      20.479  -6.780  20.101  1.00  0.00     0.136 A 
ATOM      8  C   UNL     1      21.632  -5.965  20.253  1.00  0.00     0.125 A 
ATOM      9  C   UNL     1      22.029  -5.412  21.481  1.00  0.00     0.078 A 
ATOM     10  C   UNL     1      23.175  -4.615  21.553  1.00  0.00     0.223 A 
ENDROOT
BRANCH   1  11
ATOM     11  C   UNL     1      25.162  -3.579  20.380  1.00  0.00     0.087 A 
ATOM     12  C   UNL     1      26.393  -4.113  20.791  1.00  0.00     0.022 A 
ATOM     13  C   UNL     1      27.547  -3.329  20.757  1.00  0.00     0.051 A 
ATOM     14  C   UNL     1      27.501  -2.007  20.302  1.00  0.00     0.157 A 
ATOM     15  C   UNL     1      25.116  -2.260  19.903  1.00  0.00     0.068 A 
ATOM     16  C   UNL     1      26.269  -1.467  19.864  1.00  0.00     0.158 A 
BRANCH  14  17
ATOM     17  O   UNL     1      28.691  -1.276  20.298  1.00  0.00    -0.504 OA
ATOM     18  H   UNL     1      29.047  -0.773  21.098  1.00  0.00     0.293 HD
ENDBRANCH  14  17
BRANCH  16  19
ATOM     19  O   UNL     1      26.146  -0.159  19.388  1.00  0.00    -0.504 OA
ATOM     20  H   UNL     1      25.764   0.079  18.485  1.00  0.00     0.293 HD
ENDBRANCH  16  19
ENDBRANCH   1  11
BRANCH  10  21
ATOM     21  O   UNL     1      23.543  -4.024  22.762  1.00  0.00    -0.500 OA
ATOM     22  H   UNL     1      24.503  -4.025  23.084  1.00  0.00     0.294 HD
ENDBRANCH  10  21
BRANCH   5  23
ATOM     23  O   UNL     1      20.589  -7.497  16.474  1.00  0.00    -0.507 OA
ATOM     24  H   UNL     1      19.654  -7.842  16.289  1.00  0.00     0.293 HD
ENDBRANCH   5  23
BRANCH   7  25
ATOM     25  O   UNL     1      19.638  -7.121  21.164  1.00  0.00    -0.507 OA
ATOM     26  H   UNL     1      18.871  -6.551  21.490  1.00  0.00     0.293 HD
ENDBRANCH   7  25
TORSDOF 6
ENDMDL
MODEL 5
REMARK VINA RESULT:    -7.032      3.903      7.690
REMARK INTER + INTRA:          -8.723
REMARK INTER:                  -8.375
REMARK INTRA:                  -0.349
REMARK UNBOUND:                -0.252
REMARK SMILES Oc1cc(O)c2cc(O)c(-c3ccc(O)c(O)c3)[o+]c2c1
REMARK SMILES IDX 10 1 19 2 20 3 21 4 2 5 3 6 4 7 6 8 7 9 8 10 11 11 12 12
REMARK SMILES IDX 13 13 14 14 18 15 16 16 15 17 17 19 9 21 1 23 5 25
REMARK H PARENT 15 18 17 20 9 22 1 24 5 26
REMARK Flexibility Score: inf
ROOT
ATOM      1  C   UNL     1      24.386  -4.972  20.029  1.00  0.00     0.402 A 
ATOM      2  O   UNL     1      25.134  -3.895  19.801  1.00  0.00    -0.202 OA
ATOM      3  C   UNL     1      26.254  -3.632  20.466  1.00  0.00     0.368 A 
ATOM      4  C   UNL     1      26.971  -2.473  20.157  1.00  0.00     0.162 A 
ATOM      5  C   UNL     1      28.150  -2.169  20.843  1.00  0.00     0.128 A 
ATOM      6  C   UNL     1      28.614  -3.028  21.842  1.00  0.00     0.093 A 
ATOM      7  C   UNL     1      27.914  -4.196  22.170  1.00  0.00     0.136 A 
ATOM      8  C   UNL     1      26.717  -4.509  21.475  1.00  0.00     0.125 A 
ATOM      9  C   UNL     1      25.958  -5.663  21.728  1.00  0.00     0.078 A 
ATOM     10  C   UNL     1      24.791  -5.908  20.998  1.00  0.00     0.223 A 
ENDROOT
BRANCH   1  11
ATOM     11  C   UNL     1      23.152  -5.150  19.227  1.00  0.00     0.087 A 
ATOM     12  C   UNL     1      23.164  -5.854  18.013  1.00  0.00     0.022 A 
ATOM     13  C   UNL     1      21.985  -6.028  17.288  1.00  0.00     0.051 A 
ATOM     14  C   UNL     1      20.771  -5.518  17.761  1.00  0.00     0.157 A 
ATOM     15  C   UNL     1      21.933  -4.656  19.716  1.00  0.00     0.068 A 
ATOM     16  C   UNL     1      20.745  -4.826  18.995  1.00  0.00     0.158 A 
BRANCH  14  17
ATOM     17  O   UNL     1      19.630  -5.722  16.986  1.00  0.00    -0.504 OA
ATOM     18  H   UNL     1      18.686  -5.619  17.331  1.00  0.00     0.293 HD
ENDBRANCH  14  17
BRANCH  16  19
ATOM     19  O   UNL     1      19.571  -4.297  19.538  1.00  0.00    -0.504 OA
ATOM     20  H   UNL     1      19.310  -4.382  20.508  1.00  0.00     0.293 HD
ENDBRANCH  16  19
ENDBRANCH   1  11
BRANCH  10  21
ATOM     21  O   UNL     1      24.063  -7.078  21.213  1.00  0.00    -0.500 OA
ATOM     22  H   UNL     1      23.704  -7.631  20.444  1.00  0.00     0.294 HD
ENDBRANCH  10  21
BRANCH   5  23
ATOM     23  O   UNL     1      28.870  -1.015  20.541  1.00  0.00    -0.507 OA
ATOM     24  H   UNL     1      28.707  -0.145  21.035  1.00  0.00     0.293 HD
ENDBRANCH   5  23
BRANCH   7  25
ATOM     25  O   UNL     1      28.443  -5.000  23.184  1.00  0.00    -0.507 OA
ATOM     26  H   UNL     1      28.934  -5.868  23.026  1.00  0.00     0.293 HD
ENDBRANCH   7  25
TORSDOF 6
ENDMDL
MODEL 6
REMARK VINA RESULT:    -7.024      1.635      3.522
REMARK INTER + INTRA:          -8.714
REMARK INTER:                  -8.645
REMARK INTRA:                  -0.069
REMARK UNBOUND:                -0.252
REMARK SMILES Oc1cc(O)c2cc(O)c(-c3ccc(O)c(O)c3)[o+]c2c1
REMARK SMILES IDX 10 1 19 2 20 3 21 4 2 5 3 6 4 7 6 8 7 9 8 10 11 11 12 12
REMARK SMILES IDX 13 13 14 14 18 15 16 16 15 17 17 19 9 21 1 23 5 25
REMARK H PARENT 15 18 17 20 9 22 1 24 5 26
REMARK Flexibility Score: inf
ROOT
ATOM      1  C   UNL     1      22.635  -5.373  22.468  1.00  0.00     0.402 A 
ATOM      2  O   UNL     1      23.210  -4.480  21.666  1.00  0.00    -0.202 OA
ATOM      3  C   UNL     1      22.681  -4.092  20.511  1.00  0.00     0.368 A 
ATOM      4  C   UNL     1      23.362  -3.149  19.735  1.00  0.00     0.162 A 
ATOM      5  C   UNL     1      22.830  -2.725  18.513  1.00  0.00     0.128 A 
ATOM      6  C   UNL     1      21.613  -3.245  18.067  1.00  0.00     0.093 A 
ATOM      7  C   UNL     1      20.912  -4.189  18.826  1.00  0.00     0.136 A 
ATOM      8  C   UNL     1      21.446  -4.622  20.067  1.00  0.00     0.125 A 
ATOM      9  C   UNL     1      20.806  -5.554  20.900  1.00  0.00     0.078 A 
ATOM     10  C   UNL     1      21.392  -5.929  22.112  1.00  0.00     0.223 A 
ENDROOT
BRANCH   1  11
ATOM     11  C   UNL     1      23.329  -5.732  23.727  1.00  0.00     0.087 A 
ATOM     12  C   UNL     1      23.540  -7.072  24.089  1.00  0.00     0.022 A 
ATOM     13  C   UNL     1      24.217  -7.385  25.269  1.00  0.00     0.051 A 
ATOM     14  C   UNL     1      24.707  -6.374  26.103  1.00  0.00     0.157 A 
ATOM     15  C   UNL     1      23.838  -4.716  24.550  1.00  0.00     0.068 A 
ATOM     16  C   UNL     1      24.519  -5.020  25.735  1.00  0.00     0.158 A 
BRANCH  14  17
ATOM     17  O   UNL     1      25.371  -6.754  27.270  1.00  0.00    -0.504 OA
ATOM     18  H   UNL     1      25.586  -7.711  27.510  1.00  0.00     0.293 HD
ENDBRANCH  14  17
BRANCH  16  19
ATOM     19  O   UNL     1      24.987  -3.957  26.510  1.00  0.00    -0.504 OA
ATOM     20  H   UNL     1      25.305  -4.050  27.463  1.00  0.00     0.293 HD
ENDBRANCH  16  19
ENDBRANCH   1  11
BRANCH  10  21
ATOM     21  O   UNL     1      20.734  -6.817  22.963  1.00  0.00    -0.500 OA
ATOM     22  H   UNL     1      20.306  -7.667  22.618  1.00  0.00     0.294 HD
ENDBRANCH  10  21
BRANCH   5  23
ATOM     23  O   UNL     1      23.503  -1.787  17.734  1.00  0.00    -0.507 OA
ATOM     24  H   UNL     1      23.014  -1.021  17.286  1.00  0.00     0.293 HD
ENDBRANCH   5  23
BRANCH   7  25
ATOM     25  O   UNL     1      19.703  -4.663  18.306  1.00  0.00    -0.507 OA
ATOM     26  H   UNL     1      18.955  -5.048  18.864  1.00  0.00     0.293 HD
ENDBRANCH   7  25
TORSDOF 6
ENDMDL
MODEL 7
REMARK VINA RESULT:    -6.992      7.332      9.249
REMARK INTER + INTRA:          -8.675
REMARK INTER:                  -8.370
REMARK INTRA:                  -0.305
REMARK UNBOUND:                -0.252
REMARK SMILES Oc1cc(O)c2cc(O)c(-c3ccc(O)c(O)c3)[o+]c2c1
REMARK SMILES IDX 10 1 19 2 20 3 21 4 2 5 3 6 4 7 6 8 7 9 8 10 11 11 12 12
REMARK SMILES IDX 13 13 14 14 18 15 16 16 15 17 17 19 9 21 1 23 5 25
REMARK H PARENT 15 18 17 20 9 22 1 24 5 26
REMARK Flexibility Score: inf
ROOT
ATOM      1  C   UNL     1      22.446   3.565  21.288  1.00  0.00     0.402 A 
ATOM      2  O   UNL     1      23.339   3.043  20.450  1.00  0.00    -0.202 OA
ATOM      3  C   UNL     1      23.420   3.382  19.168  1.00  0.00     0.368 A 
ATOM      4  C   UNL     1      24.391   2.777  18.365  1.00  0.00     0.162 A 
ATOM      5  C   UNL     1      24.496   3.112  17.012  1.00  0.00     0.128 A 
ATOM      6  C   UNL     1      23.626   4.055  16.459  1.00  0.00     0.093 A 
ATOM      7  C   UNL     1      22.645   4.676  17.243  1.00  0.00     0.136 A 
ATOM      8  C   UNL     1      22.536   4.340  18.617  1.00  0.00     0.125 A 
ATOM      9  C   UNL     1      21.592   4.921  19.480  1.00  0.00     0.078 A 
ATOM     10  C   UNL     1      21.548   4.544  20.826  1.00  0.00     0.223 A 
ENDROOT
BRANCH   1  11
ATOM     11  C   UNL     1      22.450   3.099  22.694  1.00  0.00     0.087 A 
ATOM     12  C   UNL     1      21.906   1.856  23.055  1.00  0.00     0.022 A 
ATOM     13  C   UNL     1      21.942   1.429  24.383  1.00  0.00     0.051 A 
ATOM     14  C   UNL     1      22.532   2.222  25.373  1.00  0.00     0.157 A 
ATOM     15  C   UNL     1      23.062   3.886  23.682  1.00  0.00     0.068 A 
ATOM     16  C   UNL     1      23.104   3.465  25.017  1.00  0.00     0.158 A 
BRANCH  14  17
ATOM     17  O   UNL     1      22.531   1.738  26.682  1.00  0.00    -0.504 OA
ATOM     18  H   UNL     1      21.803   1.930  27.355  1.00  0.00     0.293 HD
ENDBRANCH  14  17
BRANCH  16  19
ATOM     19  O   UNL     1      23.719   4.307  25.947  1.00  0.00    -0.504 OA
ATOM     20  H   UNL     1      23.533   4.283  26.938  1.00  0.00     0.293 HD
ENDBRANCH  16  19
ENDBRANCH   1  11
BRANCH  10  21
ATOM     21  O   UNL     1      20.645   5.156  21.695  1.00  0.00    -0.500 OA
ATOM     22  H   UNL     1      19.809   4.682  22.015  1.00  0.00     0.294 HD
ENDBRANCH  10  21
BRANCH   5  23
ATOM     23  O   UNL     1      25.460   2.513  16.205  1.00  0.00    -0.507 OA
ATOM     24  H   UNL     1      26.273   2.054  16.602  1.00  0.00     0.293 HD
ENDBRANCH   5  23
BRANCH   7  25
ATOM     25  O   UNL     1      21.812   5.606  16.613  1.00  0.00    -0.507 OA
ATOM     26  H   UNL     1      20.996   5.364  16.069  1.00  0.00     0.293 HD
ENDBRANCH   7  25
TORSDOF 6
ENDMDL
MODEL 8
REMARK VINA RESULT:    -6.980      6.235      8.493
REMARK INTER + INTRA:          -8.660
REMARK INTER:                  -8.359
REMARK INTRA:                  -0.301
REMARK UNBOUND:                -0.252
REMARK SMILES Oc1cc(O)c2cc(O)c(-c3ccc(O)c(O)c3)[o+]c2c1
REMARK SMILES IDX 10 1 19 2 20 3 21 4 2 5 3 6 4 7 6 8 7 9 8 10 11 11 12 12
REMARK SMILES IDX 13 13 14 14 18 15 16 16 15 17 17 19 9 21 1 23 5 25
REMARK H PARENT 15 18 17 20 9 22 1 24 5 26
REMARK Flexibility Score: inf
ROOT
ATOM      1  C   UNL     1      23.065   2.290  22.788  1.00  0.00     0.402 A 
ATOM      2  O   UNL     1      23.837   2.190  21.708  1.00  0.00    -0.202 OA
ATOM      3  C   UNL     1      23.928   1.084  20.977  1.00  0.00     0.368 A 
ATOM      4  C   UNL     1      24.769   1.074  19.861  1.00  0.00     0.162 A 
ATOM      5  C   UNL     1      24.886  -0.076  19.076  1.00  0.00     0.128 A 
ATOM      6  C   UNL     1      24.159  -1.222  19.409  1.00  0.00     0.093 A 
ATOM      7  C   UNL     1      23.310  -1.238  20.522  1.00  0.00     0.136 A 
ATOM      8  C   UNL     1      23.186  -0.071  21.320  1.00  0.00     0.125 A 
ATOM      9  C   UNL     1      22.349   0.008  22.445  1.00  0.00     0.078 A 
ATOM     10  C   UNL     1      22.275   1.194  23.181  1.00  0.00     0.223 A 
ENDROOT
BRANCH   1  11
ATOM     11  C   UNL     1      23.057   3.575  23.526  1.00  0.00     0.087 A 
ATOM     12  C   UNL     1      22.326   4.680  23.063  1.00  0.00     0.022 A 
ATOM     13  C   UNL     1      22.315   5.872  23.788  1.00  0.00     0.051 A 
ATOM     14  C   UNL     1      23.020   5.983  24.992  1.00  0.00     0.157 A 
ATOM     15  C   UNL     1      23.746   3.676  24.744  1.00  0.00     0.068 A 
ATOM     16  C   UNL     1      23.741   4.868  25.479  1.00  0.00     0.158 A 
BRANCH  14  17
ATOM     17  O   UNL     1      22.972   7.204  25.666  1.00  0.00    -0.504 OA
ATOM     18  H   UNL     1      23.730   7.871  25.681  1.00  0.00     0.293 HD
ENDBRANCH  14  17
BRANCH  16  19
ATOM     19  O   UNL     1      24.460   4.899  26.676  1.00  0.00    -0.504 OA
ATOM     20  H   UNL     1      24.217   5.480  27.464  1.00  0.00     0.293 HD
ENDBRANCH  16  19
ENDBRANCH   1  11
BRANCH  10  21
ATOM     21  O   UNL     1      21.407   1.290  24.269  1.00  0.00    -0.500 OA
ATOM     22  H   UNL     1      21.253   0.511  24.898  1.00  0.00     0.294 HD
ENDBRANCH  10  21
BRANCH   5  23
ATOM     23  O   UNL     1      25.723  -0.094  17.962  1.00  0.00    -0.507 OA
ATOM     24  H   UNL     1      26.297   0.705  17.719  1.00  0.00     0.293 HD
ENDBRANCH   5  23
BRANCH   7  25
ATOM     25  O   UNL     1      22.621  -2.424  20.788  1.00  0.00    -0.507 OA
ATOM     26  H   UNL     1      23.020  -3.348  20.699  1.00  0.00     0.293 HD
ENDBRANCH   7  25
TORSDOF 6
ENDMDL
MODEL 9
REMARK VINA RESULT:    -6.957      6.144      8.673
REMARK INTER + INTRA:          -8.633
REMARK INTER:                  -8.285
REMARK INTRA:                  -0.348
REMARK UNBOUND:                -0.252
REMARK SMILES Oc1cc(O)c2cc(O)c(-c3ccc(O)c(O)c3)[o+]c2c1
REMARK SMILES IDX 10 1 19 2 20 3 21 4 2 5 3 6 4 7 6 8 7 9 8 10 11 11 12 12
REMARK SMILES IDX 13 13 14 14 18 15 16 16 15 17 17 19 9 21 1 23 5 25
REMARK H PARENT 15 18 17 20 9 22 1 24 5 26
REMARK Flexibility Score: inf
ROOT
ATOM      1  C   UNL     1      23.395   1.753  22.132  1.00  0.00     0.402 A 
ATOM      2  O   UNL     1      23.842   2.281  23.269  1.00  0.00    -0.202 OA
ATOM      3  C   UNL     1      23.437   3.458  23.734  1.00  0.00     0.368 A 
ATOM      4  C   UNL     1      23.967   3.931  24.939  1.00  0.00     0.162 A 
ATOM      5  C   UNL     1      23.562   5.167  25.450  1.00  0.00     0.128 A 
ATOM      6  C   UNL     1      22.624   5.933  24.754  1.00  0.00     0.093 A 
ATOM      7  C   UNL     1      22.078   5.482  23.547  1.00  0.00     0.136 A 
ATOM      8  C   UNL     1      22.485   4.226  23.024  1.00  0.00     0.125 A 
ATOM      9  C   UNL     1      21.982   3.689  21.828  1.00  0.00     0.078 A 
ATOM     10  C   UNL     1      22.427   2.442  21.379  1.00  0.00     0.223 A 
ENDROOT
BRANCH   1  11
ATOM     11  C   UNL     1      23.931   0.436  21.713  1.00  0.00     0.087 A 
ATOM     12  C   UNL     1      23.337  -0.763  22.137  1.00  0.00     0.022 A 
ATOM     13  C   UNL     1      23.846  -1.990  21.710  1.00  0.00     0.051 A 
ATOM     14  C   UNL     1      24.944  -2.048  20.845  1.00  0.00     0.157 A 
ATOM     15  C   UNL     1      25.018   0.383  20.828  1.00  0.00     0.068 A 
ATOM     16  C   UNL     1      25.535  -0.844  20.395  1.00  0.00     0.158 A 
BRANCH  14  17
ATOM     17  O   UNL     1      25.406  -3.307  20.460  1.00  0.00    -0.504 OA
ATOM     18  H   UNL     1      24.806  -4.102  20.293  1.00  0.00     0.293 HD
ENDBRANCH  14  17
BRANCH  16  19
ATOM     19  O   UNL     1      26.627  -0.821  19.523  1.00  0.00    -0.504 OA
ATOM     20  H   UNL     1      26.744  -1.455  18.748  1.00  0.00     0.293 HD
ENDBRANCH  16  19
ENDBRANCH   1  11
BRANCH  10  21
ATOM     21  O   UNL     1      21.891   1.884  20.218  1.00  0.00    -0.500 OA
ATOM     22  H   UNL     1      22.330   1.099  19.753  1.00  0.00     0.294 HD
ENDBRANCH  10  21
BRANCH   5  23
ATOM     23  O   UNL     1      24.086   5.645  26.649  1.00  0.00    -0.507 OA
ATOM     24  H   UNL     1      23.932   6.600  26.951  1.00  0.00     0.293 HD
ENDBRANCH   5  23
BRANCH   7  25
ATOM     25  O   UNL     1      21.148   6.310  22.911  1.00  0.00    -0.507 OA
ATOM     26  H   UNL     1      20.894   7.233  23.232  1.00  0.00     0.293 HD
ENDBRANCH   7  25
TORSDOF 6
ENDMDL
