MODEL 1
REMARK VINA RESULT:    -5.347      0.000      0.000
REMARK INTER + INTRA:         -11.355
REMARK INTER:                 -10.035
REMARK INTRA:                  -1.320
REMARK UNBOUND:                -1.320
REMARK SMILES CCCCCCCCC=CCCCCCCCC(=O)[O-]
REMARK SMILES IDX 10 1 9 2 11 3 12 4 13 5 14 6 15 7 16 8 17 9 18 10 19 11
REMARK SMILES IDX 20 12 8 13 7 14 6 15 5 16 4 17 3 18 2 19 1 20
REMARK H PARENT
REMARK Flexibility Score: inf
ROOT
ATOM      1  C   UNL     1     -11.899  29.032  29.772  1.00  0.00    -0.031 C 
ATOM      2  C   UNL     1     -12.593  29.744  30.671  1.00  0.00    -0.031 C 
ENDROOT
BRANCH   1   3
ATOM      3  C   UNL     1     -10.778  29.662  28.992  1.00  0.00     0.027 C 
BRANCH   3   4
ATOM      4  C   UNL     1     -10.414  31.039  29.563  1.00  0.00     0.004 C 
BRANCH   4   5
ATOM      5  C   UNL     1     -10.586  32.179  28.543  1.00  0.00     0.000 C 
BRANCH   5   6
ATOM      6  C   UNL     1     -12.035  32.435  28.091  1.00  0.00     0.000 C 
BRANCH   6   7
ATOM      7  C   UNL     1     -12.268  32.107  26.609  1.00  0.00     0.000 C 
BRANCH   7   8
ATOM      8  C   UNL     1     -11.911  33.304  25.717  1.00  0.00     0.006 C 
BRANCH   8   9
ATOM      9  C   UNL     1     -10.504  33.153  25.133  1.00  0.00     0.053 C 
BRANCH   9  10
ATOM     10  C   UNL     1      -9.658  34.335  25.485  1.00  0.00     0.041 C 
ATOM     11  O   UNL     1      -8.588  34.178  26.130  1.00  0.00    -0.550 OA
ATOM     12  O   UNL     1     -10.074  35.616  25.141  1.00  0.00    -0.550 OA
ENDBRANCH   9  10
ENDBRANCH   8   9
ENDBRANCH   7   8
ENDBRANCH   6   7
ENDBRANCH   5   6
ENDBRANCH   4   5
ENDBRANCH   3   4
ENDBRANCH   1   3
BRANCH   2  13
ATOM     13  C   UNL     1     -13.705  29.125  31.474  1.00  0.00     0.027 C 
BRANCH  13  14
ATOM     14  C   UNL     1     -13.679  27.593  31.360  1.00  0.00     0.004 C 
BRANCH  14  15
ATOM     15  C   UNL     1     -15.088  26.988  31.273  1.00  0.00     0.000 C 
BRANCH  15  16
ATOM     16  C   UNL     1     -15.079  25.559  30.703  1.00  0.00     0.000 C 
BRANCH  16  17
ATOM     17  C   UNL     1     -15.537  24.508  31.727  1.00  0.00    -0.000 C 
BRANCH  17  18
ATOM     18  C   UNL     1     -14.528  24.227  32.858  1.00  0.00    -0.000 C 
BRANCH  18  19
ATOM     19  C   UNL     1     -15.122  24.388  34.274  1.00  0.00    -0.003 C 
ATOM     20  C   UNL     1     -15.086  25.837  34.762  1.00  0.00     0.004 C 
ENDBRANCH  18  19
ENDBRANCH  17  18
ENDBRANCH  16  17
ENDBRANCH  15  16
ENDBRANCH  14  15
ENDBRANCH  13  14
ENDBRANCH   2  13
TORSDOF 15
ENDMDL
MODEL 2
REMARK VINA RESULT:    -5.297      1.937      3.516
REMARK INTER + INTRA:         -11.263
REMARK INTER:                 -10.071
REMARK INTRA:                  -1.191
REMARK UNBOUND:                -1.320
REMARK SMILES CCCCCCCCC=CCCCCCCCC(=O)[O-]
REMARK SMILES IDX 10 1 9 2 11 3 12 4 13 5 14 6 15 7 16 8 17 9 18 10 19 11
REMARK SMILES IDX 20 12 8 13 7 14 6 15 5 16 4 17 3 18 2 19 1 20
REMARK H PARENT
REMARK Flexibility Score: inf
ROOT
ATOM      1  C   UNL     1     -14.205  27.132  31.678  1.00  0.00    -0.031 C 
ATOM      2  C   UNL     1     -14.841  26.309  30.833  1.00  0.00    -0.031 C 
ENDROOT
BRANCH   1   3
ATOM      3  C   UNL     1     -13.802  28.516  31.246  1.00  0.00     0.027 C 
BRANCH   3   4
ATOM      4  C   UNL     1     -12.324  28.558  30.836  1.00  0.00     0.004 C 
BRANCH   4   5
ATOM      5  C   UNL     1     -11.964  29.806  30.009  1.00  0.00     0.000 C 
BRANCH   5   6
ATOM      6  C   UNL     1     -10.966  29.563  28.863  1.00  0.00     0.000 C 
BRANCH   6   7
ATOM      7  C   UNL     1     -11.459  30.107  27.514  1.00  0.00     0.000 C 
BRANCH   7   8
ATOM      8  C   UNL     1     -11.459  31.641  27.505  1.00  0.00     0.006 C 
BRANCH   8   9
ATOM      9  C   UNL     1     -10.794  32.182  26.237  1.00  0.00     0.053 C 
BRANCH   9  10
ATOM     10  C   UNL     1      -9.930  33.361  26.557  1.00  0.00     0.041 C 
ATOM     11  O   UNL     1     -10.283  34.181  27.446  1.00  0.00    -0.550 OA
ATOM     12  O   UNL     1      -8.757  33.580  25.844  1.00  0.00    -0.550 OA
ENDBRANCH   9  10
ENDBRANCH   8   9
ENDBRANCH   7   8
ENDBRANCH   6   7
ENDBRANCH   5   6
ENDBRANCH   4   5
ENDBRANCH   3   4
ENDBRANCH   1   3
BRANCH   2  13
ATOM     13  C   UNL     1     -15.268  24.929  31.253  1.00  0.00     0.027 C 
BRANCH  13  14
ATOM     14  C   UNL     1     -14.821  24.629  32.692  1.00  0.00     0.004 C 
BRANCH  14  15
ATOM     15  C   UNL     1     -16.009  24.352  33.628  1.00  0.00     0.000 C 
BRANCH  15  16
ATOM     16  C   UNL     1     -16.918  25.581  33.800  1.00  0.00     0.000 C 
BRANCH  16  17
ATOM     17  C   UNL     1     -18.401  25.263  33.544  1.00  0.00    -0.000 C 
BRANCH  17  18
ATOM     18  C   UNL     1     -18.707  24.707  32.139  1.00  0.00    -0.000 C 
BRANCH  18  19
ATOM     19  C   UNL     1     -19.321  23.290  32.154  1.00  0.00    -0.003 C 
ATOM     20  C   UNL     1     -18.298  22.206  31.809  1.00  0.00     0.004 C 
ENDBRANCH  18  19
ENDBRANCH  17  18
ENDBRANCH  16  17
ENDBRANCH  15  16
ENDBRANCH  14  15
ENDBRANCH  13  14
ENDBRANCH   2  13
TORSDOF 15
ENDMDL
MODEL 3
REMARK VINA RESULT:    -5.287      1.848      3.257
REMARK INTER + INTRA:         -11.243
REMARK INTER:                 -10.030
REMARK INTRA:                  -1.212
REMARK UNBOUND:                -1.320
REMARK SMILES CCCCCCCCC=CCCCCCCCC(=O)[O-]
REMARK SMILES IDX 10 1 9 2 11 3 12 4 13 5 14 6 15 7 16 8 17 9 18 10 19 11
REMARK SMILES IDX 20 12 8 13 7 14 6 15 5 16 4 17 3 18 2 19 1 20
REMARK H PARENT
REMARK Flexibility Score: inf
ROOT
ATOM      1  C   UNL     1     -13.750  27.976  30.841  1.00  0.00    -0.031 C 
ATOM      2  C   UNL     1     -14.723  27.225  31.375  1.00  0.00    -0.031 C 
ENDROOT
BRANCH   1   3
ATOM      3  C   UNL     1     -13.208  29.171  31.577  1.00  0.00     0.027 C 
BRANCH   3   4
ATOM      4  C   UNL     1     -12.198  29.940  30.714  1.00  0.00     0.004 C 
BRANCH   4   5
ATOM      5  C   UNL     1     -11.735  29.145  29.479  1.00  0.00     0.000 C 
BRANCH   5   6
ATOM      6  C   UNL     1     -10.408  29.620  28.859  1.00  0.00     0.000 C 
BRANCH   6   7
ATOM      7  C   UNL     1     -10.377  29.479  27.330  1.00  0.00     0.000 C 
BRANCH   7   8
ATOM      8  C   UNL     1     -11.345  30.468  26.666  1.00  0.00     0.006 C 
BRANCH   8   9
ATOM      9  C   UNL     1     -11.020  31.909  27.070  1.00  0.00     0.053 C 
BRANCH   9  10
ATOM     10  C   UNL     1     -10.787  32.754  25.858  1.00  0.00     0.041 C 
ATOM     11  O   UNL     1     -11.760  33.139  25.158  1.00  0.00    -0.550 OA
ATOM     12  O   UNL     1      -9.491  33.080  25.475  1.00  0.00    -0.550 OA
ENDBRANCH   9  10
ENDBRANCH   8   9
ENDBRANCH   7   8
ENDBRANCH   6   7
ENDBRANCH   5   6
ENDBRANCH   4   5
ENDBRANCH   3   4
ENDBRANCH   1   3
BRANCH   2  13
ATOM     13  C   UNL     1     -15.263  26.015  30.662  1.00  0.00     0.027 C 
BRANCH  13  14
ATOM     14  C   UNL     1     -14.853  24.722  31.383  1.00  0.00     0.004 C 
BRANCH  14  15
ATOM     15  C   UNL     1     -14.635  24.936  32.889  1.00  0.00     0.000 C 
BRANCH  15  16
ATOM     16  C   UNL     1     -15.479  23.975  33.745  1.00  0.00     0.000 C 
BRANCH  16  17
ATOM     17  C   UNL     1     -16.968  23.991  33.362  1.00  0.00    -0.000 C 
BRANCH  17  18
ATOM     18  C   UNL     1     -17.691  25.325  33.635  1.00  0.00    -0.000 C 
BRANCH  18  19
ATOM     19  C   UNL     1     -19.188  25.308  33.258  1.00  0.00    -0.003 C 
ATOM     20  C   UNL     1     -19.497  24.318  32.134  1.00  0.00     0.004 C 
ENDBRANCH  18  19
ENDBRANCH  17  18
ENDBRANCH  16  17
ENDBRANCH  15  16
ENDBRANCH  14  15
ENDBRANCH  13  14
ENDBRANCH   2  13
TORSDOF 15
ENDMDL
MODEL 4
REMARK VINA RESULT:    -5.269      9.076     13.002
REMARK INTER + INTRA:         -11.210
REMARK INTER:                  -9.873
REMARK INTRA:                  -1.337
REMARK UNBOUND:                -1.320
REMARK SMILES CCCCCCCCC=CCCCCCCCC(=O)[O-]
REMARK SMILES IDX 10 1 9 2 11 3 12 4 13 5 14 6 15 7 16 8 17 9 18 10 19 11
REMARK SMILES IDX 20 12 8 13 7 14 6 15 5 16 4 17 3 18 2 19 1 20
REMARK H PARENT
REMARK Flexibility Score: inf
ROOT
ATOM      1  C   UNL     1     -18.422  21.865  31.832  1.00  0.00    -0.031 C 
ATOM      2  C   UNL     1     -19.527  22.601  31.653  1.00  0.00    -0.031 C 
ENDROOT
BRANCH   1   3
ATOM      3  C   UNL     1     -18.223  20.579  31.077  1.00  0.00     0.027 C 
BRANCH   3   4
ATOM      4  C   UNL     1     -18.254  19.371  32.024  1.00  0.00     0.004 C 
BRANCH   4   5
ATOM      5  C   UNL     1     -17.210  19.465  33.152  1.00  0.00     0.000 C 
BRANCH   5   6
ATOM      6  C   UNL     1     -16.937  18.147  33.898  1.00  0.00     0.000 C 
BRANCH   6   7
ATOM      7  C   UNL     1     -15.445  17.790  33.959  1.00  0.00     0.000 C 
BRANCH   7   8
ATOM      8  C   UNL     1     -14.736  18.572  35.073  1.00  0.00     0.006 C 
BRANCH   8   9
ATOM      9  C   UNL     1     -13.938  17.631  35.980  1.00  0.00     0.053 C 
BRANCH   9  10
ATOM     10  C   UNL     1     -13.467  18.353  37.203  1.00  0.00     0.041 C 
ATOM     11  O   UNL     1     -14.189  18.387  38.235  1.00  0.00    -0.550 OA
ATOM     12  O   UNL     1     -12.252  19.027  37.188  1.00  0.00    -0.550 OA
ENDBRANCH   9  10
ENDBRANCH   8   9
ENDBRANCH   7   8
ENDBRANCH   6   7
ENDBRANCH   5   6
ENDBRANCH   4   5
ENDBRANCH   3   4
ENDBRANCH   1   3
BRANCH   2  13
ATOM     13  C   UNL     1     -19.734  23.899  32.385  1.00  0.00     0.027 C 
BRANCH  13  14
ATOM     14  C   UNL     1     -18.559  24.859  32.145  1.00  0.00     0.004 C 
BRANCH  14  15
ATOM     15  C   UNL     1     -18.115  25.574  33.431  1.00  0.00     0.000 C 
BRANCH  15  16
ATOM     16  C   UNL     1     -16.657  26.059  33.358  1.00  0.00     0.000 C 
BRANCH  16  17
ATOM     17  C   UNL     1     -16.004  25.772  31.995  1.00  0.00    -0.000 C 
BRANCH  17  18
ATOM     18  C   UNL     1     -15.198  24.460  31.929  1.00  0.00    -0.000 C 
BRANCH  18  19
ATOM     19  C   UNL     1     -14.618  24.019  33.289  1.00  0.00    -0.003 C 
ATOM     20  C   UNL     1     -15.338  22.798  33.865  1.00  0.00     0.004 C 
ENDBRANCH  18  19
ENDBRANCH  17  18
ENDBRANCH  16  17
ENDBRANCH  15  16
ENDBRANCH  14  15
ENDBRANCH  13  14
ENDBRANCH   2  13
TORSDOF 15
ENDMDL
MODEL 5
REMARK VINA RESULT:    -5.209      1.650      2.372
REMARK INTER + INTRA:         -11.096
REMARK INTER:                 -10.201
REMARK INTRA:                  -0.895
REMARK UNBOUND:                -1.320
REMARK SMILES CCCCCCCCC=CCCCCCCCC(=O)[O-]
REMARK SMILES IDX 10 1 9 2 11 3 12 4 13 5 14 6 15 7 16 8 17 9 18 10 19 11
REMARK SMILES IDX 20 12 8 13 7 14 6 15 5 16 4 17 3 18 2 19 1 20
REMARK H PARENT
REMARK Flexibility Score: inf
ROOT
ATOM      1  C   UNL     1     -12.763  28.256  30.654  1.00  0.00    -0.031 C 
ATOM      2  C   UNL     1     -13.819  28.145  31.472  1.00  0.00    -0.031 C 
ENDROOT
BRANCH   1   3
ATOM      3  C   UNL     1     -11.935  29.512  30.634  1.00  0.00     0.027 C 
BRANCH   3   4
ATOM      4  C   UNL     1     -11.351  29.766  29.237  1.00  0.00     0.004 C 
BRANCH   4   5
ATOM      5  C   UNL     1     -10.504  31.049  29.163  1.00  0.00     0.000 C 
BRANCH   5   6
ATOM      6  C   UNL     1     -11.051  32.137  28.221  1.00  0.00     0.000 C 
BRANCH   6   7
ATOM      7  C   UNL     1     -11.565  31.573  26.888  1.00  0.00     0.000 C 
BRANCH   7   8
ATOM      8  C   UNL     1     -11.494  32.631  25.778  1.00  0.00     0.006 C 
BRANCH   8   9
ATOM      9  C   UNL     1     -10.836  33.917  26.287  1.00  0.00     0.053 C 
BRANCH   9  10
ATOM     10  C   UNL     1      -9.568  34.189  25.542  1.00  0.00     0.041 C 
ATOM     11  O   UNL     1      -9.444  35.245  24.868  1.00  0.00    -0.550 OA
ATOM     12  O   UNL     1      -8.538  33.255  25.556  1.00  0.00    -0.550 OA
ENDBRANCH   9  10
ENDBRANCH   8   9
ENDBRANCH   7   8
ENDBRANCH   6   7
ENDBRANCH   5   6
ENDBRANCH   4   5
ENDBRANCH   3   4
ENDBRANCH   1   3
BRANCH   2  13
ATOM     13  C   UNL     1     -14.647  26.890  31.520  1.00  0.00     0.027 C 
BRANCH  13  14
ATOM     14  C   UNL     1     -14.927  26.471  32.972  1.00  0.00     0.004 C 
BRANCH  14  15
ATOM     15  C   UNL     1     -14.461  25.037  33.267  1.00  0.00     0.000 C 
BRANCH  15  16
ATOM     16  C   UNL     1     -15.573  24.177  33.894  1.00  0.00     0.000 C 
BRANCH  16  17
ATOM     17  C   UNL     1     -16.319  23.323  32.855  1.00  0.00    -0.000 C 
BRANCH  17  18
ATOM     18  C   UNL     1     -17.821  23.640  32.718  1.00  0.00    -0.000 C 
BRANCH  18  19
ATOM     19  C   UNL     1     -18.262  24.902  33.490  1.00  0.00    -0.003 C 
ATOM     20  C   UNL     1     -19.712  25.289  33.199  1.00  0.00     0.004 C 
ENDBRANCH  18  19
ENDBRANCH  17  18
ENDBRANCH  16  17
ENDBRANCH  15  16
ENDBRANCH  14  15
ENDBRANCH  13  14
ENDBRANCH   2  13
TORSDOF 15
ENDMDL
MODEL 6
REMARK VINA RESULT:    -5.208      5.017      9.716
REMARK INTER + INTRA:         -11.094
REMARK INTER:                  -9.638
REMARK INTRA:                  -1.456
REMARK UNBOUND:                -1.320
REMARK SMILES CCCCCCCCC=CCCCCCCCC(=O)[O-]
REMARK SMILES IDX 10 1 9 2 11 3 12 4 13 5 14 6 15 7 16 8 17 9 18 10 19 11
REMARK SMILES IDX 20 12 8 13 7 14 6 15 5 16 4 17 3 18 2 19 1 20
REMARK H PARENT
REMARK Flexibility Score: inf
ROOT
ATOM      1  C   UNL     1     -14.124  28.331  31.481  1.00  0.00    -0.031 C 
ATOM      2  C   UNL     1     -12.830  28.595  31.251  1.00  0.00    -0.031 C 
ENDROOT
BRANCH   1   3
ATOM      3  C   UNL     1     -14.617  26.912  31.565  1.00  0.00     0.027 C 
BRANCH   3   4
ATOM      4  C   UNL     1     -14.692  26.440  33.024  1.00  0.00     0.004 C 
BRANCH   4   5
ATOM      5  C   UNL     1     -13.792  25.223  33.308  1.00  0.00     0.000 C 
BRANCH   5   6
ATOM      6  C   UNL     1     -14.364  23.869  32.852  1.00  0.00     0.000 C 
BRANCH   6   7
ATOM      7  C   UNL     1     -15.406  23.299  33.825  1.00  0.00     0.000 C 
BRANCH   7   8
ATOM      8  C   UNL     1     -16.703  22.932  33.091  1.00  0.00     0.006 C 
BRANCH   8   9
ATOM      9  C   UNL     1     -17.010  23.942  31.983  1.00  0.00     0.053 C 
BRANCH   9  10
ATOM     10  C   UNL     1     -18.130  24.846  32.391  1.00  0.00     0.041 C 
ATOM     11  O   UNL     1     -19.186  24.895  31.706  1.00  0.00    -0.550 OA
ATOM     12  O   UNL     1     -17.991  25.668  33.503  1.00  0.00    -0.550 OA
ENDBRANCH   9  10
ENDBRANCH   8   9
ENDBRANCH   7   8
ENDBRANCH   6   7
ENDBRANCH   5   6
ENDBRANCH   4   5
ENDBRANCH   3   4
ENDBRANCH   1   3
BRANCH   2  13
ATOM     13  C   UNL     1     -12.317  30.008  31.182  1.00  0.00     0.027 C 
BRANCH  13  14
ATOM     14  C   UNL     1     -13.362  30.943  30.554  1.00  0.00     0.004 C 
BRANCH  14  15
ATOM     15  C   UNL     1     -12.726  31.996  29.633  1.00  0.00     0.000 C 
BRANCH  15  16
ATOM     16  C   UNL     1     -13.066  31.759  28.151  1.00  0.00     0.000 C 
BRANCH  16  17
ATOM     17  C   UNL     1     -11.828  31.412  27.306  1.00  0.00    -0.000 C 
BRANCH  17  18
ATOM     18  C   UNL     1     -10.609  30.928  28.116  1.00  0.00    -0.000 C 
BRANCH  18  19
ATOM     19  C   UNL     1     -10.164  29.492  27.768  1.00  0.00    -0.003 C 
ATOM     20  C   UNL     1     -11.007  28.871  26.652  1.00  0.00     0.004 C 
ENDBRANCH  18  19
ENDBRANCH  17  18
ENDBRANCH  16  17
ENDBRANCH  15  16
ENDBRANCH  14  15
ENDBRANCH  13  14
ENDBRANCH   2  13
TORSDOF 15
ENDMDL
MODEL 7
REMARK VINA RESULT:    -5.180      2.392      4.685
REMARK INTER + INTRA:         -11.042
REMARK INTER:                  -9.415
REMARK INTRA:                  -1.627
REMARK UNBOUND:                -1.320
REMARK SMILES CCCCCCCCC=CCCCCCCCC(=O)[O-]
REMARK SMILES IDX 10 1 9 2 11 3 12 4 13 5 14 6 15 7 16 8 17 9 18 10 19 11
REMARK SMILES IDX 20 12 8 13 7 14 6 15 5 16 4 17 3 18 2 19 1 20
REMARK H PARENT
REMARK Flexibility Score: inf
ROOT
ATOM      1  C   UNL     1     -14.962  25.634  31.269  1.00  0.00    -0.031 C 
ATOM      2  C   UNL     1     -14.245  25.305  32.352  1.00  0.00    -0.031 C 
ENDROOT
BRANCH   1   3
ATOM      3  C   UNL     1     -14.680  26.906  30.516  1.00  0.00     0.027 C 
BRANCH   3   4
ATOM      4  C   UNL     1     -13.528  27.686  31.163  1.00  0.00     0.004 C 
BRANCH   4   5
ATOM      5  C   UNL     1     -13.939  29.099  31.617  1.00  0.00     0.000 C 
BRANCH   5   6
ATOM      6  C   UNL     1     -12.838  30.168  31.497  1.00  0.00     0.000 C 
BRANCH   6   7
ATOM      7  C   UNL     1     -12.767  30.801  30.100  1.00  0.00     0.000 C 
BRANCH   7   8
ATOM      8  C   UNL     1     -11.312  31.047  29.679  1.00  0.00     0.006 C 
BRANCH   8   9
ATOM      9  C   UNL     1     -10.723  29.810  28.995  1.00  0.00     0.053 C 
BRANCH   9  10
ATOM     10  C   UNL     1     -10.711  29.987  27.509  1.00  0.00     0.041 C 
ATOM     11  O   UNL     1     -10.963  29.012  26.754  1.00  0.00    -0.550 OA
ATOM     12  O   UNL     1     -10.376  31.218  26.958  1.00  0.00    -0.550 OA
ENDBRANCH   9  10
ENDBRANCH   8   9
ENDBRANCH   7   8
ENDBRANCH   6   7
ENDBRANCH   5   6
ENDBRANCH   4   5
ENDBRANCH   3   4
ENDBRANCH   1   3
BRANCH   2  13
ATOM     13  C   UNL     1     -14.500  24.029  33.106  1.00  0.00     0.027 C 
BRANCH  13  14
ATOM     14  C   UNL     1     -15.362  24.289  34.351  1.00  0.00     0.004 C 
BRANCH  14  15
ATOM     15  C   UNL     1     -15.551  25.789  34.629  1.00  0.00     0.000 C 
BRANCH  15  16
ATOM     16  C   UNL     1     -16.951  26.286  34.229  1.00  0.00     0.000 C 
BRANCH  16  17
ATOM     17  C   UNL     1     -17.924  25.137  33.918  1.00  0.00    -0.000 C 
BRANCH  17  18
ATOM     18  C   UNL     1     -18.441  25.104  32.466  1.00  0.00    -0.000 C 
BRANCH  18  19
ATOM     19  C   UNL     1     -18.952  23.717  32.020  1.00  0.00    -0.003 C 
ATOM     20  C   UNL     1     -17.917  22.613  32.244  1.00  0.00     0.004 C 
ENDBRANCH  18  19
ENDBRANCH  17  18
ENDBRANCH  16  17
ENDBRANCH  15  16
ENDBRANCH  14  15
ENDBRANCH  13  14
ENDBRANCH   2  13
TORSDOF 15
ENDMDL
MODEL 8
REMARK VINA RESULT:    -5.166      2.504      3.415
REMARK INTER + INTRA:         -11.017
REMARK INTER:                  -9.393
REMARK INTRA:                  -1.624
REMARK UNBOUND:                -1.320
REMARK SMILES CCCCCCCCC=CCCCCCCCC(=O)[O-]
REMARK SMILES IDX 10 1 9 2 11 3 12 4 13 5 14 6 15 7 16 8 17 9 18 10 19 11
REMARK SMILES IDX 20 12 8 13 7 14 6 15 5 16 4 17 3 18 2 19 1 20
REMARK H PARENT
REMARK Flexibility Score: inf
ROOT
ATOM      1  C   UNL     1     -13.337  27.946  30.843  1.00  0.00    -0.031 C 
ATOM      2  C   UNL     1     -14.032  27.801  31.980  1.00  0.00    -0.031 C 
ENDROOT
BRANCH   1   3
ATOM      3  C   UNL     1     -12.136  28.850  30.785  1.00  0.00     0.027 C 
BRANCH   3   4
ATOM      4  C   UNL     1     -12.451  30.226  31.389  1.00  0.00     0.004 C 
BRANCH   4   5
ATOM      5  C   UNL     1     -13.305  31.108  30.461  1.00  0.00     0.000 C 
BRANCH   5   6
ATOM      6  C   UNL     1     -12.711  32.493  30.149  1.00  0.00     0.000 C 
BRANCH   6   7
ATOM      7  C   UNL     1     -12.034  32.559  28.772  1.00  0.00     0.000 C 
BRANCH   7   8
ATOM      8  C   UNL     1     -12.661  31.549  27.801  1.00  0.00     0.006 C 
BRANCH   8   9
ATOM      9  C   UNL     1     -11.683  31.186  26.681  1.00  0.00     0.053 C 
BRANCH   9  10
ATOM     10  C   UNL     1     -10.983  29.900  26.991  1.00  0.00     0.041 C 
ATOM     11  O   UNL     1     -11.169  28.887  26.266  1.00  0.00    -0.550 OA
ATOM     12  O   UNL     1     -10.159  29.807  28.106  1.00  0.00    -0.550 OA
ENDBRANCH   9  10
ENDBRANCH   8   9
ENDBRANCH   7   8
ENDBRANCH   6   7
ENDBRANCH   5   6
ENDBRANCH   4   5
ENDBRANCH   3   4
ENDBRANCH   1   3
BRANCH   2  13
ATOM     13  C   UNL     1     -15.224  26.887  32.061  1.00  0.00     0.027 C 
BRANCH  13  14
ATOM     14  C   UNL     1     -15.301  25.973  30.828  1.00  0.00     0.004 C 
BRANCH  14  15
ATOM     15  C   UNL     1     -15.085  24.494  31.182  1.00  0.00     0.000 C 
BRANCH  15  16
ATOM     16  C   UNL     1     -14.990  24.262  32.700  1.00  0.00     0.000 C 
BRANCH  16  17
ATOM     17  C   UNL     1     -16.128  23.379  33.238  1.00  0.00    -0.000 C 
BRANCH  17  18
ATOM     18  C   UNL     1     -17.283  23.139  32.246  1.00  0.00    -0.000 C 
BRANCH  18  19
ATOM     19  C   UNL     1     -18.621  23.769  32.686  1.00  0.00    -0.003 C 
ATOM     20  C   UNL     1     -18.523  25.285  32.867  1.00  0.00     0.004 C 
ENDBRANCH  18  19
ENDBRANCH  17  18
ENDBRANCH  16  17
ENDBRANCH  15  16
ENDBRANCH  14  15
ENDBRANCH  13  14
ENDBRANCH   2  13
TORSDOF 15
ENDMDL
MODEL 9
REMARK VINA RESULT:    -5.109      5.062     10.374
REMARK INTER + INTRA:         -10.910
REMARK INTER:                  -9.902
REMARK INTRA:                  -1.007
REMARK UNBOUND:                -1.320
REMARK SMILES CCCCCCCCC=CCCCCCCCC(=O)[O-]
REMARK SMILES IDX 10 1 9 2 11 3 12 4 13 5 14 6 15 7 16 8 17 9 18 10 19 11
REMARK SMILES IDX 20 12 8 13 7 14 6 15 5 16 4 17 3 18 2 19 1 20
REMARK H PARENT
REMARK Flexibility Score: inf
ROOT
ATOM      1  C   UNL     1     -11.869  28.662  29.866  1.00  0.00    -0.031 C 
ATOM      2  C   UNL     1     -11.110  29.614  29.305  1.00  0.00    -0.031 C 
ENDROOT
BRANCH   1   3
ATOM      3  C   UNL     1     -12.450  28.853  31.241  1.00  0.00     0.027 C 
BRANCH   3   4
ATOM      4  C   UNL     1     -13.967  28.620  31.235  1.00  0.00     0.004 C 
BRANCH   4   5
ATOM      5  C   UNL     1     -14.347  27.130  31.152  1.00  0.00     0.000 C 
BRANCH   5   6
ATOM      6  C   UNL     1     -15.090  26.577  32.381  1.00  0.00     0.000 C 
BRANCH   6   7
ATOM      7  C   UNL     1     -14.517  25.242  32.878  1.00  0.00     0.000 C 
BRANCH   7   8
ATOM      8  C   UNL     1     -15.478  24.561  33.862  1.00  0.00     0.006 C 
BRANCH   8   9
ATOM      9  C   UNL     1     -16.414  23.594  33.133  1.00  0.00     0.053 C 
BRANCH   9  10
ATOM     10  C   UNL     1     -17.806  24.141  33.088  1.00  0.00     0.041 C 
ATOM     11  O   UNL     1     -18.685  23.578  32.385  1.00  0.00    -0.550 OA
ATOM     12  O   UNL     1     -18.120  25.301  33.787  1.00  0.00    -0.550 OA
ENDBRANCH   9  10
ENDBRANCH   8   9
ENDBRANCH   7   8
ENDBRANCH   6   7
ENDBRANCH   5   6
ENDBRANCH   4   5
ENDBRANCH   3   4
ENDBRANCH   1   3
BRANCH   2  13
ATOM     13  C   UNL     1     -10.536  29.449  27.924  1.00  0.00     0.027 C 
BRANCH  13  14
ATOM     14  C   UNL     1     -11.411  30.155  26.877  1.00  0.00     0.004 C 
BRANCH  14  15
ATOM     15  C   UNL     1     -12.184  31.345  27.467  1.00  0.00     0.000 C 
BRANCH  15  16
ATOM     16  C   UNL     1     -12.040  32.618  26.613  1.00  0.00     0.000 C 
BRANCH  16  17
ATOM     17  C   UNL     1     -11.342  33.762  27.367  1.00  0.00    -0.000 C 
BRANCH  17  18
ATOM     18  C   UNL     1      -9.809  33.799  27.208  1.00  0.00    -0.000 C 
BRANCH  18  19
ATOM     19  C   UNL     1      -9.335  33.708  25.742  1.00  0.00    -0.003 C 
ATOM     20  C   UNL     1      -9.457  35.042  25.004  1.00  0.00     0.004 C 
ENDBRANCH  18  19
ENDBRANCH  17  18
ENDBRANCH  16  17
ENDBRANCH  15  16
ENDBRANCH  14  15
ENDBRANCH  13  14
ENDBRANCH   2  13
TORSDOF 15
ENDMDL
