MODEL 1
REMARK VINA RESULT:    -5.319      0.000      0.000
REMARK INTER + INTRA:         -15.181
REMARK INTER:                 -12.161
REMARK INTRA:                  -3.020
REMARK UNBOUND:                -3.020
REMARK SMILES CCCCCCCCCCCCCCCCCCCCCCCC(=O)[O-]
REMARK SMILES IDX 13 1 14 2 15 3 16 4 17 5 18 6 19 7 20 8 21 9 22 10 23 11
REMARK SMILES IDX 24 12 25 13 26 14 12 15 11 16 10 17 9 18 8 19 7 20 6 21 5 22
REMARK SMILES IDX 4 23 3 24 2 25 1 26
REMARK H PARENT
REMARK Flexibility Score: inf
ROOT
ATOM      1  C   UNL     1       3.992   9.017  14.026  1.00  0.00     0.000 C 
ENDROOT
BRANCH   1   2
ATOM      2  C   UNL     1       3.607   9.965  15.168  1.00  0.00     0.000 C 
BRANCH   2   3
ATOM      3  C   UNL     1       4.100   9.432  16.518  1.00  0.00     0.000 C 
BRANCH   3   4
ATOM      4  C   UNL     1       2.939   9.319  17.518  1.00  0.00     0.000 C 
BRANCH   4   5
ATOM      5  C   UNL     1       2.768   7.891  18.061  1.00  0.00     0.000 C 
BRANCH   5   6
ATOM      6  C   UNL     1       2.215   6.921  17.005  1.00  0.00     0.000 C 
BRANCH   6   7
ATOM      7  C   UNL     1       2.850   5.532  17.155  1.00  0.00     0.000 C 
BRANCH   7   8
ATOM      8  C   UNL     1       4.234   5.579  17.828  1.00  0.00     0.000 C 
BRANCH   8   9
ATOM      9  C   UNL     1       5.371   6.123  16.939  1.00  0.00     0.000 C 
BRANCH   9  10
ATOM     10  C   UNL     1       5.118   6.034  15.419  1.00  0.00     0.006 C 
BRANCH  10  11
ATOM     11  C   UNL     1       6.144   5.186  14.649  1.00  0.00     0.053 C 
BRANCH  11  12
ATOM     12  C   UNL     1       7.394   5.956  14.343  1.00  0.00     0.041 C 
ATOM     13  O   UNL     1       7.354   7.207  14.226  1.00  0.00    -0.550 OA
ATOM     14  O   UNL     1       8.611   5.297  14.259  1.00  0.00    -0.550 OA
ENDBRANCH  11  12
ENDBRANCH  10  11
ENDBRANCH   9  10
ENDBRANCH   8   9
ENDBRANCH   7   8
ENDBRANCH   6   7
ENDBRANCH   5   6
ENDBRANCH   4   5
ENDBRANCH   3   4
ENDBRANCH   2   3
ENDBRANCH   1   2
BRANCH   1  15
ATOM     15  C   UNL     1       2.810   8.125  13.628  1.00  0.00     0.000 C 
BRANCH  15  16
ATOM     16  C   UNL     1       2.000   8.756  12.483  1.00  0.00     0.000 C 
BRANCH  16  17
ATOM     17  C   UNL     1       2.178   8.008  11.150  1.00  0.00     0.000 C 
BRANCH  17  18
ATOM     18  C   UNL     1       3.217   6.865  11.210  1.00  0.00    -0.000 C 
BRANCH  18  19
ATOM     19  C   UNL     1       4.529   7.184  10.474  1.00  0.00    -0.000 C 
BRANCH  19  20
ATOM     20  C   UNL     1       4.325   8.138   9.284  1.00  0.00    -0.000 C 
BRANCH  20  21
ATOM     21  C   UNL     1       5.157   9.433   9.417  1.00  0.00    -0.000 C 
BRANCH  21  22
ATOM     22  C   UNL     1       6.127   9.434  10.616  1.00  0.00    -0.000 C 
BRANCH  22  23
ATOM     23  C   UNL     1       7.591   9.110  10.273  1.00  0.00    -0.000 C 
BRANCH  23  24
ATOM     24  C   UNL     1       8.177   7.983  11.142  1.00  0.00    -0.000 C 
BRANCH  24  25
ATOM     25  C   UNL     1       8.178   6.632  10.411  1.00  0.00    -0.003 C 
ATOM     26  C   UNL     1       9.375   5.758  10.788  1.00  0.00     0.004 C 
ENDBRANCH  24  25
ENDBRANCH  23  24
ENDBRANCH  22  23
ENDBRANCH  21  22
ENDBRANCH  20  21
ENDBRANCH  19  20
ENDBRANCH  18  19
ENDBRANCH  17  18
ENDBRANCH  16  17
ENDBRANCH  15  16
ENDBRANCH   1  15
TORSDOF 22
ENDMDL
MODEL 2
REMARK VINA RESULT:    -5.187      1.273      6.407
REMARK INTER + INTRA:         -14.879
REMARK INTER:                 -11.476
REMARK INTRA:                  -3.403
REMARK UNBOUND:                -3.020
REMARK SMILES CCCCCCCCCCCCCCCCCCCCCCCC(=O)[O-]
REMARK SMILES IDX 13 1 14 2 15 3 16 4 17 5 18 6 19 7 20 8 21 9 22 10 23 11
REMARK SMILES IDX 24 12 25 13 26 14 12 15 11 16 10 17 9 18 8 19 7 20 6 21 5 22
REMARK SMILES IDX 4 23 3 24 2 25 1 26
REMARK H PARENT
REMARK Flexibility Score: inf
ROOT
ATOM      1  C   UNL     1       2.592   8.181  14.268  1.00  0.00     0.000 C 
ENDROOT
BRANCH   1   2
ATOM      2  C   UNL     1       3.218   8.487  12.902  1.00  0.00     0.000 C 
BRANCH   2   3
ATOM      3  C   UNL     1       2.398   7.863  11.767  1.00  0.00     0.000 C 
BRANCH   3   4
ATOM      4  C   UNL     1       3.177   6.723  11.093  1.00  0.00     0.000 C 
BRANCH   4   5
ATOM      5  C   UNL     1       4.457   7.216  10.399  1.00  0.00     0.000 C 
BRANCH   5   6
ATOM      6  C   UNL     1       4.166   8.197   9.254  1.00  0.00     0.000 C 
BRANCH   6   7
ATOM      7  C   UNL     1       5.193   9.337   9.238  1.00  0.00     0.000 C 
BRANCH   7   8
ATOM      8  C   UNL     1       5.986   9.442  10.553  1.00  0.00     0.000 C 
BRANCH   8   9
ATOM      9  C   UNL     1       7.520   9.399  10.393  1.00  0.00     0.000 C 
BRANCH   9  10
ATOM     10  C   UNL     1       8.224   8.227  11.111  1.00  0.00     0.006 C 
BRANCH  10  11
ATOM     11  C   UNL     1       7.942   6.845  10.500  1.00  0.00     0.053 C 
BRANCH  11  12
ATOM     12  C   UNL     1       9.134   5.939  10.584  1.00  0.00     0.041 C 
ATOM     13  O   UNL     1       9.893   5.798   9.592  1.00  0.00    -0.550 OA
ATOM     14  O   UNL     1       9.443   5.308  11.780  1.00  0.00    -0.550 OA
ENDBRANCH  11  12
ENDBRANCH  10  11
ENDBRANCH   9  10
ENDBRANCH   8   9
ENDBRANCH   7   8
ENDBRANCH   6   7
ENDBRANCH   5   6
ENDBRANCH   4   5
ENDBRANCH   3   4
ENDBRANCH   2   3
ENDBRANCH   1   2
BRANCH   1  15
ATOM     15  C   UNL     1       2.596   9.425  15.166  1.00  0.00     0.000 C 
BRANCH  15  16
ATOM     16  C   UNL     1       3.584   9.264  16.332  1.00  0.00     0.000 C 
BRANCH  16  17
ATOM     17  C   UNL     1       2.929   9.515  17.702  1.00  0.00     0.000 C 
BRANCH  17  18
ATOM     18  C   UNL     1       1.961   8.396  18.146  1.00  0.00    -0.000 C 
BRANCH  18  19
ATOM     19  C   UNL     1       2.638   7.280  18.959  1.00  0.00    -0.000 C 
BRANCH  19  20
ATOM     20  C   UNL     1       2.364   5.878  18.386  1.00  0.00    -0.000 C 
BRANCH  20  21
ATOM     21  C   UNL     1       3.108   5.630  17.055  1.00  0.00    -0.000 C 
BRANCH  21  22
ATOM     22  C   UNL     1       4.637   5.498  17.207  1.00  0.00    -0.000 C 
BRANCH  22  23
ATOM     23  C   UNL     1       5.466   6.296  16.186  1.00  0.00    -0.000 C 
BRANCH  23  24
ATOM     24  C   UNL     1       5.122   5.947  14.727  1.00  0.00    -0.000 C 
BRANCH  24  25
ATOM     25  C   UNL     1       6.331   6.116  13.794  1.00  0.00    -0.003 C 
ATOM     26  C   UNL     1       7.585   6.586  14.532  1.00  0.00     0.004 C 
ENDBRANCH  24  25
ENDBRANCH  23  24
ENDBRANCH  22  23
ENDBRANCH  21  22
ENDBRANCH  20  21
ENDBRANCH  19  20
ENDBRANCH  18  19
ENDBRANCH  17  18
ENDBRANCH  16  17
ENDBRANCH  15  16
ENDBRANCH   1  15
TORSDOF 22
ENDMDL
MODEL 3
REMARK VINA RESULT:    -5.052      1.023      2.010
REMARK INTER + INTRA:         -14.571
REMARK INTER:                 -11.428
REMARK INTRA:                  -3.142
REMARK UNBOUND:                -3.020
REMARK SMILES CCCCCCCCCCCCCCCCCCCCCCCC(=O)[O-]
REMARK SMILES IDX 13 1 14 2 15 3 16 4 17 5 18 6 19 7 20 8 21 9 22 10 23 11
REMARK SMILES IDX 24 12 25 13 26 14 12 15 11 16 10 17 9 18 8 19 7 20 6 21 5 22
REMARK SMILES IDX 4 23 3 24 2 25 1 26
REMARK H PARENT
REMARK Flexibility Score: inf
ROOT
ATOM      1  C   UNL     1       3.191   7.895  13.100  1.00  0.00     0.000 C 
ENDROOT
BRANCH   1   2
ATOM      2  C   UNL     1       3.749   9.161  13.760  1.00  0.00     0.000 C 
BRANCH   2   3
ATOM      3  C   UNL     1       2.890   9.583  14.957  1.00  0.00     0.000 C 
BRANCH   3   4
ATOM      4  C   UNL     1       3.762   9.825  16.198  1.00  0.00     0.000 C 
BRANCH   4   5
ATOM      5  C   UNL     1       3.015   9.534  17.509  1.00  0.00     0.000 C 
BRANCH   5   6
ATOM      6  C   UNL     1       2.242   8.207  17.464  1.00  0.00     0.000 C 
BRANCH   6   7
ATOM      7  C   UNL     1       2.729   7.254  18.564  1.00  0.00     0.000 C 
BRANCH   7   8
ATOM      8  C   UNL     1       2.501   5.773  18.214  1.00  0.00     0.000 C 
BRANCH   8   9
ATOM      9  C   UNL     1       3.450   5.204  17.139  1.00  0.00     0.000 C 
BRANCH   9  10
ATOM     10  C   UNL     1       4.865   5.820  17.118  1.00  0.00     0.006 C 
BRANCH  10  11
ATOM     11  C   UNL     1       5.233   6.530  15.805  1.00  0.00     0.053 C 
BRANCH  11  12
ATOM     12  C   UNL     1       6.561   6.079  15.275  1.00  0.00     0.041 C 
ATOM     13  O   UNL     1       7.606   6.258  15.951  1.00  0.00    -0.550 OA
ATOM     14  O   UNL     1       6.632   5.398  14.068  1.00  0.00    -0.550 OA
ENDBRANCH  11  12
ENDBRANCH  10  11
ENDBRANCH   9  10
ENDBRANCH   8   9
ENDBRANCH   7   8
ENDBRANCH   6   7
ENDBRANCH   5   6
ENDBRANCH   4   5
ENDBRANCH   3   4
ENDBRANCH   2   3
ENDBRANCH   1   2
BRANCH   1  15
ATOM     15  C   UNL     1       4.278   7.167  12.299  1.00  0.00     0.000 C 
BRANCH  15  16
ATOM     16  C   UNL     1       3.749   6.716  10.927  1.00  0.00     0.000 C 
BRANCH  16  17
ATOM     17  C   UNL     1       3.296   7.897  10.050  1.00  0.00     0.000 C 
BRANCH  17  18
ATOM     18  C   UNL     1       4.425   8.500   9.184  1.00  0.00    -0.000 C 
BRANCH  18  19
ATOM     19  C   UNL     1       5.060   9.762   9.788  1.00  0.00    -0.000 C 
BRANCH  19  20
ATOM     20  C   UNL     1       6.404  10.124   9.131  1.00  0.00    -0.000 C 
BRANCH  20  21
ATOM     21  C   UNL     1       7.593   9.372   9.769  1.00  0.00    -0.000 C 
BRANCH  21  22
ATOM     22  C   UNL     1       7.496   9.231  11.301  1.00  0.00    -0.000 C 
BRANCH  22  23
ATOM     23  C   UNL     1       7.835   7.835  11.852  1.00  0.00    -0.000 C 
BRANCH  23  24
ATOM     24  C   UNL     1       7.938   6.764  10.752  1.00  0.00    -0.000 C 
BRANCH  24  25
ATOM     25  C   UNL     1       9.250   5.970  10.841  1.00  0.00    -0.003 C 
ATOM     26  C   UNL     1       9.759   5.515   9.473  1.00  0.00     0.004 C 
ENDBRANCH  24  25
ENDBRANCH  23  24
ENDBRANCH  22  23
ENDBRANCH  21  22
ENDBRANCH  20  21
ENDBRANCH  19  20
ENDBRANCH  18  19
ENDBRANCH  17  18
ENDBRANCH  16  17
ENDBRANCH  15  16
ENDBRANCH   1  15
TORSDOF 22
ENDMDL
MODEL 4
REMARK VINA RESULT:    -4.714      1.569      5.142
REMARK INTER + INTRA:         -13.798
REMARK INTER:                 -11.206
REMARK INTRA:                  -2.591
REMARK UNBOUND:                -3.020
REMARK SMILES CCCCCCCCCCCCCCCCCCCCCCCC(=O)[O-]
REMARK SMILES IDX 13 1 14 2 15 3 16 4 17 5 18 6 19 7 20 8 21 9 22 10 23 11
REMARK SMILES IDX 24 12 25 13 26 14 12 15 11 16 10 17 9 18 8 19 7 20 6 21 5 22
REMARK SMILES IDX 4 23 3 24 2 25 1 26
REMARK H PARENT
REMARK Flexibility Score: inf
ROOT
ATOM      1  C   UNL     1       2.496   5.953  17.744  1.00  0.00     0.000 C 
ENDROOT
BRANCH   1   2
ATOM      2  C   UNL     1       3.648   4.974  17.487  1.00  0.00     0.000 C 
BRANCH   2   3
ATOM      3  C   UNL     1       4.954   5.722  17.197  1.00  0.00     0.000 C 
BRANCH   3   4
ATOM      4  C   UNL     1       4.726   6.841  16.170  1.00  0.00     0.000 C 
BRANCH   4   5
ATOM      5  C   UNL     1       5.133   6.426  14.747  1.00  0.00     0.000 C 
BRANCH   5   6
ATOM      6  C   UNL     1       6.379   5.529  14.730  1.00  0.00     0.000 C 
BRANCH   6   7
ATOM      7  C   UNL     1       7.486   6.150  13.866  1.00  0.00     0.000 C 
BRANCH   7   8
ATOM      8  C   UNL     1       6.980   7.314  12.995  1.00  0.00     0.000 C 
BRANCH   8   9
ATOM      9  C   UNL     1       8.086   8.174  12.350  1.00  0.00     0.000 C 
BRANCH   9  10
ATOM     10  C   UNL     1       8.223   8.030  10.819  1.00  0.00     0.006 C 
BRANCH  10  11
ATOM     11  C   UNL     1       7.987   6.606  10.289  1.00  0.00     0.053 C 
BRANCH  11  12
ATOM     12  C   UNL     1       9.234   5.775  10.335  1.00  0.00     0.041 C 
ATOM     13  O   UNL     1       9.547   5.160  11.386  1.00  0.00    -0.550 OA
ATOM     14  O   UNL     1      10.009   5.623   9.194  1.00  0.00    -0.550 OA
ENDBRANCH  11  12
ENDBRANCH  10  11
ENDBRANCH   9  10
ENDBRANCH   8   9
ENDBRANCH   7   8
ENDBRANCH   6   7
ENDBRANCH   5   6
ENDBRANCH   4   5
ENDBRANCH   3   4
ENDBRANCH   2   3
ENDBRANCH   1   2
BRANCH   1  15
ATOM     15  C   UNL     1       2.802   6.861  18.943  1.00  0.00     0.000 C 
BRANCH  15  16
ATOM     16  C   UNL     1       1.898   8.104  18.942  1.00  0.00     0.000 C 
BRANCH  16  17
ATOM     17  C   UNL     1       2.423   9.217  18.018  1.00  0.00     0.000 C 
BRANCH  17  18
ATOM     18  C   UNL     1       1.879   9.138  16.574  1.00  0.00    -0.000 C 
BRANCH  18  19
ATOM     19  C   UNL     1       2.678   9.981  15.567  1.00  0.00    -0.000 C 
BRANCH  19  20
ATOM     20  C   UNL     1       2.521   9.482  14.119  1.00  0.00    -0.000 C 
BRANCH  20  21
ATOM     21  C   UNL     1       3.623  10.030  13.185  1.00  0.00    -0.000 C 
BRANCH  21  22
ATOM     22  C   UNL     1       4.224   8.974  12.236  1.00  0.00    -0.000 C 
BRANCH  22  23
ATOM     23  C   UNL     1       3.249   7.875  11.781  1.00  0.00    -0.000 C 
BRANCH  23  24
ATOM     24  C   UNL     1       3.926   6.784  10.932  1.00  0.00    -0.000 C 
BRANCH  24  25
ATOM     25  C   UNL     1       4.750   7.378   9.780  1.00  0.00    -0.003 C 
ATOM     26  C   UNL     1       4.012   8.495   9.041  1.00  0.00     0.004 C 
ENDBRANCH  24  25
ENDBRANCH  23  24
ENDBRANCH  22  23
ENDBRANCH  21  22
ENDBRANCH  20  21
ENDBRANCH  19  20
ENDBRANCH  18  19
ENDBRANCH  17  18
ENDBRANCH  16  17
ENDBRANCH  15  16
ENDBRANCH   1  15
TORSDOF 22
ENDMDL
MODEL 5
REMARK VINA RESULT:    -4.623      2.193      4.683
REMARK INTER + INTRA:         -13.588
REMARK INTER:                 -11.211
REMARK INTRA:                  -2.378
REMARK UNBOUND:                -3.020
REMARK SMILES CCCCCCCCCCCCCCCCCCCCCCCC(=O)[O-]
REMARK SMILES IDX 13 1 14 2 15 3 16 4 17 5 18 6 19 7 20 8 21 9 22 10 23 11
REMARK SMILES IDX 24 12 25 13 26 14 12 15 11 16 10 17 9 18 8 19 7 20 6 21 5 22
REMARK SMILES IDX 4 23 3 24 2 25 1 26
REMARK H PARENT
REMARK Flexibility Score: inf
ROOT
ATOM      1  C   UNL     1       2.817   5.279  17.147  1.00  0.00     0.000 C 
ENDROOT
BRANCH   1   2
ATOM      2  C   UNL     1       2.332   6.325  18.158  1.00  0.00     0.000 C 
BRANCH   2   3
ATOM      3  C   UNL     1       1.929   7.626  17.456  1.00  0.00     0.000 C 
BRANCH   3   4
ATOM      4  C   UNL     1       2.682   8.825  18.051  1.00  0.00     0.000 C 
BRANCH   4   5
ATOM      5  C   UNL     1       2.887   9.956  17.030  1.00  0.00     0.000 C 
BRANCH   5   6
ATOM      6  C   UNL     1       3.947   9.612  15.974  1.00  0.00     0.000 C 
BRANCH   6   7
ATOM      7  C   UNL     1       3.436   9.932  14.563  1.00  0.00     0.000 C 
BRANCH   7   8
ATOM      8  C   UNL     1       2.408   8.905  14.054  1.00  0.00     0.000 C 
BRANCH   8   9
ATOM      9  C   UNL     1       2.614   8.445  12.597  1.00  0.00     0.000 C 
BRANCH   9  10
ATOM     10  C   UNL     1       3.748   7.419  12.386  1.00  0.00     0.006 C 
BRANCH  10  11
ATOM     11  C   UNL     1       3.863   6.881  10.950  1.00  0.00     0.053 C 
BRANCH  11  12
ATOM     12  C   UNL     1       3.278   7.828   9.946  1.00  0.00     0.041 C 
ATOM     13  O   UNL     1       4.008   8.346   9.063  1.00  0.00    -0.550 OA
ATOM     14  O   UNL     1       1.914   8.081   9.943  1.00  0.00    -0.550 OA
ENDBRANCH  11  12
ENDBRANCH  10  11
ENDBRANCH   9  10
ENDBRANCH   8   9
ENDBRANCH   7   8
ENDBRANCH   6   7
ENDBRANCH   5   6
ENDBRANCH   4   5
ENDBRANCH   3   4
ENDBRANCH   2   3
ENDBRANCH   1   2
BRANCH   1  15
ATOM     15  C   UNL     1       4.258   4.848  17.448  1.00  0.00     0.000 C 
BRANCH  15  16
ATOM     16  C   UNL     1       5.254   5.972  17.120  1.00  0.00     0.000 C 
BRANCH  16  17
ATOM     17  C   UNL     1       5.078   6.519  15.692  1.00  0.00     0.000 C 
BRANCH  17  18
ATOM     18  C   UNL     1       5.652   5.595  14.595  1.00  0.00    -0.000 C 
BRANCH  18  19
ATOM     19  C   UNL     1       7.182   5.455  14.643  1.00  0.00    -0.000 C 
BRANCH  19  20
ATOM     20  C   UNL     1       7.909   6.719  14.150  1.00  0.00    -0.000 C 
BRANCH  20  21
ATOM     21  C   UNL     1       7.139   7.438  13.019  1.00  0.00    -0.000 C 
BRANCH  21  22
ATOM     22  C   UNL     1       8.036   7.939  11.869  1.00  0.00    -0.000 C 
BRANCH  22  23
ATOM     23  C   UNL     1       7.520   7.626  10.454  1.00  0.00    -0.000 C 
BRANCH  23  24
ATOM     24  C   UNL     1       7.681   6.145  10.069  1.00  0.00    -0.000 C 
BRANCH  24  25
ATOM     25  C   UNL     1       9.055   5.590  10.474  1.00  0.00    -0.003 C 
ATOM     26  C   UNL     1      10.057   5.594   9.319  1.00  0.00     0.004 C 
ENDBRANCH  24  25
ENDBRANCH  23  24
ENDBRANCH  22  23
ENDBRANCH  21  22
ENDBRANCH  20  21
ENDBRANCH  19  20
ENDBRANCH  18  19
ENDBRANCH  17  18
ENDBRANCH  16  17
ENDBRANCH  15  16
ENDBRANCH   1  15
TORSDOF 22
ENDMDL
MODEL 6
REMARK VINA RESULT:    -4.549      1.183      6.479
REMARK INTER + INTRA:         -13.419
REMARK INTER:                 -11.096
REMARK INTRA:                  -2.323
REMARK UNBOUND:                -3.020
REMARK SMILES CCCCCCCCCCCCCCCCCCCCCCCC(=O)[O-]
REMARK SMILES IDX 13 1 14 2 15 3 16 4 17 5 18 6 19 7 20 8 21 9 22 10 23 11
REMARK SMILES IDX 24 12 25 13 26 14 12 15 11 16 10 17 9 18 8 19 7 20 6 21 5 22
REMARK SMILES IDX 4 23 3 24 2 25 1 26
REMARK H PARENT
REMARK Flexibility Score: inf
ROOT
ATOM      1  C   UNL     1       4.467   7.536  10.943  1.00  0.00     0.000 C 
ENDROOT
BRANCH   1   2
ATOM      2  C   UNL     1       4.636   7.878   9.458  1.00  0.00     0.000 C 
BRANCH   2   3
ATOM      3  C   UNL     1       4.964   9.363   9.268  1.00  0.00     0.000 C 
BRANCH   3   4
ATOM      4  C   UNL     1       5.932   9.853  10.356  1.00  0.00     0.000 C 
BRANCH   4   5
ATOM      5  C   UNL     1       7.403   9.750   9.923  1.00  0.00     0.000 C 
BRANCH   5   6
ATOM      6  C   UNL     1       8.207   8.774  10.795  1.00  0.00     0.000 C 
BRANCH   6   7
ATOM      7  C   UNL     1       7.997   7.327  10.328  1.00  0.00     0.000 C 
BRANCH   7   8
ATOM      8  C   UNL     1       9.052   6.360  10.895  1.00  0.00     0.000 C 
BRANCH   8   9
ATOM      9  C   UNL     1       8.751   5.823  12.309  1.00  0.00     0.000 C 
BRANCH   9  10
ATOM     10  C   UNL     1       7.690   6.616  13.101  1.00  0.00     0.006 C 
BRANCH  10  11
ATOM     11  C   UNL     1       7.698   6.354  14.617  1.00  0.00     0.053 C 
BRANCH  11  12
ATOM     12  C   UNL     1       6.312   6.209  15.169  1.00  0.00     0.041 C 
ATOM     13  O   UNL     1       6.102   6.359  16.400  1.00  0.00    -0.550 OA
ATOM     14  O   UNL     1       5.244   5.979  14.314  1.00  0.00    -0.550 OA
ENDBRANCH  11  12
ENDBRANCH  10  11
ENDBRANCH   9  10
ENDBRANCH   8   9
ENDBRANCH   7   8
ENDBRANCH   6   7
ENDBRANCH   5   6
ENDBRANCH   4   5
ENDBRANCH   3   4
ENDBRANCH   2   3
ENDBRANCH   1   2
BRANCH   1  15
ATOM     15  C   UNL     1       3.191   6.717  11.178  1.00  0.00     0.000 C 
BRANCH  15  16
ATOM     16  C   UNL     1       1.938   7.604  11.084  1.00  0.00     0.000 C 
BRANCH  16  17
ATOM     17  C   UNL     1       1.961   8.767  12.092  1.00  0.00     0.000 C 
BRANCH  17  18
ATOM     18  C   UNL     1       2.146   8.319  13.559  1.00  0.00    -0.000 C 
BRANCH  18  19
ATOM     19  C   UNL     1       2.737   9.409  14.467  1.00  0.00    -0.000 C 
BRANCH  19  20
ATOM     20  C   UNL     1       4.086   9.000  15.086  1.00  0.00    -0.000 C 
BRANCH  20  21
ATOM     21  C   UNL     1       4.128   9.233  16.613  1.00  0.00    -0.000 C 
BRANCH  21  22
ATOM     22  C   UNL     1       2.743   9.453  17.252  1.00  0.00    -0.000 C 
BRANCH  22  23
ATOM     23  C   UNL     1       1.981   8.167  17.619  1.00  0.00    -0.000 C 
BRANCH  23  24
ATOM     24  C   UNL     1       2.733   7.293  18.638  1.00  0.00    -0.000 C 
BRANCH  24  25
ATOM     25  C   UNL     1       2.436   5.798  18.444  1.00  0.00    -0.003 C 
ATOM     26  C   UNL     1       3.024   5.242  17.147  1.00  0.00     0.004 C 
ENDBRANCH  24  25
ENDBRANCH  23  24
ENDBRANCH  22  23
ENDBRANCH  21  22
ENDBRANCH  20  21
ENDBRANCH  19  20
ENDBRANCH  18  19
ENDBRANCH  17  18
ENDBRANCH  16  17
ENDBRANCH  15  16
ENDBRANCH   1  15
TORSDOF 22
ENDMDL
MODEL 7
REMARK VINA RESULT:    -4.477      1.902      4.875
REMARK INTER + INTRA:         -13.255
REMARK INTER:                 -10.433
REMARK INTRA:                  -2.822
REMARK UNBOUND:                -3.020
REMARK SMILES CCCCCCCCCCCCCCCCCCCCCCCC(=O)[O-]
REMARK SMILES IDX 13 1 14 2 15 3 16 4 17 5 18 6 19 7 20 8 21 9 22 10 23 11
REMARK SMILES IDX 24 12 25 13 26 14 12 15 11 16 10 17 9 18 8 19 7 20 6 21 5 22
REMARK SMILES IDX 4 23 3 24 2 25 1 26
REMARK H PARENT
REMARK Flexibility Score: inf
ROOT
ATOM      1  C   UNL     1       5.030   7.365  10.067  1.00  0.00     0.000 C 
ENDROOT
BRANCH   1   2
ATOM      2  C   UNL     1       3.969   6.911  11.076  1.00  0.00     0.000 C 
BRANCH   2   3
ATOM      3  C   UNL     1       4.231   7.513  12.461  1.00  0.00     0.000 C 
BRANCH   3   4
ATOM      4  C   UNL     1       4.000   9.031  12.450  1.00  0.00     0.000 C 
BRANCH   4   5
ATOM      5  C   UNL     1       2.870   9.462  13.398  1.00  0.00     0.000 C 
BRANCH   5   6
ATOM      6  C   UNL     1       1.981   8.285  13.827  1.00  0.00     0.000 C 
BRANCH   6   7
ATOM      7  C   UNL     1       2.081   8.049  15.340  1.00  0.00     0.000 C 
BRANCH   7   8
ATOM      8  C   UNL     1       3.159   8.920  16.009  1.00  0.00     0.000 C 
BRANCH   8   9
ATOM      9  C   UNL     1       3.468   8.561  17.477  1.00  0.00     0.000 C 
BRANCH   9  10
ATOM     10  C   UNL     1       2.279   7.991  18.279  1.00  0.00     0.006 C 
BRANCH  10  11
ATOM     11  C   UNL     1       2.620   6.762  19.138  1.00  0.00     0.053 C 
BRANCH  11  12
ATOM     12  C   UNL     1       3.351   5.713  18.355  1.00  0.00     0.041 C 
ATOM     13  O   UNL     1       2.724   4.958  17.570  1.00  0.00    -0.550 OA
ATOM     14  O   UNL     1       4.733   5.620  18.441  1.00  0.00    -0.550 OA
ENDBRANCH  11  12
ENDBRANCH  10  11
ENDBRANCH   9  10
ENDBRANCH   8   9
ENDBRANCH   7   8
ENDBRANCH   6   7
ENDBRANCH   5   6
ENDBRANCH   4   5
ENDBRANCH   3   4
ENDBRANCH   2   3
ENDBRANCH   1   2
BRANCH   1  15
ATOM     15  C   UNL     1       4.436   8.344   9.046  1.00  0.00     0.000 C 
BRANCH  15  16
ATOM     16  C   UNL     1       5.359   9.555   8.836  1.00  0.00     0.000 C 
BRANCH  16  17
ATOM     17  C   UNL     1       6.191   9.889  10.087  1.00  0.00     0.000 C 
BRANCH  17  18
ATOM     18  C   UNL     1       7.696   9.573   9.939  1.00  0.00    -0.000 C 
BRANCH  18  19
ATOM     19  C   UNL     1       8.237   8.624  11.021  1.00  0.00    -0.000 C 
BRANCH  19  20
ATOM     20  C   UNL     1       8.548   7.218  10.476  1.00  0.00    -0.000 C 
BRANCH  20  21
ATOM     21  C   UNL     1       8.775   6.187  11.605  1.00  0.00    -0.000 C 
BRANCH  21  22
ATOM     22  C   UNL     1       7.997   6.493  12.900  1.00  0.00    -0.000 C 
BRANCH  22  23
ATOM     23  C   UNL     1       8.207   5.484  14.042  1.00  0.00    -0.000 C 
BRANCH  23  24
ATOM     24  C   UNL     1       7.696   5.998  15.400  1.00  0.00    -0.000 C 
BRANCH  24  25
ATOM     25  C   UNL     1       6.357   6.740  15.268  1.00  0.00    -0.003 C 
ATOM     26  C   UNL     1       5.157   5.793  15.240  1.00  0.00     0.004 C 
ENDBRANCH  24  25
ENDBRANCH  23  24
ENDBRANCH  22  23
ENDBRANCH  21  22
ENDBRANCH  20  21
ENDBRANCH  19  20
ENDBRANCH  18  19
ENDBRANCH  17  18
ENDBRANCH  16  17
ENDBRANCH  15  16
ENDBRANCH   1  15
TORSDOF 22
ENDMDL
MODEL 8
REMARK VINA RESULT:    -4.328      1.208      3.775
REMARK INTER + INTRA:         -12.914
REMARK INTER:                 -10.434
REMARK INTRA:                  -2.480
REMARK UNBOUND:                -3.020
REMARK SMILES CCCCCCCCCCCCCCCCCCCCCCCC(=O)[O-]
REMARK SMILES IDX 13 1 14 2 15 3 16 4 17 5 18 6 19 7 20 8 21 9 22 10 23 11
REMARK SMILES IDX 24 12 25 13 26 14 12 15 11 16 10 17 9 18 8 19 7 20 6 21 5 22
REMARK SMILES IDX 4 23 3 24 2 25 1 26
REMARK H PARENT
REMARK Flexibility Score: inf
ROOT
ATOM      1  C   UNL     1       4.479   7.045  11.070  1.00  0.00     0.000 C 
ENDROOT
BRANCH   1   2
ATOM      2  C   UNL     1       2.967   6.803  10.994  1.00  0.00     0.000 C 
BRANCH   2   3
ATOM      3  C   UNL     1       2.198   7.870  11.783  1.00  0.00     0.000 C 
BRANCH   3   4
ATOM      4  C   UNL     1       3.165   8.826  12.496  1.00  0.00     0.000 C 
BRANCH   4   5
ATOM      5  C   UNL     1       2.443  10.020  13.141  1.00  0.00     0.000 C 
BRANCH   5   6
ATOM      6  C   UNL     1       2.044   9.750  14.599  1.00  0.00     0.000 C 
BRANCH   6   7
ATOM      7  C   UNL     1       3.230   9.182  15.393  1.00  0.00     0.000 C 
BRANCH   7   8
ATOM      8  C   UNL     1       2.961   9.129  16.908  1.00  0.00     0.000 C 
BRANCH   8   9
ATOM      9  C   UNL     1       3.184   7.750  17.561  1.00  0.00     0.000 C 
BRANCH   9  10
ATOM     10  C   UNL     1       3.317   6.569  16.575  1.00  0.00     0.006 C 
BRANCH  10  11
ATOM     11  C   UNL     1       4.658   5.822  16.651  1.00  0.00     0.053 C 
BRANCH  11  12
ATOM     12  C   UNL     1       5.596   6.235  15.558  1.00  0.00     0.041 C 
ATOM     13  O   UNL     1       5.157   6.479  14.405  1.00  0.00    -0.550 OA
ATOM     14  O   UNL     1       6.944   6.419  15.831  1.00  0.00    -0.550 OA
ENDBRANCH  11  12
ENDBRANCH  10  11
ENDBRANCH   9  10
ENDBRANCH   8   9
ENDBRANCH   7   8
ENDBRANCH   6   7
ENDBRANCH   5   6
ENDBRANCH   4   5
ENDBRANCH   3   4
ENDBRANCH   2   3
ENDBRANCH   1   2
BRANCH   1  15
ATOM     15  C   UNL     1       5.085   7.185   9.668  1.00  0.00     0.000 C 
BRANCH  15  16
ATOM     16  C   UNL     1       4.495   8.396   8.927  1.00  0.00     0.000 C 
BRANCH  16  17
ATOM     17  C   UNL     1       5.073   9.733   9.424  1.00  0.00     0.000 C 
BRANCH  17  18
ATOM     18  C   UNL     1       6.408  10.124   8.752  1.00  0.00    -0.000 C 
BRANCH  18  19
ATOM     19  C   UNL     1       7.643   9.509   9.431  1.00  0.00    -0.000 C 
BRANCH  19  20
ATOM     20  C   UNL     1       7.739   9.865  10.925  1.00  0.00    -0.000 C 
BRANCH  20  21
ATOM     21  C   UNL     1       8.534   8.813  11.731  1.00  0.00    -0.000 C 
BRANCH  21  22
ATOM     22  C   UNL     1       7.681   7.630  12.231  1.00  0.00    -0.000 C 
BRANCH  22  23
ATOM     23  C   UNL     1       8.479   6.435  12.780  1.00  0.00    -0.000 C 
BRANCH  23  24
ATOM     24  C   UNL     1       9.023   5.515  11.673  1.00  0.00    -0.000 C 
BRANCH  24  25
ATOM     25  C   UNL     1       8.996   6.194  10.295  1.00  0.00    -0.003 C 
ATOM     26  C   UNL     1       9.993   5.577   9.313  1.00  0.00     0.004 C 
ENDBRANCH  24  25
ENDBRANCH  23  24
ENDBRANCH  22  23
ENDBRANCH  21  22
ENDBRANCH  20  21
ENDBRANCH  19  20
ENDBRANCH  18  19
ENDBRANCH  17  18
ENDBRANCH  16  17
ENDBRANCH  15  16
ENDBRANCH   1  15
TORSDOF 22
ENDMDL
MODEL 9
REMARK VINA RESULT:    -4.144      2.249      7.537
REMARK INTER + INTRA:         -12.493
REMARK INTER:                  -9.794
REMARK INTRA:                  -2.699
REMARK UNBOUND:                -3.020
REMARK SMILES CCCCCCCCCCCCCCCCCCCCCCCC(=O)[O-]
REMARK SMILES IDX 13 1 14 2 15 3 16 4 17 5 18 6 19 7 20 8 21 9 22 10 23 11
REMARK SMILES IDX 24 12 25 13 26 14 12 15 11 16 10 17 9 18 8 19 7 20 6 21 5 22
REMARK SMILES IDX 4 23 3 24 2 25 1 26
REMARK H PARENT
REMARK Flexibility Score: inf
ROOT
ATOM      1  C   UNL     1       8.163   4.963  14.190  1.00  0.00     0.000 C 
ENDROOT
BRANCH   1   2
ATOM      2  C   UNL     1       8.856   5.343  12.876  1.00  0.00     0.000 C 
BRANCH   2   3
ATOM      3  C   UNL     1       8.223   6.597  12.261  1.00  0.00     0.000 C 
BRANCH   3   4
ATOM      4  C   UNL     1       8.218   6.510  10.728  1.00  0.00     0.000 C 
BRANCH   4   5
ATOM      5  C   UNL     1       8.274   7.893  10.060  1.00  0.00     0.000 C 
BRANCH   5   6
ATOM      6  C   UNL     1       8.096   9.040  11.066  1.00  0.00     0.000 C 
BRANCH   6   7
ATOM      7  C   UNL     1       7.169  10.125  10.499  1.00  0.00     0.000 C 
BRANCH   7   8
ATOM      8  C   UNL     1       6.218   9.588   9.414  1.00  0.00     0.000 C 
BRANCH   8   9
ATOM      9  C   UNL     1       4.807   9.213   9.913  1.00  0.00     0.000 C 
BRANCH   9  10
ATOM     10  C   UNL     1       4.723   8.796  11.397  1.00  0.00     0.006 C 
BRANCH  10  11
ATOM     11  C   UNL     1       4.113   7.405  11.635  1.00  0.00     0.053 C 
BRANCH  11  12
ATOM     12  C   UNL     1       2.650   7.369  11.311  1.00  0.00     0.041 C 
ATOM     13  O   UNL     1       1.875   8.239  11.785  1.00  0.00    -0.550 OA
ATOM     14  O   UNL     1       2.158   6.418  10.429  1.00  0.00    -0.550 OA
ENDBRANCH  11  12
ENDBRANCH  10  11
ENDBRANCH   9  10
ENDBRANCH   8   9
ENDBRANCH   7   8
ENDBRANCH   6   7
ENDBRANCH   5   6
ENDBRANCH   4   5
ENDBRANCH   3   4
ENDBRANCH   2   3
ENDBRANCH   1   2
BRANCH   1  15
ATOM     15  C   UNL     1       7.577   6.200  14.882  1.00  0.00     0.000 C 
BRANCH  15  16
ATOM     16  C   UNL     1       6.048   6.252  14.726  1.00  0.00     0.000 C 
BRANCH  16  17
ATOM     17  C   UNL     1       5.493   7.685  14.809  1.00  0.00     0.000 C 
BRANCH  17  18
ATOM     18  C   UNL     1       4.041   7.762  15.332  1.00  0.00    -0.000 C 
BRANCH  18  19
ATOM     19  C   UNL     1       3.393   9.144  15.154  1.00  0.00    -0.000 C 
BRANCH  19  20
ATOM     20  C   UNL     1       2.778   9.685  16.458  1.00  0.00    -0.000 C 
BRANCH  20  21
ATOM     21  C   UNL     1       1.941   8.619  17.200  1.00  0.00    -0.000 C 
BRANCH  21  22
ATOM     22  C   UNL     1       2.446   8.304  18.622  1.00  0.00    -0.000 C 
BRANCH  22  23
ATOM     23  C   UNL     1       2.375   6.822  19.028  1.00  0.00    -0.000 C 
BRANCH  23  24
ATOM     24  C   UNL     1       3.625   6.025  18.615  1.00  0.00    -0.000 C 
BRANCH  24  25
ATOM     25  C   UNL     1       3.353   5.111  17.411  1.00  0.00    -0.003 C 
ATOM     26  C   UNL     1       1.899   5.170  16.941  1.00  0.00     0.004 C 
ENDBRANCH  24  25
ENDBRANCH  23  24
ENDBRANCH  22  23
ENDBRANCH  21  22
ENDBRANCH  20  21
ENDBRANCH  19  20
ENDBRANCH  18  19
ENDBRANCH  17  18
ENDBRANCH  16  17
ENDBRANCH  15  16
ENDBRANCH   1  15
TORSDOF 22
ENDMDL
