MODEL 1
REMARK VINA RESULT:    -2.584      0.000      0.000
REMARK INTER + INTRA:          -6.697
REMARK INTER:                  -5.605
REMARK INTRA:                  -1.092
REMARK UNBOUND:                -1.092
REMARK SMILES CCCCCCCCCCCCCCCCCCCCCC(=O)[O-]
REMARK SMILES IDX 12 1 11 2 10 3 9 4 8 5 7 6 6 7 5 8 4 9 3 10 2 11 1 12 13 13
REMARK SMILES IDX 14 14 15 15 16 16 17 17 18 18 19 19 20 20 21 21 22 22 23 23
REMARK SMILES IDX 24 24
REMARK H PARENT
REMARK Flexibility Score: inf
ROOT
ATOM      1  C   UNL     1      -9.823  -3.304  -1.242  1.00  0.00     0.000 C 
ENDROOT
BRANCH   1   2
ATOM      2  C   UNL     1      -8.387  -2.803  -1.475  1.00  0.00     0.000 C 
BRANCH   2   3
ATOM      3  C   UNL     1      -8.136  -1.410  -0.867  1.00  0.00     0.000 C 
BRANCH   3   4
ATOM      4  C   UNL     1      -7.058  -0.568  -1.579  1.00  0.00    -0.000 C 
BRANCH   4   5
ATOM      5  C   UNL     1      -6.978   0.907  -1.138  1.00  0.00    -0.000 C 
BRANCH   5   6
ATOM      6  C   UNL     1      -8.224   1.443  -0.410  1.00  0.00    -0.000 C 
BRANCH   6   7
ATOM      7  C   UNL     1      -8.526   2.913  -0.746  1.00  0.00    -0.000 C 
BRANCH   7   8
ATOM      8  C   UNL     1      -8.274   3.863   0.440  1.00  0.00    -0.000 C 
BRANCH   8   9
ATOM      9  C   UNL     1      -8.885   5.269   0.296  1.00  0.00    -0.000 C 
BRANCH   9  10
ATOM     10  C   UNL     1      -9.231   5.626  -1.157  1.00  0.00    -0.000 C 
BRANCH  10  11
ATOM     11  C   UNL     1      -9.089   7.133  -1.401  1.00  0.00    -0.003 C 
ATOM     12  C   UNL     1      -8.846   7.883  -0.096  1.00  0.00     0.004 C 
ENDBRANCH  10  11
ENDBRANCH   9  10
ENDBRANCH   8   9
ENDBRANCH   7   8
ENDBRANCH   6   7
ENDBRANCH   5   6
ENDBRANCH   4   5
ENDBRANCH   3   4
ENDBRANCH   2   3
ENDBRANCH   1   2
BRANCH   1  13
ATOM     13  C   UNL     1     -10.821  -2.773  -2.287  1.00  0.00     0.000 C 
BRANCH  13  14
ATOM     14  C   UNL     1     -10.700  -3.396  -3.690  1.00  0.00     0.000 C 
BRANCH  14  15
ATOM     15  C   UNL     1     -10.180  -4.844  -3.660  1.00  0.00     0.000 C 
BRANCH  15  16
ATOM     16  C   UNL     1     -10.988  -5.780  -4.574  1.00  0.00     0.000 C 
BRANCH  16  17
ATOM     17  C   UNL     1     -10.103  -6.517  -5.596  1.00  0.00     0.000 C 
BRANCH  17  18
ATOM     18  C   UNL     1     -10.842  -6.817  -6.910  1.00  0.00     0.000 C 
BRANCH  18  19
ATOM     19  C   UNL     1     -11.116  -5.547  -7.735  1.00  0.00     0.000 C 
BRANCH  19  20
ATOM     20  C   UNL     1      -9.869  -4.658  -7.891  1.00  0.00     0.006 C 
BRANCH  20  21
ATOM     21  C   UNL     1      -9.079  -4.894  -9.189  1.00  0.00     0.053 C 
BRANCH  21  22
ATOM     22  C   UNL     1      -7.802  -5.635  -8.941  1.00  0.00     0.041 C 
ATOM     23  O   UNL     1      -7.729  -6.479  -8.008  1.00  0.00    -0.550 OA
ATOM     24  O   UNL     1      -6.682  -5.373  -9.720  1.00  0.00    -0.550 OA
ENDBRANCH  21  22
ENDBRANCH  20  21
ENDBRANCH  19  20
ENDBRANCH  18  19
ENDBRANCH  17  18
ENDBRANCH  16  17
ENDBRANCH  15  16
ENDBRANCH  14  15
ENDBRANCH  13  14
ENDBRANCH   1  13
TORSDOF 20
ENDMDL
MODEL 2
REMARK VINA RESULT:    -2.436      1.672      2.484
REMARK INTER + INTRA:          -6.377
REMARK INTER:                  -5.236
REMARK INTRA:                  -1.141
REMARK UNBOUND:                -1.092
REMARK SMILES CCCCCCCCCCCCCCCCCCCCCC(=O)[O-]
REMARK SMILES IDX 12 1 11 2 10 3 9 4 8 5 7 6 6 7 5 8 4 9 3 10 2 11 1 12 13 13
REMARK SMILES IDX 14 14 15 15 16 16 17 17 18 18 19 19 20 20 21 21 22 22 23 23
REMARK SMILES IDX 24 24
REMARK H PARENT
REMARK Flexibility Score: inf
ROOT
ATOM      1  C   UNL     1     -10.042  -4.132  -2.616  1.00  0.00     0.000 C 
ENDROOT
BRANCH   1   2
ATOM      2  C   UNL     1     -10.052  -3.580  -1.180  1.00  0.00     0.000 C 
BRANCH   2   3
ATOM      3  C   UNL     1      -9.486  -2.151  -1.086  1.00  0.00     0.000 C 
BRANCH   3   4
ATOM      4  C   UNL     1      -7.964  -2.032  -1.304  1.00  0.00    -0.000 C 
BRANCH   4   5
ATOM      5  C   UNL     1      -7.384  -0.613  -1.140  1.00  0.00    -0.000 C 
BRANCH   5   6
ATOM      6  C   UNL     1      -8.405   0.471  -0.746  1.00  0.00    -0.000 C 
BRANCH   6   7
ATOM      7  C   UNL     1      -7.766   1.860  -0.580  1.00  0.00    -0.000 C 
BRANCH   7   8
ATOM      8  C   UNL     1      -8.804   2.972  -0.341  1.00  0.00    -0.000 C 
BRANCH   8   9
ATOM      9  C   UNL     1      -8.430   3.997   0.746  1.00  0.00    -0.000 C 
BRANCH   9  10
ATOM     10  C   UNL     1      -8.901   5.421   0.416  1.00  0.00    -0.000 C 
BRANCH  10  11
ATOM     11  C   UNL     1      -8.816   5.693  -1.090  1.00  0.00    -0.003 C 
ATOM     12  C   UNL     1      -9.188   7.136  -1.412  1.00  0.00     0.004 C 
ENDBRANCH  10  11
ENDBRANCH   9  10
ENDBRANCH   8   9
ENDBRANCH   7   8
ENDBRANCH   6   7
ENDBRANCH   5   6
ENDBRANCH   4   5
ENDBRANCH   3   4
ENDBRANCH   2   3
ENDBRANCH   1   2
BRANCH   1  13
ATOM     13  C   UNL     1     -11.098  -3.471  -3.521  1.00  0.00     0.000 C 
BRANCH  13  14
ATOM     14  C   UNL     1     -10.681  -3.282  -4.991  1.00  0.00     0.000 C 
BRANCH  14  15
ATOM     15  C   UNL     1     -10.802  -4.573  -5.820  1.00  0.00     0.000 C 
BRANCH  15  16
ATOM     16  C   UNL     1     -10.755  -4.309  -7.335  1.00  0.00     0.000 C 
BRANCH  16  17
ATOM     17  C   UNL     1     -10.157  -5.490  -8.121  1.00  0.00     0.000 C 
BRANCH  17  18
ATOM     18  C   UNL     1      -9.123  -5.040  -9.166  1.00  0.00     0.000 C 
BRANCH  18  19
ATOM     19  C   UNL     1      -7.724  -5.625  -8.901  1.00  0.00     0.000 C 
BRANCH  19  20
ATOM     20  C   UNL     1      -7.467  -5.900  -7.408  1.00  0.00     0.006 C 
BRANCH  20  21
ATOM     21  C   UNL     1      -6.208  -5.220  -6.845  1.00  0.00     0.053 C 
BRANCH  21  22
ATOM     22  C   UNL     1      -5.454  -6.119  -5.915  1.00  0.00     0.041 C 
ATOM     23  O   UNL     1      -6.042  -7.070  -5.336  1.00  0.00    -0.550 OA
ATOM     24  O   UNL     1      -4.107  -5.888  -5.664  1.00  0.00    -0.550 OA
ENDBRANCH  21  22
ENDBRANCH  20  21
ENDBRANCH  19  20
ENDBRANCH  18  19
ENDBRANCH  17  18
ENDBRANCH  16  17
ENDBRANCH  15  16
ENDBRANCH  14  15
ENDBRANCH  13  14
ENDBRANCH   1  13
TORSDOF 20
ENDMDL
MODEL 3
REMARK VINA RESULT:    -2.388      4.631     11.232
REMARK INTER + INTRA:          -6.272
REMARK INTER:                  -4.947
REMARK INTRA:                  -1.325
REMARK UNBOUND:                -1.092
REMARK SMILES CCCCCCCCCCCCCCCCCCCCCC(=O)[O-]
REMARK SMILES IDX 12 1 11 2 10 3 9 4 8 5 7 6 6 7 5 8 4 9 3 10 2 11 1 12 13 13
REMARK SMILES IDX 14 14 15 15 16 16 17 17 18 18 19 19 20 20 21 21 22 22 23 23
REMARK SMILES IDX 24 24
REMARK H PARENT
REMARK Flexibility Score: inf
ROOT
ATOM      1  C   UNL     1      -9.611  -3.596  -1.160  1.00  0.00     0.000 C 
ENDROOT
BRANCH   1   2
ATOM      2  C   UNL     1     -10.874  -3.726  -2.028  1.00  0.00     0.000 C 
BRANCH   2   3
ATOM      3  C   UNL     1     -10.760  -2.971  -3.365  1.00  0.00     0.000 C 
BRANCH   3   4
ATOM      4  C   UNL     1     -10.993  -3.828  -4.626  1.00  0.00    -0.000 C 
BRANCH   4   5
ATOM      5  C   UNL     1     -10.657  -5.326  -4.475  1.00  0.00    -0.000 C 
BRANCH   5   6
ATOM      6  C   UNL     1      -9.309  -5.759  -5.080  1.00  0.00    -0.000 C 
BRANCH   6   7
ATOM      7  C   UNL     1      -9.469  -6.767  -6.231  1.00  0.00    -0.000 C 
BRANCH   7   8
ATOM      8  C   UNL     1     -10.534  -6.341  -7.258  1.00  0.00    -0.000 C 
BRANCH   8   9
ATOM      9  C   UNL     1     -10.282  -6.817  -8.700  1.00  0.00    -0.000 C 
BRANCH   9  10
ATOM     10  C   UNL     1      -8.860  -7.357  -8.915  1.00  0.00    -0.000 C 
BRANCH  10  11
ATOM     11  C   UNL     1      -8.023  -6.382  -9.751  1.00  0.00    -0.003 C 
ATOM     12  C   UNL     1      -7.486  -5.240  -8.895  1.00  0.00     0.004 C 
ENDBRANCH  10  11
ENDBRANCH   9  10
ENDBRANCH   8   9
ENDBRANCH   7   8
ENDBRANCH   6   7
ENDBRANCH   5   6
ENDBRANCH   4   5
ENDBRANCH   3   4
ENDBRANCH   2   3
ENDBRANCH   1   2
BRANCH   1  13
ATOM     13  C   UNL     1      -8.515  -2.739  -1.820  1.00  0.00     0.000 C 
BRANCH  13  14
ATOM     14  C   UNL     1      -8.137  -1.454  -1.061  1.00  0.00     0.000 C 
BRANCH  14  15
ATOM     15  C   UNL     1      -6.879  -0.771  -1.627  1.00  0.00     0.000 C 
BRANCH  15  16
ATOM     16  C   UNL     1      -6.890   0.753  -1.419  1.00  0.00     0.000 C 
BRANCH  16  17
ATOM     17  C   UNL     1      -8.034   1.215  -0.497  1.00  0.00     0.000 C 
BRANCH  17  18
ATOM     18  C   UNL     1      -8.375   2.702  -0.680  1.00  0.00     0.000 C 
BRANCH  18  19
ATOM     19  C   UNL     1      -8.291   3.493   0.637  1.00  0.00     0.000 C 
BRANCH  19  20
ATOM     20  C   UNL     1      -8.812   4.935   0.500  1.00  0.00     0.006 C 
BRANCH  20  21
ATOM     21  C   UNL     1      -8.900   5.444  -0.948  1.00  0.00     0.053 C 
BRANCH  21  22
ATOM     22  C   UNL     1      -9.010   6.936  -1.013  1.00  0.00     0.041 C 
ATOM     23  O   UNL     1      -9.252   7.508  -2.108  1.00  0.00    -0.550 OA
ATOM     24  O   UNL     1      -8.814   7.698   0.132  1.00  0.00    -0.550 OA
ENDBRANCH  21  22
ENDBRANCH  20  21
ENDBRANCH  19  20
ENDBRANCH  18  19
ENDBRANCH  17  18
ENDBRANCH  16  17
ENDBRANCH  15  16
ENDBRANCH  14  15
ENDBRANCH  13  14
ENDBRANCH   1  13
TORSDOF 20
ENDMDL
MODEL 4
REMARK VINA RESULT:    -1.971      5.393      9.656
REMARK INTER + INTRA:          -5.367
REMARK INTER:                  -4.723
REMARK INTRA:                  -0.645
REMARK UNBOUND:                -1.092
REMARK SMILES CCCCCCCCCCCCCCCCCCCCCC(=O)[O-]
REMARK SMILES IDX 12 1 11 2 10 3 9 4 8 5 7 6 6 7 5 8 4 9 3 10 2 11 1 12 13 13
REMARK SMILES IDX 14 14 15 15 16 16 17 17 18 18 19 19 20 20 21 21 22 22 23 23
REMARK SMILES IDX 24 24
REMARK H PARENT
REMARK Flexibility Score: inf
ROOT
ATOM      1  C   UNL     1      -8.157  -7.398  -9.047  1.00  0.00     0.000 C 
ENDROOT
BRANCH   1   2
ATOM      2  C   UNL     1      -8.680  -8.623  -9.817  1.00  0.00     0.000 C 
BRANCH   2   3
ATOM      3  C   UNL     1     -10.188  -8.539 -10.117  1.00  0.00     0.000 C 
BRANCH   3   4
ATOM      4  C   UNL     1     -11.065  -8.057  -8.944  1.00  0.00    -0.000 C 
BRANCH   4   5
ATOM      5  C   UNL     1     -10.309  -7.340  -7.807  1.00  0.00    -0.000 C 
BRANCH   5   6
ATOM      6  C   UNL     1     -11.125  -7.105  -6.523  1.00  0.00    -0.000 C 
BRANCH   6   7
ATOM      7  C   UNL     1     -10.351  -7.478  -5.247  1.00  0.00    -0.000 C 
BRANCH   7   8
ATOM      8  C   UNL     1      -9.000  -6.749  -5.131  1.00  0.00    -0.000 C 
BRANCH   8   9
ATOM      9  C   UNL     1      -7.758  -7.657  -5.194  1.00  0.00    -0.000 C 
BRANCH   9  10
ATOM     10  C   UNL     1      -6.440  -6.869  -5.246  1.00  0.00    -0.000 C 
BRANCH  10  11
ATOM     11  C   UNL     1      -6.485  -5.797  -6.342  1.00  0.00    -0.003 C 
ATOM     12  C   UNL     1      -5.186  -4.999  -6.387  1.00  0.00     0.004 C 
ENDBRANCH  10  11
ENDBRANCH   9  10
ENDBRANCH   8   9
ENDBRANCH   7   8
ENDBRANCH   6   7
ENDBRANCH   5   6
ENDBRANCH   4   5
ENDBRANCH   3   4
ENDBRANCH   2   3
ENDBRANCH   1   2
BRANCH   1  13
ATOM     13  C   UNL     1      -7.576  -6.312  -9.970  1.00  0.00     0.000 C 
BRANCH  13  14
ATOM     14  C   UNL     1      -8.150  -4.897  -9.765  1.00  0.00     0.000 C 
BRANCH  14  15
ATOM     15  C   UNL     1      -9.531  -4.903  -9.087  1.00  0.00     0.000 C 
BRANCH  15  16
ATOM     16  C   UNL     1     -10.121  -3.490  -8.936  1.00  0.00     0.000 C 
BRANCH  16  17
ATOM     17  C   UNL     1     -11.057  -3.368  -7.719  1.00  0.00     0.000 C 
BRANCH  17  18
ATOM     18  C   UNL     1     -10.448  -3.975  -6.444  1.00  0.00     0.000 C 
BRANCH  18  19
ATOM     19  C   UNL     1     -11.106  -3.435  -5.162  1.00  0.00     0.000 C 
BRANCH  19  20
ATOM     20  C   UNL     1     -10.678  -4.210  -3.902  1.00  0.00     0.006 C 
BRANCH  20  21
ATOM     21  C   UNL     1      -9.279  -3.848  -3.377  1.00  0.00     0.053 C 
BRANCH  21  22
ATOM     22  C   UNL     1      -9.341  -3.142  -2.058  1.00  0.00     0.041 C 
ATOM     23  O   UNL     1      -8.330  -2.536  -1.615  1.00  0.00    -0.550 OA
ATOM     24  O   UNL     1     -10.507  -3.178  -1.304  1.00  0.00    -0.550 OA
ENDBRANCH  21  22
ENDBRANCH  20  21
ENDBRANCH  19  20
ENDBRANCH  18  19
ENDBRANCH  17  18
ENDBRANCH  16  17
ENDBRANCH  15  16
ENDBRANCH  14  15
ENDBRANCH  13  14
ENDBRANCH   1  13
TORSDOF 20
ENDMDL
MODEL 5
REMARK VINA RESULT:    -1.857      4.308      9.356
REMARK INTER + INTRA:          -5.120
REMARK INTER:                  -3.676
REMARK INTRA:                  -1.444
REMARK UNBOUND:                -1.092
REMARK SMILES CCCCCCCCCCCCCCCCCCCCCC(=O)[O-]
REMARK SMILES IDX 12 1 11 2 10 3 9 4 8 5 7 6 6 7 5 8 4 9 3 10 2 11 1 12 13 13
REMARK SMILES IDX 14 14 15 15 16 16 17 17 18 18 19 19 20 20 21 21 22 22 23 23
REMARK SMILES IDX 24 24
REMARK H PARENT
REMARK Flexibility Score: inf
ROOT
ATOM      1  C   UNL     1      -7.209  -6.221  -4.318  1.00  0.00     0.000 C 
ENDROOT
BRANCH   1   2
ATOM      2  C   UNL     1      -6.302  -6.394  -5.549  1.00  0.00     0.000 C 
BRANCH   2   3
ATOM      3  C   UNL     1      -7.083  -6.364  -6.875  1.00  0.00     0.000 C 
BRANCH   3   4
ATOM      4  C   UNL     1      -6.669  -5.249  -7.856  1.00  0.00    -0.000 C 
BRANCH   4   5
ATOM      5  C   UNL     1      -6.603  -5.668  -9.339  1.00  0.00    -0.000 C 
BRANCH   5   6
ATOM      6  C   UNL     1      -7.956  -5.694 -10.073  1.00  0.00    -0.000 C 
BRANCH   6   7
ATOM      7  C   UNL     1      -8.694  -7.034  -9.918  1.00  0.00    -0.000 C 
BRANCH   7   8
ATOM      8  C   UNL     1      -9.400  -7.175  -8.556  1.00  0.00    -0.000 C 
BRANCH   8   9
ATOM      9  C   UNL     1     -10.664  -6.315  -8.379  1.00  0.00    -0.000 C 
BRANCH   9  10
ATOM     10  C   UNL     1     -10.351  -4.829  -8.150  1.00  0.00    -0.000 C 
BRANCH  10  11
ATOM     11  C   UNL     1     -11.115  -3.947  -9.144  1.00  0.00    -0.003 C 
ATOM     12  C   UNL     1     -10.158  -3.156 -10.030  1.00  0.00     0.004 C 
ENDBRANCH  10  11
ENDBRANCH   9  10
ENDBRANCH   8   9
ENDBRANCH   7   8
ENDBRANCH   6   7
ENDBRANCH   5   6
ENDBRANCH   4   5
ENDBRANCH   3   4
ENDBRANCH   2   3
ENDBRANCH   1   2
BRANCH   1  13
ATOM     13  C   UNL     1      -8.599  -5.661  -4.671  1.00  0.00     0.000 C 
BRANCH  13  14
ATOM     14  C   UNL     1      -9.789  -6.560  -4.285  1.00  0.00     0.000 C 
BRANCH  14  15
ATOM     15  C   UNL     1     -11.125  -5.798  -4.240  1.00  0.00     0.000 C 
BRANCH  15  16
ATOM     16  C   UNL     1     -11.021  -4.388  -4.845  1.00  0.00     0.000 C 
BRANCH  16  17
ATOM     17  C   UNL     1     -10.887  -3.293  -3.771  1.00  0.00     0.000 C 
BRANCH  17  18
ATOM     18  C   UNL     1     -11.003  -3.851  -2.343  1.00  0.00     0.000 C 
BRANCH  18  19
ATOM     19  C   UNL     1      -9.630  -4.113  -1.698  1.00  0.00     0.000 C 
BRANCH  19  20
ATOM     20  C   UNL     1      -8.595  -3.025  -2.039  1.00  0.00     0.006 C 
BRANCH  20  21
ATOM     21  C   UNL     1      -8.097  -2.220  -0.828  1.00  0.00     0.053 C 
BRANCH  21  22
ATOM     22  C   UNL     1      -7.666  -0.838  -1.213  1.00  0.00     0.041 C 
ATOM     23  O   UNL     1      -8.269   0.166  -0.750  1.00  0.00    -0.550 OA
ATOM     24  O   UNL     1      -6.618  -0.659  -2.106  1.00  0.00    -0.550 OA
ENDBRANCH  21  22
ENDBRANCH  20  21
ENDBRANCH  19  20
ENDBRANCH  18  19
ENDBRANCH  17  18
ENDBRANCH  16  17
ENDBRANCH  15  16
ENDBRANCH  14  15
ENDBRANCH  13  14
ENDBRANCH   1  13
TORSDOF 20
ENDMDL
MODEL 6
REMARK VINA RESULT:    -1.817      1.612      1.953
REMARK INTER + INTRA:          -5.034
REMARK INTER:                  -4.168
REMARK INTRA:                  -0.866
REMARK UNBOUND:                -1.092
REMARK SMILES CCCCCCCCCCCCCCCCCCCCCC(=O)[O-]
REMARK SMILES IDX 12 1 11 2 10 3 9 4 8 5 7 6 6 7 5 8 4 9 3 10 2 11 1 12 13 13
REMARK SMILES IDX 14 14 15 15 16 16 17 17 18 18 19 19 20 20 21 21 22 22 23 23
REMARK SMILES IDX 24 24
REMARK H PARENT
REMARK Flexibility Score: inf
ROOT
ATOM      1  C   UNL     1     -10.102  -4.063  -1.805  1.00  0.00     0.000 C 
ENDROOT
BRANCH   1   2
ATOM      2  C   UNL     1      -9.432  -2.799  -1.238  1.00  0.00     0.000 C 
BRANCH   2   3
ATOM      3  C   UNL     1      -8.050  -2.526  -1.859  1.00  0.00     0.000 C 
BRANCH   3   4
ATOM      4  C   UNL     1      -7.383  -1.206  -1.423  1.00  0.00    -0.000 C 
BRANCH   4   5
ATOM      5  C   UNL     1      -8.328  -0.174  -0.775  1.00  0.00    -0.000 C 
BRANCH   5   6
ATOM      6  C   UNL     1      -7.781   1.264  -0.707  1.00  0.00    -0.000 C 
BRANCH   6   7
ATOM      7  C   UNL     1      -8.772   2.250  -0.066  1.00  0.00    -0.000 C 
BRANCH   7   8
ATOM      8  C   UNL     1      -8.625   3.685  -0.607  1.00  0.00    -0.000 C 
BRANCH   8   9
ATOM      9  C   UNL     1      -8.560   4.787   0.466  1.00  0.00    -0.000 C 
BRANCH   9  10
ATOM     10  C   UNL     1      -9.268   6.082   0.040  1.00  0.00    -0.000 C 
BRANCH  10  11
ATOM     11  C   UNL     1      -8.753   6.568  -1.319  1.00  0.00    -0.003 C 
ATOM     12  C   UNL     1      -9.047   8.051  -1.523  1.00  0.00     0.004 C 
ENDBRANCH  10  11
ENDBRANCH   9  10
ENDBRANCH   8   9
ENDBRANCH   7   8
ENDBRANCH   6   7
ENDBRANCH   5   6
ENDBRANCH   4   5
ENDBRANCH   3   4
ENDBRANCH   2   3
ENDBRANCH   1   2
BRANCH   1  13
ATOM     13  C   UNL     1     -11.125  -3.753  -2.913  1.00  0.00     0.000 C 
BRANCH  13  14
ATOM     14  C   UNL     1     -10.526  -3.266  -4.246  1.00  0.00     0.000 C 
BRANCH  14  15
ATOM     15  C   UNL     1     -10.917  -4.155  -5.439  1.00  0.00     0.000 C 
BRANCH  15  16
ATOM     16  C   UNL     1     -10.451  -5.611  -5.267  1.00  0.00     0.000 C 
BRANCH  16  17
ATOM     17  C   UNL     1      -8.937  -5.720  -5.010  1.00  0.00     0.000 C 
BRANCH  17  18
ATOM     18  C   UNL     1      -8.206  -6.502  -6.113  1.00  0.00     0.000 C 
BRANCH  18  19
ATOM     19  C   UNL     1      -8.821  -6.274  -7.505  1.00  0.00     0.000 C 
BRANCH  19  20
ATOM     20  C   UNL     1      -8.107  -5.164  -8.297  1.00  0.00     0.006 C 
BRANCH  20  21
ATOM     21  C   UNL     1      -8.745  -4.843  -9.658  1.00  0.00     0.053 C 
BRANCH  21  22
ATOM     22  C   UNL     1     -10.137  -4.311  -9.513  1.00  0.00     0.041 C 
ATOM     23  O   UNL     1     -10.420  -3.153  -9.921  1.00  0.00    -0.550 OA
ATOM     24  O   UNL     1     -11.116  -5.082  -8.899  1.00  0.00    -0.550 OA
ENDBRANCH  21  22
ENDBRANCH  20  21
ENDBRANCH  19  20
ENDBRANCH  18  19
ENDBRANCH  17  18
ENDBRANCH  16  17
ENDBRANCH  15  16
ENDBRANCH  14  15
ENDBRANCH  13  14
ENDBRANCH   1  13
TORSDOF 20
ENDMDL
MODEL 7
REMARK VINA RESULT:    -1.628      4.898     10.344
REMARK INTER + INTRA:          -4.624
REMARK INTER:                  -3.423
REMARK INTRA:                  -1.201
REMARK UNBOUND:                -1.092
REMARK SMILES CCCCCCCCCCCCCCCCCCCCCC(=O)[O-]
REMARK SMILES IDX 12 1 11 2 10 3 9 4 8 5 7 6 6 7 5 8 4 9 3 10 2 11 1 12 13 13
REMARK SMILES IDX 14 14 15 15 16 16 17 17 18 18 19 19 20 20 21 21 22 22 23 23
REMARK SMILES IDX 24 24
REMARK H PARENT
REMARK Flexibility Score: inf
ROOT
ATOM      1  C   UNL     1     -10.395  -4.467  -3.545  1.00  0.00     0.000 C 
ENDROOT
BRANCH   1   2
ATOM      2  C   UNL     1     -10.885  -3.580  -4.702  1.00  0.00     0.000 C 
BRANCH   2   3
ATOM      3  C   UNL     1     -10.965  -4.336  -6.041  1.00  0.00     0.000 C 
BRANCH   3   4
ATOM      4  C   UNL     1     -10.234  -5.693  -6.074  1.00  0.00    -0.000 C 
BRANCH   4   5
ATOM      5  C   UNL     1      -9.266  -5.891  -7.258  1.00  0.00    -0.000 C 
BRANCH   5   6
ATOM      6  C   UNL     1      -8.253  -7.039  -7.091  1.00  0.00    -0.000 C 
BRANCH   6   7
ATOM      7  C   UNL     1      -7.776  -7.208  -5.639  1.00  0.00    -0.000 C 
BRANCH   7   8
ATOM      8  C   UNL     1      -6.542  -6.347  -5.309  1.00  0.00    -0.000 C 
BRANCH   8   9
ATOM      9  C   UNL     1      -5.932  -5.590  -6.504  1.00  0.00    -0.000 C 
BRANCH   9  10
ATOM     10  C   UNL     1      -4.819  -4.615  -6.092  1.00  0.00    -0.000 C 
BRANCH  10  11
ATOM     11  C   UNL     1      -3.533  -5.369  -5.735  1.00  0.00    -0.003 C 
ATOM     12  C   UNL     1      -2.426  -4.406  -5.319  1.00  0.00     0.004 C 
ENDBRANCH  10  11
ENDBRANCH   9  10
ENDBRANCH   8   9
ENDBRANCH   7   8
ENDBRANCH   6   7
ENDBRANCH   5   6
ENDBRANCH   4   5
ENDBRANCH   3   4
ENDBRANCH   2   3
ENDBRANCH   1   2
BRANCH   1  13
ATOM     13  C   UNL     1     -10.895  -3.990  -2.169  1.00  0.00     0.000 C 
BRANCH  13  14
ATOM     14  C   UNL     1     -10.234  -2.705  -1.637  1.00  0.00     0.000 C 
BRANCH  14  15
ATOM     15  C   UNL     1      -8.701  -2.807  -1.559  1.00  0.00     0.000 C 
BRANCH  15  16
ATOM     16  C   UNL     1      -8.067  -1.619  -0.815  1.00  0.00     0.000 C 
BRANCH  16  17
ATOM     17  C   UNL     1      -7.086  -0.826  -1.697  1.00  0.00     0.000 C 
BRANCH  17  18
ATOM     18  C   UNL     1      -6.927   0.633  -1.238  1.00  0.00     0.000 C 
BRANCH  18  19
ATOM     19  C   UNL     1      -8.252   1.244  -0.747  1.00  0.00     0.000 C 
BRANCH  19  20
ATOM     20  C   UNL     1      -8.060   2.612  -0.067  1.00  0.00     0.006 C 
BRANCH  20  21
ATOM     21  C   UNL     1      -8.826   3.766  -0.733  1.00  0.00     0.053 C 
BRANCH  21  22
ATOM     22  C   UNL     1      -8.809   5.008   0.105  1.00  0.00     0.041 C 
ATOM     23  O   UNL     1      -8.769   4.924   1.361  1.00  0.00    -0.550 OA
ATOM     24  O   UNL     1      -8.868   6.256  -0.501  1.00  0.00    -0.550 OA
ENDBRANCH  21  22
ENDBRANCH  20  21
ENDBRANCH  19  20
ENDBRANCH  18  19
ENDBRANCH  17  18
ENDBRANCH  16  17
ENDBRANCH  15  16
ENDBRANCH  14  15
ENDBRANCH  13  14
ENDBRANCH   1  13
TORSDOF 20
ENDMDL
MODEL 8
REMARK VINA RESULT:    -1.623      5.724      9.188
REMARK INTER + INTRA:          -4.614
REMARK INTER:                  -4.159
REMARK INTRA:                  -0.455
REMARK UNBOUND:                -1.092
REMARK SMILES CCCCCCCCCCCCCCCCCCCCCC(=O)[O-]
REMARK SMILES IDX 12 1 11 2 10 3 9 4 8 5 7 6 6 7 5 8 4 9 3 10 2 11 1 12 13 13
REMARK SMILES IDX 14 14 15 15 16 16 17 17 18 18 19 19 20 20 21 21 22 22 23 23
REMARK SMILES IDX 24 24
REMARK H PARENT
REMARK Flexibility Score: inf
ROOT
ATOM      1  C   UNL     1      -7.779  -5.553  -9.144  1.00  0.00     0.000 C 
ENDROOT
BRANCH   1   2
ATOM      2  C   UNL     1      -7.776  -6.849  -9.972  1.00  0.00     0.000 C 
BRANCH   2   3
ATOM      3  C   UNL     1      -9.057  -7.683  -9.781  1.00  0.00     0.000 C 
BRANCH   3   4
ATOM      4  C   UNL     1      -9.499  -7.881  -8.317  1.00  0.00    -0.000 C 
BRANCH   4   5
ATOM      5  C   UNL     1      -8.785  -6.982  -7.287  1.00  0.00    -0.000 C 
BRANCH   5   6
ATOM      6  C   UNL     1      -8.279  -7.706  -6.025  1.00  0.00    -0.000 C 
BRANCH   6   7
ATOM      7  C   UNL     1      -6.889  -7.222  -5.577  1.00  0.00    -0.000 C 
BRANCH   7   8
ATOM      8  C   UNL     1      -6.648  -5.731  -5.878  1.00  0.00    -0.000 C 
BRANCH   8   9
ATOM      9  C   UNL     1      -5.397  -5.426  -6.722  1.00  0.00    -0.000 C 
BRANCH   9  10
ATOM     10  C   UNL     1      -4.127  -5.258  -5.874  1.00  0.00    -0.000 C 
BRANCH  10  11
ATOM     11  C   UNL     1      -3.837  -3.777  -5.607  1.00  0.00    -0.003 C 
ATOM     12  C   UNL     1      -2.367  -3.555  -5.266  1.00  0.00     0.004 C 
ENDBRANCH  10  11
ENDBRANCH   9  10
ENDBRANCH   8   9
ENDBRANCH   7   8
ENDBRANCH   6   7
ENDBRANCH   5   6
ENDBRANCH   4   5
ENDBRANCH   3   4
ENDBRANCH   2   3
ENDBRANCH   1   2
BRANCH   1  13
ATOM     13  C   UNL     1      -7.655  -4.287 -10.011  1.00  0.00     0.000 C 
BRANCH  13  14
ATOM     14  C   UNL     1      -8.919  -3.410 -10.084  1.00  0.00     0.000 C 
BRANCH  14  15
ATOM     15  C   UNL     1     -10.142  -4.067  -9.420  1.00  0.00     0.000 C 
BRANCH  15  16
ATOM     16  C   UNL     1     -10.997  -3.060  -8.631  1.00  0.00     0.000 C 
BRANCH  16  17
ATOM     17  C   UNL     1     -11.124  -3.432  -7.142  1.00  0.00     0.000 C 
BRANCH  17  18
ATOM     18  C   UNL     1     -10.345  -4.709  -6.785  1.00  0.00     0.000 C 
BRANCH  18  19
ATOM     19  C   UNL     1     -10.925  -5.429  -5.555  1.00  0.00     0.000 C 
BRANCH  19  20
ATOM     20  C   UNL     1     -10.194  -5.062  -4.251  1.00  0.00     0.006 C 
BRANCH  20  21
ATOM     21  C   UNL     1     -11.124  -4.712  -3.078  1.00  0.00     0.053 C 
BRANCH  21  22
ATOM     22  C   UNL     1     -10.596  -3.571  -2.265  1.00  0.00     0.041 C 
ATOM     23  O   UNL     1      -9.887  -2.682  -2.805  1.00  0.00    -0.550 OA
ATOM     24  O   UNL     1     -10.861  -3.505  -0.903  1.00  0.00    -0.550 OA
ENDBRANCH  21  22
ENDBRANCH  20  21
ENDBRANCH  19  20
ENDBRANCH  18  19
ENDBRANCH  17  18
ENDBRANCH  16  17
ENDBRANCH  15  16
ENDBRANCH  14  15
ENDBRANCH  13  14
ENDBRANCH   1  13
TORSDOF 20
ENDMDL
MODEL 9
REMARK VINA RESULT:    -1.555      4.585      9.147
REMARK INTER + INTRA:          -4.465
REMARK INTER:                  -4.065
REMARK INTRA:                  -0.400
REMARK UNBOUND:                -1.092
REMARK SMILES CCCCCCCCCCCCCCCCCCCCCC(=O)[O-]
REMARK SMILES IDX 12 1 11 2 10 3 9 4 8 5 7 6 6 7 5 8 4 9 3 10 2 11 1 12 13 13
REMARK SMILES IDX 14 14 15 15 16 16 17 17 18 18 19 19 20 20 21 21 22 22 23 23
REMARK SMILES IDX 24 24
REMARK H PARENT
REMARK Flexibility Score: inf
ROOT
ATOM      1  C   UNL     1     -10.431  -5.290  -7.157  1.00  0.00     0.000 C 
ENDROOT
BRANCH   1   2
ATOM      2  C   UNL     1     -11.125  -4.447  -8.241  1.00  0.00     0.000 C 
BRANCH   2   3
ATOM      3  C   UNL     1     -10.231  -4.203  -9.470  1.00  0.00     0.000 C 
BRANCH   3   4
ATOM      4  C   UNL     1      -9.414  -5.423  -9.941  1.00  0.00    -0.000 C 
BRANCH   4   5
ATOM      5  C   UNL     1      -7.902  -5.176 -10.115  1.00  0.00    -0.000 C 
BRANCH   5   6
ATOM      6  C   UNL     1      -7.006  -5.814  -9.037  1.00  0.00    -0.000 C 
BRANCH   6   7
ATOM      7  C   UNL     1      -7.263  -5.243  -7.632  1.00  0.00    -0.000 C 
BRANCH   7   8
ATOM      8  C   UNL     1      -7.087  -6.292  -6.518  1.00  0.00    -0.000 C 
BRANCH   8   9
ATOM      9  C   UNL     1      -6.174  -5.865  -5.354  1.00  0.00    -0.000 C 
BRANCH   9  10
ATOM     10  C   UNL     1      -4.714  -6.304  -5.545  1.00  0.00    -0.000 C 
BRANCH  10  11
ATOM     11  C   UNL     1      -3.894  -5.202  -6.227  1.00  0.00    -0.003 C 
ATOM     12  C   UNL     1      -4.038  -3.873  -5.494  1.00  0.00     0.004 C 
ENDBRANCH  10  11
ENDBRANCH   9  10
ENDBRANCH   8   9
ENDBRANCH   7   8
ENDBRANCH   6   7
ENDBRANCH   5   6
ENDBRANCH   4   5
ENDBRANCH   3   4
ENDBRANCH   2   3
ENDBRANCH   1   2
BRANCH   1  13
ATOM     13  C   UNL     1     -11.045  -6.694  -7.005  1.00  0.00     0.000 C 
BRANCH  13  14
ATOM     14  C   UNL     1     -10.898  -7.330  -5.609  1.00  0.00     0.000 C 
BRANCH  14  15
ATOM     15  C   UNL     1     -11.093  -6.319  -4.466  1.00  0.00     0.000 C 
BRANCH  15  16
ATOM     16  C   UNL     1     -10.262  -5.038  -4.662  1.00  0.00     0.000 C 
BRANCH  16  17
ATOM     17  C   UNL     1     -11.123  -3.763  -4.612  1.00  0.00     0.000 C 
BRANCH  17  18
ATOM     18  C   UNL     1     -10.931  -2.973  -3.307  1.00  0.00     0.000 C 
BRANCH  18  19
ATOM     19  C   UNL     1     -10.833  -3.888  -2.073  1.00  0.00     0.000 C 
BRANCH  19  20
ATOM     20  C   UNL     1      -9.724  -3.455  -1.097  1.00  0.00     0.006 C 
BRANCH  20  21
ATOM     21  C   UNL     1      -8.397  -3.070  -1.773  1.00  0.00     0.053 C 
BRANCH  21  22
ATOM     22  C   UNL     1      -7.996  -1.662  -1.460  1.00  0.00     0.041 C 
ATOM     23  O   UNL     1      -8.637  -0.995  -0.606  1.00  0.00    -0.550 OA
ATOM     24  O   UNL     1      -6.931  -1.076  -2.133  1.00  0.00    -0.550 OA
ENDBRANCH  21  22
ENDBRANCH  20  21
ENDBRANCH  19  20
ENDBRANCH  18  19
ENDBRANCH  17  18
ENDBRANCH  16  17
ENDBRANCH  15  16
ENDBRANCH  14  15
ENDBRANCH  13  14
ENDBRANCH   1  13
TORSDOF 20
ENDMDL
