MODEL 1
REMARK VINA RESULT:    -3.935      0.000      0.000
REMARK INTER + INTRA:         -11.970
REMARK INTER:                  -8.535
REMARK INTRA:                  -3.434
REMARK UNBOUND:                -3.434
REMARK SMILES CCCCCCCCCCCCCCCCCCCCCC(=O)[O-]
REMARK SMILES IDX 12 1 11 2 10 3 9 4 8 5 7 6 6 7 5 8 4 9 3 10 2 11 1 12 13 13
REMARK SMILES IDX 14 14 15 15 16 16 17 17 18 18 19 19 20 20 21 21 22 22 23 23
REMARK SMILES IDX 24 24
REMARK H PARENT
REMARK Flexibility Score: inf
ROOT
ATOM      1  C   UNL     1      26.839  25.509 -17.881  1.00  0.00     0.000 C 
ENDROOT
BRANCH   1   2
ATOM      2  C   UNL     1      26.135  24.714 -19.000  1.00  0.00     0.000 C 
BRANCH   2   3
ATOM      3  C   UNL     1      27.066  23.842 -19.861  1.00  0.00     0.000 C 
BRANCH   3   4
ATOM      4  C   UNL     1      28.548  23.999 -19.488  1.00  0.00    -0.000 C 
BRANCH   4   5
ATOM      5  C   UNL     1      29.186  22.634 -19.192  1.00  0.00    -0.000 C 
BRANCH   5   6
ATOM      6  C   UNL     1      30.222  22.695 -18.057  1.00  0.00    -0.000 C 
BRANCH   6   7
ATOM      7  C   UNL     1      30.804  24.106 -17.864  1.00  0.00    -0.000 C 
BRANCH   7   8
ATOM      8  C   UNL     1      32.173  24.287 -18.546  1.00  0.00    -0.000 C 
BRANCH   8   9
ATOM      9  C   UNL     1      32.578  25.747 -18.818  1.00  0.00    -0.000 C 
BRANCH   9  10
ATOM     10  C   UNL     1      33.916  26.128 -18.162  1.00  0.00    -0.000 C 
BRANCH  10  11
ATOM     11  C   UNL     1      34.216  25.293 -16.907  1.00  0.00    -0.003 C 
ATOM     12  C   UNL     1      33.905  26.042 -15.612  1.00  0.00     0.004 C 
ENDBRANCH  10  11
ENDBRANCH   9  10
ENDBRANCH   8   9
ENDBRANCH   7   8
ENDBRANCH   6   7
ENDBRANCH   5   6
ENDBRANCH   4   5
ENDBRANCH   3   4
ENDBRANCH   2   3
ENDBRANCH   1   2
BRANCH   1  13
ATOM     13  C   UNL     1      26.580  24.991 -16.453  1.00  0.00     0.000 C 
BRANCH  13  14
ATOM     14  C   UNL     1      27.737  24.183 -15.832  1.00  0.00     0.000 C 
BRANCH  14  15
ATOM     15  C   UNL     1      28.326  24.781 -14.542  1.00  0.00     0.000 C 
BRANCH  15  16
ATOM     16  C   UNL     1      28.145  26.306 -14.458  1.00  0.00     0.000 C 
BRANCH  16  17
ATOM     17  C   UNL     1      29.483  27.064 -14.381  1.00  0.00     0.000 C 
BRANCH  17  18
ATOM     18  C   UNL     1      30.355  26.971 -15.647  1.00  0.00     0.000 C 
BRANCH  18  19
ATOM     19  C   UNL     1      29.654  27.387 -16.954  1.00  0.00     0.000 C 
BRANCH  19  20
ATOM     20  C   UNL     1      29.159  28.849 -16.957  1.00  0.00     0.006 C 
BRANCH  20  21
ATOM     21  C   UNL     1      27.663  28.962 -17.280  1.00  0.00     0.053 C 
BRANCH  21  22
ATOM     22  C   UNL     1      27.434  29.984 -18.348  1.00  0.00     0.041 C 
ATOM     23  O   UNL     1      26.316  30.552 -18.452  1.00  0.00    -0.550 OA
ATOM     24  O   UNL     1      28.470  30.344 -19.200  1.00  0.00    -0.550 OA
ENDBRANCH  21  22
ENDBRANCH  20  21
ENDBRANCH  19  20
ENDBRANCH  18  19
ENDBRANCH  17  18
ENDBRANCH  16  17
ENDBRANCH  15  16
ENDBRANCH  14  15
ENDBRANCH  13  14
ENDBRANCH   1  13
TORSDOF 20
ENDMDL
MODEL 2
REMARK VINA RESULT:    -3.916      2.841      6.078
REMARK INTER + INTRA:         -11.929
REMARK INTER:                  -8.738
REMARK INTRA:                  -3.191
REMARK UNBOUND:                -3.434
REMARK SMILES CCCCCCCCCCCCCCCCCCCCCC(=O)[O-]
REMARK SMILES IDX 12 1 11 2 10 3 9 4 8 5 7 6 6 7 5 8 4 9 3 10 2 11 1 12 13 13
REMARK SMILES IDX 14 14 15 15 16 16 17 17 18 18 19 19 20 20 21 21 22 22 23 23
REMARK SMILES IDX 24 24
REMARK H PARENT
REMARK Flexibility Score: inf
ROOT
ATOM      1  C   UNL     1      28.038  26.367 -13.753  1.00  0.00     0.000 C 
ENDROOT
BRANCH   1   2
ATOM      2  C   UNL     1      29.284  26.699 -12.908  1.00  0.00     0.000 C 
BRANCH   2   3
ATOM      3  C   UNL     1      30.630  26.484 -13.624  1.00  0.00     0.000 C 
BRANCH   3   4
ATOM      4  C   UNL     1      30.772  25.075 -14.221  1.00  0.00    -0.000 C 
BRANCH   4   5
ATOM      5  C   UNL     1      31.006  25.144 -15.738  1.00  0.00    -0.000 C 
BRANCH   5   6
ATOM      6  C   UNL     1      31.081  26.587 -16.263  1.00  0.00    -0.000 C 
BRANCH   6   7
ATOM      7  C   UNL     1      29.859  26.970 -17.115  1.00  0.00    -0.000 C 
BRANCH   7   8
ATOM      8  C   UNL     1      29.220  28.302 -16.681  1.00  0.00    -0.000 C 
BRANCH   8   9
ATOM      9  C   UNL     1      27.731  28.458 -17.040  1.00  0.00    -0.000 C 
BRANCH   9  10
ATOM     10  C   UNL     1      27.365  29.890 -17.467  1.00  0.00    -0.000 C 
BRANCH  10  11
ATOM     11  C   UNL     1      26.589  29.928 -18.793  1.00  0.00    -0.003 C 
ATOM     12  C   UNL     1      27.282  30.781 -19.856  1.00  0.00     0.004 C 
ENDBRANCH  10  11
ENDBRANCH   9  10
ENDBRANCH   8   9
ENDBRANCH   7   8
ENDBRANCH   6   7
ENDBRANCH   5   6
ENDBRANCH   4   5
ENDBRANCH   3   4
ENDBRANCH   2   3
ENDBRANCH   1   2
BRANCH   1  13
ATOM     13  C   UNL     1      27.245  25.131 -13.285  1.00  0.00     0.000 C 
BRANCH  13  14
ATOM     14  C   UNL     1      26.543  24.341 -14.409  1.00  0.00     0.000 C 
BRANCH  14  15
ATOM     15  C   UNL     1      26.371  25.111 -15.730  1.00  0.00     0.000 C 
BRANCH  15  16
ATOM     16  C   UNL     1      27.210  24.520 -16.876  1.00  0.00     0.000 C 
BRANCH  16  17
ATOM     17  C   UNL     1      26.837  25.101 -18.252  1.00  0.00     0.000 C 
BRANCH  17  18
ATOM     18  C   UNL     1      26.869  24.090 -19.413  1.00  0.00     0.000 C 
BRANCH  18  19
ATOM     19  C   UNL     1      28.087  23.145 -19.422  1.00  0.00     0.000 C 
BRANCH  19  20
ATOM     20  C   UNL     1      29.381  23.804 -19.946  1.00  0.00     0.006 C 
BRANCH  20  21
ATOM     21  C   UNL     1      30.550  23.667 -18.960  1.00  0.00     0.053 C 
BRANCH  21  22
ATOM     22  C   UNL     1      31.845  23.981 -19.638  1.00  0.00     0.041 C 
ATOM     23  O   UNL     1      32.868  24.254 -18.956  1.00  0.00    -0.550 OA
ATOM     24  O   UNL     1      31.937  23.928 -21.023  1.00  0.00    -0.550 OA
ENDBRANCH  21  22
ENDBRANCH  20  21
ENDBRANCH  19  20
ENDBRANCH  18  19
ENDBRANCH  17  18
ENDBRANCH  16  17
ENDBRANCH  15  16
ENDBRANCH  14  15
ENDBRANCH  13  14
ENDBRANCH   1  13
TORSDOF 20
ENDMDL
MODEL 3
REMARK VINA RESULT:    -3.717      3.981      7.689
REMARK INTER + INTRA:         -11.497
REMARK INTER:                  -9.305
REMARK INTRA:                  -2.193
REMARK UNBOUND:                -3.434
REMARK SMILES CCCCCCCCCCCCCCCCCCCCCC(=O)[O-]
REMARK SMILES IDX 12 1 11 2 10 3 9 4 8 5 7 6 6 7 5 8 4 9 3 10 2 11 1 12 13 13
REMARK SMILES IDX 14 14 15 15 16 16 17 17 18 18 19 19 20 20 21 21 22 22 23 23
REMARK SMILES IDX 24 24
REMARK H PARENT
REMARK Flexibility Score: inf
ROOT
ATOM      1  C   UNL     1      31.696  26.388 -16.162  1.00  0.00     0.000 C 
ENDROOT
BRANCH   1   2
ATOM      2  C   UNL     1      30.490  27.212 -15.665  1.00  0.00     0.000 C 
BRANCH   2   3
ATOM      3  C   UNL     1      29.696  27.931 -16.770  1.00  0.00     0.000 C 
BRANCH   3   4
ATOM      4  C   UNL     1      28.182  27.689 -16.673  1.00  0.00    -0.000 C 
BRANCH   4   5
ATOM      5  C   UNL     1      27.865  26.607 -15.630  1.00  0.00    -0.000 C 
BRANCH   5   6
ATOM      6  C   UNL     1      27.249  25.344 -16.253  1.00  0.00    -0.000 C 
BRANCH   6   7
ATOM      7  C   UNL     1      28.176  24.120 -16.144  1.00  0.00    -0.000 C 
BRANCH   7   8
ATOM      8  C   UNL     1      28.921  23.815 -17.458  1.00  0.00    -0.000 C 
BRANCH   8   9
ATOM      9  C   UNL     1      28.069  23.140 -18.548  1.00  0.00    -0.000 C 
BRANCH   9  10
ATOM     10  C   UNL     1      28.177  23.842 -19.912  1.00  0.00    -0.000 C 
BRANCH  10  11
ATOM     11  C   UNL     1      26.803  24.140 -20.531  1.00  0.00    -0.003 C 
ATOM     12  C   UNL     1      25.962  25.084 -19.672  1.00  0.00     0.004 C 
ENDBRANCH  10  11
ENDBRANCH   9  10
ENDBRANCH   8   9
ENDBRANCH   7   8
ENDBRANCH   6   7
ENDBRANCH   5   6
ENDBRANCH   4   5
ENDBRANCH   3   4
ENDBRANCH   2   3
ENDBRANCH   1   2
BRANCH   1  13
ATOM     13  C   UNL     1      31.591  25.894 -17.618  1.00  0.00     0.000 C 
BRANCH  13  14
ATOM     14  C   UNL     1      32.912  25.387 -18.232  1.00  0.00     0.000 C 
BRANCH  14  15
ATOM     15  C   UNL     1      34.088  26.375 -18.142  1.00  0.00     0.000 C 
BRANCH  15  16
ATOM     16  C   UNL     1      35.448  25.669 -18.010  1.00  0.00     0.000 C 
BRANCH  16  17
ATOM     17  C   UNL     1      36.273  25.711 -19.310  1.00  0.00     0.000 C 
BRANCH  17  18
ATOM     18  C   UNL     1      36.033  26.951 -20.191  1.00  0.00     0.000 C 
BRANCH  18  19
ATOM     19  C   UNL     1      37.307  27.709 -20.612  1.00  0.00     0.000 C 
BRANCH  19  20
ATOM     20  C   UNL     1      37.725  28.818 -19.623  1.00  0.00     0.006 C 
BRANCH  20  21
ATOM     21  C   UNL     1      39.076  28.529 -18.954  1.00  0.00     0.053 C 
BRANCH  21  22
ATOM     22  C   UNL     1      38.872  27.991 -17.574  1.00  0.00     0.041 C 
ATOM     23  O   UNL     1      38.983  26.756 -17.352  1.00  0.00    -0.550 OA
ATOM     24  O   UNL     1      38.606  28.856 -16.521  1.00  0.00    -0.550 OA
ENDBRANCH  21  22
ENDBRANCH  20  21
ENDBRANCH  19  20
ENDBRANCH  18  19
ENDBRANCH  17  18
ENDBRANCH  16  17
ENDBRANCH  15  16
ENDBRANCH  14  15
ENDBRANCH  13  14
ENDBRANCH   1  13
TORSDOF 20
ENDMDL
MODEL 4
REMARK VINA RESULT:    -3.711      3.733      6.710
REMARK INTER + INTRA:         -11.483
REMARK INTER:                  -8.153
REMARK INTRA:                  -3.330
REMARK UNBOUND:                -3.434
REMARK SMILES CCCCCCCCCCCCCCCCCCCCCC(=O)[O-]
REMARK SMILES IDX 12 1 11 2 10 3 9 4 8 5 7 6 6 7 5 8 4 9 3 10 2 11 1 12 13 13
REMARK SMILES IDX 14 14 15 15 16 16 17 17 18 18 19 19 20 20 21 21 22 22 23 23
REMARK SMILES IDX 24 24
REMARK H PARENT
REMARK Flexibility Score: inf
ROOT
ATOM      1  C   UNL     1      26.474  25.900 -17.956  1.00  0.00     0.000 C 
ENDROOT
BRANCH   1   2
ATOM      2  C   UNL     1      27.745  26.141 -17.116  1.00  0.00     0.000 C 
BRANCH   2   3
ATOM      3  C   UNL     1      28.010  27.612 -16.748  1.00  0.00     0.000 C 
BRANCH   3   4
ATOM      4  C   UNL     1      29.499  27.988 -16.816  1.00  0.00    -0.000 C 
BRANCH   4   5
ATOM      5  C   UNL     1      30.385  26.739 -16.698  1.00  0.00    -0.000 C 
BRANCH   5   6
ATOM      6  C   UNL     1      31.416  26.847 -15.563  1.00  0.00    -0.000 C 
BRANCH   6   7
ATOM      7  C   UNL     1      31.055  25.969 -14.352  1.00  0.00    -0.000 C 
BRANCH   7   8
ATOM      8  C   UNL     1      29.756  26.416 -13.654  1.00  0.00    -0.000 C 
BRANCH   8   9
ATOM      9  C   UNL     1      28.928  25.279 -13.029  1.00  0.00    -0.000 C 
BRANCH   9  10
ATOM     10  C   UNL     1      27.438  25.632 -12.890  1.00  0.00    -0.000 C 
BRANCH  10  11
ATOM     11  C   UNL     1      26.517  24.460 -13.267  1.00  0.00    -0.003 C 
ATOM     12  C   UNL     1      25.654  24.760 -14.492  1.00  0.00     0.004 C 
ENDBRANCH  10  11
ENDBRANCH   9  10
ENDBRANCH   8   9
ENDBRANCH   7   8
ENDBRANCH   6   7
ENDBRANCH   5   6
ENDBRANCH   4   5
ENDBRANCH   3   4
ENDBRANCH   2   3
ENDBRANCH   1   2
BRANCH   1  13
ATOM     13  C   UNL     1      26.375  24.504 -18.601  1.00  0.00     0.000 C 
BRANCH  13  14
ATOM     14  C   UNL     1      26.679  24.460 -20.112  1.00  0.00     0.000 C 
BRANCH  14  15
ATOM     15  C   UNL     1      27.725  23.411 -20.531  1.00  0.00     0.000 C 
BRANCH  15  16
ATOM     16  C   UNL     1      28.890  23.302 -19.534  1.00  0.00     0.000 C 
BRANCH  16  17
ATOM     17  C   UNL     1      29.194  21.849 -19.124  1.00  0.00     0.000 C 
BRANCH  17  18
ATOM     18  C   UNL     1      28.987  21.539 -17.630  1.00  0.00     0.000 C 
BRANCH  18  19
ATOM     19  C   UNL     1      28.870  22.775 -16.718  1.00  0.00     0.000 C 
BRANCH  19  20
ATOM     20  C   UNL     1      29.247  22.500 -15.246  1.00  0.00     0.006 C 
BRANCH  20  21
ATOM     21  C   UNL     1      28.303  21.493 -14.576  1.00  0.00     0.053 C 
BRANCH  21  22
ATOM     22  C   UNL     1      28.562  21.432 -13.105  1.00  0.00     0.041 C 
ATOM     23  O   UNL     1      27.691  20.963 -12.327  1.00  0.00    -0.550 OA
ATOM     24  O   UNL     1      29.785  21.849 -12.595  1.00  0.00    -0.550 OA
ENDBRANCH  21  22
ENDBRANCH  20  21
ENDBRANCH  19  20
ENDBRANCH  18  19
ENDBRANCH  17  18
ENDBRANCH  16  17
ENDBRANCH  15  16
ENDBRANCH  14  15
ENDBRANCH  13  14
ENDBRANCH   1  13
TORSDOF 20
ENDMDL
MODEL 5
REMARK VINA RESULT:    -3.710      2.747      5.981
REMARK INTER + INTRA:         -11.482
REMARK INTER:                  -7.426
REMARK INTRA:                  -4.057
REMARK UNBOUND:                -3.434
REMARK SMILES CCCCCCCCCCCCCCCCCCCCCC(=O)[O-]
REMARK SMILES IDX 12 1 11 2 10 3 9 4 8 5 7 6 6 7 5 8 4 9 3 10 2 11 1 12 13 13
REMARK SMILES IDX 14 14 15 15 16 16 17 17 18 18 19 19 20 20 21 21 22 22 23 23
REMARK SMILES IDX 24 24
REMARK H PARENT
REMARK Flexibility Score: inf
ROOT
ATOM      1  C   UNL     1      29.909  26.368 -15.982  1.00  0.00     0.000 C 
ENDROOT
BRANCH   1   2
ATOM      2  C   UNL     1      30.882  26.854 -14.887  1.00  0.00     0.000 C 
BRANCH   2   3
ATOM      3  C   UNL     1      30.551  26.371 -13.464  1.00  0.00     0.000 C 
BRANCH   3   4
ATOM      4  C   UNL     1      29.113  26.704 -13.038  1.00  0.00    -0.000 C 
BRANCH   4   5
ATOM      5  C   UNL     1      28.288  25.423 -12.843  1.00  0.00    -0.000 C 
BRANCH   5   6
ATOM      6  C   UNL     1      26.966  25.443 -13.627  1.00  0.00    -0.000 C 
BRANCH   6   7
ATOM      7  C   UNL     1      26.587  24.059 -14.182  1.00  0.00    -0.000 C 
BRANCH   7   8
ATOM      8  C   UNL     1      27.730  23.033 -14.063  1.00  0.00    -0.000 C 
BRANCH   8   9
ATOM      9  C   UNL     1      28.247  22.476 -15.401  1.00  0.00    -0.000 C 
BRANCH   9  10
ATOM     10  C   UNL     1      29.754  22.707 -15.602  1.00  0.00    -0.000 C 
BRANCH  10  11
ATOM     11  C   UNL     1      30.529  22.724 -14.275  1.00  0.00    -0.003 C 
ATOM     12  C   UNL     1      31.988  23.143 -14.450  1.00  0.00     0.004 C 
ENDBRANCH  10  11
ENDBRANCH   9  10
ENDBRANCH   8   9
ENDBRANCH   7   8
ENDBRANCH   6   7
ENDBRANCH   5   6
ENDBRANCH   4   5
ENDBRANCH   3   4
ENDBRANCH   2   3
ENDBRANCH   1   2
BRANCH   1  13
ATOM     13  C   UNL     1      29.062  27.476 -16.637  1.00  0.00     0.000 C 
BRANCH  13  14
ATOM     14  C   UNL     1      27.622  27.066 -17.004  1.00  0.00     0.000 C 
BRANCH  14  15
ATOM     15  C   UNL     1      27.428  25.565 -17.285  1.00  0.00     0.000 C 
BRANCH  15  16
ATOM     16  C   UNL     1      26.381  25.295 -18.378  1.00  0.00     0.000 C 
BRANCH  16  17
ATOM     17  C   UNL     1      26.827  24.215 -19.381  1.00  0.00     0.000 C 
BRANCH  17  18
ATOM     18  C   UNL     1      28.033  23.370 -18.931  1.00  0.00     0.000 C 
BRANCH  18  19
ATOM     19  C   UNL     1      28.902  22.812 -20.075  1.00  0.00     0.000 C 
BRANCH  19  20
ATOM     20  C   UNL     1      30.352  23.342 -20.070  1.00  0.00     0.006 C 
BRANCH  20  21
ATOM     21  C   UNL     1      30.686  24.127 -18.795  1.00  0.00     0.053 C 
BRANCH  21  22
ATOM     22  C   UNL     1      32.159  24.367 -18.699  1.00  0.00     0.041 C 
ATOM     23  O   UNL     1      32.847  23.755 -17.841  1.00  0.00    -0.550 OA
ATOM     24  O   UNL     1      32.782  25.232 -19.589  1.00  0.00    -0.550 OA
ENDBRANCH  21  22
ENDBRANCH  20  21
ENDBRANCH  19  20
ENDBRANCH  18  19
ENDBRANCH  17  18
ENDBRANCH  16  17
ENDBRANCH  15  16
ENDBRANCH  14  15
ENDBRANCH  13  14
ENDBRANCH   1  13
TORSDOF 20
ENDMDL
MODEL 6
REMARK VINA RESULT:    -3.672      3.049      4.992
REMARK INTER + INTRA:         -11.399
REMARK INTER:                  -7.678
REMARK INTRA:                  -3.721
REMARK UNBOUND:                -3.434
REMARK SMILES CCCCCCCCCCCCCCCCCCCCCC(=O)[O-]
REMARK SMILES IDX 12 1 11 2 10 3 9 4 8 5 7 6 6 7 5 8 4 9 3 10 2 11 1 12 13 13
REMARK SMILES IDX 14 14 15 15 16 16 17 17 18 18 19 19 20 20 21 21 22 22 23 23
REMARK SMILES IDX 24 24
REMARK H PARENT
REMARK Flexibility Score: inf
ROOT
ATOM      1  C   UNL     1      26.568  26.012 -18.296  1.00  0.00     0.000 C 
ENDROOT
BRANCH   1   2
ATOM      2  C   UNL     1      26.166  24.638 -18.871  1.00  0.00     0.000 C 
BRANCH   2   3
ATOM      3  C   UNL     1      26.890  24.242 -20.171  1.00  0.00     0.000 C 
BRANCH   3   4
ATOM      4  C   UNL     1      28.336  23.781 -19.934  1.00  0.00    -0.000 C 
BRANCH   4   5
ATOM      5  C   UNL     1      28.390  22.660 -18.886  1.00  0.00    -0.000 C 
BRANCH   5   6
ATOM      6  C   UNL     1      29.395  22.948 -17.758  1.00  0.00    -0.000 C 
BRANCH   6   7
ATOM      7  C   UNL     1      28.814  22.664 -16.362  1.00  0.00    -0.000 C 
BRANCH   7   8
ATOM      8  C   UNL     1      29.845  22.048 -15.399  1.00  0.00    -0.000 C 
BRANCH   8   9
ATOM      9  C   UNL     1      30.031  20.526 -15.530  1.00  0.00    -0.000 C 
BRANCH   9  10
ATOM     10  C   UNL     1      28.710  19.782 -15.788  1.00  0.00    -0.000 C 
BRANCH  10  11
ATOM     11  C   UNL     1      28.785  18.855 -17.011  1.00  0.00    -0.003 C 
ATOM     12  C   UNL     1      29.847  19.294 -18.019  1.00  0.00     0.004 C 
ENDBRANCH  10  11
ENDBRANCH   9  10
ENDBRANCH   8   9
ENDBRANCH   7   8
ENDBRANCH   6   7
ENDBRANCH   5   6
ENDBRANCH   4   5
ENDBRANCH   3   4
ENDBRANCH   2   3
ENDBRANCH   1   2
BRANCH   1  13
ATOM     13  C   UNL     1      27.422  25.956 -17.015  1.00  0.00     0.000 C 
BRANCH  13  14
ATOM     14  C   UNL     1      27.859  27.328 -16.462  1.00  0.00     0.000 C 
BRANCH  14  15
ATOM     15  C   UNL     1      29.329  27.695 -16.732  1.00  0.00     0.000 C 
BRANCH  15  16
ATOM     16  C   UNL     1      30.205  26.467 -17.029  1.00  0.00     0.000 C 
BRANCH  16  17
ATOM     17  C   UNL     1      30.729  25.781 -15.754  1.00  0.00     0.000 C 
BRANCH  17  18
ATOM     18  C   UNL     1      30.979  26.728 -14.565  1.00  0.00     0.000 C 
BRANCH  18  19
ATOM     19  C   UNL     1      30.111  26.456 -13.322  1.00  0.00     0.000 C 
BRANCH  19  20
ATOM     20  C   UNL     1      29.161  25.250 -13.477  1.00  0.00     0.006 C 
BRANCH  20  21
ATOM     21  C   UNL     1      27.690  25.628 -13.258  1.00  0.00     0.053 C 
BRANCH  21  22
ATOM     22  C   UNL     1      26.800  24.468 -13.568  1.00  0.00     0.041 C 
ATOM     23  O   UNL     1      27.130  23.304 -13.220  1.00  0.00    -0.550 OA
ATOM     24  O   UNL     1      25.580  24.675 -14.200  1.00  0.00    -0.550 OA
ENDBRANCH  21  22
ENDBRANCH  20  21
ENDBRANCH  19  20
ENDBRANCH  18  19
ENDBRANCH  17  18
ENDBRANCH  16  17
ENDBRANCH  15  16
ENDBRANCH  14  15
ENDBRANCH  13  14
ENDBRANCH   1  13
TORSDOF 20
ENDMDL
MODEL 7
REMARK VINA RESULT:    -3.667      3.742      6.139
REMARK INTER + INTRA:         -11.388
REMARK INTER:                  -8.708
REMARK INTRA:                  -2.680
REMARK UNBOUND:                -3.434
REMARK SMILES CCCCCCCCCCCCCCCCCCCCCC(=O)[O-]
REMARK SMILES IDX 12 1 11 2 10 3 9 4 8 5 7 6 6 7 5 8 4 9 3 10 2 11 1 12 13 13
REMARK SMILES IDX 14 14 15 15 16 16 17 17 18 18 19 19 20 20 21 21 22 22 23 23
REMARK SMILES IDX 24 24
REMARK H PARENT
REMARK Flexibility Score: inf
ROOT
ATOM      1  C   UNL     1      27.848  26.400 -15.622  1.00  0.00     0.000 C 
ENDROOT
BRANCH   1   2
ATOM      2  C   UNL     1      26.842  25.432 -16.277  1.00  0.00     0.000 C 
BRANCH   2   3
ATOM      3  C   UNL     1      26.617  25.650 -17.783  1.00  0.00     0.000 C 
BRANCH   3   4
ATOM      4  C   UNL     1      26.475  24.335 -18.565  1.00  0.00    -0.000 C 
BRANCH   4   5
ATOM      5  C   UNL     1      26.403  24.601 -20.076  1.00  0.00    -0.000 C 
BRANCH   5   6
ATOM      6  C   UNL     1      27.362  23.710 -20.883  1.00  0.00    -0.000 C 
BRANCH   6   7
ATOM      7  C   UNL     1      28.259  22.843 -19.984  1.00  0.00    -0.000 C 
BRANCH   7   8
ATOM      8  C   UNL     1      29.685  23.408 -19.836  1.00  0.00    -0.000 C 
BRANCH   8   9
ATOM      9  C   UNL     1      29.974  24.105 -18.495  1.00  0.00    -0.000 C 
BRANCH   9  10
ATOM     10  C   UNL     1      30.647  23.176 -17.471  1.00  0.00    -0.000 C 
BRANCH  10  11
ATOM     11  C   UNL     1      29.831  23.037 -16.176  1.00  0.00    -0.003 C 
ATOM     12  C   UNL     1      28.587  22.167 -16.355  1.00  0.00     0.004 C 
ENDBRANCH  10  11
ENDBRANCH   9  10
ENDBRANCH   8   9
ENDBRANCH   7   8
ENDBRANCH   6   7
ENDBRANCH   5   6
ENDBRANCH   4   5
ENDBRANCH   3   4
ENDBRANCH   2   3
ENDBRANCH   1   2
BRANCH   1  13
ATOM     13  C   UNL     1      28.450  27.454 -16.572  1.00  0.00     0.000 C 
BRANCH  13  14
ATOM     14  C   UNL     1      29.958  27.714 -16.386  1.00  0.00     0.000 C 
BRANCH  14  15
ATOM     15  C   UNL     1      30.739  26.558 -15.737  1.00  0.00     0.000 C 
BRANCH  15  16
ATOM     16  C   UNL     1      32.142  26.375 -16.341  1.00  0.00     0.000 C 
BRANCH  16  17
ATOM     17  C   UNL     1      33.194  25.961 -15.296  1.00  0.00     0.000 C 
BRANCH  17  18
ATOM     18  C   UNL     1      34.654  26.244 -15.698  1.00  0.00     0.000 C 
BRANCH  18  19
ATOM     19  C   UNL     1      35.141  25.496 -16.955  1.00  0.00     0.000 C 
BRANCH  19  20
ATOM     20  C   UNL     1      36.516  25.974 -17.469  1.00  0.00     0.006 C 
BRANCH  20  21
ATOM     21  C   UNL     1      37.577  26.008 -16.361  1.00  0.00     0.053 C 
BRANCH  21  22
ATOM     22  C   UNL     1      38.507  27.162 -16.562  1.00  0.00     0.041 C 
ATOM     23  O   UNL     1      39.187  27.252 -17.618  1.00  0.00    -0.550 OA
ATOM     24  O   UNL     1      38.587  28.166 -15.606  1.00  0.00    -0.550 OA
ENDBRANCH  21  22
ENDBRANCH  20  21
ENDBRANCH  19  20
ENDBRANCH  18  19
ENDBRANCH  17  18
ENDBRANCH  16  17
ENDBRANCH  15  16
ENDBRANCH  14  15
ENDBRANCH  13  14
ENDBRANCH   1  13
TORSDOF 20
ENDMDL
MODEL 8
REMARK VINA RESULT:    -3.622      2.280      4.335
REMARK INTER + INTRA:         -11.292
REMARK INTER:                  -8.025
REMARK INTRA:                  -3.267
REMARK UNBOUND:                -3.434
REMARK SMILES CCCCCCCCCCCCCCCCCCCCCC(=O)[O-]
REMARK SMILES IDX 12 1 11 2 10 3 9 4 8 5 7 6 6 7 5 8 4 9 3 10 2 11 1 12 13 13
REMARK SMILES IDX 14 14 15 15 16 16 17 17 18 18 19 19 20 20 21 21 22 22 23 23
REMARK SMILES IDX 24 24
REMARK H PARENT
REMARK Flexibility Score: inf
ROOT
ATOM      1  C   UNL     1      26.485  25.249 -15.532  1.00  0.00     0.000 C 
ENDROOT
BRANCH   1   2
ATOM      2  C   UNL     1      27.628  26.246 -15.252  1.00  0.00     0.000 C 
BRANCH   2   3
ATOM      3  C   UNL     1      28.111  27.042 -16.478  1.00  0.00     0.000 C 
BRANCH   3   4
ATOM      4  C   UNL     1      29.626  26.932 -16.705  1.00  0.00    -0.000 C 
BRANCH   4   5
ATOM      5  C   UNL     1      30.401  27.334 -15.442  1.00  0.00    -0.000 C 
BRANCH   5   6
ATOM      6  C   UNL     1      31.842  26.798 -15.433  1.00  0.00    -0.000 C 
BRANCH   6   7
ATOM      7  C   UNL     1      32.157  25.930 -16.663  1.00  0.00    -0.000 C 
BRANCH   7   8
ATOM      8  C   UNL     1      33.667  25.692 -16.856  1.00  0.00    -0.000 C 
BRANCH   8   9
ATOM      9  C   UNL     1      34.221  26.107 -18.231  1.00  0.00    -0.000 C 
BRANCH   9  10
ATOM     10  C   UNL     1      33.236  25.837 -19.380  1.00  0.00    -0.000 C 
BRANCH  10  11
ATOM     11  C   UNL     1      33.087  24.338 -19.688  1.00  0.00    -0.003 C 
ATOM     12  C   UNL     1      32.825  24.065 -21.168  1.00  0.00     0.004 C 
ENDBRANCH  10  11
ENDBRANCH   9  10
ENDBRANCH   8   9
ENDBRANCH   7   8
ENDBRANCH   6   7
ENDBRANCH   5   6
ENDBRANCH   4   5
ENDBRANCH   3   4
ENDBRANCH   2   3
ENDBRANCH   1   2
BRANCH   1  13
ATOM     13  C   UNL     1      25.960  24.496 -14.295  1.00  0.00     0.000 C 
BRANCH  13  14
ATOM     14  C   UNL     1      27.049  23.867 -13.403  1.00  0.00     0.000 C 
BRANCH  14  15
ATOM     15  C   UNL     1      27.786  22.670 -14.029  1.00  0.00     0.000 C 
BRANCH  15  16
ATOM     16  C   UNL     1      29.315  22.828 -13.993  1.00  0.00     0.000 C 
BRANCH  16  17
ATOM     17  C   UNL     1      29.883  23.455 -15.279  1.00  0.00     0.000 C 
BRANCH  17  18
ATOM     18  C   UNL     1      29.387  22.813 -16.588  1.00  0.00     0.000 C 
BRANCH  18  19
ATOM     19  C   UNL     1      29.911  23.473 -17.878  1.00  0.00     0.000 C 
BRANCH  19  20
ATOM     20  C   UNL     1      28.917  23.409 -19.058  1.00  0.00     0.006 C 
BRANCH  20  21
ATOM     21  C   UNL     1      27.466  23.642 -18.617  1.00  0.00     0.053 C 
BRANCH  21  22
ATOM     22  C   UNL     1      26.712  24.387 -19.672  1.00  0.00     0.041 C 
ATOM     23  O   UNL     1      26.925  24.151 -20.890  1.00  0.00    -0.550 OA
ATOM     24  O   UNL     1      25.738  25.309 -19.311  1.00  0.00    -0.550 OA
ENDBRANCH  21  22
ENDBRANCH  20  21
ENDBRANCH  19  20
ENDBRANCH  18  19
ENDBRANCH  17  18
ENDBRANCH  16  17
ENDBRANCH  15  16
ENDBRANCH  14  15
ENDBRANCH  13  14
ENDBRANCH   1  13
TORSDOF 20
ENDMDL
MODEL 9
REMARK VINA RESULT:    -3.581      2.734      5.385
REMARK INTER + INTRA:         -11.202
REMARK INTER:                  -7.573
REMARK INTRA:                  -3.629
REMARK UNBOUND:                -3.434
REMARK SMILES CCCCCCCCCCCCCCCCCCCCCC(=O)[O-]
REMARK SMILES IDX 12 1 11 2 10 3 9 4 8 5 7 6 6 7 5 8 4 9 3 10 2 11 1 12 13 13
REMARK SMILES IDX 14 14 15 15 16 16 17 17 18 18 19 19 20 20 21 21 22 22 23 23
REMARK SMILES IDX 24 24
REMARK H PARENT
REMARK Flexibility Score: inf
ROOT
ATOM      1  C   UNL     1      27.422  26.269 -17.371  1.00  0.00     0.000 C 
ENDROOT
BRANCH   1   2
ATOM      2  C   UNL     1      26.840  25.241 -16.379  1.00  0.00     0.000 C 
BRANCH   2   3
ATOM      3  C   UNL     1      26.990  25.616 -14.894  1.00  0.00     0.000 C 
BRANCH   3   4
ATOM      4  C   UNL     1      26.997  24.392 -13.965  1.00  0.00    -0.000 C 
BRANCH   4   5
ATOM      5  C   UNL     1      27.706  23.203 -14.630  1.00  0.00    -0.000 C 
BRANCH   5   6
ATOM      6  C   UNL     1      29.230  23.235 -14.436  1.00  0.00    -0.000 C 
BRANCH   6   7
ATOM      7  C   UNL     1      29.991  22.617 -15.621  1.00  0.00    -0.000 C 
BRANCH   7   8
ATOM      8  C   UNL     1      29.933  23.488 -16.890  1.00  0.00    -0.000 C 
BRANCH   8   9
ATOM      9  C   UNL     1      29.504  22.748 -18.169  1.00  0.00    -0.000 C 
BRANCH   9  10
ATOM     10  C   UNL     1      29.143  23.702 -19.320  1.00  0.00    -0.000 C 
BRANCH  10  11
ATOM     11  C   UNL     1      28.025  23.148 -20.217  1.00  0.00    -0.003 C 
ATOM     12  C   UNL     1      26.891  24.149 -20.431  1.00  0.00     0.004 C 
ENDBRANCH  10  11
ENDBRANCH   9  10
ENDBRANCH   8   9
ENDBRANCH   7   8
ENDBRANCH   6   7
ENDBRANCH   5   6
ENDBRANCH   4   5
ENDBRANCH   3   4
ENDBRANCH   2   3
ENDBRANCH   1   2
BRANCH   1  13
ATOM     13  C   UNL     1      27.677  27.670 -16.782  1.00  0.00     0.000 C 
BRANCH  13  14
ATOM     14  C   UNL     1      29.148  28.130 -16.804  1.00  0.00     0.000 C 
BRANCH  14  15
ATOM     15  C   UNL     1      30.181  27.000 -16.645  1.00  0.00     0.000 C 
BRANCH  15  16
ATOM     16  C   UNL     1      30.588  26.767 -15.181  1.00  0.00     0.000 C 
BRANCH  16  17
ATOM     17  C   UNL     1      32.090  26.473 -15.015  1.00  0.00     0.000 C 
BRANCH  17  18
ATOM     18  C   UNL     1      32.820  26.078 -16.312  1.00  0.00     0.000 C 
BRANCH  18  19
ATOM     19  C   UNL     1      33.504  24.698 -16.281  1.00  0.00     0.000 C 
BRANCH  19  20
ATOM     20  C   UNL     1      34.096  24.266 -17.640  1.00  0.00     0.006 C 
BRANCH  20  21
ATOM     21  C   UNL     1      33.012  23.964 -18.684  1.00  0.00     0.053 C 
BRANCH  21  22
ATOM     22  C   UNL     1      33.328  24.644 -19.978  1.00  0.00     0.041 C 
ATOM     23  O   UNL     1      32.639  24.406 -21.004  1.00  0.00    -0.550 OA
ATOM     24  O   UNL     1      34.355  25.577 -20.042  1.00  0.00    -0.550 OA
ENDBRANCH  21  22
ENDBRANCH  20  21
ENDBRANCH  19  20
ENDBRANCH  18  19
ENDBRANCH  17  18
ENDBRANCH  16  17
ENDBRANCH  15  16
ENDBRANCH  14  15
ENDBRANCH  13  14
ENDBRANCH   1  13
TORSDOF 20
ENDMDL
