MODEL 1
REMARK VINA RESULT:    -5.063      0.000      0.000
REMARK INTER + INTRA:         -13.742
REMARK INTER:                 -10.983
REMARK INTRA:                  -2.759
REMARK UNBOUND:                -2.759
REMARK SMILES CCCCCCCCCCCCCCCCCCCCCC(=O)[O-]
REMARK SMILES IDX 12 1 11 2 10 3 9 4 8 5 7 6 6 7 5 8 4 9 3 10 2 11 1 12 13 13
REMARK SMILES IDX 14 14 15 15 16 16 17 17 18 18 19 19 20 20 21 21 22 22 23 23
REMARK SMILES IDX 24 24
REMARK H PARENT
REMARK Flexibility Score: inf
ROOT
ATOM      1  C   UNL     1     -11.136 -38.164  48.354  1.00  0.00     0.000 C 
ENDROOT
BRANCH   1   2
ATOM      2  C   UNL     1     -10.428 -39.487  48.696  1.00  0.00     0.000 C 
BRANCH   2   3
ATOM      3  C   UNL     1      -9.169 -39.726  47.844  1.00  0.00     0.000 C 
BRANCH   3   4
ATOM      4  C   UNL     1      -8.748 -38.479  47.051  1.00  0.00    -0.000 C 
BRANCH   4   5
ATOM      5  C   UNL     1      -8.328 -38.803  45.606  1.00  0.00    -0.000 C 
BRANCH   5   6
ATOM      6  C   UNL     1      -8.823 -37.752  44.596  1.00  0.00    -0.000 C 
BRANCH   6   7
ATOM      7  C   UNL     1      -9.797 -36.741  45.225  1.00  0.00    -0.000 C 
BRANCH   7   8
ATOM      8  C   UNL     1     -10.546 -35.911  44.170  1.00  0.00    -0.000 C 
BRANCH   8   9
ATOM      9  C   UNL     1     -10.509 -34.403  44.461  1.00  0.00    -0.000 C 
BRANCH   9  10
ATOM     10  C   UNL     1     -10.597 -33.593  43.159  1.00  0.00    -0.000 C 
BRANCH  10  11
ATOM     11  C   UNL     1      -9.457 -33.916  42.182  1.00  0.00    -0.003 C 
ATOM     12  C   UNL     1      -9.718 -33.387  40.771  1.00  0.00     0.004 C 
ENDBRANCH  10  11
ENDBRANCH   9  10
ENDBRANCH   8   9
ENDBRANCH   7   8
ENDBRANCH   6   7
ENDBRANCH   5   6
ENDBRANCH   4   5
ENDBRANCH   3   4
ENDBRANCH   2   3
ENDBRANCH   1   2
BRANCH   1  13
ATOM     13  C   UNL     1     -12.393 -38.302  47.469  1.00  0.00     0.000 C 
BRANCH  13  14
ATOM     14  C   UNL     1     -12.386 -39.500  46.498  1.00  0.00     0.000 C 
BRANCH  14  15
ATOM     15  C   UNL     1     -13.003 -39.221  45.115  1.00  0.00     0.000 C 
BRANCH  15  16
ATOM     16  C   UNL     1     -12.011 -39.459  43.964  1.00  0.00     0.000 C 
BRANCH  16  17
ATOM     17  C   UNL     1     -11.926 -40.937  43.549  1.00  0.00     0.000 C 
BRANCH  17  18
ATOM     18  C   UNL     1     -10.491 -41.491  43.600  1.00  0.00     0.000 C 
BRANCH  18  19
ATOM     19  C   UNL     1      -9.687 -41.163  42.322  1.00  0.00     0.000 C 
BRANCH  19  20
ATOM     20  C   UNL     1      -8.209 -40.815  42.591  1.00  0.00     0.006 C 
BRANCH  20  21
ATOM     21  C   UNL     1      -7.205 -41.702  41.839  1.00  0.00     0.053 C 
BRANCH  21  22
ATOM     22  C   UNL     1      -6.488 -42.640  42.762  1.00  0.00     0.041 C 
ATOM     23  O   UNL     1      -6.581 -43.885  42.598  1.00  0.00    -0.550 OA
ATOM     24  O   UNL     1      -5.727 -42.141  43.813  1.00  0.00    -0.550 OA
ENDBRANCH  21  22
ENDBRANCH  20  21
ENDBRANCH  19  20
ENDBRANCH  18  19
ENDBRANCH  17  18
ENDBRANCH  16  17
ENDBRANCH  15  16
ENDBRANCH  14  15
ENDBRANCH  13  14
ENDBRANCH   1  13
TORSDOF 20
ENDMDL
MODEL 2
REMARK VINA RESULT:    -5.010      2.958      6.588
REMARK INTER + INTRA:         -13.626
REMARK INTER:                 -10.961
REMARK INTRA:                  -2.665
REMARK UNBOUND:                -2.759
REMARK SMILES CCCCCCCCCCCCCCCCCCCCCC(=O)[O-]
REMARK SMILES IDX 12 1 11 2 10 3 9 4 8 5 7 6 6 7 5 8 4 9 3 10 2 11 1 12 13 13
REMARK SMILES IDX 14 14 15 15 16 16 17 17 18 18 19 19 20 20 21 21 22 22 23 23
REMARK SMILES IDX 24 24
REMARK H PARENT
REMARK Flexibility Score: inf
ROOT
ATOM      1  C   UNL     1      -9.348 -39.988  47.581  1.00  0.00     0.000 C 
ENDROOT
BRANCH   1   2
ATOM      2  C   UNL     1     -10.750 -39.496  47.984  1.00  0.00     0.000 C 
BRANCH   2   3
ATOM      3  C   UNL     1     -11.875 -40.229  47.231  1.00  0.00     0.000 C 
BRANCH   3   4
ATOM      4  C   UNL     1     -12.595 -39.325  46.220  1.00  0.00    -0.000 C 
BRANCH   4   5
ATOM      5  C   UNL     1     -12.716 -39.965  44.824  1.00  0.00    -0.000 C 
BRANCH   5   6
ATOM      6  C   UNL     1     -12.608 -41.499  44.867  1.00  0.00    -0.000 C 
BRANCH   6   7
ATOM      7  C   UNL     1     -11.922 -42.078  43.617  1.00  0.00    -0.000 C 
BRANCH   7   8
ATOM      8  C   UNL     1     -11.226 -40.998  42.774  1.00  0.00    -0.000 C 
BRANCH   8   9
ATOM      9  C   UNL     1      -9.955 -41.510  42.079  1.00  0.00    -0.000 C 
BRANCH   9  10
ATOM     10  C   UNL     1      -8.704 -40.843  42.667  1.00  0.00    -0.000 C 
BRANCH  10  11
ATOM     11  C   UNL     1      -7.401 -41.393  42.067  1.00  0.00    -0.003 C 
ATOM     12  C   UNL     1      -6.478 -42.008  43.119  1.00  0.00     0.004 C 
ENDBRANCH  10  11
ENDBRANCH   9  10
ENDBRANCH   8   9
ENDBRANCH   7   8
ENDBRANCH   6   7
ENDBRANCH   5   6
ENDBRANCH   4   5
ENDBRANCH   3   4
ENDBRANCH   2   3
ENDBRANCH   1   2
BRANCH   1  13
ATOM     13  C   UNL     1      -8.903 -39.605  46.154  1.00  0.00     0.000 C 
BRANCH  13  14
ATOM     14  C   UNL     1      -8.739 -38.093  45.898  1.00  0.00     0.000 C 
BRANCH  14  15
ATOM     15  C   UNL     1      -9.113 -37.628  44.479  1.00  0.00     0.000 C 
BRANCH  15  16
ATOM     16  C   UNL     1     -10.516 -37.004  44.408  1.00  0.00     0.000 C 
BRANCH  16  17
ATOM     17  C   UNL     1     -10.648 -35.739  45.271  1.00  0.00     0.000 C 
BRANCH  17  18
ATOM     18  C   UNL     1      -9.859 -34.544  44.706  1.00  0.00     0.000 C 
BRANCH  18  19
ATOM     19  C   UNL     1     -10.589 -33.859  43.529  1.00  0.00     0.000 C 
BRANCH  19  20
ATOM     20  C   UNL     1      -9.968 -34.167  42.151  1.00  0.00     0.006 C 
BRANCH  20  21
ATOM     21  C   UNL     1      -9.229 -32.981  41.513  1.00  0.00     0.053 C 
BRANCH  21  22
ATOM     22  C   UNL     1      -7.771 -32.981  41.859  1.00  0.00     0.041 C 
ATOM     23  O   UNL     1      -7.372 -32.433  42.920  1.00  0.00    -0.550 OA
ATOM     24  O   UNL     1      -6.849 -33.572  41.003  1.00  0.00    -0.550 OA
ENDBRANCH  21  22
ENDBRANCH  20  21
ENDBRANCH  19  20
ENDBRANCH  18  19
ENDBRANCH  17  18
ENDBRANCH  16  17
ENDBRANCH  15  16
ENDBRANCH  14  15
ENDBRANCH  13  14
ENDBRANCH   1  13
TORSDOF 20
ENDMDL
MODEL 3
REMARK VINA RESULT:    -4.963      3.139      6.878
REMARK INTER + INTRA:         -13.524
REMARK INTER:                 -10.798
REMARK INTRA:                  -2.726
REMARK UNBOUND:                -2.759
REMARK SMILES CCCCCCCCCCCCCCCCCCCCCC(=O)[O-]
REMARK SMILES IDX 12 1 11 2 10 3 9 4 8 5 7 6 6 7 5 8 4 9 3 10 2 11 1 12 13 13
REMARK SMILES IDX 14 14 15 15 16 16 17 17 18 18 19 19 20 20 21 21 22 22 23 23
REMARK SMILES IDX 24 24
REMARK H PARENT
REMARK Flexibility Score: inf
ROOT
ATOM      1  C   UNL     1      -8.500 -39.897  48.172  1.00  0.00     0.000 C 
ENDROOT
BRANCH   1   2
ATOM      2  C   UNL     1      -8.374 -38.444  47.682  1.00  0.00     0.000 C 
BRANCH   2   3
ATOM      3  C   UNL     1      -8.378 -38.332  46.147  1.00  0.00     0.000 C 
BRANCH   3   4
ATOM      4  C   UNL     1      -8.420 -39.703  45.455  1.00  0.00    -0.000 C 
BRANCH   4   5
ATOM      5  C   UNL     1      -9.674 -39.895  44.583  1.00  0.00    -0.000 C 
BRANCH   5   6
ATOM      6  C   UNL     1      -9.379 -40.663  43.283  1.00  0.00    -0.000 C 
BRANCH   6   7
ATOM      7  C   UNL     1      -7.883 -40.667  42.925  1.00  0.00    -0.000 C 
BRANCH   7   8
ATOM      8  C   UNL     1      -7.468 -41.923  42.141  1.00  0.00    -0.000 C 
BRANCH   8   9
ATOM      9  C   UNL     1      -6.552 -42.855  42.948  1.00  0.00    -0.000 C 
BRANCH   9  10
ATOM     10  C   UNL     1      -6.911 -44.327  42.695  1.00  0.00    -0.000 C 
BRANCH  10  11
ATOM     11  C   UNL     1      -8.405 -44.617  42.905  1.00  0.00    -0.003 C 
ATOM     12  C   UNL     1      -9.037 -45.350  41.722  1.00  0.00     0.004 C 
ENDBRANCH  10  11
ENDBRANCH   9  10
ENDBRANCH   8   9
ENDBRANCH   7   8
ENDBRANCH   6   7
ENDBRANCH   5   6
ENDBRANCH   4   5
ENDBRANCH   3   4
ENDBRANCH   2   3
ENDBRANCH   1   2
BRANCH   1  13
ATOM     13  C   UNL     1      -9.867 -40.267  48.785  1.00  0.00     0.000 C 
BRANCH  13  14
ATOM     14  C   UNL     1     -10.941 -39.162  48.713  1.00  0.00     0.000 C 
BRANCH  14  15
ATOM     15  C   UNL     1     -11.890 -39.255  47.504  1.00  0.00     0.000 C 
BRANCH  15  16
ATOM     16  C   UNL     1     -12.034 -37.918  46.758  1.00  0.00     0.000 C 
BRANCH  16  17
ATOM     17  C   UNL     1     -11.642 -36.710  47.624  1.00  0.00     0.000 C 
BRANCH  17  18
ATOM     18  C   UNL     1     -10.801 -35.673  46.859  1.00  0.00     0.000 C 
BRANCH  18  19
ATOM     19  C   UNL     1     -10.862 -35.877  45.328  1.00  0.00     0.000 C 
BRANCH  19  20
ATOM     20  C   UNL     1      -9.925 -34.941  44.540  1.00  0.00     0.006 C 
BRANCH  20  21
ATOM     21  C   UNL     1     -10.206 -34.891  43.030  1.00  0.00     0.053 C 
BRANCH  21  22
ATOM     22  C   UNL     1      -9.274 -33.956  42.319  1.00  0.00     0.041 C 
ATOM     23  O   UNL     1      -8.344 -33.389  42.950  1.00  0.00    -0.550 OA
ATOM     24  O   UNL     1      -9.442 -33.700  40.963  1.00  0.00    -0.550 OA
ENDBRANCH  21  22
ENDBRANCH  20  21
ENDBRANCH  19  20
ENDBRANCH  18  19
ENDBRANCH  17  18
ENDBRANCH  16  17
ENDBRANCH  15  16
ENDBRANCH  14  15
ENDBRANCH  13  14
ENDBRANCH   1  13
TORSDOF 20
ENDMDL
MODEL 4
REMARK VINA RESULT:    -4.939      3.857      8.069
REMARK INTER + INTRA:         -13.473
REMARK INTER:                 -11.330
REMARK INTRA:                  -2.143
REMARK UNBOUND:                -2.759
REMARK SMILES CCCCCCCCCCCCCCCCCCCCCC(=O)[O-]
REMARK SMILES IDX 12 1 11 2 10 3 9 4 8 5 7 6 6 7 5 8 4 9 3 10 2 11 1 12 13 13
REMARK SMILES IDX 14 14 15 15 16 16 17 17 18 18 19 19 20 20 21 21 22 22 23 23
REMARK SMILES IDX 24 24
REMARK H PARENT
REMARK Flexibility Score: inf
ROOT
ATOM      1  C   UNL     1     -10.526 -34.555  44.471  1.00  0.00     0.000 C 
ENDROOT
BRANCH   1   2
ATOM      2  C   UNL     1     -10.024 -35.985  44.200  1.00  0.00     0.000 C 
BRANCH   2   3
ATOM      3  C   UNL     1     -10.751 -37.041  45.051  1.00  0.00     0.000 C 
BRANCH   3   4
ATOM      4  C   UNL     1     -11.367 -38.163  44.200  1.00  0.00    -0.000 C 
BRANCH   4   5
ATOM      5  C   UNL     1     -10.937 -39.568  44.661  1.00  0.00    -0.000 C 
BRANCH   5   6
ATOM      6  C   UNL     1     -12.072 -40.333  45.363  1.00  0.00    -0.000 C 
BRANCH   6   7
ATOM      7  C   UNL     1     -11.725 -40.705  46.815  1.00  0.00    -0.000 C 
BRANCH   7   8
ATOM      8  C   UNL     1     -11.376 -39.476  47.670  1.00  0.00    -0.000 C 
BRANCH   8   9
ATOM      9  C   UNL     1     -10.420 -39.805  48.827  1.00  0.00    -0.000 C 
BRANCH   9  10
ATOM     10  C   UNL     1      -9.018 -40.144  48.297  1.00  0.00    -0.000 C 
BRANCH  10  11
ATOM     11  C   UNL     1      -8.519 -39.132  47.254  1.00  0.00    -0.003 C 
ATOM     12  C   UNL     1      -8.349 -37.725  47.829  1.00  0.00     0.004 C 
ENDBRANCH  10  11
ENDBRANCH   9  10
ENDBRANCH   8   9
ENDBRANCH   7   8
ENDBRANCH   6   7
ENDBRANCH   5   6
ENDBRANCH   4   5
ENDBRANCH   3   4
ENDBRANCH   2   3
ENDBRANCH   1   2
BRANCH   1  13
ATOM     13  C   UNL     1     -10.575 -33.632  43.235  1.00  0.00     0.000 C 
BRANCH  13  14
ATOM     14  C   UNL     1      -9.968 -34.224  41.947  1.00  0.00     0.000 C 
BRANCH  14  15
ATOM     15  C   UNL     1      -9.404 -33.189  40.957  1.00  0.00     0.000 C 
BRANCH  15  16
ATOM     16  C   UNL     1      -7.898 -32.943  41.149  1.00  0.00     0.000 C 
BRANCH  16  17
ATOM     17  C   UNL     1      -7.604 -31.772  42.100  1.00  0.00     0.000 C 
BRANCH  17  18
ATOM     18  C   UNL     1      -7.191 -32.234  43.509  1.00  0.00     0.000 C 
BRANCH  18  19
ATOM     19  C   UNL     1      -6.554 -31.097  44.339  1.00  0.00     0.000 C 
BRANCH  19  20
ATOM     20  C   UNL     1      -7.229 -30.876  45.708  1.00  0.00     0.006 C 
BRANCH  20  21
ATOM     21  C   UNL     1      -8.204 -31.989  46.118  1.00  0.00     0.053 C 
BRANCH  21  22
ATOM     22  C   UNL     1      -7.775 -32.669  47.383  1.00  0.00     0.041 C 
ATOM     23  O   UNL     1      -6.558 -32.913  47.589  1.00  0.00    -0.550 OA
ATOM     24  O   UNL     1      -8.721 -33.047  48.329  1.00  0.00    -0.550 OA
ENDBRANCH  21  22
ENDBRANCH  20  21
ENDBRANCH  19  20
ENDBRANCH  18  19
ENDBRANCH  17  18
ENDBRANCH  16  17
ENDBRANCH  15  16
ENDBRANCH  14  15
ENDBRANCH  13  14
ENDBRANCH   1  13
TORSDOF 20
ENDMDL
MODEL 5
REMARK VINA RESULT:    -4.925      3.077      5.695
REMARK INTER + INTRA:         -13.443
REMARK INTER:                 -11.191
REMARK INTRA:                  -2.252
REMARK UNBOUND:                -2.759
REMARK SMILES CCCCCCCCCCCCCCCCCCCCCC(=O)[O-]
REMARK SMILES IDX 12 1 11 2 10 3 9 4 8 5 7 6 6 7 5 8 4 9 3 10 2 11 1 12 13 13
REMARK SMILES IDX 14 14 15 15 16 16 17 17 18 18 19 19 20 20 21 21 22 22 23 23
REMARK SMILES IDX 24 24
REMARK H PARENT
REMARK Flexibility Score: inf
ROOT
ATOM      1  C   UNL     1     -10.684 -35.868  45.116  1.00  0.00     0.000 C 
ENDROOT
BRANCH   1   2
ATOM      2  C   UNL     1     -10.130 -34.627  44.393  1.00  0.00     0.000 C 
BRANCH   2   3
ATOM      3  C   UNL     1     -10.217 -34.744  42.861  1.00  0.00     0.000 C 
BRANCH   3   4
ATOM      4  C   UNL     1     -10.272 -33.374  42.166  1.00  0.00    -0.000 C 
BRANCH   4   5
ATOM      5  C   UNL     1      -9.431 -33.323  40.877  1.00  0.00    -0.000 C 
BRANCH   5   6
ATOM      6  C   UNL     1      -7.959 -32.964  41.144  1.00  0.00    -0.000 C 
BRANCH   6   7
ATOM      7  C   UNL     1      -7.800 -31.914  42.257  1.00  0.00    -0.000 C 
BRANCH   7   8
ATOM      8  C   UNL     1      -6.981 -32.438  43.448  1.00  0.00    -0.000 C 
BRANCH   8   9
ATOM      9  C   UNL     1      -7.576 -32.034  44.805  1.00  0.00    -0.000 C 
BRANCH   9  10
ATOM     10  C   UNL     1      -6.536 -31.293  45.659  1.00  0.00    -0.000 C 
BRANCH  10  11
ATOM     11  C   UNL     1      -6.313 -29.845  45.195  1.00  0.00    -0.003 C 
ATOM     12  C   UNL     1      -4.884 -29.590  44.717  1.00  0.00     0.004 C 
ENDBRANCH  10  11
ENDBRANCH   9  10
ENDBRANCH   8   9
ENDBRANCH   7   8
ENDBRANCH   6   7
ENDBRANCH   5   6
ENDBRANCH   4   5
ENDBRANCH   3   4
ENDBRANCH   2   3
ENDBRANCH   1   2
BRANCH   1  13
ATOM     13  C   UNL     1     -10.590 -37.187  44.320  1.00  0.00     0.000 C 
BRANCH  13  14
ATOM     14  C   UNL     1      -9.374 -38.075  44.658  1.00  0.00     0.000 C 
BRANCH  14  15
ATOM     15  C   UNL     1      -9.579 -39.580  44.410  1.00  0.00     0.000 C 
BRANCH  15  16
ATOM     16  C   UNL     1     -11.035 -40.025  44.625  1.00  0.00     0.000 C 
BRANCH  16  17
ATOM     17  C   UNL     1     -11.194 -40.974  45.824  1.00  0.00     0.000 C 
BRANCH  17  18
ATOM     18  C   UNL     1     -12.192 -40.451  46.873  1.00  0.00     0.000 C 
BRANCH  18  19
ATOM     19  C   UNL     1     -12.053 -38.930  47.111  1.00  0.00     0.000 C 
BRANCH  19  20
ATOM     20  C   UNL     1     -11.166 -38.570  48.319  1.00  0.00     0.006 C 
BRANCH  20  21
ATOM     21  C   UNL     1     -10.214 -39.692  48.760  1.00  0.00     0.053 C 
BRANCH  21  22
ATOM     22  C   UNL     1      -8.814 -39.459  48.277  1.00  0.00     0.041 C 
ATOM     23  O   UNL     1      -8.035 -40.432  48.100  1.00  0.00    -0.550 OA
ATOM     24  O   UNL     1      -8.364 -38.166  48.036  1.00  0.00    -0.550 OA
ENDBRANCH  21  22
ENDBRANCH  20  21
ENDBRANCH  19  20
ENDBRANCH  18  19
ENDBRANCH  17  18
ENDBRANCH  16  17
ENDBRANCH  15  16
ENDBRANCH  14  15
ENDBRANCH  13  14
ENDBRANCH   1  13
TORSDOF 20
ENDMDL
MODEL 6
REMARK VINA RESULT:    -4.922      2.927      6.281
REMARK INTER + INTRA:         -13.436
REMARK INTER:                 -10.573
REMARK INTRA:                  -2.863
REMARK UNBOUND:                -2.759
REMARK SMILES CCCCCCCCCCCCCCCCCCCCCC(=O)[O-]
REMARK SMILES IDX 12 1 11 2 10 3 9 4 8 5 7 6 6 7 5 8 4 9 3 10 2 11 1 12 13 13
REMARK SMILES IDX 14 14 15 15 16 16 17 17 18 18 19 19 20 20 21 21 22 22 23 23
REMARK SMILES IDX 24 24
REMARK H PARENT
REMARK Flexibility Score: inf
ROOT
ATOM      1  C   UNL     1     -11.009 -40.051  48.373  1.00  0.00     0.000 C 
ENDROOT
BRANCH   1   2
ATOM      2  C   UNL     1     -11.668 -38.679  48.145  1.00  0.00     0.000 C 
BRANCH   2   3
ATOM      3  C   UNL     1     -12.570 -38.652  46.899  1.00  0.00     0.000 C 
BRANCH   3   4
ATOM      4  C   UNL     1     -12.450 -39.931  46.055  1.00  0.00    -0.000 C 
BRANCH   4   5
ATOM      5  C   UNL     1     -12.795 -39.704  44.572  1.00  0.00    -0.000 C 
BRANCH   5   6
ATOM      6  C   UNL     1     -12.559 -40.957  43.711  1.00  0.00    -0.000 C 
BRANCH   6   7
ATOM      7  C   UNL     1     -12.197 -40.615  42.256  1.00  0.00    -0.000 C 
BRANCH   7   8
ATOM      8  C   UNL     1     -11.062 -41.498  41.709  1.00  0.00    -0.000 C 
BRANCH   8   9
ATOM      9  C   UNL     1      -9.763 -41.369  42.518  1.00  0.00    -0.000 C 
BRANCH   9  10
ATOM     10  C   UNL     1      -8.638 -42.198  41.881  1.00  0.00    -0.000 C 
BRANCH  10  11
ATOM     11  C   UNL     1      -7.273 -41.497  41.952  1.00  0.00    -0.003 C 
ATOM     12  C   UNL     1      -6.462 -41.905  43.182  1.00  0.00     0.004 C 
ENDBRANCH  10  11
ENDBRANCH   9  10
ENDBRANCH   8   9
ENDBRANCH   7   8
ENDBRANCH   6   7
ENDBRANCH   5   6
ENDBRANCH   4   5
ENDBRANCH   3   4
ENDBRANCH   2   3
ENDBRANCH   1   2
BRANCH   1  13
ATOM     13  C   UNL     1      -9.625 -40.010  49.054  1.00  0.00     0.000 C 
BRANCH  13  14
ATOM     14  C   UNL     1      -8.420 -40.203  48.109  1.00  0.00     0.000 C 
BRANCH  14  15
ATOM     15  C   UNL     1      -8.284 -39.142  47.002  1.00  0.00     0.000 C 
BRANCH  15  16
ATOM     16  C   UNL     1      -8.794 -39.639  45.638  1.00  0.00     0.000 C 
BRANCH  16  17
ATOM     17  C   UNL     1      -8.982 -38.499  44.624  1.00  0.00     0.000 C 
BRANCH  17  18
ATOM     18  C   UNL     1      -9.525 -37.210  45.266  1.00  0.00     0.000 C 
BRANCH  18  19
ATOM     19  C   UNL     1     -10.613 -36.534  44.402  1.00  0.00     0.000 C 
BRANCH  19  20
ATOM     20  C   UNL     1     -10.387 -35.023  44.190  1.00  0.00     0.006 C 
BRANCH  20  21
ATOM     21  C   UNL     1      -9.974 -34.641  42.761  1.00  0.00     0.053 C 
BRANCH  21  22
ATOM     22  C   UNL     1      -8.735 -33.796  42.745  1.00  0.00     0.041 C 
ATOM     23  O   UNL     1      -8.008 -33.758  41.718  1.00  0.00    -0.550 OA
ATOM     24  O   UNL     1      -8.377 -33.061  43.869  1.00  0.00    -0.550 OA
ENDBRANCH  21  22
ENDBRANCH  20  21
ENDBRANCH  19  20
ENDBRANCH  18  19
ENDBRANCH  17  18
ENDBRANCH  16  17
ENDBRANCH  15  16
ENDBRANCH  14  15
ENDBRANCH  13  14
ENDBRANCH   1  13
TORSDOF 20
ENDMDL
MODEL 7
REMARK VINA RESULT:    -4.883      3.124      6.594
REMARK INTER + INTRA:         -13.351
REMARK INTER:                 -10.344
REMARK INTRA:                  -3.007
REMARK UNBOUND:                -2.759
REMARK SMILES CCCCCCCCCCCCCCCCCCCCCC(=O)[O-]
REMARK SMILES IDX 12 1 11 2 10 3 9 4 8 5 7 6 6 7 5 8 4 9 3 10 2 11 1 12 13 13
REMARK SMILES IDX 14 14 15 15 16 16 17 17 18 18 19 19 20 20 21 21 22 22 23 23
REMARK SMILES IDX 24 24
REMARK H PARENT
REMARK Flexibility Score: inf
ROOT
ATOM      1  C   UNL     1     -12.656 -38.972  46.351  1.00  0.00     0.000 C 
ENDROOT
BRANCH   1   2
ATOM      2  C   UNL     1     -12.052 -40.070  45.457  1.00  0.00     0.000 C 
BRANCH   2   3
ATOM      3  C   UNL     1     -12.677 -40.101  44.051  1.00  0.00     0.000 C 
BRANCH   3   4
ATOM      4  C   UNL     1     -11.622 -40.204  42.938  1.00  0.00    -0.000 C 
BRANCH   4   5
ATOM      5  C   UNL     1     -10.451 -41.133  43.308  1.00  0.00    -0.000 C 
BRANCH   5   6
ATOM      6  C   UNL     1     -10.461 -42.446  42.505  1.00  0.00    -0.000 C 
BRANCH   6   7
ATOM      7  C   UNL     1      -9.185 -42.637  41.668  1.00  0.00    -0.000 C 
BRANCH   7   8
ATOM      8  C   UNL     1      -8.398 -41.329  41.488  1.00  0.00    -0.000 C 
BRANCH   8   9
ATOM      9  C   UNL     1      -6.904 -41.481  41.814  1.00  0.00    -0.000 C 
BRANCH   9  10
ATOM     10  C   UNL     1      -6.692 -41.672  43.323  1.00  0.00    -0.000 C 
BRANCH  10  11
ATOM     11  C   UNL     1      -5.772 -42.859  43.646  1.00  0.00    -0.003 C 
ATOM     12  C   UNL     1      -5.010 -42.678  44.959  1.00  0.00     0.004 C 
ENDBRANCH  10  11
ENDBRANCH   9  10
ENDBRANCH   8   9
ENDBRANCH   7   8
ENDBRANCH   6   7
ENDBRANCH   5   6
ENDBRANCH   4   5
ENDBRANCH   3   4
ENDBRANCH   2   3
ENDBRANCH   1   2
BRANCH   1  13
ATOM     13  C   UNL     1     -11.963 -38.782  47.717  1.00  0.00     0.000 C 
BRANCH  13  14
ATOM     14  C   UNL     1     -11.130 -39.985  48.205  1.00  0.00     0.000 C 
BRANCH  14  15
ATOM     15  C   UNL     1      -9.670 -39.661  48.572  1.00  0.00     0.000 C 
BRANCH  15  16
ATOM     16  C   UNL     1      -8.699 -39.893  47.403  1.00  0.00     0.000 C 
BRANCH  16  17
ATOM     17  C   UNL     1      -8.415 -38.612  46.602  1.00  0.00     0.000 C 
BRANCH  17  18
ATOM     18  C   UNL     1      -8.346 -38.858  45.084  1.00  0.00     0.000 C 
BRANCH  18  19
ATOM     19  C   UNL     1      -8.737 -37.608  44.266  1.00  0.00     0.000 C 
BRANCH  19  20
ATOM     20  C   UNL     1     -10.106 -37.015  44.655  1.00  0.00     0.006 C 
BRANCH  20  21
ATOM     21  C   UNL     1     -10.406 -35.648  44.021  1.00  0.00     0.053 C 
BRANCH  21  22
ATOM     22  C   UNL     1      -9.808 -34.523  44.811  1.00  0.00     0.041 C 
ATOM     23  O   UNL     1      -9.939 -34.489  46.063  1.00  0.00    -0.550 OA
ATOM     24  O   UNL     1      -9.118 -33.504  44.165  1.00  0.00    -0.550 OA
ENDBRANCH  21  22
ENDBRANCH  20  21
ENDBRANCH  19  20
ENDBRANCH  18  19
ENDBRANCH  17  18
ENDBRANCH  16  17
ENDBRANCH  15  16
ENDBRANCH  14  15
ENDBRANCH  13  14
ENDBRANCH   1  13
TORSDOF 20
ENDMDL
MODEL 8
REMARK VINA RESULT:    -4.874      3.149      6.256
REMARK INTER + INTRA:         -13.333
REMARK INTER:                 -10.338
REMARK INTRA:                  -2.994
REMARK UNBOUND:                -2.759
REMARK SMILES CCCCCCCCCCCCCCCCCCCCCC(=O)[O-]
REMARK SMILES IDX 12 1 11 2 10 3 9 4 8 5 7 6 6 7 5 8 4 9 3 10 2 11 1 12 13 13
REMARK SMILES IDX 14 14 15 15 16 16 17 17 18 18 19 19 20 20 21 21 22 22 23 23
REMARK SMILES IDX 24 24
REMARK H PARENT
REMARK Flexibility Score: inf
ROOT
ATOM      1  C   UNL     1     -11.044 -40.398  47.452  1.00  0.00     0.000 C 
ENDROOT
BRANCH   1   2
ATOM      2  C   UNL     1     -10.172 -39.993  48.654  1.00  0.00     0.000 C 
BRANCH   2   3
ATOM      3  C   UNL     1      -8.799 -39.440  48.231  1.00  0.00     0.000 C 
BRANCH   3   4
ATOM      4  C   UNL     1      -8.490 -39.697  46.748  1.00  0.00    -0.000 C 
BRANCH   4   5
ATOM      5  C   UNL     1      -8.345 -38.399  45.933  1.00  0.00    -0.000 C 
BRANCH   5   6
ATOM      6  C   UNL     1      -8.575 -38.617  44.428  1.00  0.00    -0.000 C 
BRANCH   6   7
ATOM      7  C   UNL     1      -9.978 -39.166  44.117  1.00  0.00    -0.000 C 
BRANCH   7   8
ATOM      8  C   UNL     1      -9.936 -40.575  43.503  1.00  0.00    -0.000 C 
BRANCH   8   9
ATOM      9  C   UNL     1      -8.556 -40.936  42.932  1.00  0.00    -0.000 C 
BRANCH   9  10
ATOM     10  C   UNL     1      -8.692 -41.600  41.554  1.00  0.00    -0.000 C 
BRANCH  10  11
ATOM     11  C   UNL     1      -9.905 -42.540  41.467  1.00  0.00    -0.003 C 
ATOM     12  C   UNL     1      -9.516 -43.977  41.119  1.00  0.00     0.004 C 
ENDBRANCH  10  11
ENDBRANCH   9  10
ENDBRANCH   8   9
ENDBRANCH   7   8
ENDBRANCH   6   7
ENDBRANCH   5   6
ENDBRANCH   4   5
ENDBRANCH   3   4
ENDBRANCH   2   3
ENDBRANCH   1   2
BRANCH   1  13
ATOM     13  C   UNL     1     -12.295 -39.523  47.224  1.00  0.00     0.000 C 
BRANCH  13  14
ATOM     14  C   UNL     1     -12.011 -38.042  46.900  1.00  0.00     0.000 C 
BRANCH  14  15
ATOM     15  C   UNL     1     -12.434 -37.043  47.993  1.00  0.00     0.000 C 
BRANCH  15  16
ATOM     16  C   UNL     1     -11.354 -35.987  48.282  1.00  0.00     0.000 C 
BRANCH  16  17
ATOM     17  C   UNL     1     -10.143 -36.104  47.344  1.00  0.00     0.000 C 
BRANCH  17  18
ATOM     18  C   UNL     1     -10.089 -34.981  46.292  1.00  0.00     0.000 C 
BRANCH  18  19
ATOM     19  C   UNL     1     -10.634 -35.432  44.919  1.00  0.00     0.000 C 
BRANCH  19  20
ATOM     20  C   UNL     1      -9.713 -35.072  43.737  1.00  0.00     0.006 C 
BRANCH  20  21
ATOM     21  C   UNL     1     -10.274 -33.985  42.807  1.00  0.00     0.053 C 
BRANCH  21  22
ATOM     22  C   UNL     1      -9.276 -33.568  41.770  1.00  0.00     0.041 C 
ATOM     23  O   UNL     1      -8.074 -33.375  42.089  1.00  0.00    -0.550 OA
ATOM     24  O   UNL     1      -9.675 -33.377  40.452  1.00  0.00    -0.550 OA
ENDBRANCH  21  22
ENDBRANCH  20  21
ENDBRANCH  19  20
ENDBRANCH  18  19
ENDBRANCH  17  18
ENDBRANCH  16  17
ENDBRANCH  15  16
ENDBRANCH  14  15
ENDBRANCH  13  14
ENDBRANCH   1  13
TORSDOF 20
ENDMDL
MODEL 9
REMARK VINA RESULT:    -4.871      3.394      6.879
REMARK INTER + INTRA:         -13.325
REMARK INTER:                 -10.262
REMARK INTRA:                  -3.063
REMARK UNBOUND:                -2.759
REMARK SMILES CCCCCCCCCCCCCCCCCCCCCC(=O)[O-]
REMARK SMILES IDX 12 1 11 2 10 3 9 4 8 5 7 6 6 7 5 8 4 9 3 10 2 11 1 12 13 13
REMARK SMILES IDX 14 14 15 15 16 16 17 17 18 18 19 19 20 20 21 21 22 22 23 23
REMARK SMILES IDX 24 24
REMARK H PARENT
REMARK Flexibility Score: inf
ROOT
ATOM      1  C   UNL     1      -8.064 -39.119  44.860  1.00  0.00     0.000 C 
ENDROOT
BRANCH   1   2
ATOM      2  C   UNL     1      -8.688 -40.019  43.778  1.00  0.00     0.000 C 
BRANCH   2   3
ATOM      3  C   UNL     1      -7.655 -40.937  43.100  1.00  0.00     0.000 C 
BRANCH   3   4
ATOM      4  C   UNL     1      -8.013 -41.250  41.639  1.00  0.00    -0.000 C 
BRANCH   4   5
ATOM      5  C   UNL     1      -9.057 -42.373  41.506  1.00  0.00    -0.000 C 
BRANCH   5   6
ATOM      6  C   UNL     1     -10.273 -41.954  40.662  1.00  0.00    -0.000 C 
BRANCH   6   7
ATOM      7  C   UNL     1     -11.605 -42.431  41.266  1.00  0.00    -0.000 C 
BRANCH   7   8
ATOM      8  C   UNL     1     -11.796 -41.961  42.718  1.00  0.00    -0.000 C 
BRANCH   8   9
ATOM      9  C   UNL     1     -12.210 -40.485  42.817  1.00  0.00    -0.000 C 
BRANCH   9  10
ATOM     10  C   UNL     1     -12.618 -40.128  44.254  1.00  0.00    -0.000 C 
BRANCH  10  11
ATOM     11  C   UNL     1     -11.912 -41.000  45.304  1.00  0.00    -0.003 C 
ATOM     12  C   UNL     1     -12.101 -40.480  46.729  1.00  0.00     0.004 C 
ENDBRANCH  10  11
ENDBRANCH   9  10
ENDBRANCH   8   9
ENDBRANCH   7   8
ENDBRANCH   6   7
ENDBRANCH   5   6
ENDBRANCH   4   5
ENDBRANCH   3   4
ENDBRANCH   2   3
ENDBRANCH   1   2
BRANCH   1  13
ATOM     13  C   UNL     1      -8.522 -39.417  46.304  1.00  0.00     0.000 C 
BRANCH  13  14
ATOM     14  C   UNL     1      -8.480 -38.214  47.269  1.00  0.00     0.000 C 
BRANCH  14  15
ATOM     15  C   UNL     1      -9.854 -37.630  47.643  1.00  0.00     0.000 C 
BRANCH  15  16
ATOM     16  C   UNL     1     -10.299 -36.504  46.696  1.00  0.00     0.000 C 
BRANCH  16  17
ATOM     17  C   UNL     1     -11.213 -37.004  45.566  1.00  0.00     0.000 C 
BRANCH  17  18
ATOM     18  C   UNL     1     -10.641 -36.723  44.164  1.00  0.00     0.000 C 
BRANCH  18  19
ATOM     19  C   UNL     1      -9.693 -35.503  44.149  1.00  0.00     0.000 C 
BRANCH  19  20
ATOM     20  C   UNL     1      -9.889 -34.580  42.930  1.00  0.00     0.006 C 
BRANCH  20  21
ATOM     21  C   UNL     1      -8.657 -33.735  42.573  1.00  0.00     0.053 C 
BRANCH  21  22
ATOM     22  C   UNL     1      -8.876 -32.926  41.330  1.00  0.00     0.041 C 
ATOM     23  O   UNL     1      -8.196 -31.887  41.122  1.00  0.00    -0.550 OA
ATOM     24  O   UNL     1      -9.841 -33.311  40.406  1.00  0.00    -0.550 OA
ENDBRANCH  21  22
ENDBRANCH  20  21
ENDBRANCH  19  20
ENDBRANCH  18  19
ENDBRANCH  17  18
ENDBRANCH  16  17
ENDBRANCH  15  16
ENDBRANCH  14  15
ENDBRANCH  13  14
ENDBRANCH   1  13
TORSDOF 20
ENDMDL
