MODEL 1
REMARK VINA RESULT:    -4.016      0.000      0.000
REMARK INTER + INTRA:          -5.152
REMARK INTER:                  -4.955
REMARK INTRA:                  -0.197
REMARK UNBOUND:                -0.197
REMARK SMILES Oc1cc(O)c2cc(O)c(-c3cc(O)c(O)c(O)c3)[o+]c2c1.[Cl-]
REMARK SMILES IDX 10 1 20 2 21 3 22 4 2 5 3 6 4 7 6 8 7 9 8 10 11 11 12 12
REMARK SMILES IDX 13 13 19 14 15 15 17 16 14 17 16 19 18 21 9 23 1 25 5 27
REMARK H PARENT 14 18 16 20 18 22 9 24 1 26 5 28
REMARK Flexibility Score: inf
ROOT
ATOM      1  C   UNL     1     -17.307  44.750  -8.061  1.00  0.00     0.402 A 
ATOM      2  O   UNL     1     -18.373  45.384  -8.542  1.00  0.00    -0.202 OA
ATOM      3  C   UNL     1     -19.251  44.816  -9.362  1.00  0.00     0.368 A 
ATOM      4  C   UNL     1     -20.339  45.565  -9.818  1.00  0.00     0.162 A 
ATOM      5  C   UNL     1     -21.276  44.996 -10.681  1.00  0.00     0.128 A 
ATOM      6  C   UNL     1     -21.126  43.667 -11.094  1.00  0.00     0.093 A 
ATOM      7  C   UNL     1     -20.043  42.895 -10.652  1.00  0.00     0.136 A 
ATOM      8  C   UNL     1     -19.091  43.470  -9.771  1.00  0.00     0.125 A 
ATOM      9  C   UNL     1     -17.983  42.769  -9.267  1.00  0.00     0.078 A 
ATOM     10  C   UNL     1     -17.089  43.402  -8.399  1.00  0.00     0.223 A 
ENDROOT
BRANCH   1  11
ATOM     11  C   UNL     1     -16.395  45.497  -7.164  1.00  0.00     0.091 A 
ATOM     12  C   UNL     1     -15.703  46.636  -7.608  1.00  0.00     0.068 A 
ATOM     13  C   UNL     1     -14.861  47.342  -6.738  1.00  0.00     0.162 A 
ATOM     14  C   UNL     1     -16.260  45.093  -5.827  1.00  0.00     0.068 A 
ATOM     15  C   UNL     1     -14.713  46.917  -5.406  1.00  0.00     0.200 A 
ATOM     16  C   UNL     1     -15.420  45.790  -4.953  1.00  0.00     0.162 A 
BRANCH  13  17
ATOM     17  O   UNL     1     -14.173  48.468  -7.190  1.00  0.00    -0.504 OA
ATOM     18  H   UNL     1     -13.208  48.413  -7.495  1.00  0.00     0.293 HD
ENDBRANCH  13  17
BRANCH  15  19
ATOM     19  O   UNL     1     -13.875  47.605  -4.528  1.00  0.00    -0.502 OA
ATOM     20  H   UNL     1     -13.871  48.616  -4.466  1.00  0.00     0.293 HD
ENDBRANCH  15  19
BRANCH  16  21
ATOM     21  O   UNL     1     -15.301  45.348  -3.635  1.00  0.00    -0.504 OA
ATOM     22  H   UNL     1     -14.771  44.520  -3.390  1.00  0.00     0.293 HD
ENDBRANCH  16  21
ENDBRANCH   1  11
BRANCH  10  23
ATOM     23  O   UNL     1     -16.017  42.692  -7.859  1.00  0.00    -0.500 OA
ATOM     24  H   UNL     1     -15.531  43.009  -7.028  1.00  0.00     0.294 HD
ENDBRANCH  10  23
BRANCH   5  25
ATOM     25  O   UNL     1     -22.354  45.759 -11.124  1.00  0.00    -0.507 OA
ATOM     26  H   UNL     1     -23.155  45.939 -10.528  1.00  0.00     0.293 HD
ENDBRANCH   5  25
BRANCH   7  27
ATOM     27  O   UNL     1     -19.962  41.577 -11.112  1.00  0.00    -0.507 OA
ATOM     28  H   UNL     1     -19.239  40.925 -10.847  1.00  0.00     0.293 HD
ENDBRANCH   7  27
TORSDOF 7
ENDMDL
MODEL 2
REMARK VINA RESULT:    -3.738      1.219      7.384
REMARK INTER + INTRA:          -4.810
REMARK INTER:                  -4.927
REMARK INTRA:                   0.117
REMARK UNBOUND:                -0.197
REMARK SMILES Oc1cc(O)c2cc(O)c(-c3cc(O)c(O)c(O)c3)[o+]c2c1.[Cl-]
REMARK SMILES IDX 10 1 20 2 21 3 22 4 2 5 3 6 4 7 6 8 7 9 8 10 11 11 12 12
REMARK SMILES IDX 13 13 19 14 15 15 17 16 14 17 16 19 18 21 9 23 1 25 5 27
REMARK H PARENT 14 18 16 20 18 22 9 24 1 26 5 28
REMARK Flexibility Score: inf
ROOT
ATOM      1  C   UNL     1     -17.506  45.747  -8.566  1.00  0.00     0.402 A 
ATOM      2  O   UNL     1     -17.031  45.301  -7.406  1.00  0.00    -0.202 OA
ATOM      3  C   UNL     1     -16.080  45.925  -6.719  1.00  0.00     0.368 A 
ATOM      4  C   UNL     1     -15.643  45.376  -5.511  1.00  0.00     0.162 A 
ATOM      5  C   UNL     1     -14.644  46.008  -4.769  1.00  0.00     0.128 A 
ATOM      6  C   UNL     1     -14.075  47.198  -5.238  1.00  0.00     0.093 A 
ATOM      7  C   UNL     1     -14.495  47.768  -6.447  1.00  0.00     0.136 A 
ATOM      8  C   UNL     1     -15.513  47.129  -7.202  1.00  0.00     0.125 A 
ATOM      9  C   UNL     1     -16.005  47.635  -8.416  1.00  0.00     0.078 A 
ATOM     10  C   UNL     1     -17.014  46.951  -9.102  1.00  0.00     0.223 A 
ENDROOT
BRANCH   1  11
ATOM     11  C   UNL     1     -18.559  44.955  -9.241  1.00  0.00     0.091 A 
ATOM     12  C   UNL     1     -18.528  43.550  -9.247  1.00  0.00     0.068 A 
ATOM     13  C   UNL     1     -19.546  42.818  -9.873  1.00  0.00     0.162 A 
ATOM     14  C   UNL     1     -19.642  45.617  -9.841  1.00  0.00     0.068 A 
ATOM     15  C   UNL     1     -20.615  43.489 -10.491  1.00  0.00     0.200 A 
ATOM     16  C   UNL     1     -20.661  44.894 -10.470  1.00  0.00     0.162 A 
BRANCH  13  17
ATOM     17  O   UNL     1     -19.502  41.424  -9.879  1.00  0.00    -0.504 OA
ATOM     18  H   UNL     1     -18.637  40.920  -9.723  1.00  0.00     0.293 HD
ENDBRANCH  13  17
BRANCH  15  19
ATOM     19  O   UNL     1     -21.634  42.776 -11.124  1.00  0.00    -0.502 OA
ATOM     20  H   UNL     1     -21.640  42.615 -12.124  1.00  0.00     0.293 HD
ENDBRANCH  15  19
BRANCH  16  21
ATOM     21  O   UNL     1     -21.712  45.589 -11.067  1.00  0.00    -0.504 OA
ATOM     22  H   UNL     1     -22.441  45.119 -11.590  1.00  0.00     0.293 HD
ENDBRANCH  16  21
ENDBRANCH   1  11
BRANCH  10  23
ATOM     23  O   UNL     1     -17.538  47.478 -10.282  1.00  0.00    -0.500 OA
ATOM     24  H   UNL     1     -18.389  48.029 -10.289  1.00  0.00     0.294 HD
ENDBRANCH  10  23
BRANCH   5  25
ATOM     25  O   UNL     1     -14.223  45.446  -3.566  1.00  0.00    -0.507 OA
ATOM     26  H   UNL     1     -13.517  44.717  -3.540  1.00  0.00     0.293 HD
ENDBRANCH   5  25
BRANCH   7  27
ATOM     27  O   UNL     1     -13.875  48.955  -6.848  1.00  0.00    -0.507 OA
ATOM     28  H   UNL     1     -13.186  49.451  -6.301  1.00  0.00     0.293 HD
ENDBRANCH   7  27
TORSDOF 7
ENDMDL
MODEL 3
REMARK VINA RESULT:    -3.648      1.242      7.257
REMARK INTER + INTRA:          -4.698
REMARK INTER:                  -4.826
REMARK INTRA:                   0.128
REMARK UNBOUND:                -0.197
REMARK SMILES Oc1cc(O)c2cc(O)c(-c3cc(O)c(O)c(O)c3)[o+]c2c1.[Cl-]
REMARK SMILES IDX 10 1 20 2 21 3 22 4 2 5 3 6 4 7 6 8 7 9 8 10 11 11 12 12
REMARK SMILES IDX 13 13 19 14 15 15 17 16 14 17 16 19 18 21 9 23 1 25 5 27
REMARK H PARENT 14 18 16 20 18 22 9 24 1 26 5 28
REMARK Flexibility Score: inf
ROOT
ATOM      1  C   UNL     1     -17.542  45.840  -8.483  1.00  0.00     0.402 A 
ATOM      2  O   UNL     1     -17.036  45.375  -7.344  1.00  0.00    -0.202 OA
ATOM      3  C   UNL     1     -16.069  45.991  -6.670  1.00  0.00     0.368 A 
ATOM      4  C   UNL     1     -15.599  45.423  -5.483  1.00  0.00     0.162 A 
ATOM      5  C   UNL     1     -14.583  46.045  -4.757  1.00  0.00     0.128 A 
ATOM      6  C   UNL     1     -14.031  47.244  -5.220  1.00  0.00     0.093 A 
ATOM      7  C   UNL     1     -14.483  47.834  -6.407  1.00  0.00     0.136 A 
ATOM      8  C   UNL     1     -15.519  47.205  -7.146  1.00  0.00     0.125 A 
ATOM      9  C   UNL     1     -16.043  47.730  -8.339  1.00  0.00     0.078 A 
ATOM     10  C   UNL     1     -17.067  47.055  -9.010  1.00  0.00     0.223 A 
ENDROOT
BRANCH   1  11
ATOM     11  C   UNL     1     -18.610  45.056  -9.144  1.00  0.00     0.091 A 
ATOM     12  C   UNL     1     -19.679  45.688  -9.803  1.00  0.00     0.068 A 
ATOM     13  C   UNL     1     -20.669  44.929 -10.442  1.00  0.00     0.162 A 
ATOM     14  C   UNL     1     -18.527  43.656  -9.164  1.00  0.00     0.068 A 
ATOM     15  C   UNL     1     -20.591  43.525 -10.438  1.00  0.00     0.200 A 
ATOM     16  C   UNL     1     -19.512  42.891  -9.798  1.00  0.00     0.162 A 
BRANCH  13  17
ATOM     17  O   UNL     1     -21.730  45.565 -11.087  1.00  0.00    -0.504 OA
ATOM     18  H   UNL     1     -21.573  46.246 -11.821  1.00  0.00     0.293 HD
ENDBRANCH  13  17
BRANCH  15  19
ATOM     19  O   UNL     1     -21.570  42.755 -11.065  1.00  0.00    -0.502 OA
ATOM     20  H   UNL     1     -22.559  42.930 -10.935  1.00  0.00     0.293 HD
ENDBRANCH  15  19
BRANCH  16  21
ATOM     21  O   UNL     1     -19.401  41.501  -9.782  1.00  0.00    -0.504 OA
ATOM     22  H   UNL     1     -20.198  40.895  -9.935  1.00  0.00     0.293 HD
ENDBRANCH  16  21
ENDBRANCH   1  11
BRANCH  10  23
ATOM     23  O   UNL     1     -17.623  47.600 -10.167  1.00  0.00    -0.500 OA
ATOM     24  H   UNL     1     -17.943  47.017 -10.932  1.00  0.00     0.294 HD
ENDBRANCH  10  23
BRANCH   5  25
ATOM     25  O   UNL     1     -14.130  45.463  -3.575  1.00  0.00    -0.507 OA
ATOM     26  H   UNL     1     -14.046  44.457  -3.478  1.00  0.00     0.293 HD
ENDBRANCH   5  25
BRANCH   7  27
ATOM     27  O   UNL     1     -13.877  49.029  -6.803  1.00  0.00    -0.507 OA
ATOM     28  H   UNL     1     -14.366  49.905  -6.919  1.00  0.00     0.293 HD
ENDBRANCH   7  27
TORSDOF 7
ENDMDL
MODEL 4
REMARK VINA RESULT:    -3.635      1.235      7.058
REMARK INTER + INTRA:          -4.682
REMARK INTER:                  -4.744
REMARK INTRA:                   0.063
REMARK UNBOUND:                -0.197
REMARK SMILES Oc1cc(O)c2cc(O)c(-c3cc(O)c(O)c(O)c3)[o+]c2c1.[Cl-]
REMARK SMILES IDX 10 1 20 2 21 3 22 4 2 5 3 6 4 7 6 8 7 9 8 10 11 11 12 12
REMARK SMILES IDX 13 13 19 14 15 15 17 16 14 17 16 19 18 21 9 23 1 25 5 27
REMARK H PARENT 14 18 16 20 18 22 9 24 1 26 5 28
REMARK Flexibility Score: inf
ROOT
ATOM      1  C   UNL     1     -17.506  45.050  -7.879  1.00  0.00     0.402 A 
ATOM      2  O   UNL     1     -16.933  46.193  -8.244  1.00  0.00    -0.202 OA
ATOM      3  C   UNL     1     -15.958  46.774  -7.551  1.00  0.00     0.368 A 
ATOM      4  C   UNL     1     -15.421  47.978  -8.013  1.00  0.00     0.162 A 
ATOM      5  C   UNL     1     -14.398  48.612  -7.306  1.00  0.00     0.128 A 
ATOM      6  C   UNL     1     -13.909  48.040  -6.126  1.00  0.00     0.093 A 
ATOM      7  C   UNL     1     -14.432  46.834  -5.641  1.00  0.00     0.136 A 
ATOM      8  C   UNL     1     -15.469  46.185  -6.360  1.00  0.00     0.125 A 
ATOM      9  C   UNL     1     -16.044  44.968  -5.957  1.00  0.00     0.078 A 
ATOM     10  C   UNL     1     -17.060  44.387  -6.721  1.00  0.00     0.223 A 
ENDROOT
BRANCH   1  11
ATOM     11  C   UNL     1     -18.591  44.509  -8.729  1.00  0.00     0.091 A 
ATOM     12  C   UNL     1     -18.671  43.138  -9.028  1.00  0.00     0.068 A 
ATOM     13  C   UNL     1     -19.718  42.642  -9.817  1.00  0.00     0.162 A 
ATOM     14  C   UNL     1     -19.592  45.371  -9.203  1.00  0.00     0.068 A 
ATOM     15  C   UNL     1     -20.704  43.516 -10.306  1.00  0.00     0.200 A 
ATOM     16  C   UNL     1     -20.639  44.884  -9.993  1.00  0.00     0.162 A 
BRANCH  13  17
ATOM     17  O   UNL     1     -19.785  41.280 -10.113  1.00  0.00    -0.504 OA
ATOM     18  H   UNL     1     -20.620  40.737  -9.928  1.00  0.00     0.293 HD
ENDBRANCH  13  17
BRANCH  15  19
ATOM     19  O   UNL     1     -21.750  43.039 -11.097  1.00  0.00    -0.502 OA
ATOM     20  H   UNL     1     -21.964  42.052 -11.171  1.00  0.00     0.293 HD
ENDBRANCH  15  19
BRANCH  16  21
ATOM     21  O   UNL     1     -21.605  45.776 -10.456  1.00  0.00    -0.504 OA
ATOM     22  H   UNL     1     -22.593  45.643 -10.273  1.00  0.00     0.293 HD
ENDBRANCH  16  21
ENDBRANCH   1  11
BRANCH  10  23
ATOM     23  O   UNL     1     -17.596  43.154  -6.348  1.00  0.00    -0.500 OA
ATOM     24  H   UNL     1     -17.014  42.333  -6.229  1.00  0.00     0.294 HD
ENDBRANCH  10  23
BRANCH   5  25
ATOM     25  O   UNL     1     -13.875  49.811  -7.783  1.00  0.00    -0.507 OA
ATOM     26  H   UNL     1     -13.590  50.553  -7.153  1.00  0.00     0.293 HD
ENDBRANCH   5  25
BRANCH   7  27
ATOM     27  O   UNL     1     -13.892  46.329  -4.455  1.00  0.00    -0.507 OA
ATOM     28  H   UNL     1     -13.654  46.893  -3.652  1.00  0.00     0.293 HD
ENDBRANCH   7  27
TORSDOF 7
ENDMDL
MODEL 5
REMARK VINA RESULT:    -2.890      1.810      3.094
REMARK INTER + INTRA:          -3.763
REMARK INTER:                  -3.731
REMARK INTRA:                  -0.032
REMARK UNBOUND:                -0.197
REMARK SMILES Oc1cc(O)c2cc(O)c(-c3cc(O)c(O)c(O)c3)[o+]c2c1.[Cl-]
REMARK SMILES IDX 10 1 20 2 21 3 22 4 2 5 3 6 4 7 6 8 7 9 8 10 11 11 12 12
REMARK SMILES IDX 13 13 19 14 15 15 17 16 14 17 16 19 18 21 9 23 1 25 5 27
REMARK H PARENT 14 18 16 20 18 22 9 24 1 26 5 28
REMARK Flexibility Score: inf
ROOT
ATOM      1  C   UNL     1     -18.258  45.123  -7.460  1.00  0.00     0.402 A 
ATOM      2  O   UNL     1     -18.100  43.816  -7.652  1.00  0.00    -0.202 OA
ATOM      3  C   UNL     1     -18.800  43.120  -8.542  1.00  0.00     0.368 A 
ATOM      4  C   UNL     1     -18.566  41.748  -8.669  1.00  0.00     0.162 A 
ATOM      5  C   UNL     1     -19.286  40.991  -9.593  1.00  0.00     0.128 A 
ATOM      6  C   UNL     1     -20.251  41.609 -10.397  1.00  0.00     0.093 A 
ATOM      7  C   UNL     1     -20.506  42.982 -10.289  1.00  0.00     0.136 A 
ATOM      8  C   UNL     1     -19.772  43.755  -9.352  1.00  0.00     0.125 A 
ATOM      9  C   UNL     1     -19.950  45.138  -9.185  1.00  0.00     0.078 A 
ATOM     10  C   UNL     1     -19.186  45.834  -8.243  1.00  0.00     0.223 A 
ENDROOT
BRANCH   1  11
ATOM     11  C   UNL     1     -17.425  45.784  -6.430  1.00  0.00     0.091 A 
ATOM     12  C   UNL     1     -16.031  45.611  -6.394  1.00  0.00     0.068 A 
ATOM     13  C   UNL     1     -15.258  46.264  -5.424  1.00  0.00     0.162 A 
ATOM     14  C   UNL     1     -18.031  46.646  -5.502  1.00  0.00     0.068 A 
ATOM     15  C   UNL     1     -15.875  47.107  -4.484  1.00  0.00     0.200 A 
ATOM     16  C   UNL     1     -17.266  47.298  -4.529  1.00  0.00     0.162 A 
BRANCH  13  17
ATOM     17  O   UNL     1     -13.875  46.080  -5.394  1.00  0.00    -0.504 OA
ATOM     18  H   UNL     1     -13.242  46.845  -5.192  1.00  0.00     0.293 HD
ENDBRANCH  13  17
BRANCH  15  19
ATOM     19  O   UNL     1     -15.120  47.759  -3.509  1.00  0.00    -0.502 OA
ATOM     20  H   UNL     1     -14.149  48.007  -3.654  1.00  0.00     0.293 HD
ENDBRANCH  15  19
BRANCH  16  21
ATOM     21  O   UNL     1     -17.907  48.135  -3.616  1.00  0.00    -0.504 OA
ATOM     22  H   UNL     1     -17.455  48.952  -3.224  1.00  0.00     0.293 HD
ENDBRANCH  16  21
ENDBRANCH   1  11
BRANCH  10  23
ATOM     23  O   UNL     1     -19.328  47.215  -8.111  1.00  0.00    -0.500 OA
ATOM     24  H   UNL     1     -19.433  47.657  -7.205  1.00  0.00     0.294 HD
ENDBRANCH  10  23
BRANCH   5  25
ATOM     25  O   UNL     1     -19.037  39.626  -9.705  1.00  0.00    -0.507 OA
ATOM     26  H   UNL     1     -18.703  39.082  -8.917  1.00  0.00     0.293 HD
ENDBRANCH   5  25
BRANCH   7  27
ATOM     27  O   UNL     1     -21.488  43.522 -11.125  1.00  0.00    -0.507 OA
ATOM     28  H   UNL     1     -21.885  44.443 -11.016  1.00  0.00     0.293 HD
ENDBRANCH   7  27
TORSDOF 7
ENDMDL
MODEL 6
REMARK VINA RESULT:    -2.250      2.052      6.962
REMARK INTER + INTRA:          -2.973
REMARK INTER:                  -2.809
REMARK INTRA:                  -0.163
REMARK UNBOUND:                -0.197
REMARK SMILES Oc1cc(O)c2cc(O)c(-c3cc(O)c(O)c(O)c3)[o+]c2c1.[Cl-]
REMARK SMILES IDX 10 1 20 2 21 3 22 4 2 5 3 6 4 7 6 8 7 9 8 10 11 11 12 12
REMARK SMILES IDX 13 13 19 14 15 15 17 16 14 17 16 19 18 21 9 23 1 25 5 27
REMARK H PARENT 14 18 16 20 18 22 9 24 1 26 5 28
REMARK Flexibility Score: inf
ROOT
ATOM      1  C   UNL     1     -17.772  44.614  -7.532  1.00  0.00     0.402 A 
ATOM      2  O   UNL     1     -18.491  45.418  -6.753  1.00  0.00    -0.202 OA
ATOM      3  C   UNL     1     -17.952  46.251  -5.869  1.00  0.00     0.368 A 
ATOM      4  C   UNL     1     -18.790  47.055  -5.092  1.00  0.00     0.162 A 
ATOM      5  C   UNL     1     -18.253  47.937  -4.154  1.00  0.00     0.128 A 
ATOM      6  C   UNL     1     -16.865  48.017  -3.989  1.00  0.00     0.093 A 
ATOM      7  C   UNL     1     -16.003  47.221  -4.754  1.00  0.00     0.136 A 
ATOM      8  C   UNL     1     -16.547  46.326  -5.712  1.00  0.00     0.125 A 
ATOM      9  C   UNL     1     -15.759  45.501  -6.531  1.00  0.00     0.078 A 
ATOM     10  C   UNL     1     -16.368  44.646  -7.455  1.00  0.00     0.223 A 
ENDROOT
BRANCH   1  11
ATOM     11  C   UNL     1     -18.491  43.723  -8.470  1.00  0.00     0.091 A 
ATOM     12  C   UNL     1     -18.289  42.332  -8.458  1.00  0.00     0.068 A 
ATOM     13  C   UNL     1     -18.996  41.503  -9.340  1.00  0.00     0.162 A 
ATOM     14  C   UNL     1     -19.435  44.268  -9.353  1.00  0.00     0.068 A 
ATOM     15  C   UNL     1     -19.923  42.060 -10.237  1.00  0.00     0.200 A 
ATOM     16  C   UNL     1     -20.143  43.448 -10.238  1.00  0.00     0.162 A 
BRANCH  13  17
ATOM     17  O   UNL     1     -18.782  40.124  -9.325  1.00  0.00    -0.504 OA
ATOM     18  H   UNL     1     -18.154  39.692  -8.658  1.00  0.00     0.293 HD
ENDBRANCH  13  17
BRANCH  15  19
ATOM     19  O   UNL     1     -20.631  41.249 -11.125  1.00  0.00    -0.502 OA
ATOM     20  H   UNL     1     -21.050  40.372 -10.839  1.00  0.00     0.293 HD
ENDBRANCH  15  19
BRANCH  16  21
ATOM     21  O   UNL     1     -21.062  44.030 -11.110  1.00  0.00    -0.504 OA
ATOM     22  H   UNL     1     -21.057  43.840 -12.105  1.00  0.00     0.293 HD
ENDBRANCH  16  21
ENDBRANCH   1  11
BRANCH  10  23
ATOM     23  O   UNL     1     -15.585  43.863  -8.304  1.00  0.00    -0.500 OA
ATOM     24  H   UNL     1     -15.806  42.891  -8.488  1.00  0.00     0.294 HD
ENDBRANCH  10  23
BRANCH   5  25
ATOM     25  O   UNL     1     -19.106  48.730  -3.391  1.00  0.00    -0.507 OA
ATOM     26  H   UNL     1     -19.540  49.562  -3.775  1.00  0.00     0.293 HD
ENDBRANCH   5  25
BRANCH   7  27
ATOM     27  O   UNL     1     -14.630  47.357  -4.527  1.00  0.00    -0.507 OA
ATOM     28  H   UNL     1     -14.193  48.192  -4.166  1.00  0.00     0.293 HD
ENDBRANCH   7  27
TORSDOF 7
ENDMDL
MODEL 7
REMARK VINA RESULT:    -2.248      2.100      7.388
REMARK INTER + INTRA:          -2.971
REMARK INTER:                  -3.199
REMARK INTRA:                   0.228
REMARK UNBOUND:                -0.197
REMARK SMILES Oc1cc(O)c2cc(O)c(-c3cc(O)c(O)c(O)c3)[o+]c2c1.[Cl-]
REMARK SMILES IDX 10 1 20 2 21 3 22 4 2 5 3 6 4 7 6 8 7 9 8 10 11 11 12 12
REMARK SMILES IDX 13 13 19 14 15 15 17 16 14 17 16 19 18 21 9 23 1 25 5 27
REMARK H PARENT 14 18 16 20 18 22 9 24 1 26 5 28
REMARK Flexibility Score: inf
ROOT
ATOM      1  C   UNL     1     -18.714  44.883  -7.311  1.00  0.00     0.402 A 
ATOM      2  O   UNL     1     -17.469  44.882  -6.841  1.00  0.00    -0.202 OA
ATOM      3  C   UNL     1     -17.023  45.767  -5.955  1.00  0.00     0.368 A 
ATOM      4  C   UNL     1     -15.697  45.688  -5.524  1.00  0.00     0.162 A 
ATOM      5  C   UNL     1     -15.200  46.605  -4.596  1.00  0.00     0.128 A 
ATOM      6  C   UNL     1     -16.035  47.610  -4.096  1.00  0.00     0.093 A 
ATOM      7  C   UNL     1     -17.368  47.712  -4.513  1.00  0.00     0.136 A 
ATOM      8  C   UNL     1     -17.877  46.779  -5.454  1.00  0.00     0.125 A 
ATOM      9  C   UNL     1     -19.202  46.796  -5.918  1.00  0.00     0.078 A 
ATOM     10  C   UNL     1     -19.632  45.840  -6.843  1.00  0.00     0.223 A 
ENDROOT
BRANCH   1  11
ATOM     11  C   UNL     1     -19.087  43.850  -8.304  1.00  0.00     0.091 A 
ATOM     12  C   UNL     1     -18.503  42.572  -8.285  1.00  0.00     0.068 A 
ATOM     13  C   UNL     1     -18.886  41.600  -9.220  1.00  0.00     0.162 A 
ATOM     14  C   UNL     1     -20.083  44.132  -9.251  1.00  0.00     0.068 A 
ATOM     15  C   UNL     1     -19.869  41.898 -10.180  1.00  0.00     0.200 A 
ATOM     16  C   UNL     1     -20.469  43.169 -10.189  1.00  0.00     0.162 A 
BRANCH  13  17
ATOM     17  O   UNL     1     -18.295  40.337  -9.197  1.00  0.00    -0.504 OA
ATOM     18  H   UNL     1     -17.719  40.006  -9.962  1.00  0.00     0.293 HD
ENDBRANCH  13  17
BRANCH  15  19
ATOM     19  O   UNL     1     -20.257  40.945 -11.121  1.00  0.00    -0.502 OA
ATOM     20  H   UNL     1     -19.999  39.969 -11.039  1.00  0.00     0.293 HD
ENDBRANCH  15  19
BRANCH  16  21
ATOM     21  O   UNL     1     -21.453  43.493 -11.123  1.00  0.00    -0.504 OA
ATOM     22  H   UNL     1     -21.812  44.434 -11.223  1.00  0.00     0.293 HD
ENDBRANCH  16  21
ENDBRANCH   1  11
BRANCH  10  23
ATOM     23  O   UNL     1     -20.961  45.825  -7.267  1.00  0.00    -0.500 OA
ATOM     24  H   UNL     1     -21.632  45.160  -6.898  1.00  0.00     0.294 HD
ENDBRANCH  10  23
BRANCH   5  25
ATOM     25  O   UNL     1     -13.875  46.508  -4.178  1.00  0.00    -0.507 OA
ATOM     26  H   UNL     1     -13.121  46.351  -4.838  1.00  0.00     0.293 HD
ENDBRANCH   5  25
BRANCH   7  27
ATOM     27  O   UNL     1     -18.136  48.746  -3.969  1.00  0.00    -0.507 OA
ATOM     28  H   UNL     1     -18.425  49.569  -4.478  1.00  0.00     0.293 HD
ENDBRANCH   7  27
TORSDOF 7
ENDMDL
MODEL 8
REMARK VINA RESULT:    -1.840      3.030      4.382
REMARK INTER + INTRA:          -2.468
REMARK INTER:                  -2.141
REMARK INTRA:                  -0.327
REMARK UNBOUND:                -0.197
REMARK SMILES Oc1cc(O)c2cc(O)c(-c3cc(O)c(O)c(O)c3)[o+]c2c1.[Cl-]
REMARK SMILES IDX 10 1 20 2 21 3 22 4 2 5 3 6 4 7 6 8 7 9 8 10 11 11 12 12
REMARK SMILES IDX 13 13 19 14 15 15 17 16 14 17 16 19 18 21 9 23 1 25 5 27
REMARK H PARENT 14 18 16 20 18 22 9 24 1 26 5 28
REMARK Flexibility Score: inf
ROOT
ATOM      1  C   UNL     1     -17.387  46.181  -7.673  1.00  0.00     0.402 A 
ATOM      2  O   UNL     1     -18.680  46.102  -7.975  1.00  0.00    -0.202 OA
ATOM      3  C   UNL     1     -19.553  45.396  -7.264  1.00  0.00     0.368 A 
ATOM      4  C   UNL     1     -20.892  45.371  -7.662  1.00  0.00     0.162 A 
ATOM      5  C   UNL     1     -21.831  44.637  -6.937  1.00  0.00     0.128 A 
ATOM      6  C   UNL     1     -21.430  43.920  -5.804  1.00  0.00     0.093 A 
ATOM      7  C   UNL     1     -20.093  43.928  -5.384  1.00  0.00     0.136 A 
ATOM      8  C   UNL     1     -19.137  44.677  -6.118  1.00  0.00     0.125 A 
ATOM      9  C   UNL     1     -17.780  44.753  -5.764  1.00  0.00     0.078 A 
ATOM     10  C   UNL     1     -16.897  45.516  -6.534  1.00  0.00     0.223 A 
ENDROOT
BRANCH   1  11
ATOM     11  C   UNL     1     -16.512  46.992  -8.550  1.00  0.00     0.091 A 
ATOM     12  C   UNL     1     -15.593  46.389  -9.426  1.00  0.00     0.068 A 
ATOM     13  C   UNL     1     -14.789  47.174 -10.264  1.00  0.00     0.162 A 
ATOM     14  C   UNL     1     -16.640  48.390  -8.550  1.00  0.00     0.068 A 
ATOM     15  C   UNL     1     -14.907  48.574 -10.241  1.00  0.00     0.200 A 
ATOM     16  C   UNL     1     -15.840  49.180  -9.382  1.00  0.00     0.162 A 
BRANCH  13  17
ATOM     17  O   UNL     1     -13.875  46.566 -11.125  1.00  0.00    -0.504 OA
ATOM     18  H   UNL     1     -14.020  46.549 -12.128  1.00  0.00     0.293 HD
ENDBRANCH  13  17
BRANCH  15  19
ATOM     19  O   UNL     1     -14.111  49.370 -11.065  1.00  0.00    -0.502 OA
ATOM     20  H   UNL     1     -13.837  49.078 -11.996  1.00  0.00     0.293 HD
ENDBRANCH  15  19
BRANCH  16  21
ATOM     21  O   UNL     1     -15.987  50.566  -9.341  1.00  0.00    -0.504 OA
ATOM     22  H   UNL     1     -15.265  51.195  -9.674  1.00  0.00     0.293 HD
ENDBRANCH  16  21
ENDBRANCH   1  11
BRANCH  10  23
ATOM     23  O   UNL     1     -15.560  45.633  -6.155  1.00  0.00    -0.500 OA
ATOM     24  H   UNL     1     -15.288  46.092  -5.293  1.00  0.00     0.294 HD
ENDBRANCH  10  23
BRANCH   5  25
ATOM     25  O   UNL     1     -23.161  44.625  -7.349  1.00  0.00    -0.507 OA
ATOM     26  H   UNL     1     -23.798  45.377  -7.106  1.00  0.00     0.293 HD
ENDBRANCH   5  25
BRANCH   7  27
ATOM     27  O   UNL     1     -19.772  43.183  -4.245  1.00  0.00    -0.507 OA
ATOM     28  H   UNL     1     -19.428  43.580  -3.383  1.00  0.00     0.293 HD
ENDBRANCH   7  27
TORSDOF 7
ENDMDL
MODEL 9
REMARK VINA RESULT:    -1.471      3.147      5.866
REMARK INTER + INTRA:          -2.012
REMARK INTER:                  -1.689
REMARK INTRA:                  -0.323
REMARK UNBOUND:                -0.197
REMARK SMILES Oc1cc(O)c2cc(O)c(-c3cc(O)c(O)c(O)c3)[o+]c2c1.[Cl-]
REMARK SMILES IDX 10 1 20 2 21 3 22 4 2 5 3 6 4 7 6 8 7 9 8 10 11 11 12 12
REMARK SMILES IDX 13 13 19 14 15 15 17 16 14 17 16 19 18 21 9 23 1 25 5 27
REMARK H PARENT 14 18 16 20 18 22 9 24 1 26 5 28
REMARK Flexibility Score: inf
ROOT
ATOM      1  C   UNL     1     -17.792  45.553  -8.061  1.00  0.00     0.402 A 
ATOM      2  O   UNL     1     -17.722  46.878  -8.154  1.00  0.00    -0.202 OA
ATOM      3  C   UNL     1     -16.807  47.510  -8.882  1.00  0.00     0.368 A 
ATOM      4  C   UNL     1     -16.811  48.907  -8.916  1.00  0.00     0.162 A 
ATOM      5  C   UNL     1     -15.861  49.598  -9.669  1.00  0.00     0.128 A 
ATOM      6  C   UNL     1     -14.897  48.888 -10.395  1.00  0.00     0.093 A 
ATOM      7  C   UNL     1     -14.871  47.488 -10.377  1.00  0.00     0.136 A 
ATOM      8  C   UNL     1     -15.838  46.782  -9.614  1.00  0.00     0.125 A 
ATOM      9  C   UNL     1     -15.897  45.381  -9.549  1.00  0.00     0.078 A 
ATOM     10  C   UNL     1     -16.882  44.756  -8.778  1.00  0.00     0.223 A 
ENDROOT
BRANCH   1  11
ATOM     11  C   UNL     1     -18.852  44.967  -7.208  1.00  0.00     0.091 A 
ATOM     12  C   UNL     1     -18.549  44.362  -5.977  1.00  0.00     0.068 A 
ATOM     13  C   UNL     1     -19.568  43.833  -5.174  1.00  0.00     0.162 A 
ATOM     14  C   UNL     1     -20.193  45.066  -7.609  1.00  0.00     0.068 A 
ATOM     15  C   UNL     1     -20.907  43.916  -5.593  1.00  0.00     0.200 A 
ATOM     16  C   UNL     1     -21.216  44.539  -6.814  1.00  0.00     0.162 A 
BRANCH  13  17
ATOM     17  O   UNL     1     -19.256  43.228  -3.956  1.00  0.00    -0.504 OA
ATOM     18  H   UNL     1     -18.506  42.551  -3.877  1.00  0.00     0.293 HD
ENDBRANCH  13  17
BRANCH  15  19
ATOM     19  O   UNL     1     -21.933  43.389  -4.808  1.00  0.00    -0.502 OA
ATOM     20  H   UNL     1     -22.153  42.401  -4.799  1.00  0.00     0.293 HD
ENDBRANCH  15  19
BRANCH  16  21
ATOM     21  O   UNL     1     -22.535  44.644  -7.255  1.00  0.00    -0.504 OA
ATOM     22  H   UNL     1     -22.902  45.497  -7.660  1.00  0.00     0.293 HD
ENDBRANCH  16  21
ENDBRANCH   1  11
BRANCH  10  23
ATOM     23  O   UNL     1     -16.971  43.364  -8.753  1.00  0.00    -0.500 OA
ATOM     24  H   UNL     1     -16.456  42.784  -9.405  1.00  0.00     0.294 HD
ENDBRANCH  10  23
BRANCH   5  25
ATOM     25  O   UNL     1     -15.882  50.990  -9.690  1.00  0.00    -0.507 OA
ATOM     26  H   UNL     1     -16.724  51.503  -9.929  1.00  0.00     0.293 HD
ENDBRANCH   5  25
BRANCH   7  27
ATOM     27  O   UNL     1     -13.875  46.853 -11.125  1.00  0.00    -0.507 OA
ATOM     28  H   UNL     1     -14.037  46.372 -11.998  1.00  0.00     0.293 HD
ENDBRANCH   7  27
TORSDOF 7
ENDMDL
