MODEL 1
REMARK VINA RESULT:    -6.357      0.000      0.000
REMARK INTER + INTRA:          -7.899
REMARK INTER:                  -7.657
REMARK INTRA:                  -0.241
REMARK UNBOUND:                -0.241
REMARK SMILES O=c1c(O)c(-c2ccc(O)c(O)c2)oc2cc(O)cc(O)c12
REMARK SMILES IDX 5 1 3 2 2 3 1 4 22 5 20 6 19 7 17 8 16 9 15 10 14 11 6 12
REMARK SMILES IDX 7 13 8 14 9 15 13 16 11 17 10 18 12 20 4 22 21 24 18 26
REMARK H PARENT 10 19 12 21 4 23 21 25 18 27
REMARK Flexibility Score: inf
ROOT
ATOM      1  C   UNL     1       3.811  41.856  83.209  1.00  0.00     0.180 A 
ATOM      2  C   UNL     1       2.759  42.613  82.662  1.00  0.00     0.208 A 
ATOM      3  C   UNL     1       1.721  41.949  81.988  1.00  0.00     0.238 A 
ATOM      4  O   UNL     1       0.768  42.616  81.503  1.00  0.00    -0.285 OA
ATOM      5  C   UNL     1       1.765  40.545  81.856  1.00  0.00     0.111 A 
ATOM      6  C   UNL     1       0.762  39.800  81.190  1.00  0.00     0.134 A 
ATOM      7  C   UNL     1       0.882  38.406  81.093  1.00  0.00     0.093 A 
ATOM      8  C   UNL     1       1.980  37.744  81.646  1.00  0.00     0.123 A 
ATOM      9  C   UNL     1       2.973  38.475  82.306  1.00  0.00     0.094 A 
ATOM     10  C   UNL     1       2.872  39.865  82.415  1.00  0.00     0.146 A 
ATOM     11  O   UNL     1       3.825  40.534  83.052  1.00  0.00    -0.452 OA
ENDROOT
BRANCH   1  12
ATOM     12  C   UNL     1       4.930  42.482  83.949  1.00  0.00     0.025 A 
ATOM     13  C   UNL     1       4.975  42.382  85.349  1.00  0.00     0.016 A 
ATOM     14  C   UNL     1       6.010  42.983  86.068  1.00  0.00     0.051 A 
ATOM     15  C   UNL     1       7.007  43.707  85.402  1.00  0.00     0.157 A 
ATOM     16  C   UNL     1       5.921  43.227  83.284  1.00  0.00     0.062 A 
ATOM     17  C   UNL     1       6.959  43.832  84.002  1.00  0.00     0.158 A 
BRANCH  15  18
ATOM     18  O   UNL     1       8.041  44.304  86.122  1.00  0.00    -0.504 OA
ATOM     19  H   UNL     1       7.880  44.726  87.029  1.00  0.00     0.293 HD
ENDBRANCH  15  18
BRANCH  17  20
ATOM     20  O   UNL     1       7.928  44.557  83.311  1.00  0.00    -0.504 OA
ATOM     21  H   UNL     1       8.768  44.900  83.762  1.00  0.00     0.293 HD
ENDBRANCH  17  20
ENDBRANCH   1  12
BRANCH   2  22
ATOM     22  O   UNL     1       2.765  44.007  82.763  1.00  0.00    -0.502 OA
ATOM     23  H   UNL     1       2.514  44.491  83.617  1.00  0.00     0.293 HD
ENDBRANCH   2  22
BRANCH   6  24
ATOM     24  O   UNL     1      -0.347  40.431  80.624  1.00  0.00    -0.507 OA
ATOM     25  H   UNL     1      -0.344  41.421  80.407  1.00  0.00     0.293 HD
ENDBRANCH   6  24
BRANCH   8  26
ATOM     26  O   UNL     1       2.075  36.359  81.534  1.00  0.00    -0.508 OA
ATOM     27  H   UNL     1       1.581  35.850  80.811  1.00  0.00     0.293 HD
ENDBRANCH   8  26
TORSDOF 6
ENDMDL
MODEL 2
REMARK VINA RESULT:    -6.090      4.656      8.023
REMARK INTER + INTRA:          -7.577
REMARK INTER:                  -7.338
REMARK INTRA:                  -0.239
REMARK UNBOUND:                -0.241
REMARK SMILES O=c1c(O)c(-c2ccc(O)c(O)c2)oc2cc(O)cc(O)c12
REMARK SMILES IDX 5 1 3 2 2 3 1 4 22 5 20 6 19 7 17 8 16 9 15 10 14 11 6 12
REMARK SMILES IDX 7 13 8 14 9 15 13 16 11 17 10 18 12 20 4 22 21 24 18 26
REMARK H PARENT 10 19 12 21 4 23 21 25 18 27
REMARK Flexibility Score: inf
ROOT
ATOM      1  C   UNL     1      -0.137  45.264  80.722  1.00  0.00     0.180 A 
ATOM      2  C   UNL     1      -0.274  46.271  81.696  1.00  0.00     0.208 A 
ATOM      3  C   UNL     1       0.424  46.144  82.908  1.00  0.00     0.238 A 
ATOM      4  O   UNL     1       0.317  47.045  83.784  1.00  0.00    -0.285 OA
ATOM      5  C   UNL     1       1.227  45.006  83.132  1.00  0.00     0.111 A 
ATOM      6  C   UNL     1       1.959  44.800  84.327  1.00  0.00     0.134 A 
ATOM      7  C   UNL     1       2.729  43.637  84.478  1.00  0.00     0.093 A 
ATOM      8  C   UNL     1       2.781  42.679  83.462  1.00  0.00     0.123 A 
ATOM      9  C   UNL     1       2.060  42.878  82.280  1.00  0.00     0.094 A 
ATOM     10  C   UNL     1       1.288  44.031  82.110  1.00  0.00     0.146 A 
ATOM     11  O   UNL     1       0.618  44.198  80.976  1.00  0.00    -0.452 OA
ENDROOT
BRANCH   1  12
ATOM     12  C   UNL     1      -0.826  45.336  79.414  1.00  0.00     0.025 A 
ATOM     13  C   UNL     1      -1.836  44.409  79.113  1.00  0.00     0.016 A 
ATOM     14  C   UNL     1      -2.484  44.446  77.876  1.00  0.00     0.051 A 
ATOM     15  C   UNL     1      -2.121  45.398  76.915  1.00  0.00     0.157 A 
ATOM     16  C   UNL     1      -0.449  46.278  78.439  1.00  0.00     0.062 A 
ATOM     17  C   UNL     1      -1.095  46.316  77.198  1.00  0.00     0.158 A 
BRANCH  15  18
ATOM     18  O   UNL     1      -2.771  45.433  75.682  1.00  0.00    -0.504 OA
ATOM     19  H   UNL     1      -2.430  46.007  74.920  1.00  0.00     0.293 HD
ENDBRANCH  15  18
BRANCH  17  20
ATOM     20  O   UNL     1      -0.701  47.267  76.257  1.00  0.00    -0.504 OA
ATOM     21  H   UNL     1      -0.151  48.078  76.510  1.00  0.00     0.293 HD
ENDBRANCH  17  20
ENDBRANCH   1  12
BRANCH   2  22
ATOM     22  O   UNL     1      -1.115  47.363  81.469  1.00  0.00    -0.502 OA
ATOM     23  H   UNL     1      -2.115  47.260  81.337  1.00  0.00     0.293 HD
ENDBRANCH   2  22
BRANCH   6  24
ATOM     24  O   UNL     1       1.927  45.737  85.361  1.00  0.00    -0.507 OA
ATOM     25  H   UNL     1       2.601  46.491  85.417  1.00  0.00     0.293 HD
ENDBRANCH   6  24
BRANCH   8  26
ATOM     26  O   UNL     1       3.551  41.533  83.638  1.00  0.00    -0.508 OA
ATOM     27  H   UNL     1       4.321  41.311  83.018  1.00  0.00     0.293 HD
ENDBRANCH   8  26
TORSDOF 6
ENDMDL
MODEL 3
REMARK VINA RESULT:    -5.987      4.464      7.465
REMARK INTER + INTRA:          -7.454
REMARK INTER:                  -7.184
REMARK INTRA:                  -0.269
REMARK UNBOUND:                -0.241
REMARK SMILES O=c1c(O)c(-c2ccc(O)c(O)c2)oc2cc(O)cc(O)c12
REMARK SMILES IDX 5 1 3 2 2 3 1 4 22 5 20 6 19 7 17 8 16 9 15 10 14 11 6 12
REMARK SMILES IDX 7 13 8 14 9 15 13 16 11 17 10 18 12 20 4 22 21 24 18 26
REMARK H PARENT 10 19 12 21 4 23 21 25 18 27
REMARK Flexibility Score: inf
ROOT
ATOM      1  C   UNL     1      -0.107  44.583  80.462  1.00  0.00     0.180 A 
ATOM      2  C   UNL     1      -0.602  43.283  80.243  1.00  0.00     0.208 A 
ATOM      3  C   UNL     1      -0.028  42.210  80.945  1.00  0.00     0.238 A 
ATOM      4  O   UNL     1      -0.470  41.044  80.765  1.00  0.00    -0.285 OA
ATOM      5  C   UNL     1       1.040  42.452  81.833  1.00  0.00     0.111 A 
ATOM      6  C   UNL     1       1.675  41.427  82.575  1.00  0.00     0.134 A 
ATOM      7  C   UNL     1       2.738  41.748  83.434  1.00  0.00     0.093 A 
ATOM      8  C   UNL     1       3.177  43.067  83.564  1.00  0.00     0.123 A 
ATOM      9  C   UNL     1       2.552  44.084  82.834  1.00  0.00     0.094 A 
ATOM     10  C   UNL     1       1.491  43.786  81.975  1.00  0.00     0.146 A 
ATOM     11  O   UNL     1       0.912  44.770  81.298  1.00  0.00    -0.452 OA
ENDROOT
BRANCH   1  12
ATOM     12  C   UNL     1      -0.672  45.766  79.775  1.00  0.00     0.025 A 
ATOM     13  C   UNL     1      -1.562  46.605  80.463  1.00  0.00     0.016 A 
ATOM     14  C   UNL     1      -2.123  47.715  79.828  1.00  0.00     0.051 A 
ATOM     15  C   UNL     1      -1.817  47.994  78.490  1.00  0.00     0.157 A 
ATOM     16  C   UNL     1      -0.382  46.037  78.425  1.00  0.00     0.062 A 
ATOM     17  C   UNL     1      -0.944  47.147  77.784  1.00  0.00     0.158 A 
BRANCH  15  18
ATOM     18  O   UNL     1      -2.376  49.104  77.858  1.00  0.00    -0.504 OA
ATOM     19  H   UNL     1      -2.004  49.460  76.985  1.00  0.00     0.293 HD
ENDBRANCH  15  18
BRANCH  17  20
ATOM     20  O   UNL     1      -0.629  47.389  76.448  1.00  0.00    -0.504 OA
ATOM     21  H   UNL     1      -0.809  48.282  76.006  1.00  0.00     0.293 HD
ENDBRANCH  17  20
ENDBRANCH   1  12
BRANCH   2  22
ATOM     22  O   UNL     1      -1.627  43.064  79.320  1.00  0.00    -0.502 OA
ATOM     23  H   UNL     1      -2.605  43.182  79.556  1.00  0.00     0.293 HD
ENDBRANCH   2  22
BRANCH   6  24
ATOM     24  O   UNL     1       1.262  40.099  82.467  1.00  0.00    -0.507 OA
ATOM     25  H   UNL     1       1.156  39.645  81.566  1.00  0.00     0.293 HD
ENDBRANCH   6  24
BRANCH   8  26
ATOM     26  O   UNL     1       4.235  43.358  84.422  1.00  0.00    -0.508 OA
ATOM     27  H   UNL     1       5.198  43.217  84.142  1.00  0.00     0.293 HD
ENDBRANCH   8  26
TORSDOF 6
ENDMDL
MODEL 4
REMARK VINA RESULT:    -5.894      6.118      8.015
REMARK INTER + INTRA:          -7.341
REMARK INTER:                  -7.249
REMARK INTRA:                  -0.092
REMARK UNBOUND:                -0.241
REMARK SMILES O=c1c(O)c(-c2ccc(O)c(O)c2)oc2cc(O)cc(O)c12
REMARK SMILES IDX 5 1 3 2 2 3 1 4 22 5 20 6 19 7 17 8 16 9 15 10 14 11 6 12
REMARK SMILES IDX 7 13 8 14 9 15 13 16 11 17 10 18 12 20 4 22 21 24 18 26
REMARK H PARENT 10 19 12 21 4 23 21 25 18 27
REMARK Flexibility Score: inf
ROOT
ATOM      1  C   UNL     1      -0.427  47.186  82.611  1.00  0.00     0.180 A 
ATOM      2  C   UNL     1       0.312  46.005  82.815  1.00  0.00     0.208 A 
ATOM      3  C   UNL     1       0.337  45.035  81.801  1.00  0.00     0.238 A 
ATOM      4  O   UNL     1       1.003  43.978  81.969  1.00  0.00    -0.285 OA
ATOM      5  C   UNL     1      -0.390  45.252  80.612  1.00  0.00     0.111 A 
ATOM      6  C   UNL     1      -0.420  44.323  79.544  1.00  0.00     0.134 A 
ATOM      7  C   UNL     1      -1.175  44.609  78.396  1.00  0.00     0.093 A 
ATOM      8  C   UNL     1      -1.898  45.799  78.296  1.00  0.00     0.123 A 
ATOM      9  C   UNL     1      -1.872  46.720  79.348  1.00  0.00     0.094 A 
ATOM     10  C   UNL     1      -1.125  46.456  80.499  1.00  0.00     0.146 A 
ATOM     11  O   UNL     1      -1.112  47.349  81.481  1.00  0.00    -0.452 OA
ENDROOT
BRANCH   1  12
ATOM     12  C   UNL     1      -0.487  48.263  83.625  1.00  0.00     0.025 A 
ATOM     13  C   UNL     1      -0.005  49.542  83.304  1.00  0.00     0.016 A 
ATOM     14  C   UNL     1      -0.032  50.567  84.252  1.00  0.00     0.051 A 
ATOM     15  C   UNL     1      -0.526  50.326  85.540  1.00  0.00     0.157 A 
ATOM     16  C   UNL     1      -0.963  48.018  84.925  1.00  0.00     0.062 A 
ATOM     17  C   UNL     1      -0.991  49.042  85.879  1.00  0.00     0.158 A 
BRANCH  15  18
ATOM     18  O   UNL     1      -0.555  51.351  86.484  1.00  0.00    -0.504 OA
ATOM     19  H   UNL     1      -0.110  51.250  87.389  1.00  0.00     0.293 HD
ENDBRANCH  15  18
BRANCH  17  20
ATOM     20  O   UNL     1      -1.476  48.766  87.156  1.00  0.00    -0.504 OA
ATOM     21  H   UNL     1      -1.261  49.354  87.952  1.00  0.00     0.293 HD
ENDBRANCH  17  20
ENDBRANCH   1  12
BRANCH   2  22
ATOM     22  O   UNL     1       0.982  45.793  84.023  1.00  0.00    -0.502 OA
ATOM     23  H   UNL     1       0.545  45.333  84.813  1.00  0.00     0.293 HD
ENDBRANCH   2  22
BRANCH   6  24
ATOM     24  O   UNL     1       0.290  43.124  79.613  1.00  0.00    -0.507 OA
ATOM     25  H   UNL     1       0.805  42.763  78.818  1.00  0.00     0.293 HD
ENDBRANCH   6  24
BRANCH   8  26
ATOM     26  O   UNL     1      -2.641  46.057  77.146  1.00  0.00    -0.508 OA
ATOM     27  H   UNL     1      -2.719  45.375  76.402  1.00  0.00     0.293 HD
ENDBRANCH   8  26
TORSDOF 6
ENDMDL
MODEL 5
REMARK VINA RESULT:    -5.883      4.040      7.320
REMARK INTER + INTRA:          -7.328
REMARK INTER:                  -7.243
REMARK INTRA:                  -0.085
REMARK UNBOUND:                -0.241
REMARK SMILES O=c1c(O)c(-c2ccc(O)c(O)c2)oc2cc(O)cc(O)c12
REMARK SMILES IDX 5 1 3 2 2 3 1 4 22 5 20 6 19 7 17 8 16 9 15 10 14 11 6 12
REMARK SMILES IDX 7 13 8 14 9 15 13 16 11 17 10 18 12 20 4 22 21 24 18 26
REMARK H PARENT 10 19 12 21 4 23 21 25 18 27
REMARK Flexibility Score: inf
ROOT
ATOM      1  C   UNL     1       0.147  43.958  80.466  1.00  0.00     0.180 A 
ATOM      2  C   UNL     1       0.394  44.722  81.622  1.00  0.00     0.208 A 
ATOM      3  C   UNL     1       1.267  44.215  82.598  1.00  0.00     0.238 A 
ATOM      4  O   UNL     1       1.504  44.895  83.632  1.00  0.00    -0.285 OA
ATOM      5  C   UNL     1       1.860  42.949  82.410  1.00  0.00     0.111 A 
ATOM      6  C   UNL     1       2.748  42.365  83.347  1.00  0.00     0.134 A 
ATOM      7  C   UNL     1       3.290  41.097  83.092  1.00  0.00     0.093 A 
ATOM      8  C   UNL     1       2.964  40.402  81.925  1.00  0.00     0.123 A 
ATOM      9  C   UNL     1       2.087  40.974  80.997  1.00  0.00     0.094 A 
ATOM     10  C   UNL     1       1.538  42.238  81.231  1.00  0.00     0.146 A 
ATOM     11  O   UNL     1       0.713  42.761  80.331  1.00  0.00    -0.452 OA
ENDROOT
BRANCH   1  12
ATOM     12  C   UNL     1      -0.747  44.432  79.385  1.00  0.00     0.025 A 
ATOM     13  C   UNL     1      -1.789  43.606  78.937  1.00  0.00     0.016 A 
ATOM     14  C   UNL     1      -2.630  44.024  77.904  1.00  0.00     0.051 A 
ATOM     15  C   UNL     1      -2.433  45.268  77.291  1.00  0.00     0.157 A 
ATOM     16  C   UNL     1      -0.537  45.672  78.753  1.00  0.00     0.062 A 
ATOM     17  C   UNL     1      -1.378  46.094  77.716  1.00  0.00     0.158 A 
BRANCH  15  18
ATOM     18  O   UNL     1      -3.276  45.685  76.262  1.00  0.00    -0.504 OA
ATOM     19  H   UNL     1      -4.117  46.216  76.449  1.00  0.00     0.293 HD
ENDBRANCH  15  18
BRANCH  17  20
ATOM     20  O   UNL     1      -1.146  47.331  77.117  1.00  0.00    -0.504 OA
ATOM     21  H   UNL     1      -0.352  47.495  76.511  1.00  0.00     0.293 HD
ENDBRANCH  17  20
ENDBRANCH   1  12
BRANCH   2  22
ATOM     22  O   UNL     1      -0.246  45.950  81.806  1.00  0.00    -0.502 OA
ATOM     23  H   UNL     1       0.264  46.823  81.876  1.00  0.00     0.293 HD
ENDBRANCH   2  22
BRANCH   6  24
ATOM     24  O   UNL     1       3.093  43.032  84.523  1.00  0.00    -0.507 OA
ATOM     25  H   UNL     1       3.325  44.018  84.528  1.00  0.00     0.293 HD
ENDBRANCH   6  24
BRANCH   8  26
ATOM     26  O   UNL     1       3.515  39.144  81.697  1.00  0.00    -0.508 OA
ATOM     27  H   UNL     1       3.134  38.312  82.133  1.00  0.00     0.293 HD
ENDBRANCH   8  26
TORSDOF 6
ENDMDL
MODEL 6
REMARK VINA RESULT:    -5.870      2.244      4.140
REMARK INTER + INTRA:          -7.312
REMARK INTER:                  -6.987
REMARK INTRA:                  -0.325
REMARK UNBOUND:                -0.241
REMARK SMILES O=c1c(O)c(-c2ccc(O)c(O)c2)oc2cc(O)cc(O)c12
REMARK SMILES IDX 5 1 3 2 2 3 1 4 22 5 20 6 19 7 17 8 16 9 15 10 14 11 6 12
REMARK SMILES IDX 7 13 8 14 9 15 13 16 11 17 10 18 12 20 4 22 21 24 18 26
REMARK H PARENT 10 19 12 21 4 23 21 25 18 27
REMARK Flexibility Score: inf
ROOT
ATOM      1  C   UNL     1       2.659  42.918  82.716  1.00  0.00     0.180 A 
ATOM      2  C   UNL     1       2.164  41.687  82.244  1.00  0.00     0.208 A 
ATOM      3  C   UNL     1       1.047  41.685  81.394  1.00  0.00     0.238 A 
ATOM      4  O   UNL     1       0.601  40.590  80.957  1.00  0.00    -0.285 OA
ATOM      5  C   UNL     1       0.434  42.907  81.048  1.00  0.00     0.111 A 
ATOM      6  C   UNL     1      -0.697  42.992  80.200  1.00  0.00     0.134 A 
ATOM      7  C   UNL     1      -1.256  44.246  79.910  1.00  0.00     0.093 A 
ATOM      8  C   UNL     1      -0.708  45.412  80.449  1.00  0.00     0.123 A 
ATOM      9  C   UNL     1       0.409  45.335  81.286  1.00  0.00     0.094 A 
ATOM     10  C   UNL     1       0.981  44.095  81.586  1.00  0.00     0.146 A 
ATOM     11  O   UNL     1       2.045  44.050  82.379  1.00  0.00    -0.452 OA
ENDROOT
BRANCH   1  12
ATOM     12  C   UNL     1       3.844  43.003  83.600  1.00  0.00     0.025 A 
ATOM     13  C   UNL     1       3.675  42.923  84.991  1.00  0.00     0.016 A 
ATOM     14  C   UNL     1       4.775  43.023  85.844  1.00  0.00     0.051 A 
ATOM     15  C   UNL     1       6.060  43.220  85.322  1.00  0.00     0.157 A 
ATOM     16  C   UNL     1       5.132  43.221  83.079  1.00  0.00     0.062 A 
ATOM     17  C   UNL     1       6.237  43.324  83.931  1.00  0.00     0.158 A 
BRANCH  15  18
ATOM     18  O   UNL     1       7.158  43.316  86.176  1.00  0.00    -0.504 OA
ATOM     19  H   UNL     1       7.071  43.700  87.109  1.00  0.00     0.293 HD
ENDBRANCH  15  18
BRANCH  17  20
ATOM     20  O   UNL     1       7.501  43.533  83.381  1.00  0.00    -0.504 OA
ATOM     21  H   UNL     1       8.320  43.688  83.956  1.00  0.00     0.293 HD
ENDBRANCH  17  20
ENDBRANCH   1  12
BRANCH   2  22
ATOM     22  O   UNL     1       2.760  40.488  82.642  1.00  0.00    -0.502 OA
ATOM     23  H   UNL     1       2.883  40.240  83.617  1.00  0.00     0.293 HD
ENDBRANCH   2  22
BRANCH   6  24
ATOM     24  O   UNL     1      -1.269  41.845  79.647  1.00  0.00    -0.507 OA
ATOM     25  H   UNL     1      -1.441  41.015  80.201  1.00  0.00     0.293 HD
ENDBRANCH   6  24
BRANCH   8  26
ATOM     26  O   UNL     1      -1.283  46.644  80.146  1.00  0.00    -0.508 OA
ATOM     27  H   UNL     1      -1.243  47.033  79.211  1.00  0.00     0.293 HD
ENDBRANCH   8  26
TORSDOF 6
ENDMDL
MODEL 7
REMARK VINA RESULT:    -5.843      6.265     10.039
REMARK INTER + INTRA:          -7.280
REMARK INTER:                  -6.964
REMARK INTRA:                  -0.316
REMARK UNBOUND:                -0.241
REMARK SMILES O=c1c(O)c(-c2ccc(O)c(O)c2)oc2cc(O)cc(O)c12
REMARK SMILES IDX 5 1 3 2 2 3 1 4 22 5 20 6 19 7 17 8 16 9 15 10 14 11 6 12
REMARK SMILES IDX 7 13 8 14 9 15 13 16 11 17 10 18 12 20 4 22 21 24 18 26
REMARK H PARENT 10 19 12 21 4 23 21 25 18 27
REMARK Flexibility Score: inf
ROOT
ATOM      1  C   UNL     1      -1.011  46.424  80.445  1.00  0.00     0.180 A 
ATOM      2  C   UNL     1      -0.151  45.555  81.143  1.00  0.00     0.208 A 
ATOM      3  C   UNL     1       0.326  45.940  82.406  1.00  0.00     0.238 A 
ATOM      4  O   UNL     1       1.088  45.164  83.044  1.00  0.00    -0.285 OA
ATOM      5  C   UNL     1      -0.046  47.191  82.939  1.00  0.00     0.111 A 
ATOM      6  C   UNL     1       0.394  47.655  84.202  1.00  0.00     0.134 A 
ATOM      7  C   UNL     1      -0.014  48.918  84.659  1.00  0.00     0.093 A 
ATOM      8  C   UNL     1      -0.849  49.722  83.881  1.00  0.00     0.123 A 
ATOM      9  C   UNL     1      -1.288  49.268  82.632  1.00  0.00     0.094 A 
ATOM     10  C   UNL     1      -0.894  48.013  82.160  1.00  0.00     0.146 A 
ATOM     11  O   UNL     1      -1.328  47.604  80.974  1.00  0.00    -0.452 OA
ENDROOT
BRANCH   1  12
ATOM     12  C   UNL     1      -1.570  46.081  79.118  1.00  0.00     0.025 A 
ATOM     13  C   UNL     1      -2.723  45.285  79.039  1.00  0.00     0.016 A 
ATOM     14  C   UNL     1      -3.255  44.932  77.797  1.00  0.00     0.051 A 
ATOM     15  C   UNL     1      -2.635  45.356  76.615  1.00  0.00     0.157 A 
ATOM     16  C   UNL     1      -0.937  46.488  77.930  1.00  0.00     0.062 A 
ATOM     17  C   UNL     1      -1.467  46.135  76.683  1.00  0.00     0.158 A 
BRANCH  15  18
ATOM     18  O   UNL     1      -3.169  45.004  75.376  1.00  0.00    -0.504 OA
ATOM     19  H   UNL     1      -3.824  45.606  74.892  1.00  0.00     0.293 HD
ENDBRANCH  15  18
BRANCH  17  20
ATOM     20  O   UNL     1      -0.817  46.561  75.525  1.00  0.00    -0.504 OA
ATOM     21  H   UNL     1      -1.261  47.177  74.855  1.00  0.00     0.293 HD
ENDBRANCH  17  20
ENDBRANCH   1  12
BRANCH   2  22
ATOM     22  O   UNL     1       0.243  44.342  80.571  1.00  0.00    -0.502 OA
ATOM     23  H   UNL     1       1.001  44.279  79.901  1.00  0.00     0.293 HD
ENDBRANCH   2  22
BRANCH   6  24
ATOM     24  O   UNL     1       1.231  46.877  85.003  1.00  0.00    -0.507 OA
ATOM     25  H   UNL     1       1.441  45.912  84.775  1.00  0.00     0.293 HD
ENDBRANCH   6  24
BRANCH   8  26
ATOM     26  O   UNL     1      -1.238  50.972  84.358  1.00  0.00    -0.508 OA
ATOM     27  H   UNL     1      -1.697  51.648  83.759  1.00  0.00     0.293 HD
ENDBRANCH   8  26
TORSDOF 6
ENDMDL
MODEL 8
REMARK VINA RESULT:    -5.818      4.148      6.118
REMARK INTER + INTRA:          -7.250
REMARK INTER:                  -7.015
REMARK INTRA:                  -0.234
REMARK UNBOUND:                -0.241
REMARK SMILES O=c1c(O)c(-c2ccc(O)c(O)c2)oc2cc(O)cc(O)c12
REMARK SMILES IDX 5 1 3 2 2 3 1 4 22 5 20 6 19 7 17 8 16 9 15 10 14 11 6 12
REMARK SMILES IDX 7 13 8 14 9 15 13 16 11 17 10 18 12 20 4 22 21 24 18 26
REMARK H PARENT 10 19 12 21 4 23 21 25 18 27
REMARK Flexibility Score: inf
ROOT
ATOM      1  C   UNL     1       0.559  45.113  82.723  1.00  0.00     0.180 A 
ATOM      2  C   UNL     1      -0.173  44.382  81.769  1.00  0.00     0.208 A 
ATOM      3  C   UNL     1       0.290  43.113  81.383  1.00  0.00     0.238 A 
ATOM      4  O   UNL     1      -0.363  42.445  80.537  1.00  0.00    -0.285 OA
ATOM      5  C   UNL     1       1.484  42.610  81.940  1.00  0.00     0.111 A 
ATOM      6  C   UNL     1       2.020  41.343  81.602  1.00  0.00     0.134 A 
ATOM      7  C   UNL     1       3.219  40.916  82.194  1.00  0.00     0.093 A 
ATOM      8  C   UNL     1       3.889  41.727  83.113  1.00  0.00     0.123 A 
ATOM      9  C   UNL     1       3.363  42.978  83.451  1.00  0.00     0.094 A 
ATOM     10  C   UNL     1       2.170  43.421  82.873  1.00  0.00     0.146 A 
ATOM     11  O   UNL     1       1.689  44.611  83.216  1.00  0.00    -0.452 OA
ENDROOT
BRANCH   1  12
ATOM     12  C   UNL     1       0.126  46.448  83.194  1.00  0.00     0.025 A 
ATOM     13  C   UNL     1       0.267  47.559  82.348  1.00  0.00     0.016 A 
ATOM     14  C   UNL     1      -0.115  48.830  82.780  1.00  0.00     0.051 A 
ATOM     15  C   UNL     1      -0.631  49.014  84.069  1.00  0.00     0.157 A 
ATOM     16  C   UNL     1      -0.373  46.638  84.496  1.00  0.00     0.062 A 
ATOM     17  C   UNL     1      -0.756  47.912  84.933  1.00  0.00     0.158 A 
BRANCH  15  18
ATOM     18  O   UNL     1      -1.014  50.284  84.498  1.00  0.00    -0.504 OA
ATOM     19  H   UNL     1      -0.914  50.570  85.464  1.00  0.00     0.293 HD
ENDBRANCH  15  18
BRANCH  17  20
ATOM     20  O   UNL     1      -1.252  48.064  86.227  1.00  0.00    -0.504 OA
ATOM     21  H   UNL     1      -0.648  48.056  87.039  1.00  0.00     0.293 HD
ENDBRANCH  17  20
ENDBRANCH   1  12
BRANCH   2  22
ATOM     22  O   UNL     1      -1.325  44.925  81.195  1.00  0.00    -0.502 OA
ATOM     23  H   UNL     1      -2.221  44.453  81.223  1.00  0.00     0.293 HD
ENDBRANCH   2  22
BRANCH   6  24
ATOM     24  O   UNL     1       1.376  40.510  80.686  1.00  0.00    -0.507 OA
ATOM     25  H   UNL     1       0.367  40.420  80.665  1.00  0.00     0.293 HD
ENDBRANCH   6  24
BRANCH   8  26
ATOM     26  O   UNL     1       5.077  41.279  83.685  1.00  0.00    -0.508 OA
ATOM     27  H   UNL     1       5.852  40.961  83.115  1.00  0.00     0.293 HD
ENDBRANCH   8  26
TORSDOF 6
ENDMDL
MODEL 9
REMARK VINA RESULT:    -5.764      5.346      6.926
REMARK INTER + INTRA:          -7.185
REMARK INTER:                  -6.991
REMARK INTRA:                  -0.195
REMARK UNBOUND:                -0.241
REMARK SMILES O=c1c(O)c(-c2ccc(O)c(O)c2)oc2cc(O)cc(O)c12
REMARK SMILES IDX 5 1 3 2 2 3 1 4 22 5 20 6 19 7 17 8 16 9 15 10 14 11 6 12
REMARK SMILES IDX 7 13 8 14 9 15 13 16 11 17 10 18 12 20 4 22 21 24 18 26
REMARK H PARENT 10 19 12 21 4 23 21 25 18 27
REMARK Flexibility Score: inf
ROOT
ATOM      1  C   UNL     1      -0.217  46.647  82.838  1.00  0.00     0.180 A 
ATOM      2  C   UNL     1      -0.987  46.491  81.670  1.00  0.00     0.208 A 
ATOM      3  C   UNL     1      -0.832  45.325  80.904  1.00  0.00     0.238 A 
ATOM      4  O   UNL     1      -1.524  45.170  79.861  1.00  0.00    -0.285 OA
ATOM      5  C   UNL     1       0.101  44.347  81.306  1.00  0.00     0.111 A 
ATOM      6  C   UNL     1       0.320  43.146  80.588  1.00  0.00     0.134 A 
ATOM      7  C   UNL     1       1.274  42.226  81.049  1.00  0.00     0.093 A 
ATOM      8  C   UNL     1       2.011  42.482  82.207  1.00  0.00     0.123 A 
ATOM      9  C   UNL     1       1.798  43.666  82.920  1.00  0.00     0.094 A 
ATOM     10  C   UNL     1       0.851  44.595  82.479  1.00  0.00     0.146 A 
ATOM     11  O   UNL     1       0.665  45.709  83.178  1.00  0.00    -0.452 OA
ENDROOT
BRANCH   1  12
ATOM     12  C   UNL     1      -0.337  47.839  83.708  1.00  0.00     0.025 A 
ATOM     13  C   UNL     1       0.122  49.081  83.244  1.00  0.00     0.016 A 
ATOM     14  C   UNL     1       0.038  50.215  84.055  1.00  0.00     0.051 A 
ATOM     15  C   UNL     1      -0.491  50.120  85.349  1.00  0.00     0.157 A 
ATOM     16  C   UNL     1      -0.848  47.742  85.015  1.00  0.00     0.062 A 
ATOM     17  C   UNL     1      -0.932  48.876  85.832  1.00  0.00     0.158 A 
BRANCH  15  18
ATOM     18  O   UNL     1      -0.576  51.253  86.157  1.00  0.00    -0.504 OA
ATOM     19  H   UNL     1      -0.444  51.200  87.160  1.00  0.00     0.293 HD
ENDBRANCH  15  18
BRANCH  17  20
ATOM     20  O   UNL     1      -1.450  48.746  87.120  1.00  0.00    -0.504 OA
ATOM     21  H   UNL     1      -1.907  49.514  87.596  1.00  0.00     0.293 HD
ENDBRANCH  17  20
ENDBRANCH   1  12
BRANCH   2  22
ATOM     22  O   UNL     1      -1.868  47.498  81.267  1.00  0.00    -0.502 OA
ATOM     23  H   UNL     1      -2.646  47.320  80.642  1.00  0.00     0.293 HD
ENDBRANCH   2  22
BRANCH   6  24
ATOM     24  O   UNL     1      -0.397  42.862  79.426  1.00  0.00    -0.507 OA
ATOM     25  H   UNL     1      -0.258  42.000  78.911  1.00  0.00     0.293 HD
ENDBRANCH   6  24
BRANCH   8  26
ATOM     26  O   UNL     1       2.953  41.552  82.642  1.00  0.00    -0.508 OA
ATOM     27  H   UNL     1       3.608  41.769  83.384  1.00  0.00     0.293 HD
ENDBRANCH   8  26
TORSDOF 6
ENDMDL
