MODEL 1
REMARK VINA RESULT:    -7.967      0.000      0.000
REMARK INTER + INTRA:         -12.086
REMARK INTER:                 -10.529
REMARK INTRA:                  -1.557
REMARK UNBOUND:                -1.557
REMARK SMILES CC[C@H](C=C[C@H](C)[C@@H]1CC[C@@H]2C3=CC[C@@H]4C[C@H](O)CC[C@]4(C)[C@H]3CC[C@@]21C)C(C)C
REMARK SMILES IDX 6 1 7 2 5 3 4 4 3 5 2 6 1 7 28 8 29 9 30 10 8 11 9 12 26 13
REMARK SMILES IDX 10 14 11 15 25 16 27 17 12 18 24 19 23 20 13 21 21 22 14 23
REMARK SMILES IDX 15 24 20 25 22 26 16 27 19 28 17 29 18 30
REMARK H PARENT 18 31
REMARK Flexibility Score: inf
ROOT
ATOM      1  C   UNL     1     135.488 128.212 135.130  1.00  0.00     0.012 C 
ATOM      2  C   UNL     1     135.588 127.879 133.635  1.00  0.00     0.012 C 
ENDROOT
BRANCH   1   3
ATOM      3  C   UNL     1     136.753 127.704 135.801  1.00  0.00    -0.028 C 
ATOM      4  C   UNL     1     136.866 126.571 136.524  1.00  0.00    -0.027 C 
BRANCH   4   5
ATOM      5  C   UNL     1     135.747 125.566 136.769  1.00  0.00     0.014 C 
BRANCH   5   6
ATOM      6  C   UNL     1     136.115 124.127 136.303  1.00  0.00     0.004 C 
ATOM      7  C   UNL     1     136.902 124.047 134.988  1.00  0.00     0.004 C 
ENDBRANCH   5   6
BRANCH   5   8
ATOM      8  C   UNL     1     135.198 125.612 138.231  1.00  0.00    -0.011 C 
ATOM      9  C   UNL     1     136.046 126.448 139.203  1.00  0.00     0.008 C 
ATOM     10  C   UNL     1     133.732 126.075 138.267  1.00  0.00     0.008 C 
ENDBRANCH   5   8
ENDBRANCH   4   5
ENDBRANCH   1   3
BRANCH   1  11
ATOM     11  C   UNL     1     135.336 129.745 135.399  1.00  0.00     0.002 C 
ATOM     12  C   UNL     1     136.700 130.441 135.479  1.00  0.00     0.005 C 
ATOM     13  C   UNL     1     134.582 130.200 136.691  1.00  0.00    -0.023 C 
ATOM     14  C   UNL     1     136.511 131.693 136.321  1.00  0.00     0.009 C 
ATOM     15  C   UNL     1     135.084 131.652 136.888  1.00  0.00     0.021 C 
ATOM     16  C   UNL     1     134.970 129.338 137.924  1.00  0.00     0.008 C 
ATOM     17  C   UNL     1     133.044 130.210 136.469  1.00  0.00     0.012 C 
ATOM     18  C   UNL     1     135.050 132.184 138.317  1.00  0.00    -0.067 C 
ATOM     19  C   UNL     1     134.344 129.870 139.212  1.00  0.00     0.009 C 
ATOM     20  C   UNL     1     134.789 131.316 139.543  1.00  0.00     0.021 C 
ATOM     21  C   UNL     1     135.391 133.467 138.533  1.00  0.00    -0.027 C 
ATOM     22  C   UNL     1     133.854 132.071 140.578  1.00  0.00    -0.023 C 
ATOM     23  C   UNL     1     135.562 133.969 139.936  1.00  0.00     0.031 C 
ATOM     24  C   UNL     1     134.347 133.573 140.800  1.00  0.00     0.002 C 
ATOM     25  C   UNL     1     133.870 131.281 141.924  1.00  0.00     0.010 C 
ATOM     26  C   UNL     1     132.390 132.125 140.053  1.00  0.00     0.012 C 
ATOM     27  C   UNL     1     134.633 133.917 142.276  1.00  0.00     0.036 C 
ATOM     28  C   UNL     1     133.145 132.001 143.076  1.00  0.00     0.032 C 
ATOM     29  C   UNL     1     133.450 133.516 143.163  1.00  0.00     0.114 C 
BRANCH  29  30
ATOM     30  O   UNL     1     133.729 133.879 144.489  1.00  0.00    -0.393 OA
ATOM     31  H   UNL     1     133.332 133.177 145.068  1.00  0.00     0.210 HD
ENDBRANCH  29  30
ENDBRANCH   1  11
TORSDOF 6
ENDMDL
MODEL 2
REMARK VINA RESULT:    -7.491      3.026      8.352
REMARK INTER + INTRA:         -11.457
REMARK INTER:                 -10.076
REMARK INTRA:                  -1.380
REMARK UNBOUND:                -1.557
REMARK SMILES CC[C@H](C=C[C@H](C)[C@@H]1CC[C@@H]2C3=CC[C@@H]4C[C@H](O)CC[C@]4(C)[C@H]3CC[C@@]21C)C(C)C
REMARK SMILES IDX 6 1 7 2 5 3 4 4 3 5 2 6 1 7 28 8 29 9 30 10 8 11 9 12 26 13
REMARK SMILES IDX 10 14 11 15 25 16 27 17 12 18 24 19 23 20 13 21 21 22 14 23
REMARK SMILES IDX 15 24 20 25 22 26 16 27 19 28 17 29 18 30
REMARK H PARENT 18 31
REMARK Flexibility Score: inf
ROOT
ATOM      1  C   UNL     1     133.486 130.455 143.004  1.00  0.00     0.012 C 
ATOM      2  C   UNL     1     133.138 130.462 144.498  1.00  0.00     0.012 C 
ENDROOT
BRANCH   1   3
ATOM      3  C   UNL     1     134.860 131.087 142.849  1.00  0.00    -0.028 C 
ATOM      4  C   UNL     1     135.111 132.341 142.422  1.00  0.00    -0.027 C 
BRANCH   4   5
ATOM      5  C   UNL     1     134.054 133.375 142.052  1.00  0.00     0.014 C 
BRANCH   5   6
ATOM      6  C   UNL     1     133.951 134.530 143.089  1.00  0.00     0.004 C 
ATOM      7  C   UNL     1     133.198 134.184 144.381  1.00  0.00     0.004 C 
ENDBRANCH   5   6
BRANCH   5   8
ATOM      8  C   UNL     1     134.192 133.885 140.582  1.00  0.00    -0.011 C 
ATOM      9  C   UNL     1     135.626 133.855 140.029  1.00  0.00     0.008 C 
ATOM     10  C   UNL     1     133.238 133.138 139.635  1.00  0.00     0.008 C 
ENDBRANCH   5   8
ENDBRANCH   4   5
ENDBRANCH   1   3
BRANCH   1  11
ATOM     11  C   UNL     1     133.504 129.015 142.393  1.00  0.00     0.002 C 
ATOM     12  C   UNL     1     134.783 128.258 142.772  1.00  0.00     0.005 C 
ATOM     13  C   UNL     1     133.399 128.867 140.841  1.00  0.00    -0.023 C 
ATOM     14  C   UNL     1     135.009 127.205 141.698  1.00  0.00     0.009 C 
ATOM     15  C   UNL     1     133.972 127.449 140.593  1.00  0.00     0.021 C 
ATOM     16  C   UNL     1     134.266 129.921 140.097  1.00  0.00     0.008 C 
ATOM     17  C   UNL     1     131.920 128.917 140.370  1.00  0.00     0.012 C 
ATOM     18  C   UNL     1     134.577 127.203 139.214  1.00  0.00    -0.067 C 
ATOM     19  C   UNL     1     134.277 129.688 138.587  1.00  0.00     0.009 C 
ATOM     20  C   UNL     1     134.856 128.305 138.198  1.00  0.00     0.021 C 
ATOM     21  C   UNL     1     135.009 125.965 138.914  1.00  0.00    -0.027 C 
ATOM     22  C   UNL     1     134.485 127.825 136.732  1.00  0.00    -0.023 C 
ATOM     23  C   UNL     1     135.786 125.731 137.652  1.00  0.00     0.031 C 
ATOM     24  C   UNL     1     135.060 126.364 136.448  1.00  0.00     0.002 C 
ATOM     25  C   UNL     1     135.066 128.855 135.714  1.00  0.00     0.010 C 
ATOM     26  C   UNL     1     132.940 127.770 136.551  1.00  0.00     0.012 C 
ATOM     27  C   UNL     1     135.970 126.291 135.204  1.00  0.00     0.036 C 
ATOM     28  C   UNL     1     134.934 128.419 134.243  1.00  0.00     0.032 C 
ATOM     29  C   UNL     1     135.282 126.932 133.994  1.00  0.00     0.114 C 
BRANCH  29  30
ATOM     30  O   UNL     1     136.121 126.811 132.875  1.00  0.00    -0.393 OA
ATOM     31  H   UNL     1     136.357 125.849 132.798  1.00  0.00     0.210 HD
ENDBRANCH  29  30
ENDBRANCH   1  11
TORSDOF 6
ENDMDL
MODEL 3
REMARK VINA RESULT:    -7.428      2.931      4.951
REMARK INTER + INTRA:         -11.374
REMARK INTER:                  -9.840
REMARK INTRA:                  -1.534
REMARK UNBOUND:                -1.557
REMARK SMILES CC[C@H](C=C[C@H](C)[C@@H]1CC[C@@H]2C3=CC[C@@H]4C[C@H](O)CC[C@]4(C)[C@H]3CC[C@@]21C)C(C)C
REMARK SMILES IDX 6 1 7 2 5 3 4 4 3 5 2 6 1 7 28 8 29 9 30 10 8 11 9 12 26 13
REMARK SMILES IDX 10 14 11 15 25 16 27 17 12 18 24 19 23 20 13 21 21 22 14 23
REMARK SMILES IDX 15 24 20 25 22 26 16 27 19 28 17 29 18 30
REMARK H PARENT 18 31
REMARK Flexibility Score: inf
ROOT
ATOM      1  C   UNL     1     133.629 130.686 136.115  1.00  0.00     0.012 C 
ATOM      2  C   UNL     1     132.755 131.649 135.300  1.00  0.00     0.012 C 
ENDROOT
BRANCH   1   3
ATOM      3  C   UNL     1     135.062 130.850 135.638  1.00  0.00    -0.028 C 
ATOM      4  C   UNL     1     135.902 129.852 135.295  1.00  0.00    -0.027 C 
BRANCH   4   5
ATOM      5  C   UNL     1     135.552 128.369 135.284  1.00  0.00     0.014 C 
BRANCH   5   6
ATOM      6  C   UNL     1     134.810 127.933 133.988  1.00  0.00     0.004 C 
ATOM      7  C   UNL     1     135.707 127.363 132.882  1.00  0.00     0.004 C 
ENDBRANCH   5   6
BRANCH   5   8
ATOM      8  C   UNL     1     136.771 127.454 135.627  1.00  0.00    -0.011 C 
ATOM      9  C   UNL     1     137.842 128.123 136.503  1.00  0.00     0.008 C 
ATOM     10  C   UNL     1     136.319 126.126 136.257  1.00  0.00     0.008 C 
ENDBRANCH   5   8
ENDBRANCH   4   5
ENDBRANCH   1   3
BRANCH   1  11
ATOM     11  C   UNL     1     133.558 130.960 137.653  1.00  0.00     0.002 C 
ATOM     12  C   UNL     1     134.778 131.751 138.142  1.00  0.00     0.005 C 
ATOM     13  C   UNL     1     133.465 129.735 138.620  1.00  0.00    -0.023 C 
ATOM     14  C   UNL     1     134.948 131.435 139.620  1.00  0.00     0.009 C 
ATOM     15  C   UNL     1     133.944 130.327 139.969  1.00  0.00     0.021 C 
ATOM     16  C   UNL     1     134.410 128.580 138.188  1.00  0.00     0.008 C 
ATOM     17  C   UNL     1     131.999 129.242 138.764  1.00  0.00     0.012 C 
ATOM     18  C   UNL     1     134.550 129.336 140.958  1.00  0.00    -0.067 C 
ATOM     19  C   UNL     1     134.426 127.443 139.208  1.00  0.00     0.009 C 
ATOM     20  C   UNL     1     134.917 127.898 140.606  1.00  0.00     0.021 C 
ATOM     21  C   UNL     1     134.902 129.779 142.178  1.00  0.00    -0.027 C 
ATOM     22  C   UNL     1     134.534 126.913 141.789  1.00  0.00    -0.023 C 
ATOM     23  C   UNL     1     135.679 128.887 143.101  1.00  0.00     0.031 C 
ATOM     24  C   UNL     1     135.014 127.499 143.195  1.00  0.00     0.002 C 
ATOM     25  C   UNL     1     135.197 125.529 141.513  1.00  0.00     0.010 C 
ATOM     26  C   UNL     1     132.992 126.718 141.859  1.00  0.00     0.012 C 
ATOM     27  C   UNL     1     135.933 126.541 143.980  1.00  0.00     0.036 C 
ATOM     28  C   UNL     1     135.056 124.528 142.675  1.00  0.00     0.032 C 
ATOM     29  C   UNL     1     135.307 125.146 144.071  1.00  0.00     0.114 C 
BRANCH  29  30
ATOM     30  O   UNL     1     136.150 124.315 144.825  1.00  0.00    -0.393 OA
ATOM     31  H   UNL     1     135.712 124.188 145.707  1.00  0.00     0.210 HD
ENDBRANCH  29  30
ENDBRANCH   1  11
TORSDOF 6
ENDMDL
MODEL 4
REMARK VINA RESULT:    -7.193      2.632      4.960
REMARK INTER + INTRA:         -11.062
REMARK INTER:                  -9.207
REMARK INTRA:                  -1.856
REMARK UNBOUND:                -1.557
REMARK SMILES CC[C@H](C=C[C@H](C)[C@@H]1CC[C@@H]2C3=CC[C@@H]4C[C@H](O)CC[C@]4(C)[C@H]3CC[C@@]21C)C(C)C
REMARK SMILES IDX 6 1 7 2 5 3 4 4 3 5 2 6 1 7 28 8 29 9 30 10 8 11 9 12 26 13
REMARK SMILES IDX 10 14 11 15 25 16 27 17 12 18 24 19 23 20 13 21 21 22 14 23
REMARK SMILES IDX 15 24 20 25 22 26 16 27 19 28 17 29 18 30
REMARK H PARENT 18 31
REMARK Flexibility Score: inf
ROOT
ATOM      1  C   UNL     1     131.704 130.906 136.749  1.00  0.00     0.012 C 
ATOM      2  C   UNL     1     130.267 130.893 136.211  1.00  0.00     0.012 C 
ENDROOT
BRANCH   1   3
ATOM      3  C   UNL     1     132.544 131.744 135.799  1.00  0.00    -0.028 C 
ATOM      4  C   UNL     1     133.840 131.533 135.491  1.00  0.00    -0.027 C 
BRANCH   4   5
ATOM      5  C   UNL     1     134.694 130.384 136.012  1.00  0.00     0.014 C 
BRANCH   5   6
ATOM      6  C   UNL     1     134.629 129.123 135.103  1.00  0.00     0.004 C 
ATOM      7  C   UNL     1     134.536 127.785 135.848  1.00  0.00     0.004 C 
ENDBRANCH   5   6
BRANCH   5   8
ATOM      8  C   UNL     1     136.157 130.819 136.349  1.00  0.00    -0.011 C 
ATOM      9  C   UNL     1     137.000 131.216 135.127  1.00  0.00     0.008 C 
ATOM     10  C   UNL     1     136.183 131.939 137.403  1.00  0.00     0.008 C 
ENDBRANCH   5   8
ENDBRANCH   4   5
ENDBRANCH   1   3
BRANCH   1  11
ATOM     11  C   UNL     1     131.805 131.498 138.193  1.00  0.00     0.002 C 
ATOM     12  C   UNL     1     132.766 132.692 138.247  1.00  0.00     0.005 C 
ATOM     13  C   UNL     1     132.274 130.557 139.350  1.00  0.00    -0.023 C 
ATOM     14  C   UNL     1     133.271 132.790 139.678  1.00  0.00     0.009 C 
ATOM     15  C   UNL     1     132.752 131.557 140.432  1.00  0.00     0.021 C 
ATOM     16  C   UNL     1     133.456 129.647 138.914  1.00  0.00     0.008 C 
ATOM     17  C   UNL     1     131.090 129.719 139.907  1.00  0.00     0.012 C 
ATOM     18  C   UNL     1     133.801 131.034 141.409  1.00  0.00    -0.067 C 
ATOM     19  C   UNL     1     134.007 128.830 140.082  1.00  0.00     0.009 C 
ATOM     20  C   UNL     1     134.549 129.717 141.232  1.00  0.00     0.021 C 
ATOM     21  C   UNL     1     134.188 131.830 142.422  1.00  0.00    -0.027 C 
ATOM     22  C   UNL     1     134.706 128.968 142.621  1.00  0.00    -0.023 C 
ATOM     23  C   UNL     1     135.352 131.433 143.280  1.00  0.00     0.031 C 
ATOM     24  C   UNL     1     135.197 129.975 143.759  1.00  0.00     0.002 C 
ATOM     25  C   UNL     1     135.726 127.802 142.440  1.00  0.00     0.010 C 
ATOM     26  C   UNL     1     133.344 128.368 143.075  1.00  0.00     0.012 C 
ATOM     27  C   UNL     1     136.493 129.525 144.463  1.00  0.00     0.036 C 
ATOM     28  C   UNL     1     136.110 127.101 143.756  1.00  0.00     0.032 C 
ATOM     29  C   UNL     1     136.375 128.071 144.932  1.00  0.00     0.114 C 
BRANCH  29  30
ATOM     30  O   UNL     1     137.554 127.710 145.602  1.00  0.00    -0.393 OA
ATOM     31  H   UNL     1     138.235 128.396 145.372  1.00  0.00     0.210 HD
ENDBRANCH  29  30
ENDBRANCH   1  11
TORSDOF 6
ENDMDL
MODEL 5
REMARK VINA RESULT:    -6.920      2.973      8.394
REMARK INTER + INTRA:         -10.703
REMARK INTER:                 -10.906
REMARK INTRA:                   0.203
REMARK UNBOUND:                -1.557
REMARK SMILES CC[C@H](C=C[C@H](C)[C@@H]1CC[C@@H]2C3=CC[C@@H]4C[C@H](O)CC[C@]4(C)[C@H]3CC[C@@]21C)C(C)C
REMARK SMILES IDX 6 1 7 2 5 3 4 4 3 5 2 6 1 7 28 8 29 9 30 10 8 11 9 12 26 13
REMARK SMILES IDX 10 14 11 15 25 16 27 17 12 18 24 19 23 20 13 21 21 22 14 23
REMARK SMILES IDX 15 24 20 25 22 26 16 27 19 28 17 29 18 30
REMARK H PARENT 18 31
REMARK Flexibility Score: inf
ROOT
ATOM      1  C   UNL     1     133.132 132.765 140.453  1.00  0.00     0.012 C 
ATOM      2  C   UNL     1     132.771 131.454 141.164  1.00  0.00     0.012 C 
ENDROOT
BRANCH   1   3
ATOM      3  C   UNL     1     134.445 133.259 141.039  1.00  0.00    -0.028 C 
ATOM      4  C   UNL     1     134.597 133.883 142.225  1.00  0.00    -0.027 C 
BRANCH   4   5
ATOM      5  C   UNL     1     133.480 134.172 143.220  1.00  0.00     0.014 C 
BRANCH   5   6
ATOM      6  C   UNL     1     133.274 133.021 144.247  1.00  0.00     0.004 C 
ATOM      7  C   UNL     1     134.360 131.938 144.242  1.00  0.00     0.004 C 
ENDBRANCH   5   6
BRANCH   5   8
ATOM      8  C   UNL     1     133.615 135.575 143.894  1.00  0.00    -0.011 C 
ATOM      9  C   UNL     1     132.332 136.081 144.573  1.00  0.00     0.008 C 
ATOM     10  C   UNL     1     134.793 135.614 144.882  1.00  0.00     0.008 C 
ENDBRANCH   5   8
ENDBRANCH   4   5
ENDBRANCH   1   3
BRANCH   1  11
ATOM     11  C   UNL     1     133.285 132.593 138.906  1.00  0.00     0.002 C 
ATOM     12  C   UNL     1     131.953 132.214 138.246  1.00  0.00     0.005 C 
ATOM     13  C   UNL     1     134.307 131.535 138.375  1.00  0.00    -0.023 C 
ATOM     14  C   UNL     1     132.290 131.486 136.954  1.00  0.00     0.009 C 
ATOM     15  C   UNL     1     133.810 131.275 136.931  1.00  0.00     0.021 C 
ATOM     16  C   UNL     1     134.255 130.216 139.195  1.00  0.00     0.008 C 
ATOM     17  C   UNL     1     135.746 132.117 138.331  1.00  0.00     0.012 C 
ATOM     18  C   UNL     1     134.163 129.914 136.337  1.00  0.00    -0.067 C 
ATOM     19  C   UNL     1     135.149 129.134 138.591  1.00  0.00     0.009 C 
ATOM     20  C   UNL     1     134.740 128.757 137.144  1.00  0.00     0.021 C 
ATOM     21  C   UNL     1     133.834 129.668 135.056  1.00  0.00    -0.027 C 
ATOM     22  C   UNL     1     135.865 128.001 136.319  1.00  0.00    -0.023 C 
ATOM     23  C   UNL     1     133.983 128.282 134.501  1.00  0.00     0.031 C 
ATOM     24  C   UNL     1     135.382 127.720 134.824  1.00  0.00     0.002 C 
ATOM     25  C   UNL     1     136.199 126.664 137.051  1.00  0.00     0.010 C 
ATOM     26  C   UNL     1     137.159 128.862 136.247  1.00  0.00     0.012 C 
ATOM     27  C   UNL     1     135.441 126.231 134.426  1.00  0.00     0.036 C 
ATOM     28  C   UNL     1     137.148 125.743 136.263  1.00  0.00     0.032 C 
ATOM     29  C   UNL     1     136.816 125.639 134.755  1.00  0.00     0.114 C 
BRANCH  29  30
ATOM     30  O   UNL     1     136.846 124.298 134.344  1.00  0.00    -0.393 OA
ATOM     31  H   UNL     1     137.600 123.868 134.826  1.00  0.00     0.210 HD
ENDBRANCH  29  30
ENDBRANCH   1  11
TORSDOF 6
ENDMDL
MODEL 6
REMARK VINA RESULT:    -6.658      3.065      8.460
REMARK INTER + INTRA:         -10.356
REMARK INTER:                 -10.836
REMARK INTRA:                   0.480
REMARK UNBOUND:                -1.557
REMARK SMILES CC[C@H](C=C[C@H](C)[C@@H]1CC[C@@H]2C3=CC[C@@H]4C[C@H](O)CC[C@]4(C)[C@H]3CC[C@@]21C)C(C)C
REMARK SMILES IDX 6 1 7 2 5 3 4 4 3 5 2 6 1 7 28 8 29 9 30 10 8 11 9 12 26 13
REMARK SMILES IDX 10 14 11 15 25 16 27 17 12 18 24 19 23 20 13 21 21 22 14 23
REMARK SMILES IDX 15 24 20 25 22 26 16 27 19 28 17 29 18 30
REMARK H PARENT 18 31
REMARK Flexibility Score: inf
ROOT
ATOM      1  C   UNL     1     133.934 130.046 143.603  1.00  0.00     0.012 C 
ATOM      2  C   UNL     1     135.271 130.768 143.387  1.00  0.00     0.012 C 
ENDROOT
BRANCH   1   3
ATOM      3  C   UNL     1     132.834 130.942 143.058  1.00  0.00    -0.028 C 
ATOM      4  C   UNL     1     132.899 132.283 142.922  1.00  0.00    -0.027 C 
BRANCH   4   5
ATOM      5  C   UNL     1     134.110 133.145 143.256  1.00  0.00     0.014 C 
BRANCH   5   6
ATOM      6  C   UNL     1     134.625 133.961 142.035  1.00  0.00     0.004 C 
ATOM      7  C   UNL     1     134.261 133.382 140.661  1.00  0.00     0.004 C 
ENDBRANCH   5   6
BRANCH   5   8
ATOM      8  C   UNL     1     133.898 134.023 144.531  1.00  0.00    -0.011 C 
ATOM      9  C   UNL     1     134.625 135.377 144.500  1.00  0.00     0.008 C 
ATOM     10  C   UNL     1     132.404 134.225 144.833  1.00  0.00     0.008 C 
ENDBRANCH   5   8
ENDBRANCH   4   5
ENDBRANCH   1   3
BRANCH   1  11
ATOM     11  C   UNL     1     133.874 128.656 142.889  1.00  0.00     0.002 C 
ATOM     12  C   UNL     1     135.158 127.850 143.116  1.00  0.00     0.005 C 
ATOM     13  C   UNL     1     133.655 128.627 141.341  1.00  0.00    -0.023 C 
ATOM     14  C   UNL     1     135.283 126.876 141.954  1.00  0.00     0.009 C 
ATOM     15  C   UNL     1     134.175 127.221 140.949  1.00  0.00     0.021 C 
ATOM     16  C   UNL     1     134.491 129.718 140.616  1.00  0.00     0.008 C 
ATOM     17  C   UNL     1     132.147 128.739 140.985  1.00  0.00     0.012 C 
ATOM     18  C   UNL     1     134.674 127.069 139.515  1.00  0.00    -0.067 C 
ATOM     19  C   UNL     1     134.388 129.599 139.096  1.00  0.00     0.009 C 
ATOM     20  C   UNL     1     134.906 128.238 138.565  1.00  0.00     0.021 C 
ATOM     21  C   UNL     1     135.054 125.849 139.094  1.00  0.00    -0.027 C 
ATOM     22  C   UNL     1     134.419 127.877 137.098  1.00  0.00    -0.023 C 
ATOM     23  C   UNL     1     135.733 125.696 137.765  1.00  0.00     0.031 C 
ATOM     24  C   UNL     1     134.938 126.431 136.666  1.00  0.00     0.002 C 
ATOM     25  C   UNL     1     134.950 128.970 136.120  1.00  0.00     0.010 C 
ATOM     26  C   UNL     1     132.864 127.864 137.028  1.00  0.00     0.012 C 
ATOM     27  C   UNL     1     135.754 126.435 135.358  1.00  0.00     0.036 C 
ATOM     28  C   UNL     1     134.703 128.647 134.634  1.00  0.00     0.032 C 
ATOM     29  C   UNL     1     134.997 127.177 134.252  1.00  0.00     0.114 C 
BRANCH  29  30
ATOM     30  O   UNL     1     135.750 127.125 133.068  1.00  0.00    -0.393 OA
ATOM     31  H   UNL     1     135.101 127.121 132.317  1.00  0.00     0.210 HD
ENDBRANCH  29  30
ENDBRANCH   1  11
TORSDOF 6
ENDMDL
MODEL 7
REMARK VINA RESULT:    -6.638      2.014      4.083
REMARK INTER + INTRA:         -10.330
REMARK INTER:                 -10.005
REMARK INTRA:                  -0.325
REMARK UNBOUND:                -1.557
REMARK SMILES CC[C@H](C=C[C@H](C)[C@@H]1CC[C@@H]2C3=CC[C@@H]4C[C@H](O)CC[C@]4(C)[C@H]3CC[C@@]21C)C(C)C
REMARK SMILES IDX 6 1 7 2 5 3 4 4 3 5 2 6 1 7 28 8 29 9 30 10 8 11 9 12 26 13
REMARK SMILES IDX 10 14 11 15 25 16 27 17 12 18 24 19 23 20 13 21 21 22 14 23
REMARK SMILES IDX 15 24 20 25 22 26 16 27 19 28 17 29 18 30
REMARK H PARENT 18 31
REMARK Flexibility Score: inf
ROOT
ATOM      1  C   UNL     1     132.377 127.218 137.500  1.00  0.00     0.012 C 
ATOM      2  C   UNL     1     130.867 127.489 137.436  1.00  0.00     0.012 C 
ENDROOT
BRANCH   1   3
ATOM      3  C   UNL     1     133.073 128.299 136.689  1.00  0.00    -0.028 C 
ATOM      4  C   UNL     1     134.139 128.120 135.883  1.00  0.00    -0.027 C 
BRANCH   4   5
ATOM      5  C   UNL     1     134.821 126.787 135.604  1.00  0.00     0.014 C 
BRANCH   5   6
ATOM      6  C   UNL     1     135.447 126.714 134.182  1.00  0.00     0.004 C 
ATOM      7  C   UNL     1     135.727 128.070 133.520  1.00  0.00     0.004 C 
ENDBRANCH   5   6
BRANCH   5   8
ATOM      8  C   UNL     1     135.818 126.367 136.731  1.00  0.00    -0.011 C 
ATOM      9  C   UNL     1     135.372 125.147 137.554  1.00  0.00     0.008 C 
ATOM     10  C   UNL     1     137.236 126.147 136.177  1.00  0.00     0.008 C 
ENDBRANCH   5   8
ENDBRANCH   4   5
ENDBRANCH   1   3
BRANCH   1  11
ATOM     11  C   UNL     1     132.931 127.227 138.962  1.00  0.00     0.002 C 
ATOM     12  C   UNL     1     131.850 126.835 139.977  1.00  0.00     0.005 C 
ATOM     13  C   UNL     1     133.536 128.557 139.518  1.00  0.00    -0.023 C 
ATOM     14  C   UNL     1     132.250 127.450 141.310  1.00  0.00     0.009 C 
ATOM     15  C   UNL     1     133.467 128.350 141.051  1.00  0.00     0.021 C 
ATOM     16  C   UNL     1     132.685 129.794 139.116  1.00  0.00     0.008 C 
ATOM     17  C   UNL     1     135.018 128.725 139.084  1.00  0.00     0.012 C 
ATOM     18  C   UNL     1     133.396 129.618 141.896  1.00  0.00    -0.067 C 
ATOM     19  C   UNL     1     133.193 131.075 139.776  1.00  0.00     0.009 C 
ATOM     20  C   UNL     1     133.152 131.010 141.323  1.00  0.00     0.021 C 
ATOM     21  C   UNL     1     133.424 129.501 143.236  1.00  0.00    -0.027 C 
ATOM     22  C   UNL     1     134.064 132.086 142.050  1.00  0.00    -0.023 C 
ATOM     23  C   UNL     1     133.157 130.700 144.096  1.00  0.00     0.031 C 
ATOM     24  C   UNL     1     134.015 131.896 143.635  1.00  0.00     0.002 C 
ATOM     25  C   UNL     1     133.562 133.508 141.650  1.00  0.00     0.010 C 
ATOM     26  C   UNL     1     135.546 131.939 141.600  1.00  0.00     0.012 C 
ATOM     27  C   UNL     1     133.578 133.165 144.395  1.00  0.00     0.036 C 
ATOM     28  C   UNL     1     134.245 134.650 142.426  1.00  0.00     0.032 C 
ATOM     29  C   UNL     1     134.400 134.375 143.941  1.00  0.00     0.114 C 
BRANCH  29  30
ATOM     30  O   UNL     1     134.004 135.500 144.681  1.00  0.00    -0.393 OA
ATOM     31  H   UNL     1     134.053 135.243 145.639  1.00  0.00     0.210 HD
ENDBRANCH  29  30
ENDBRANCH   1  11
TORSDOF 6
ENDMDL
MODEL 8
REMARK VINA RESULT:    -5.999      1.532      3.279
REMARK INTER + INTRA:          -9.485
REMARK INTER:                  -9.926
REMARK INTRA:                   0.441
REMARK UNBOUND:                -1.557
REMARK SMILES CC[C@H](C=C[C@H](C)[C@@H]1CC[C@@H]2C3=CC[C@@H]4C[C@H](O)CC[C@]4(C)[C@H]3CC[C@@]21C)C(C)C
REMARK SMILES IDX 6 1 7 2 5 3 4 4 3 5 2 6 1 7 28 8 29 9 30 10 8 11 9 12 26 13
REMARK SMILES IDX 10 14 11 15 25 16 27 17 12 18 24 19 23 20 13 21 21 22 14 23
REMARK SMILES IDX 15 24 20 25 22 26 16 27 19 28 17 29 18 30
REMARK H PARENT 18 31
REMARK Flexibility Score: inf
ROOT
ATOM      1  C   UNL     1     134.876 126.283 138.643  1.00  0.00     0.012 C 
ATOM      2  C   UNL     1     134.426 125.401 139.815  1.00  0.00     0.012 C 
ENDROOT
BRANCH   1   3
ATOM      3  C   UNL     1     134.796 125.444 137.378  1.00  0.00    -0.028 C 
ATOM      4  C   UNL     1     135.349 125.753 136.187  1.00  0.00    -0.027 C 
BRANCH   4   5
ATOM      5  C   UNL     1     136.193 126.988 135.899  1.00  0.00     0.014 C 
BRANCH   5   6
ATOM      6  C   UNL     1     137.700 126.779 136.225  1.00  0.00     0.004 C 
ATOM      7  C   UNL     1     138.373 125.615 135.485  1.00  0.00     0.004 C 
ENDBRANCH   5   6
BRANCH   5   8
ATOM      8  C   UNL     1     135.952 127.569 134.469  1.00  0.00    -0.011 C 
ATOM      9  C   UNL     1     134.616 127.157 133.831  1.00  0.00     0.008 C 
ATOM     10  C   UNL     1     136.103 129.100 134.451  1.00  0.00     0.008 C 
ENDBRANCH   5   8
ENDBRANCH   4   5
ENDBRANCH   1   3
BRANCH   1  11
ATOM     11  C   UNL     1     133.992 127.563 138.474  1.00  0.00     0.002 C 
ATOM     12  C   UNL     1     134.568 128.510 137.415  1.00  0.00     0.005 C 
ATOM     13  C   UNL     1     133.749 128.466 139.727  1.00  0.00    -0.023 C 
ATOM     14  C   UNL     1     134.063 129.906 137.747  1.00  0.00     0.009 C 
ATOM     15  C   UNL     1     133.336 129.820 139.097  1.00  0.00     0.021 C 
ATOM     16  C   UNL     1     135.042 128.651 140.569  1.00  0.00     0.008 C 
ATOM     17  C   UNL     1     132.582 127.922 140.595  1.00  0.00     0.012 C 
ATOM     18  C   UNL     1     133.606 131.061 139.941  1.00  0.00    -0.067 C 
ATOM     19  C   UNL     1     134.842 129.646 141.710  1.00  0.00     0.009 C 
ATOM     20  C   UNL     1     134.449 131.060 141.212  1.00  0.00     0.021 C 
ATOM     21  C   UNL     1     133.187 132.255 139.482  1.00  0.00    -0.027 C 
ATOM     22  C   UNL     1     133.797 131.989 142.321  1.00  0.00    -0.023 C 
ATOM     23  C   UNL     1     133.607 133.513 140.183  1.00  0.00     0.031 C 
ATOM     24  C   UNL     1     133.358 133.393 141.700  1.00  0.00     0.002 C 
ATOM     25  C   UNL     1     134.837 132.193 143.466  1.00  0.00     0.010 C 
ATOM     26  C   UNL     1     132.527 131.318 142.919  1.00  0.00     0.012 C 
ATOM     27  C   UNL     1     133.982 134.607 142.419  1.00  0.00     0.036 C 
ATOM     28  C   UNL     1     134.402 133.224 144.525  1.00  0.00     0.032 C 
ATOM     29  C   UNL     1     133.768 134.505 143.933  1.00  0.00     0.114 C 
BRANCH  29  30
ATOM     30  O   UNL     1     134.311 135.644 144.549  1.00  0.00    -0.393 OA
ATOM     31  H   UNL     1     134.066 135.593 145.510  1.00  0.00     0.210 HD
ENDBRANCH  29  30
ENDBRANCH   1  11
TORSDOF 6
ENDMDL
MODEL 9
REMARK VINA RESULT:    -5.953      2.992      8.571
REMARK INTER + INTRA:          -9.424
REMARK INTER:                  -9.106
REMARK INTRA:                  -0.318
REMARK UNBOUND:                -1.557
REMARK SMILES CC[C@H](C=C[C@H](C)[C@@H]1CC[C@@H]2C3=CC[C@@H]4C[C@H](O)CC[C@]4(C)[C@H]3CC[C@@]21C)C(C)C
REMARK SMILES IDX 6 1 7 2 5 3 4 4 3 5 2 6 1 7 28 8 29 9 30 10 8 11 9 12 26 13
REMARK SMILES IDX 10 14 11 15 25 16 27 17 12 18 24 19 23 20 13 21 21 22 14 23
REMARK SMILES IDX 15 24 20 25 22 26 16 27 19 28 17 29 18 30
REMARK H PARENT 18 31
REMARK Flexibility Score: inf
ROOT
ATOM      1  C   UNL     1     134.088 133.546 140.338  1.00  0.00     0.012 C 
ATOM      2  C   UNL     1     132.880 134.455 140.602  1.00  0.00     0.012 C 
ENDROOT
BRANCH   1   3
ATOM      3  C   UNL     1     135.137 133.857 141.392  1.00  0.00    -0.028 C 
ATOM      4  C   UNL     1     134.893 134.225 142.667  1.00  0.00    -0.027 C 
BRANCH   4   5
ATOM      5  C   UNL     1     133.513 134.358 143.298  1.00  0.00     0.014 C 
BRANCH   5   6
ATOM      6  C   UNL     1     133.097 133.098 144.110  1.00  0.00     0.004 C 
ATOM      7  C   UNL     1     134.243 132.145 144.473  1.00  0.00     0.004 C 
ENDBRANCH   5   6
BRANCH   5   8
ATOM      8  C   UNL     1     133.338 135.687 144.101  1.00  0.00    -0.011 C 
ATOM      9  C   UNL     1     132.057 135.755 144.949  1.00  0.00     0.008 C 
ATOM     10  C   UNL     1     134.571 135.986 144.971  1.00  0.00     0.008 C 
ENDBRANCH   5   8
ENDBRANCH   4   5
ENDBRANCH   1   3
BRANCH   1  11
ATOM     11  C   UNL     1     133.726 132.026 140.397  1.00  0.00     0.002 C 
ATOM     12  C   UNL     1     134.642 131.265 141.363  1.00  0.00     0.005 C 
ATOM     13  C   UNL     1     133.773 131.200 139.070  1.00  0.00    -0.023 C 
ATOM     14  C   UNL     1     134.656 129.813 140.910  1.00  0.00     0.009 C 
ATOM     15  C   UNL     1     133.895 129.742 139.579  1.00  0.00     0.021 C 
ATOM     16  C   UNL     1     135.014 131.561 138.206  1.00  0.00     0.008 C 
ATOM     17  C   UNL     1     132.456 131.358 138.262  1.00  0.00     0.012 C 
ATOM     18  C   UNL     1     134.558 128.753 138.625  1.00  0.00    -0.067 C 
ATOM     19  C   UNL     1     135.138 130.656 136.981  1.00  0.00     0.009 C 
ATOM     20  C   UNL     1     135.294 129.160 137.353  1.00  0.00     0.021 C 
ATOM     21  C   UNL     1     134.610 127.456 138.978  1.00  0.00    -0.027 C 
ATOM     22  C   UNL     1     134.975 128.152 136.170  1.00  0.00    -0.023 C 
ATOM     23  C   UNL     1     135.424 126.493 138.164  1.00  0.00     0.031 C 
ATOM     24  C   UNL     1     135.091 126.639 136.666  1.00  0.00     0.002 C 
ATOM     25  C   UNL     1     135.974 128.428 135.004  1.00  0.00     0.010 C 
ATOM     26  C   UNL     1     133.528 128.369 135.644  1.00  0.00     0.012 C 
ATOM     27  C   UNL     1     136.078 125.792 135.836  1.00  0.00     0.036 C 
ATOM     28  C   UNL     1     135.895 127.401 133.860  1.00  0.00     0.032 C 
ATOM     29  C   UNL     1     135.784 125.933 134.339  1.00  0.00     0.114 C 
BRANCH  29  30
ATOM     30  O   UNL     1     136.673 125.120 133.620  1.00  0.00    -0.393 OA
ATOM     31  H   UNL     1     137.462 125.682 133.402  1.00  0.00     0.210 HD
ENDBRANCH  29  30
ENDBRANCH   1  11
TORSDOF 6
ENDMDL
