MODEL 1
REMARK VINA RESULT:    -7.552      0.000      0.000
REMARK INTER + INTRA:          -9.172
REMARK INTER:                  -8.876
REMARK INTRA:                  -0.296
REMARK UNBOUND:                -0.296
REMARK SMILES O=c1c(O)c(-c2ccc(O)cc2)oc2cc(O)cc(O)c12
REMARK SMILES IDX 5 1 3 2 2 3 1 4 21 5 19 6 18 7 16 8 15 9 14 10 13 11 6 12
REMARK SMILES IDX 7 13 8 14 9 15 12 16 11 17 10 18 4 20 20 22 17 24
REMARK H PARENT 10 19 4 21 20 23 17 25
REMARK Flexibility Score: inf
ROOT
ATOM      1  C   UNL     1     -28.153 -26.471 104.669  1.00  0.00     0.180 A 
ATOM      2  C   UNL     1     -29.102 -25.900 105.538  1.00  0.00     0.208 A 
ATOM      3  C   UNL     1     -29.023 -26.186 106.910  1.00  0.00     0.238 A 
ATOM      4  O   UNL     1     -29.874 -25.688 107.697  1.00  0.00    -0.285 OA
ATOM      5  C   UNL     1     -27.993 -27.020 107.391  1.00  0.00     0.111 A 
ATOM      6  C   UNL     1     -27.842 -27.355 108.759  1.00  0.00     0.134 A 
ATOM      7  C   UNL     1     -26.784 -28.183 109.158  1.00  0.00     0.093 A 
ATOM      8  C   UNL     1     -25.874 -28.683 108.219  1.00  0.00     0.123 A 
ATOM      9  C   UNL     1     -26.020 -28.355 106.869  1.00  0.00     0.094 A 
ATOM     10  C   UNL     1     -27.069 -27.532 106.450  1.00  0.00     0.146 A 
ATOM     11  O   UNL     1     -27.186 -27.241 105.160  1.00  0.00    -0.452 OA
ENDROOT
BRANCH   1  12
ATOM     12  C   UNL     1     -28.180 -26.232 103.208  1.00  0.00     0.021 A 
ATOM     13  C   UNL     1     -27.458 -25.154 102.670  1.00  0.00     0.016 A 
ATOM     14  C   UNL     1     -27.451 -24.923 101.292  1.00  0.00     0.047 A 
ATOM     15  C   UNL     1     -28.155 -25.776 100.431  1.00  0.00     0.115 A 
ATOM     16  C   UNL     1     -28.869 -27.096 102.336  1.00  0.00     0.016 A 
ATOM     17  C   UNL     1     -28.860 -26.862 100.957  1.00  0.00     0.047 A 
BRANCH  15  18
ATOM     18  O   UNL     1     -28.157 -25.555  99.056  1.00  0.00    -0.508 OA
ATOM     19  H   UNL     1     -27.322 -25.691  98.497  1.00  0.00     0.293 HD
ENDBRANCH  15  18
ENDBRANCH   1  12
BRANCH   2  20
ATOM     20  O   UNL     1     -30.084 -25.037 105.044  1.00  0.00    -0.502 OA
ATOM     21  H   UNL     1     -29.873 -24.098 104.731  1.00  0.00     0.293 HD
ENDBRANCH   2  20
BRANCH   6  22
ATOM     22  O   UNL     1     -28.733 -26.872 109.718  1.00  0.00    -0.507 OA
ATOM     23  H   UNL     1     -29.676 -27.233 109.798  1.00  0.00     0.293 HD
ENDBRANCH   6  22
BRANCH   8  24
ATOM     24  O   UNL     1     -24.822 -29.505 108.616  1.00  0.00    -0.508 OA
ATOM     25  H   UNL     1     -24.017 -29.660 108.021  1.00  0.00     0.293 HD
ENDBRANCH   8  24
TORSDOF 5
ENDMDL
MODEL 2
REMARK VINA RESULT:    -7.195      3.087      6.357
REMARK INTER + INTRA:          -8.753
REMARK INTER:                  -8.509
REMARK INTRA:                  -0.244
REMARK UNBOUND:                -0.296
REMARK SMILES O=c1c(O)c(-c2ccc(O)cc2)oc2cc(O)cc(O)c12
REMARK SMILES IDX 5 1 3 2 2 3 1 4 21 5 19 6 18 7 16 8 15 9 14 10 13 11 6 12
REMARK SMILES IDX 7 13 8 14 9 15 12 16 11 17 10 18 4 20 20 22 17 24
REMARK H PARENT 10 19 4 21 20 23 17 25
REMARK Flexibility Score: inf
ROOT
ATOM      1  C   UNL     1     -27.911 -25.314 105.142  1.00  0.00     0.180 A 
ATOM      2  C   UNL     1     -28.912 -25.525 104.174  1.00  0.00     0.208 A 
ATOM      3  C   UNL     1     -29.663 -24.428 103.726  1.00  0.00     0.238 A 
ATOM      4  O   UNL     1     -30.569 -24.606 102.867  1.00  0.00    -0.285 OA
ATOM      5  C   UNL     1     -29.391 -23.141 104.236  1.00  0.00     0.111 A 
ATOM      6  C   UNL     1     -30.101 -21.983 103.834  1.00  0.00     0.134 A 
ATOM      7  C   UNL     1     -29.763 -20.737 104.381  1.00  0.00     0.093 A 
ATOM      8  C   UNL     1     -28.731 -20.626 105.321  1.00  0.00     0.123 A 
ATOM      9  C   UNL     1     -28.031 -21.766 105.720  1.00  0.00     0.094 A 
ATOM     10  C   UNL     1     -28.353 -23.017 105.188  1.00  0.00     0.146 A 
ATOM     11  O   UNL     1     -27.672 -24.085 105.589  1.00  0.00    -0.452 OA
ENDROOT
BRANCH   1  12
ATOM     12  C   UNL     1     -27.089 -26.423 105.679  1.00  0.00     0.021 A 
ATOM     13  C   UNL     1     -25.738 -26.526 105.306  1.00  0.00     0.016 A 
ATOM     14  C   UNL     1     -24.938 -27.551 105.818  1.00  0.00     0.047 A 
ATOM     15  C   UNL     1     -25.474 -28.479 106.720  1.00  0.00     0.115 A 
ATOM     16  C   UNL     1     -27.615 -27.347 106.601  1.00  0.00     0.016 A 
ATOM     17  C   UNL     1     -26.812 -28.371 107.111  1.00  0.00     0.047 A 
BRANCH  15  18
ATOM     18  O   UNL     1     -24.687 -29.506 107.236  1.00  0.00    -0.508 OA
ATOM     19  H   UNL     1     -23.845 -29.312 107.766  1.00  0.00     0.293 HD
ENDBRANCH  15  18
ENDBRANCH   1  12
BRANCH   2  20
ATOM     20  O   UNL     1     -29.128 -26.802 103.649  1.00  0.00    -0.502 OA
ATOM     21  H   UNL     1     -29.327 -26.959 102.669  1.00  0.00     0.293 HD
ENDBRANCH   2  20
BRANCH   6  22
ATOM     22  O   UNL     1     -31.133 -22.062 102.899  1.00  0.00    -0.507 OA
ATOM     23  H   UNL     1     -31.449 -21.248 102.385  1.00  0.00     0.293 HD
ENDBRANCH   6  22
BRANCH   8  24
ATOM     24  O   UNL     1     -28.396 -19.388 105.864  1.00  0.00    -0.508 OA
ATOM     25  H   UNL     1     -28.104 -19.294 106.829  1.00  0.00     0.293 HD
ENDBRANCH   8  24
TORSDOF 5
ENDMDL
MODEL 3
REMARK VINA RESULT:    -7.027      4.360      6.800
REMARK INTER + INTRA:          -8.555
REMARK INTER:                  -8.419
REMARK INTRA:                  -0.136
REMARK UNBOUND:                -0.296
REMARK SMILES O=c1c(O)c(-c2ccc(O)cc2)oc2cc(O)cc(O)c12
REMARK SMILES IDX 5 1 3 2 2 3 1 4 21 5 19 6 18 7 16 8 15 9 14 10 13 11 6 12
REMARK SMILES IDX 7 13 8 14 9 15 12 16 11 17 10 18 4 20 20 22 17 24
REMARK H PARENT 10 19 4 21 20 23 17 25
REMARK Flexibility Score: inf
ROOT
ATOM      1  C   UNL     1     -29.312 -22.072 103.761  1.00  0.00     0.180 A 
ATOM      2  C   UNL     1     -29.339 -22.966 104.849  1.00  0.00     0.208 A 
ATOM      3  C   UNL     1     -29.159 -24.336 104.605  1.00  0.00     0.238 A 
ATOM      4  O   UNL     1     -29.191 -25.147 105.570  1.00  0.00    -0.285 OA
ATOM      5  C   UNL     1     -28.938 -24.786 103.287  1.00  0.00     0.111 A 
ATOM      6  C   UNL     1     -28.745 -26.150 102.957  1.00  0.00     0.134 A 
ATOM      7  C   UNL     1     -28.521 -26.516 101.622  1.00  0.00     0.093 A 
ATOM      8  C   UNL     1     -28.487 -25.548 100.611  1.00  0.00     0.123 A 
ATOM      9  C   UNL     1     -28.678 -24.202 100.934  1.00  0.00     0.094 A 
ATOM     10  C   UNL     1     -28.904 -23.817 102.258  1.00  0.00     0.146 A 
ATOM     11  O   UNL     1     -29.087 -22.530 102.534  1.00  0.00    -0.452 OA
ENDROOT
BRANCH   1  12
ATOM     12  C   UNL     1     -29.513 -20.615 103.936  1.00  0.00     0.021 A 
ATOM     13  C   UNL     1     -28.501 -19.725 103.537  1.00  0.00     0.016 A 
ATOM     14  C   UNL     1     -28.678 -18.345 103.671  1.00  0.00     0.047 A 
ATOM     15  C   UNL     1     -29.875 -17.836 104.192  1.00  0.00     0.115 A 
ATOM     16  C   UNL     1     -30.720 -20.096 104.440  1.00  0.00     0.016 A 
ATOM     17  C   UNL     1     -30.894 -18.714 104.572  1.00  0.00     0.047 A 
BRANCH  15  18
ATOM     18  O   UNL     1     -30.062 -16.463 104.332  1.00  0.00    -0.508 OA
ATOM     19  H   UNL     1     -29.368 -15.798 104.009  1.00  0.00     0.293 HD
ENDBRANCH  15  18
ENDBRANCH   1  12
BRANCH   2  20
ATOM     20  O   UNL     1     -29.510 -22.489 106.151  1.00  0.00    -0.502 OA
ATOM     21  H   UNL     1     -28.730 -22.221 106.738  1.00  0.00     0.293 HD
ENDBRANCH   2  20
BRANCH   6  22
ATOM     22  O   UNL     1     -28.773 -27.138 103.941  1.00  0.00    -0.507 OA
ATOM     23  H   UNL     1     -29.517 -27.185 104.627  1.00  0.00     0.293 HD
ENDBRANCH   6  22
BRANCH   8  24
ATOM     24  O   UNL     1     -28.264 -25.912  99.286  1.00  0.00    -0.508 OA
ATOM     25  H   UNL     1     -27.944 -25.240  98.598  1.00  0.00     0.293 HD
ENDBRANCH   8  24
TORSDOF 5
ENDMDL
MODEL 4
REMARK VINA RESULT:    -7.010      2.025      6.772
REMARK INTER + INTRA:          -8.536
REMARK INTER:                  -8.291
REMARK INTRA:                  -0.245
REMARK UNBOUND:                -0.296
REMARK SMILES O=c1c(O)c(-c2ccc(O)cc2)oc2cc(O)cc(O)c12
REMARK SMILES IDX 5 1 3 2 2 3 1 4 21 5 19 6 18 7 16 8 15 9 14 10 13 11 6 12
REMARK SMILES IDX 7 13 8 14 9 15 12 16 11 17 10 18 4 20 20 22 17 24
REMARK H PARENT 10 19 4 21 20 23 17 25
REMARK Flexibility Score: inf
ROOT
ATOM      1  C   UNL     1     -27.142 -25.675 104.982  1.00  0.00     0.180 A 
ATOM      2  C   UNL     1     -27.042 -24.288 105.205  1.00  0.00     0.208 A 
ATOM      3  C   UNL     1     -27.222 -23.414 104.122  1.00  0.00     0.238 A 
ATOM      4  O   UNL     1     -27.125 -22.169 104.308  1.00  0.00    -0.285 OA
ATOM      5  C   UNL     1     -27.516 -23.935 102.845  1.00  0.00     0.111 A 
ATOM      6  C   UNL     1     -27.716 -23.121 101.704  1.00  0.00     0.134 A 
ATOM      7  C   UNL     1     -28.014 -23.717 100.470  1.00  0.00     0.093 A 
ATOM      8  C   UNL     1     -28.118 -25.108 100.355  1.00  0.00     0.123 A 
ATOM      9  C   UNL     1     -27.922 -25.913 101.479  1.00  0.00     0.094 A 
ATOM     10  C   UNL     1     -27.621 -25.340 102.717  1.00  0.00     0.146 A 
ATOM     11  O   UNL     1     -27.435 -26.131 103.768  1.00  0.00    -0.452 OA
ENDROOT
BRANCH   1  12
ATOM     12  C   UNL     1     -26.945 -26.663 106.069  1.00  0.00     0.021 A 
ATOM     13  C   UNL     1     -25.715 -27.331 106.180  1.00  0.00     0.016 A 
ATOM     14  C   UNL     1     -25.499 -28.251 107.211  1.00  0.00     0.047 A 
ATOM     15  C   UNL     1     -26.507 -28.502 108.152  1.00  0.00     0.115 A 
ATOM     16  C   UNL     1     -27.945 -26.906 107.028  1.00  0.00     0.016 A 
ATOM     17  C   UNL     1     -27.726 -27.826 108.058  1.00  0.00     0.047 A 
BRANCH  15  18
ATOM     18  O   UNL     1     -26.304 -29.417 109.183  1.00  0.00    -0.508 OA
ATOM     19  H   UNL     1     -26.103 -30.392 108.993  1.00  0.00     0.293 HD
ENDBRANCH  15  18
ENDBRANCH   1  12
BRANCH   2  20
ATOM     20  O   UNL     1     -26.799 -23.795 106.489  1.00  0.00    -0.502 OA
ATOM     21  H   UNL     1     -26.161 -23.027 106.664  1.00  0.00     0.293 HD
ENDBRANCH   2  20
BRANCH   6  22
ATOM     22  O   UNL     1     -27.619 -21.732 101.787  1.00  0.00    -0.507 OA
ATOM     23  H   UNL     1     -26.937 -21.280 102.385  1.00  0.00     0.293 HD
ENDBRANCH   6  22
BRANCH   8  24
ATOM     24  O   UNL     1     -28.415 -25.699  99.130  1.00  0.00    -0.508 OA
ATOM     25  H   UNL     1     -29.239 -26.277  99.006  1.00  0.00     0.293 HD
ENDBRANCH   8  24
TORSDOF 5
ENDMDL
MODEL 5
REMARK VINA RESULT:    -6.919      2.327      6.750
REMARK INTER + INTRA:          -8.428
REMARK INTER:                  -8.373
REMARK INTRA:                  -0.055
REMARK UNBOUND:                -0.296
REMARK SMILES O=c1c(O)c(-c2ccc(O)cc2)oc2cc(O)cc(O)c12
REMARK SMILES IDX 5 1 3 2 2 3 1 4 21 5 19 6 18 7 16 8 15 9 14 10 13 11 6 12
REMARK SMILES IDX 7 13 8 14 9 15 12 16 11 17 10 18 4 20 20 22 17 24
REMARK H PARENT 10 19 4 21 20 23 17 25
REMARK Flexibility Score: inf
ROOT
ATOM      1  C   UNL     1     -26.833 -26.126 104.633  1.00  0.00     0.180 A 
ATOM      2  C   UNL     1     -27.959 -26.189 103.790  1.00  0.00     0.208 A 
ATOM      3  C   UNL     1     -28.032 -25.320 102.690  1.00  0.00     0.238 A 
ATOM      4  O   UNL     1     -29.041 -25.360 101.934  1.00  0.00    -0.285 OA
ATOM      5  C   UNL     1     -26.975 -24.420 102.441  1.00  0.00     0.111 A 
ATOM      6  C   UNL     1     -26.970 -23.514 101.352  1.00  0.00     0.134 A 
ATOM      7  C   UNL     1     -25.875 -22.657 101.167  1.00  0.00     0.093 A 
ATOM      8  C   UNL     1     -24.787 -22.688 102.048  1.00  0.00     0.123 A 
ATOM      9  C   UNL     1     -24.790 -23.580 103.123  1.00  0.00     0.094 A 
ATOM     10  C   UNL     1     -25.872 -24.441 103.326  1.00  0.00     0.146 A 
ATOM     11  O   UNL     1     -25.848 -25.275 104.359  1.00  0.00    -0.452 OA
ENDROOT
BRANCH   1  12
ATOM     12  C   UNL     1     -26.692 -26.996 105.824  1.00  0.00     0.021 A 
ATOM     13  C   UNL     1     -25.522 -27.756 105.989  1.00  0.00     0.016 A 
ATOM     14  C   UNL     1     -25.357 -28.566 107.116  1.00  0.00     0.047 A 
ATOM     15  C   UNL     1     -26.355 -28.616 108.099  1.00  0.00     0.115 A 
ATOM     16  C   UNL     1     -27.680 -27.036 106.824  1.00  0.00     0.016 A 
ATOM     17  C   UNL     1     -27.512 -27.847 107.950  1.00  0.00     0.047 A 
BRANCH  15  18
ATOM     18  O   UNL     1     -26.203 -29.421 109.226  1.00  0.00    -0.508 OA
ATOM     19  H   UNL     1     -25.956 -30.401 109.147  1.00  0.00     0.293 HD
ENDBRANCH  15  18
ENDBRANCH   1  12
BRANCH   2  20
ATOM     20  O   UNL     1     -28.970 -27.123 104.030  1.00  0.00    -0.502 OA
ATOM     21  H   UNL     1     -29.899 -27.030 103.637  1.00  0.00     0.293 HD
ENDBRANCH   2  20
BRANCH   6  22
ATOM     22  O   UNL     1     -28.039 -23.460 100.458  1.00  0.00    -0.507 OA
ATOM     23  H   UNL     1     -28.067 -22.786  99.702  1.00  0.00     0.293 HD
ENDBRANCH   6  22
BRANCH   8  24
ATOM     24  O   UNL     1     -23.700 -21.838 101.864  1.00  0.00    -0.508 OA
ATOM     25  H   UNL     1     -22.747 -22.163 101.981  1.00  0.00     0.293 HD
ENDBRANCH   8  24
TORSDOF 5
ENDMDL
MODEL 6
REMARK VINA RESULT:    -6.910      4.917      7.658
REMARK INTER + INTRA:          -8.417
REMARK INTER:                  -8.236
REMARK INTRA:                  -0.182
REMARK UNBOUND:                -0.296
REMARK SMILES O=c1c(O)c(-c2ccc(O)cc2)oc2cc(O)cc(O)c12
REMARK SMILES IDX 5 1 3 2 2 3 1 4 21 5 19 6 18 7 16 8 15 9 14 10 13 11 6 12
REMARK SMILES IDX 7 13 8 14 9 15 12 16 11 17 10 18 4 20 20 22 17 24
REMARK H PARENT 10 19 4 21 20 23 17 25
REMARK Flexibility Score: inf
ROOT
ATOM      1  C   UNL     1     -28.670 -21.233 103.477  1.00  0.00     0.180 A 
ATOM      2  C   UNL     1     -27.725 -21.380 102.443  1.00  0.00     0.208 A 
ATOM      3  C   UNL     1     -27.607 -22.624 101.805  1.00  0.00     0.238 A 
ATOM      4  O   UNL     1     -26.757 -22.771 100.884  1.00  0.00    -0.285 OA
ATOM      5  C   UNL     1     -28.443 -23.691 102.195  1.00  0.00     0.111 A 
ATOM      6  C   UNL     1     -28.389 -24.975 101.600  1.00  0.00     0.134 A 
ATOM      7  C   UNL     1     -29.262 -25.981 102.038  1.00  0.00     0.093 A 
ATOM      8  C   UNL     1     -30.187 -25.729 103.059  1.00  0.00     0.123 A 
ATOM      9  C   UNL     1     -30.243 -24.464 103.647  1.00  0.00     0.094 A 
ATOM     10  C   UNL     1     -29.380 -23.448 103.226  1.00  0.00     0.146 A 
ATOM     11  O   UNL     1     -29.452 -22.256 103.808  1.00  0.00    -0.452 OA
ENDROOT
BRANCH   1  12
ATOM     12  C   UNL     1     -28.841 -19.958 104.211  1.00  0.00     0.021 A 
ATOM     13  C   UNL     1     -29.433 -18.862 103.562  1.00  0.00     0.016 A 
ATOM     14  C   UNL     1     -29.625 -17.655 104.242  1.00  0.00     0.047 A 
ATOM     15  C   UNL     1     -29.241 -17.535 105.584  1.00  0.00     0.115 A 
ATOM     16  C   UNL     1     -28.476 -19.836 105.564  1.00  0.00     0.016 A 
ATOM     17  C   UNL     1     -28.670 -18.629 106.242  1.00  0.00     0.047 A 
BRANCH  15  18
ATOM     18  O   UNL     1     -29.426 -16.338 106.272  1.00  0.00    -0.508 OA
ATOM     19  H   UNL     1     -29.974 -15.581 105.879  1.00  0.00     0.293 HD
ENDBRANCH  15  18
ENDBRANCH   1  12
BRANCH   2  20
ATOM     20  O   UNL     1     -26.943 -20.294 102.042  1.00  0.00    -0.502 OA
ATOM     21  H   UNL     1     -27.210 -19.685 101.279  1.00  0.00     0.293 HD
ENDBRANCH   2  20
BRANCH   6  22
ATOM     22  O   UNL     1     -27.478 -25.256 100.581  1.00  0.00    -0.507 OA
ATOM     23  H   UNL     1     -27.601 -26.048  99.961  1.00  0.00     0.293 HD
ENDBRANCH   6  22
BRANCH   8  24
ATOM     24  O   UNL     1     -31.055 -26.728 103.493  1.00  0.00    -0.508 OA
ATOM     25  H   UNL     1     -32.058 -26.643 103.381  1.00  0.00     0.293 HD
ENDBRANCH   8  24
TORSDOF 5
ENDMDL
MODEL 7
REMARK VINA RESULT:    -6.870      3.711      6.024
REMARK INTER + INTRA:          -8.371
REMARK INTER:                  -8.375
REMARK INTRA:                   0.004
REMARK UNBOUND:                -0.296
REMARK SMILES O=c1c(O)c(-c2ccc(O)cc2)oc2cc(O)cc(O)c12
REMARK SMILES IDX 5 1 3 2 2 3 1 4 21 5 19 6 18 7 16 8 15 9 14 10 13 11 6 12
REMARK SMILES IDX 7 13 8 14 9 15 12 16 11 17 10 18 4 20 20 22 17 24
REMARK H PARENT 10 19 4 21 20 23 17 25
REMARK Flexibility Score: inf
ROOT
ATOM      1  C   UNL     1     -25.536 -23.930 102.615  1.00  0.00     0.180 A 
ATOM      2  C   UNL     1     -25.159 -24.771 103.680  1.00  0.00     0.208 A 
ATOM      3  C   UNL     1     -26.118 -25.630 104.238  1.00  0.00     0.238 A 
ATOM      4  O   UNL     1     -25.794 -26.380 105.199  1.00  0.00    -0.285 OA
ATOM      5  C   UNL     1     -27.427 -25.649 103.713  1.00  0.00     0.111 A 
ATOM      6  C   UNL     1     -28.451 -26.488 104.217  1.00  0.00     0.134 A 
ATOM      7  C   UNL     1     -29.726 -26.454 103.634  1.00  0.00     0.093 A 
ATOM      8  C   UNL     1     -29.997 -25.599 102.558  1.00  0.00     0.123 A 
ATOM      9  C   UNL     1     -28.989 -24.771 102.060  1.00  0.00     0.094 A 
ATOM     10  C   UNL     1     -27.712 -24.788 102.628  1.00  0.00     0.146 A 
ATOM     11  O   UNL     1     -26.775 -23.985 102.137  1.00  0.00    -0.452 OA
ENDROOT
BRANCH   1  12
ATOM     12  C   UNL     1     -24.587 -22.982 101.987  1.00  0.00     0.021 A 
ATOM     13  C   UNL     1     -24.915 -21.618 101.922  1.00  0.00     0.016 A 
ATOM     14  C   UNL     1     -24.025 -20.702 101.353  1.00  0.00     0.047 A 
ATOM     15  C   UNL     1     -22.789 -21.137 100.855  1.00  0.00     0.115 A 
ATOM     16  C   UNL     1     -23.337 -23.409 101.502  1.00  0.00     0.016 A 
ATOM     17  C   UNL     1     -22.449 -22.491 100.934  1.00  0.00     0.047 A 
BRANCH  15  18
ATOM     18  O   UNL     1     -21.895 -20.235 100.285  1.00  0.00    -0.508 OA
ATOM     19  H   UNL     1     -20.942 -20.501 100.065  1.00  0.00     0.293 HD
ENDBRANCH  15  18
ENDBRANCH   1  12
BRANCH   2  20
ATOM     20  O   UNL     1     -23.843 -24.769 104.149  1.00  0.00    -0.502 OA
ATOM     21  H   UNL     1     -23.280 -23.928 104.185  1.00  0.00     0.293 HD
ENDBRANCH   2  20
BRANCH   6  22
ATOM     22  O   UNL     1     -28.211 -27.350 105.287  1.00  0.00    -0.507 OA
ATOM     23  H   UNL     1     -28.271 -28.356 105.184  1.00  0.00     0.293 HD
ENDBRANCH   6  22
BRANCH   8  24
ATOM     24  O   UNL     1     -31.262 -25.567 101.978  1.00  0.00    -0.508 OA
ATOM     25  H   UNL     1     -31.396 -25.290 101.013  1.00  0.00     0.293 HD
ENDBRANCH   8  24
TORSDOF 5
ENDMDL
MODEL 8
REMARK VINA RESULT:    -6.799      5.242      7.465
REMARK INTER + INTRA:          -8.287
REMARK INTER:                  -8.002
REMARK INTRA:                  -0.286
REMARK UNBOUND:                -0.296
REMARK SMILES O=c1c(O)c(-c2ccc(O)cc2)oc2cc(O)cc(O)c12
REMARK SMILES IDX 5 1 3 2 2 3 1 4 21 5 19 6 18 7 16 8 15 9 14 10 13 11 6 12
REMARK SMILES IDX 7 13 8 14 9 15 12 16 11 17 10 18 4 20 20 22 17 24
REMARK H PARENT 10 19 4 21 20 23 17 25
REMARK Flexibility Score: inf
ROOT
ATOM      1  C   UNL     1     -29.087 -21.175 103.682  1.00  0.00     0.180 A 
ATOM      2  C   UNL     1     -29.931 -22.079 103.009  1.00  0.00     0.208 A 
ATOM      3  C   UNL     1     -29.362 -23.197 102.379  1.00  0.00     0.238 A 
ATOM      4  O   UNL     1     -30.107 -24.008 101.764  1.00  0.00    -0.285 OA
ATOM      5  C   UNL     1     -27.968 -23.401 102.446  1.00  0.00     0.111 A 
ATOM      6  C   UNL     1     -27.317 -24.503 101.840  1.00  0.00     0.134 A 
ATOM      7  C   UNL     1     -25.927 -24.641 101.960  1.00  0.00     0.093 A 
ATOM      8  C   UNL     1     -25.175 -23.699 102.674  1.00  0.00     0.123 A 
ATOM      9  C   UNL     1     -25.815 -22.611 103.272  1.00  0.00     0.094 A 
ATOM     10  C   UNL     1     -27.199 -22.455 103.162  1.00  0.00     0.146 A 
ATOM     11  O   UNL     1     -27.779 -21.408 103.737  1.00  0.00    -0.452 OA
ENDROOT
BRANCH   1  12
ATOM     12  C   UNL     1     -29.609 -19.963 104.355  1.00  0.00     0.021 A 
ATOM     13  C   UNL     1     -29.674 -18.753 103.645  1.00  0.00     0.016 A 
ATOM     14  C   UNL     1     -30.183 -17.601 104.252  1.00  0.00     0.047 A 
ATOM     15  C   UNL     1     -30.648 -17.650 105.573  1.00  0.00     0.115 A 
ATOM     16  C   UNL     1     -30.095 -20.009 105.674  1.00  0.00     0.016 A 
ATOM     17  C   UNL     1     -30.605 -18.856 106.279  1.00  0.00     0.047 A 
BRANCH  15  18
ATOM     18  O   UNL     1     -31.158 -16.510 106.190  1.00  0.00    -0.508 OA
ATOM     19  H   UNL     1     -30.605 -15.973 106.849  1.00  0.00     0.293 HD
ENDBRANCH  15  18
ENDBRANCH   1  12
BRANCH   2  20
ATOM     20  O   UNL     1     -31.314 -21.881 102.999  1.00  0.00    -0.502 OA
ATOM     21  H   UNL     1     -31.730 -20.959 102.947  1.00  0.00     0.293 HD
ENDBRANCH   2  20
BRANCH   6  22
ATOM     22  O   UNL     1     -28.039 -25.458 101.123  1.00  0.00    -0.507 OA
ATOM     23  H   UNL     1     -28.860 -25.210 100.583  1.00  0.00     0.293 HD
ENDBRANCH   6  22
BRANCH   8  24
ATOM     24  O   UNL     1     -23.795 -23.836 102.794  1.00  0.00    -0.508 OA
ATOM     25  H   UNL     1     -23.246 -24.312 102.088  1.00  0.00     0.293 HD
ENDBRANCH   8  24
TORSDOF 5
ENDMDL
MODEL 9
REMARK VINA RESULT:    -6.628      2.036      6.849
REMARK INTER + INTRA:          -8.086
REMARK INTER:                  -7.883
REMARK INTRA:                  -0.203
REMARK UNBOUND:                -0.296
REMARK SMILES O=c1c(O)c(-c2ccc(O)cc2)oc2cc(O)cc(O)c12
REMARK SMILES IDX 5 1 3 2 2 3 1 4 21 5 19 6 18 7 16 8 15 9 14 10 13 11 6 12
REMARK SMILES IDX 7 13 8 14 9 15 12 16 11 17 10 18 4 20 20 22 17 24
REMARK H PARENT 10 19 4 21 20 23 17 25
REMARK Flexibility Score: inf
ROOT
ATOM      1  C   UNL     1     -26.757 -26.388 105.117  1.00  0.00     0.180 A 
ATOM      2  C   UNL     1     -25.924 -25.574 104.326  1.00  0.00     0.208 A 
ATOM      3  C   UNL     1     -26.484 -24.885 103.239  1.00  0.00     0.238 A 
ATOM      4  O   UNL     1     -25.745 -24.160 102.517  1.00  0.00    -0.285 OA
ATOM      5  C   UNL     1     -27.863 -25.006 102.972  1.00  0.00     0.111 A 
ATOM      6  C   UNL     1     -28.505 -24.343 101.898  1.00  0.00     0.134 A 
ATOM      7  C   UNL     1     -29.884 -24.508 101.705  1.00  0.00     0.093 A 
ATOM      8  C   UNL     1     -30.633 -25.322 102.563  1.00  0.00     0.123 A 
ATOM      9  C   UNL     1     -30.003 -25.977 103.623  1.00  0.00     0.094 A 
ATOM     10  C   UNL     1     -28.629 -25.828 103.832  1.00  0.00     0.146 A 
ATOM     11  O   UNL     1     -28.056 -26.467 104.845  1.00  0.00    -0.452 OA
ENDROOT
BRANCH   1  12
ATOM     12  C   UNL     1     -26.238 -27.161 106.269  1.00  0.00     0.021 A 
ATOM     13  C   UNL     1     -26.654 -26.827 107.569  1.00  0.00     0.016 A 
ATOM     14  C   UNL     1     -26.195 -27.557 108.669  1.00  0.00     0.047 A 
ATOM     15  C   UNL     1     -25.325 -28.639 108.482  1.00  0.00     0.115 A 
ATOM     16  C   UNL     1     -25.379 -28.261 106.088  1.00  0.00     0.016 A 
ATOM     17  C   UNL     1     -24.922 -28.989 107.190  1.00  0.00     0.047 A 
BRANCH  15  18
ATOM     18  O   UNL     1     -24.859 -29.373 109.571  1.00  0.00    -0.508 OA
ATOM     19  H   UNL     1     -23.969 -29.856 109.541  1.00  0.00     0.293 HD
ENDBRANCH  15  18
ENDBRANCH   1  12
BRANCH   2  20
ATOM     20  O   UNL     1     -24.570 -25.431 104.641  1.00  0.00    -0.502 OA
ATOM     21  H   UNL     1     -23.833 -25.675 103.991  1.00  0.00     0.293 HD
ENDBRANCH   2  20
BRANCH   6  22
ATOM     22  O   UNL     1     -27.786 -23.526 101.026  1.00  0.00    -0.507 OA
ATOM     23  H   UNL     1     -26.782 -23.618 100.915  1.00  0.00     0.293 HD
ENDBRANCH   6  22
BRANCH   8  24
ATOM     24  O   UNL     1     -32.003 -25.484 102.372  1.00  0.00    -0.508 OA
ATOM     25  H   UNL     1     -32.386 -25.730 101.467  1.00  0.00     0.293 HD
ENDBRANCH   8  24
TORSDOF 5
ENDMDL
