MODEL 1
REMARK VINA RESULT:    -3.067      0.000      0.000
REMARK INTER + INTRA:         -10.321
REMARK INTER:                  -6.653
REMARK INTRA:                  -3.668
REMARK UNBOUND:                -3.668
REMARK SMILES CCCCCCCCCCCCCCCCCCCCCC(=O)[O-]
REMARK SMILES IDX 12 1 11 2 10 3 9 4 8 5 7 6 6 7 5 8 4 9 3 10 2 11 1 12 13 13
REMARK SMILES IDX 14 14 15 15 16 16 17 17 18 18 19 19 20 20 21 21 22 22 23 23
REMARK SMILES IDX 24 24
REMARK H PARENT
REMARK Flexibility Score: inf
ROOT
ATOM      1  C   UNL     1      -5.795  44.263  94.889  1.00  0.00     0.000 C 
ENDROOT
BRANCH   1   2
ATOM      2  C   UNL     1      -4.696  43.230  94.582  1.00  0.00     0.000 C 
BRANCH   2   3
ATOM      3  C   UNL     1      -4.281  42.355  95.779  1.00  0.00     0.000 C 
BRANCH   3   4
ATOM      4  C   UNL     1      -2.753  42.287  95.998  1.00  0.00    -0.000 C 
BRANCH   4   5
ATOM      5  C   UNL     1      -2.369  41.333  97.141  1.00  0.00    -0.000 C 
BRANCH   5   6
ATOM      6  C   UNL     1      -3.099  39.982  97.060  1.00  0.00    -0.000 C 
BRANCH   6   7
ATOM      7  C   UNL     1      -2.137  38.808  96.809  1.00  0.00    -0.000 C 
BRANCH   7   8
ATOM      8  C   UNL     1      -1.257  39.017  95.566  1.00  0.00    -0.000 C 
BRANCH   8   9
ATOM      9  C   UNL     1      -1.944  38.571  94.263  1.00  0.00    -0.000 C 
BRANCH   9  10
ATOM     10  C   UNL     1      -2.092  39.731  93.256  1.00  0.00    -0.000 C 
BRANCH  10  11
ATOM     11  C   UNL     1      -3.553  40.070  92.921  1.00  0.00    -0.003 C 
ATOM     12  C   UNL     1      -4.559  39.264  93.739  1.00  0.00     0.004 C 
ENDBRANCH  10  11
ENDBRANCH   9  10
ENDBRANCH   8   9
ENDBRANCH   7   8
ENDBRANCH   6   7
ENDBRANCH   5   6
ENDBRANCH   4   5
ENDBRANCH   3   4
ENDBRANCH   2   3
ENDBRANCH   1   2
BRANCH   1  13
ATOM     13  C   UNL     1      -5.416  45.732  94.605  1.00  0.00     0.000 C 
BRANCH  13  14
ATOM     14  C   UNL     1      -4.083  45.940  93.864  1.00  0.00     0.000 C 
BRANCH  14  15
ATOM     15  C   UNL     1      -3.063  46.754  94.677  1.00  0.00     0.000 C 
BRANCH  15  16
ATOM     16  C   UNL     1      -1.959  45.871  95.284  1.00  0.00     0.000 C 
BRANCH  16  17
ATOM     17  C   UNL     1      -2.042  45.787  96.818  1.00  0.00     0.000 C 
BRANCH  17  18
ATOM     18  C   UNL     1      -2.733  47.022  97.434  1.00  0.00     0.000 C 
BRANCH  18  19
ATOM     19  C   UNL     1      -3.831  46.675  98.453  1.00  0.00     0.000 C 
BRANCH  19  20
ATOM     20  C   UNL     1      -4.504  45.323  98.169  1.00  0.00     0.006 C 
BRANCH  20  21
ATOM     21  C   UNL     1      -5.675  45.044  99.121  1.00  0.00     0.053 C 
BRANCH  21  22
ATOM     22  C   UNL     1      -6.976  45.543  98.571  1.00  0.00     0.041 C 
ATOM     23  O   UNL     1      -6.990  46.430  97.677  1.00  0.00    -0.550 OA
ATOM     24  O   UNL     1      -8.175  45.013  99.031  1.00  0.00    -0.550 OA
ENDBRANCH  21  22
ENDBRANCH  20  21
ENDBRANCH  19  20
ENDBRANCH  18  19
ENDBRANCH  17  18
ENDBRANCH  16  17
ENDBRANCH  15  16
ENDBRANCH  14  15
ENDBRANCH  13  14
ENDBRANCH   1  13
TORSDOF 20
ENDMDL
MODEL 2
REMARK VINA RESULT:    -3.061     14.418     16.468
REMARK INTER + INTRA:         -10.309
REMARK INTER:                  -6.776
REMARK INTRA:                  -3.533
REMARK UNBOUND:                -3.668
REMARK SMILES CCCCCCCCCCCCCCCCCCCCCC(=O)[O-]
REMARK SMILES IDX 12 1 11 2 10 3 9 4 8 5 7 6 6 7 5 8 4 9 3 10 2 11 1 12 13 13
REMARK SMILES IDX 14 14 15 15 16 16 17 17 18 18 19 19 20 20 21 21 22 22 23 23
REMARK SMILES IDX 24 24
REMARK H PARENT
REMARK Flexibility Score: inf
ROOT
ATOM      1  C   UNL     1     -20.118  36.333  91.484  1.00  0.00     0.000 C 
ENDROOT
BRANCH   1   2
ATOM      2  C   UNL     1     -19.961  35.951  92.967  1.00  0.00     0.000 C 
BRANCH   2   3
ATOM      3  C   UNL     1     -20.906  36.696  93.928  1.00  0.00     0.000 C 
BRANCH   3   4
ATOM      4  C   UNL     1     -20.172  37.628  94.919  1.00  0.00    -0.000 C 
BRANCH   4   5
ATOM      5  C   UNL     1     -18.646  37.454  94.862  1.00  0.00    -0.000 C 
BRANCH   5   6
ATOM      6  C   UNL     1     -18.049  36.987  96.201  1.00  0.00    -0.000 C 
BRANCH   6   7
ATOM      7  C   UNL     1     -17.657  35.500  96.184  1.00  0.00    -0.000 C 
BRANCH   7   8
ATOM      8  C   UNL     1     -18.525  34.647  97.124  1.00  0.00    -0.000 C 
BRANCH   8   9
ATOM      9  C   UNL     1     -19.907  34.319  96.530  1.00  0.00    -0.000 C 
BRANCH   9  10
ATOM     10  C   UNL     1     -20.070  32.814  96.230  1.00  0.00    -0.000 C 
BRANCH  10  11
ATOM     11  C   UNL     1     -20.235  32.500  94.735  1.00  0.00    -0.003 C 
ATOM     12  C   UNL     1     -19.276  31.420  94.241  1.00  0.00     0.004 C 
ENDBRANCH  10  11
ENDBRANCH   9  10
ENDBRANCH   8   9
ENDBRANCH   7   8
ENDBRANCH   6   7
ENDBRANCH   5   6
ENDBRANCH   4   5
ENDBRANCH   3   4
ENDBRANCH   2   3
ENDBRANCH   1   2
BRANCH   1  13
ATOM     13  C   UNL     1     -18.945  37.137  90.884  1.00  0.00     0.000 C 
BRANCH  13  14
ATOM     14  C   UNL     1     -19.245  38.614  90.576  1.00  0.00     0.000 C 
BRANCH  14  15
ATOM     15  C   UNL     1     -19.165  39.517  91.819  1.00  0.00     0.000 C 
BRANCH  15  16
ATOM     16  C   UNL     1     -20.545  40.036  92.255  1.00  0.00     0.000 C 
BRANCH  16  17
ATOM     17  C   UNL     1     -20.461  41.039  93.420  1.00  0.00     0.000 C 
BRANCH  17  18
ATOM     18  C   UNL     1     -19.003  41.338  93.829  1.00  0.00     0.000 C 
BRANCH  18  19
ATOM     19  C   UNL     1     -18.784  41.393  95.350  1.00  0.00     0.000 C 
BRANCH  19  20
ATOM     20  C   UNL     1     -17.414  40.842  95.776  1.00  0.00     0.006 C 
BRANCH  20  21
ATOM     21  C   UNL     1     -16.392  40.877  94.632  1.00  0.00     0.053 C 
BRANCH  21  22
ATOM     22  C   UNL     1     -15.165  40.077  94.951  1.00  0.00     0.041 C 
ATOM     23  O   UNL     1     -14.079  40.657  95.212  1.00  0.00    -0.550 OA
ATOM     24  O   UNL     1     -15.229  38.689  94.980  1.00  0.00    -0.550 OA
ENDBRANCH  21  22
ENDBRANCH  20  21
ENDBRANCH  19  20
ENDBRANCH  18  19
ENDBRANCH  17  18
ENDBRANCH  16  17
ENDBRANCH  15  16
ENDBRANCH  14  15
ENDBRANCH  13  14
ENDBRANCH   1  13
TORSDOF 20
ENDMDL
MODEL 3
REMARK VINA RESULT:    -3.059     14.206     16.698
REMARK INTER + INTRA:         -10.304
REMARK INTER:                  -6.051
REMARK INTRA:                  -4.253
REMARK UNBOUND:                -3.668
REMARK SMILES CCCCCCCCCCCCCCCCCCCCCC(=O)[O-]
REMARK SMILES IDX 12 1 11 2 10 3 9 4 8 5 7 6 6 7 5 8 4 9 3 10 2 11 1 12 13 13
REMARK SMILES IDX 14 14 15 15 16 16 17 17 18 18 19 19 20 20 21 21 22 22 23 23
REMARK SMILES IDX 24 24
REMARK H PARENT
REMARK Flexibility Score: inf
ROOT
ATOM      1  C   UNL     1     -17.859  41.116  94.012  1.00  0.00     0.000 C 
ENDROOT
BRANCH   1   2
ATOM      2  C   UNL     1     -17.369  41.378  95.447  1.00  0.00     0.000 C 
BRANCH   2   3
ATOM      3  C   UNL     1     -18.488  41.534  96.493  1.00  0.00     0.000 C 
BRANCH   3   4
ATOM      4  C   UNL     1     -18.771  40.245  97.296  1.00  0.00    -0.000 C 
BRANCH   4   5
ATOM      5  C   UNL     1     -20.038  39.522  96.810  1.00  0.00    -0.000 C 
BRANCH   5   6
ATOM      6  C   UNL     1     -19.771  38.063  96.400  1.00  0.00    -0.000 C 
BRANCH   6   7
ATOM      7  C   UNL     1     -18.528  37.920  95.506  1.00  0.00    -0.000 C 
BRANCH   7   8
ATOM      8  C   UNL     1     -17.396  37.132  96.186  1.00  0.00    -0.000 C 
BRANCH   8   9
ATOM      9  C   UNL     1     -16.061  37.223  95.424  1.00  0.00    -0.000 C 
BRANCH   9  10
ATOM     10  C   UNL     1     -16.236  37.822  94.012  1.00  0.00    -0.000 C 
BRANCH  10  11
ATOM     11  C   UNL     1     -15.062  38.711  93.572  1.00  0.00    -0.003 C 
ATOM     12  C   UNL     1     -14.352  39.388  94.741  1.00  0.00     0.004 C 
ENDBRANCH  10  11
ENDBRANCH   9  10
ENDBRANCH   8   9
ENDBRANCH   7   8
ENDBRANCH   6   7
ENDBRANCH   5   6
ENDBRANCH   4   5
ENDBRANCH   3   4
ENDBRANCH   2   3
ENDBRANCH   1   2
BRANCH   1  13
ATOM     13  C   UNL     1     -19.347  41.436  93.756  1.00  0.00     0.000 C 
BRANCH  13  14
ATOM     14  C   UNL     1     -20.145  40.337  93.034  1.00  0.00     0.000 C 
BRANCH  14  15
ATOM     15  C   UNL     1     -19.255  39.379  92.225  1.00  0.00     0.000 C 
BRANCH  15  16
ATOM     16  C   UNL     1     -19.919  38.009  92.003  1.00  0.00     0.000 C 
BRANCH  16  17
ATOM     17  C   UNL     1     -18.912  36.922  91.587  1.00  0.00     0.000 C 
BRANCH  17  18
ATOM     18  C   UNL     1     -18.883  35.742  92.581  1.00  0.00     0.000 C 
BRANCH  18  19
ATOM     19  C   UNL     1     -20.198  35.550  93.356  1.00  0.00     0.000 C 
BRANCH  19  20
ATOM     20  C   UNL     1     -20.036  34.654  94.593  1.00  0.00     0.006 C 
BRANCH  20  21
ATOM     21  C   UNL     1     -18.687  33.922  94.608  1.00  0.00     0.053 C 
BRANCH  21  22
ATOM     22  C   UNL     1     -18.832  32.472  94.256  1.00  0.00     0.041 C 
ATOM     23  O   UNL     1     -17.878  31.849  93.721  1.00  0.00    -0.550 OA
ATOM     24  O   UNL     1     -20.017  31.803  94.540  1.00  0.00    -0.550 OA
ENDBRANCH  21  22
ENDBRANCH  20  21
ENDBRANCH  19  20
ENDBRANCH  18  19
ENDBRANCH  17  18
ENDBRANCH  16  17
ENDBRANCH  15  16
ENDBRANCH  14  15
ENDBRANCH  13  14
ENDBRANCH   1  13
TORSDOF 20
ENDMDL
MODEL 4
REMARK VINA RESULT:    -3.045     13.133     16.000
REMARK INTER + INTRA:         -10.274
REMARK INTER:                  -6.470
REMARK INTRA:                  -3.804
REMARK UNBOUND:                -3.668
REMARK SMILES CCCCCCCCCCCCCCCCCCCCCC(=O)[O-]
REMARK SMILES IDX 12 1 11 2 10 3 9 4 8 5 7 6 6 7 5 8 4 9 3 10 2 11 1 12 13 13
REMARK SMILES IDX 14 14 15 15 16 16 17 17 18 18 19 19 20 20 21 21 22 22 23 23
REMARK SMILES IDX 24 24
REMARK H PARENT
REMARK Flexibility Score: inf
ROOT
ATOM      1  C   UNL     1     -20.170  36.629  91.615  1.00  0.00     0.000 C 
ENDROOT
BRANCH   1   2
ATOM      2  C   UNL     1     -19.424  37.112  92.872  1.00  0.00     0.000 C 
BRANCH   2   3
ATOM      3  C   UNL     1     -20.221  38.084  93.762  1.00  0.00     0.000 C 
BRANCH   3   4
ATOM      4  C   UNL     1     -20.690  39.358  93.024  1.00  0.00    -0.000 C 
BRANCH   4   5
ATOM      5  C   UNL     1     -19.529  40.321  92.726  1.00  0.00    -0.000 C 
BRANCH   5   6
ATOM      6  C   UNL     1     -19.278  41.322  93.867  1.00  0.00    -0.000 C 
BRANCH   6   7
ATOM      7  C   UNL     1     -17.781  41.512  94.165  1.00  0.00    -0.000 C 
BRANCH   7   8
ATOM      8  C   UNL     1     -17.424  41.207  95.629  1.00  0.00    -0.000 C 
BRANCH   8   9
ATOM      9  C   UNL     1     -18.650  40.829  96.478  1.00  0.00    -0.000 C 
BRANCH   9  10
ATOM     10  C   UNL     1     -18.577  39.377  96.995  1.00  0.00    -0.000 C 
BRANCH  10  11
ATOM     11  C   UNL     1     -17.502  38.529  96.294  1.00  0.00    -0.003 C 
ATOM     12  C   UNL     1     -17.209  37.217  97.018  1.00  0.00     0.004 C 
ENDBRANCH  10  11
ENDBRANCH   9  10
ENDBRANCH   8   9
ENDBRANCH   7   8
ENDBRANCH   6   7
ENDBRANCH   5   6
ENDBRANCH   4   5
ENDBRANCH   3   4
ENDBRANCH   2   3
ENDBRANCH   1   2
BRANCH   1  13
ATOM     13  C   UNL     1     -19.594  37.131  90.275  1.00  0.00     0.000 C 
BRANCH  13  14
ATOM     14  C   UNL     1     -19.143  36.033  89.296  1.00  0.00     0.000 C 
BRANCH  14  15
ATOM     15  C   UNL     1     -17.614  35.885  89.221  1.00  0.00     0.000 C 
BRANCH  15  16
ATOM     16  C   UNL     1     -17.040  35.120  90.425  1.00  0.00     0.000 C 
BRANCH  16  17
ATOM     17  C   UNL     1     -16.141  35.999  91.314  1.00  0.00     0.000 C 
BRANCH  17  18
ATOM     18  C   UNL     1     -15.844  37.369  90.668  1.00  0.00     0.000 C 
BRANCH  18  19
ATOM     19  C   UNL     1     -16.492  38.555  91.403  1.00  0.00     0.000 C 
BRANCH  19  20
ATOM     20  C   UNL     1     -16.011  38.691  92.855  1.00  0.00     0.006 C 
BRANCH  20  21
ATOM     21  C   UNL     1     -14.594  39.274  92.946  1.00  0.00     0.053 C 
BRANCH  21  22
ATOM     22  C   UNL     1     -14.231  39.648  94.352  1.00  0.00     0.041 C 
ATOM     23  O   UNL     1     -14.107  38.758  95.234  1.00  0.00    -0.550 OA
ATOM     24  O   UNL     1     -14.007  40.979  94.681  1.00  0.00    -0.550 OA
ENDBRANCH  21  22
ENDBRANCH  20  21
ENDBRANCH  19  20
ENDBRANCH  18  19
ENDBRANCH  17  18
ENDBRANCH  16  17
ENDBRANCH  15  16
ENDBRANCH  14  15
ENDBRANCH  13  14
ENDBRANCH   1  13
TORSDOF 20
ENDMDL
MODEL 5
REMARK VINA RESULT:    -3.038     14.255     16.565
REMARK INTER + INTRA:         -10.259
REMARK INTER:                  -6.223
REMARK INTRA:                  -4.035
REMARK UNBOUND:                -3.668
REMARK SMILES CCCCCCCCCCCCCCCCCCCCCC(=O)[O-]
REMARK SMILES IDX 12 1 11 2 10 3 9 4 8 5 7 6 6 7 5 8 4 9 3 10 2 11 1 12 13 13
REMARK SMILES IDX 14 14 15 15 16 16 17 17 18 18 19 19 20 20 21 21 22 22 23 23
REMARK SMILES IDX 24 24
REMARK H PARENT
REMARK Flexibility Score: inf
ROOT
ATOM      1  C   UNL     1     -17.783  40.880  94.141  1.00  0.00     0.000 C 
ENDROOT
BRANCH   1   2
ATOM      2  C   UNL     1     -19.123  41.513  93.724  1.00  0.00     0.000 C 
BRANCH   2   3
ATOM      3  C   UNL     1     -20.161  40.519  93.169  1.00  0.00     0.000 C 
BRANCH   3   4
ATOM      4  C   UNL     1     -19.534  39.247  92.554  1.00  0.00    -0.000 C 
BRANCH   4   5
ATOM      5  C   UNL     1     -20.475  38.034  92.642  1.00  0.00    -0.000 C 
BRANCH   5   6
ATOM      6  C   UNL     1     -19.887  36.776  91.979  1.00  0.00    -0.000 C 
BRANCH   6   7
ATOM      7  C   UNL     1     -19.656  36.958  90.469  1.00  0.00    -0.000 C 
BRANCH   7   8
ATOM      8  C   UNL     1     -18.250  36.520  90.027  1.00  0.00    -0.000 C 
BRANCH   8   9
ATOM      9  C   UNL     1     -17.492  35.747  91.120  1.00  0.00    -0.000 C 
BRANCH   9  10
ATOM     10  C   UNL     1     -15.997  36.126  91.171  1.00  0.00    -0.000 C 
BRANCH  10  11
ATOM     11  C   UNL     1     -15.737  37.629  90.985  1.00  0.00    -0.003 C 
ATOM     12  C   UNL     1     -15.926  38.433  92.269  1.00  0.00     0.004 C 
ENDBRANCH  10  11
ENDBRANCH   9  10
ENDBRANCH   8   9
ENDBRANCH   7   8
ENDBRANCH   6   7
ENDBRANCH   5   6
ENDBRANCH   4   5
ENDBRANCH   3   4
ENDBRANCH   2   3
ENDBRANCH   1   2
BRANCH   1  13
ATOM     13  C   UNL     1     -17.345  41.163  95.593  1.00  0.00     0.000 C 
BRANCH  13  14
ATOM     14  C   UNL     1     -18.480  41.516  96.570  1.00  0.00     0.000 C 
BRANCH  14  15
ATOM     15  C   UNL     1     -18.871  40.344  97.487  1.00  0.00     0.000 C 
BRANCH  15  16
ATOM     16  C   UNL     1     -20.196  39.687  97.064  1.00  0.00     0.000 C 
BRANCH  16  17
ATOM     17  C   UNL     1     -19.986  38.414  96.224  1.00  0.00     0.000 C 
BRANCH  17  18
ATOM     18  C   UNL     1     -18.666  37.695  96.574  1.00  0.00     0.000 C 
BRANCH  18  19
ATOM     19  C   UNL     1     -17.769  37.418  95.356  1.00  0.00     0.000 C 
BRANCH  19  20
ATOM     20  C   UNL     1     -17.905  35.982  94.828  1.00  0.00     0.006 C 
BRANCH  20  21
ATOM     21  C   UNL     1     -18.429  35.016  95.900  1.00  0.00     0.053 C 
BRANCH  21  22
ATOM     22  C   UNL     1     -19.755  34.427  95.524  1.00  0.00     0.041 C 
ATOM     23  O   UNL     1     -19.972  34.054  94.341  1.00  0.00    -0.550 OA
ATOM     24  O   UNL     1     -20.744  34.272  96.487  1.00  0.00    -0.550 OA
ENDBRANCH  21  22
ENDBRANCH  20  21
ENDBRANCH  19  20
ENDBRANCH  18  19
ENDBRANCH  17  18
ENDBRANCH  16  17
ENDBRANCH  15  16
ENDBRANCH  14  15
ENDBRANCH  13  14
ENDBRANCH   1  13
TORSDOF 20
ENDMDL
MODEL 6
REMARK VINA RESULT:    -3.034     13.148     15.636
REMARK INTER + INTRA:         -10.250
REMARK INTER:                  -6.018
REMARK INTRA:                  -4.232
REMARK UNBOUND:                -3.668
REMARK SMILES CCCCCCCCCCCCCCCCCCCCCC(=O)[O-]
REMARK SMILES IDX 12 1 11 2 10 3 9 4 8 5 7 6 6 7 5 8 4 9 3 10 2 11 1 12 13 13
REMARK SMILES IDX 14 14 15 15 16 16 17 17 18 18 19 19 20 20 21 21 22 22 23 23
REMARK SMILES IDX 24 24
REMARK H PARENT
REMARK Flexibility Score: inf
ROOT
ATOM      1  C   UNL     1     -19.172  41.508  93.874  1.00  0.00     0.000 C 
ENDROOT
BRANCH   1   2
ATOM      2  C   UNL     1     -17.745  41.013  94.176  1.00  0.00     0.000 C 
BRANCH   2   3
ATOM      3  C   UNL     1     -17.342  41.074  95.660  1.00  0.00     0.000 C 
BRANCH   3   4
ATOM      4  C   UNL     1     -18.474  41.563  96.591  1.00  0.00    -0.000 C 
BRANCH   4   5
ATOM      5  C   UNL     1     -19.021  40.438  97.485  1.00  0.00    -0.000 C 
BRANCH   5   6
ATOM      6  C   UNL     1     -18.157  39.167  97.438  1.00  0.00    -0.000 C 
BRANCH   6   7
ATOM      7  C   UNL     1     -18.994  37.880  97.537  1.00  0.00    -0.000 C 
BRANCH   7   8
ATOM      8  C   UNL     1     -19.167  37.178  96.180  1.00  0.00    -0.000 C 
BRANCH   8   9
ATOM      9  C   UNL     1     -17.975  37.405  95.233  1.00  0.00    -0.000 C 
BRANCH   9  10
ATOM     10  C   UNL     1     -17.339  36.078  94.769  1.00  0.00    -0.000 C 
BRANCH  10  11
ATOM     11  C   UNL     1     -18.301  35.180  93.974  1.00  0.00    -0.003 C 
ATOM     12  C   UNL     1     -17.742  33.782  93.719  1.00  0.00     0.004 C 
ENDBRANCH  10  11
ENDBRANCH   9  10
ENDBRANCH   8   9
ENDBRANCH   7   8
ENDBRANCH   6   7
ENDBRANCH   5   6
ENDBRANCH   4   5
ENDBRANCH   3   4
ENDBRANCH   2   3
ENDBRANCH   1   2
BRANCH   1  13
ATOM     13  C   UNL     1     -19.992  40.611  92.923  1.00  0.00     0.000 C 
BRANCH  13  14
ATOM     14  C   UNL     1     -20.561  39.327  93.552  1.00  0.00     0.000 C 
BRANCH  14  15
ATOM     15  C   UNL     1     -20.404  38.094  92.647  1.00  0.00     0.000 C 
BRANCH  15  16
ATOM     16  C   UNL     1     -19.498  38.368  91.435  1.00  0.00     0.000 C 
BRANCH  16  17
ATOM     17  C   UNL     1     -18.742  37.113  90.963  1.00  0.00     0.000 C 
BRANCH  17  18
ATOM     18  C   UNL     1     -17.211  37.281  91.066  1.00  0.00     0.000 C 
BRANCH  18  19
ATOM     19  C   UNL     1     -16.775  38.506  91.887  1.00  0.00     0.000 C 
BRANCH  19  20
ATOM     20  C   UNL     1     -15.248  38.660  91.964  1.00  0.00     0.006 C 
BRANCH  20  21
ATOM     21  C   UNL     1     -14.661  38.003  93.221  1.00  0.00     0.053 C 
BRANCH  21  22
ATOM     22  C   UNL     1     -14.508  38.981  94.346  1.00  0.00     0.041 C 
ATOM     23  O   UNL     1     -14.703  38.617  95.535  1.00  0.00    -0.550 OA
ATOM     24  O   UNL     1     -14.130  40.291  94.081  1.00  0.00    -0.550 OA
ENDBRANCH  21  22
ENDBRANCH  20  21
ENDBRANCH  19  20
ENDBRANCH  18  19
ENDBRANCH  17  18
ENDBRANCH  16  17
ENDBRANCH  15  16
ENDBRANCH  14  15
ENDBRANCH  13  14
ENDBRANCH   1  13
TORSDOF 20
ENDMDL
MODEL 7
REMARK VINA RESULT:    -3.011     13.009     15.242
REMARK INTER + INTRA:         -10.199
REMARK INTER:                  -6.338
REMARK INTRA:                  -3.861
REMARK UNBOUND:                -3.668
REMARK SMILES CCCCCCCCCCCCCCCCCCCCCC(=O)[O-]
REMARK SMILES IDX 12 1 11 2 10 3 9 4 8 5 7 6 6 7 5 8 4 9 3 10 2 11 1 12 13 13
REMARK SMILES IDX 14 14 15 15 16 16 17 17 18 18 19 19 20 20 21 21 22 22 23 23
REMARK SMILES IDX 24 24
REMARK H PARENT
REMARK Flexibility Score: inf
ROOT
ATOM      1  C   UNL     1     -20.435  37.444  92.439  1.00  0.00     0.000 C 
ENDROOT
BRANCH   1   2
ATOM      2  C   UNL     1     -20.095  36.431  91.330  1.00  0.00     0.000 C 
BRANCH   2   3
ATOM      3  C   UNL     1     -19.304  37.014  90.144  1.00  0.00     0.000 C 
BRANCH   3   4
ATOM      4  C   UNL     1     -18.223  36.059  89.591  1.00  0.00    -0.000 C 
BRANCH   4   5
ATOM      5  C   UNL     1     -16.799  36.532  89.928  1.00  0.00    -0.000 C 
BRANCH   5   6
ATOM      6  C   UNL     1     -16.779  37.883  90.663  1.00  0.00    -0.000 C 
BRANCH   6   7
ATOM      7  C   UNL     1     -15.912  37.851  91.933  1.00  0.00    -0.000 C 
BRANCH   7   8
ATOM      8  C   UNL     1     -16.748  37.763  93.221  1.00  0.00    -0.000 C 
BRANCH   8   9
ATOM      9  C   UNL     1     -17.005  36.314  93.671  1.00  0.00    -0.000 C 
BRANCH   9  10
ATOM     10  C   UNL     1     -18.069  36.230  94.785  1.00  0.00    -0.000 C 
BRANCH  10  11
ATOM     11  C   UNL     1     -18.203  37.524  95.605  1.00  0.00    -0.003 C 
ATOM     12  C   UNL     1     -19.640  37.820  96.026  1.00  0.00     0.004 C 
ENDBRANCH  10  11
ENDBRANCH   9  10
ENDBRANCH   8   9
ENDBRANCH   7   8
ENDBRANCH   6   7
ENDBRANCH   5   6
ENDBRANCH   4   5
ENDBRANCH   3   4
ENDBRANCH   2   3
ENDBRANCH   1   2
BRANCH   1  13
ATOM     13  C   UNL     1     -20.050  38.907  92.134  1.00  0.00     0.000 C 
BRANCH  13  14
ATOM     14  C   UNL     1     -21.038  39.970  92.645  1.00  0.00     0.000 C 
BRANCH  14  15
ATOM     15  C   UNL     1     -20.393  40.973  93.618  1.00  0.00     0.000 C 
BRANCH  15  16
ATOM     16  C   UNL     1     -18.865  41.044  93.457  1.00  0.00     0.000 C 
BRANCH  16  17
ATOM     17  C   UNL     1     -18.125  41.021  94.807  1.00  0.00     0.000 C 
BRANCH  17  18
ATOM     18  C   UNL     1     -16.627  41.362  94.656  1.00  0.00     0.000 C 
BRANCH  18  19
ATOM     19  C   UNL     1     -15.688  40.338  95.316  1.00  0.00     0.000 C 
BRANCH  19  20
ATOM     20  C   UNL     1     -14.206  40.604  95.010  1.00  0.00     0.006 C 
BRANCH  20  21
ATOM     21  C   UNL     1     -13.553  39.445  94.244  1.00  0.00     0.053 C 
BRANCH  21  22
ATOM     22  C   UNL     1     -12.749  39.927  93.075  1.00  0.00     0.041 C 
ATOM     23  O   UNL     1     -12.174  41.047  93.118  1.00  0.00    -0.550 OA
ATOM     24  O   UNL     1     -12.616  39.129  91.946  1.00  0.00    -0.550 OA
ENDBRANCH  21  22
ENDBRANCH  20  21
ENDBRANCH  19  20
ENDBRANCH  18  19
ENDBRANCH  17  18
ENDBRANCH  16  17
ENDBRANCH  15  16
ENDBRANCH  14  15
ENDBRANCH  13  14
ENDBRANCH   1  13
TORSDOF 20
ENDMDL
MODEL 8
REMARK VINA RESULT:    -3.007     12.614     15.057
REMARK INTER + INTRA:         -10.192
REMARK INTER:                  -6.335
REMARK INTRA:                  -3.857
REMARK UNBOUND:                -3.668
REMARK SMILES CCCCCCCCCCCCCCCCCCCCCC(=O)[O-]
REMARK SMILES IDX 12 1 11 2 10 3 9 4 8 5 7 6 6 7 5 8 4 9 3 10 2 11 1 12 13 13
REMARK SMILES IDX 14 14 15 15 16 16 17 17 18 18 19 19 20 20 21 21 22 22 23 23
REMARK SMILES IDX 24 24
REMARK H PARENT
REMARK Flexibility Score: inf
ROOT
ATOM      1  C   UNL     1     -18.990  41.042  93.834  1.00  0.00     0.000 C 
ENDROOT
BRANCH   1   2
ATOM      2  C   UNL     1     -20.376  40.422  93.576  1.00  0.00     0.000 C 
BRANCH   2   3
ATOM      3  C   UNL     1     -20.476  39.579  92.291  1.00  0.00     0.000 C 
BRANCH   3   4
ATOM      4  C   UNL     1     -19.162  39.525  91.481  1.00  0.00    -0.000 C 
BRANCH   4   5
ATOM      5  C   UNL     1     -18.829  38.102  91.003  1.00  0.00    -0.000 C 
BRANCH   5   6
ATOM      6  C   UNL     1     -19.636  37.021  91.743  1.00  0.00    -0.000 C 
BRANCH   6   7
ATOM      7  C   UNL     1     -18.810  36.311  92.830  1.00  0.00    -0.000 C 
BRANCH   7   8
ATOM      8  C   UNL     1     -19.342  36.577  94.248  1.00  0.00    -0.000 C 
BRANCH   8   9
ATOM      9  C   UNL     1     -18.482  37.585  95.030  1.00  0.00    -0.000 C 
BRANCH   9  10
ATOM     10  C   UNL     1     -18.374  37.221  96.526  1.00  0.00    -0.000 C 
BRANCH  10  11
ATOM     11  C   UNL     1     -18.809  38.356  97.467  1.00  0.00    -0.003 C 
ATOM     12  C   UNL     1     -20.268  38.766  97.277  1.00  0.00     0.004 C 
ENDBRANCH  10  11
ENDBRANCH   9  10
ENDBRANCH   8   9
ENDBRANCH   7   8
ENDBRANCH   6   7
ENDBRANCH   5   6
ENDBRANCH   4   5
ENDBRANCH   3   4
ENDBRANCH   2   3
ENDBRANCH   1   2
BRANCH   1  13
ATOM     13  C   UNL     1     -18.731  41.492  95.287  1.00  0.00     0.000 C 
BRANCH  13  14
ATOM     14  C   UNL     1     -17.347  41.133  95.854  1.00  0.00     0.000 C 
BRANCH  14  15
ATOM     15  C   UNL     1     -16.295  40.883  94.760  1.00  0.00     0.000 C 
BRANCH  15  16
ATOM     16  C   UNL     1     -15.216  39.880  95.205  1.00  0.00     0.000 C 
BRANCH  16  17
ATOM     17  C   UNL     1     -15.005  38.745  94.187  1.00  0.00     0.000 C 
BRANCH  17  18
ATOM     18  C   UNL     1     -15.836  38.950  92.903  1.00  0.00     0.000 C 
BRANCH  18  19
ATOM     19  C   UNL     1     -14.999  38.926  91.612  1.00  0.00     0.000 C 
BRANCH  19  20
ATOM     20  C   UNL     1     -13.493  38.788  91.880  1.00  0.00     0.006 C 
BRANCH  20  21
ATOM     21  C   UNL     1     -12.668  39.829  91.110  1.00  0.00     0.053 C 
BRANCH  21  22
ATOM     22  C   UNL     1     -12.112  40.886  92.015  1.00  0.00     0.041 C 
ATOM     23  O   UNL     1     -12.402  40.890  93.240  1.00  0.00    -0.550 OA
ATOM     24  O   UNL     1     -11.255  41.855  91.508  1.00  0.00    -0.550 OA
ENDBRANCH  21  22
ENDBRANCH  20  21
ENDBRANCH  19  20
ENDBRANCH  18  19
ENDBRANCH  17  18
ENDBRANCH  16  17
ENDBRANCH  15  16
ENDBRANCH  14  15
ENDBRANCH  13  14
ENDBRANCH   1  13
TORSDOF 20
ENDMDL
MODEL 9
REMARK VINA RESULT:    -2.953     13.510     15.926
REMARK INTER + INTRA:         -10.073
REMARK INTER:                  -6.146
REMARK INTRA:                  -3.928
REMARK UNBOUND:                -3.668
REMARK SMILES CCCCCCCCCCCCCCCCCCCCCC(=O)[O-]
REMARK SMILES IDX 12 1 11 2 10 3 9 4 8 5 7 6 6 7 5 8 4 9 3 10 2 11 1 12 13 13
REMARK SMILES IDX 14 14 15 15 16 16 17 17 18 18 19 19 20 20 21 21 22 22 23 23
REMARK SMILES IDX 24 24
REMARK H PARENT
REMARK Flexibility Score: inf
ROOT
ATOM      1  C   UNL     1     -18.918  41.226  93.768  1.00  0.00     0.000 C 
ENDROOT
BRANCH   1   2
ATOM      2  C   UNL     1     -20.342  40.762  93.411  1.00  0.00     0.000 C 
BRANCH   2   3
ATOM      3  C   UNL     1     -20.433  39.855  92.169  1.00  0.00     0.000 C 
BRANCH   3   4
ATOM      4  C   UNL     1     -19.076  39.249  91.745  1.00  0.00    -0.000 C 
BRANCH   4   5
ATOM      5  C   UNL     1     -19.125  37.714  91.662  1.00  0.00    -0.000 C 
BRANCH   5   6
ATOM      6  C   UNL     1     -20.440  37.129  92.204  1.00  0.00    -0.000 C 
BRANCH   6   7
ATOM      7  C   UNL     1     -20.264  36.454  93.575  1.00  0.00    -0.000 C 
BRANCH   7   8
ATOM      8  C   UNL     1     -20.881  37.271  94.722  1.00  0.00    -0.000 C 
BRANCH   8   9
ATOM      9  C   UNL     1     -19.838  37.732  95.756  1.00  0.00    -0.000 C 
BRANCH   9  10
ATOM     10  C   UNL     1     -18.408  37.740  95.178  1.00  0.00    -0.000 C 
BRANCH  10  11
ATOM     11  C   UNL     1     -17.349  37.191  96.149  1.00  0.00    -0.003 C 
ATOM     12  C   UNL     1     -17.109  35.692  95.988  1.00  0.00     0.004 C 
ENDBRANCH  10  11
ENDBRANCH   9  10
ENDBRANCH   8   9
ENDBRANCH   7   8
ENDBRANCH   6   7
ENDBRANCH   5   6
ENDBRANCH   4   5
ENDBRANCH   3   4
ENDBRANCH   2   3
ENDBRANCH   1   2
BRANCH   1  13
ATOM     13  C   UNL     1     -18.663  41.469  95.270  1.00  0.00     0.000 C 
BRANCH  13  14
ATOM     14  C   UNL     1     -17.282  41.030  95.787  1.00  0.00     0.000 C 
BRANCH  14  15
ATOM     15  C   UNL     1     -16.250  40.840  94.662  1.00  0.00     0.000 C 
BRANCH  15  16
ATOM     16  C   UNL     1     -15.019  40.043  95.124  1.00  0.00     0.000 C 
BRANCH  16  17
ATOM     17  C   UNL     1     -14.695  38.859  94.196  1.00  0.00     0.000 C 
BRANCH  17  18
ATOM     18  C   UNL     1     -15.598  38.834  92.945  1.00  0.00     0.000 C 
BRANCH  18  19
ATOM     19  C   UNL     1     -14.826  38.952  91.619  1.00  0.00     0.000 C 
BRANCH  19  20
ATOM     20  C   UNL     1     -15.651  38.497  90.406  1.00  0.00     0.006 C 
BRANCH  20  21
ATOM     21  C   UNL     1     -14.885  37.504  89.521  1.00  0.00     0.053 C 
BRANCH  21  22
ATOM     22  C   UNL     1     -15.412  36.107  89.658  1.00  0.00     0.041 C 
ATOM     23  O   UNL     1     -16.367  35.863  90.442  1.00  0.00    -0.550 OA
ATOM     24  O   UNL     1     -14.862  35.079  88.902  1.00  0.00    -0.550 OA
ENDBRANCH  21  22
ENDBRANCH  20  21
ENDBRANCH  19  20
ENDBRANCH  18  19
ENDBRANCH  17  18
ENDBRANCH  16  17
ENDBRANCH  15  16
ENDBRANCH  14  15
ENDBRANCH  13  14
ENDBRANCH   1  13
TORSDOF 20
ENDMDL
