MODEL 1
REMARK VINA RESULT:    -3.593      0.000      0.000
REMARK INTER + INTRA:          -9.368
REMARK INTER:                  -6.744
REMARK INTRA:                  -2.625
REMARK UNBOUND:                -2.625
REMARK SMILES CCCCCCCCC=CCCCCCCCC(=O)[O-]
REMARK SMILES IDX 10 1 9 2 11 3 12 4 13 5 14 6 15 7 16 8 17 9 18 10 19 11
REMARK SMILES IDX 20 12 8 13 7 14 6 15 5 16 4 17 3 18 2 19 1 20
REMARK H PARENT
REMARK Flexibility Score: inf
ROOT
ATOM      1  C   UNL     1      38.444 187.351  30.862  1.00  0.00    -0.031 C 
ATOM      2  C   UNL     1      39.094 186.185  30.678  1.00  0.00    -0.031 C 
ENDROOT
BRANCH   1   3
ATOM      3  C   UNL     1      38.630 188.280  32.041  1.00  0.00     0.027 C 
BRANCH   3   4
ATOM      4  C   UNL     1      37.587 188.031  33.142  1.00  0.00     0.004 C 
BRANCH   4   5
ATOM      5  C   UNL     1      38.108 187.255  34.370  1.00  0.00     0.000 C 
BRANCH   5   6
ATOM      6  C   UNL     1      37.719 185.765  34.415  1.00  0.00     0.000 C 
BRANCH   6   7
ATOM      7  C   UNL     1      36.347 185.430  33.797  1.00  0.00     0.000 C 
BRANCH   7   8
ATOM      8  C   UNL     1      36.398 184.534  32.543  1.00  0.00     0.006 C 
BRANCH   8   9
ATOM      9  C   UNL     1      35.090 184.492  31.738  1.00  0.00     0.053 C 
BRANCH   9  10
ATOM     10  C   UNL     1      35.037 183.311  30.817  1.00  0.00     0.041 C 
ATOM     11  O   UNL     1      35.330 182.163  31.241  1.00  0.00    -0.550 OA
ATOM     12  O   UNL     1      34.630 183.476  29.499  1.00  0.00    -0.550 OA
ENDBRANCH   9  10
ENDBRANCH   8   9
ENDBRANCH   7   8
ENDBRANCH   6   7
ENDBRANCH   5   6
ENDBRANCH   4   5
ENDBRANCH   3   4
ENDBRANCH   1   3
BRANCH   2  13
ATOM     13  C   UNL     1      40.108 185.595  31.625  1.00  0.00     0.027 C 
BRANCH  13  14
ATOM     14  C   UNL     1      41.492 186.234  31.435  1.00  0.00     0.004 C 
BRANCH  14  15
ATOM     15  C   UNL     1      41.906 187.112  32.627  1.00  0.00     0.000 C 
BRANCH  15  16
ATOM     16  C   UNL     1      41.611 186.448  33.983  1.00  0.00     0.000 C 
BRANCH  16  17
ATOM     17  C   UNL     1      42.681 185.409  34.362  1.00  0.00    -0.000 C 
BRANCH  17  18
ATOM     18  C   UNL     1      42.148 183.959  34.366  1.00  0.00    -0.000 C 
BRANCH  18  19
ATOM     19  C   UNL     1      42.875 183.036  33.375  1.00  0.00    -0.003 C 
ATOM     20  C   UNL     1      44.057 183.715  32.687  1.00  0.00     0.004 C 
ENDBRANCH  18  19
ENDBRANCH  17  18
ENDBRANCH  16  17
ENDBRANCH  15  16
ENDBRANCH  14  15
ENDBRANCH  13  14
ENDBRANCH   2  13
TORSDOF 15
ENDMDL
MODEL 2
REMARK VINA RESULT:    -3.511      1.350      2.088
REMARK INTER + INTRA:          -9.215
REMARK INTER:                  -6.464
REMARK INTRA:                  -2.751
REMARK UNBOUND:                -2.625
REMARK SMILES CCCCCCCCC=CCCCCCCCC(=O)[O-]
REMARK SMILES IDX 10 1 9 2 11 3 12 4 13 5 14 6 15 7 16 8 17 9 18 10 19 11
REMARK SMILES IDX 20 12 8 13 7 14 6 15 5 16 4 17 3 18 2 19 1 20
REMARK H PARENT
REMARK Flexibility Score: inf
ROOT
ATOM      1  C   UNL     1      40.189 185.755  30.622  1.00  0.00    -0.031 C 
ATOM      2  C   UNL     1      41.314 185.877  31.354  1.00  0.00    -0.031 C 
ENDROOT
BRANCH   1   3
ATOM      3  C   UNL     1      39.099 186.797  30.511  1.00  0.00     0.027 C 
BRANCH   3   4
ATOM      4  C   UNL     1      38.073 186.682  31.651  1.00  0.00     0.004 C 
BRANCH   4   5
ATOM      5  C   UNL     1      37.343 185.326  31.736  1.00  0.00     0.000 C 
BRANCH   5   6
ATOM      6  C   UNL     1      36.355 185.187  32.910  1.00  0.00     0.000 C 
BRANCH   6   7
ATOM      7  C   UNL     1      36.254 183.773  33.514  1.00  0.00     0.000 C 
BRANCH   7   8
ATOM      8  C   UNL     1      35.292 182.818  32.779  1.00  0.00     0.006 C 
BRANCH   8   9
ATOM      9  C   UNL     1      34.156 183.521  32.018  1.00  0.00     0.053 C 
BRANCH   9  10
ATOM     10  C   UNL     1      34.125 183.129  30.572  1.00  0.00     0.041 C 
ATOM     11  O   UNL     1      33.453 182.133  30.199  1.00  0.00    -0.550 OA
ATOM     12  O   UNL     1      34.813 183.888  29.633  1.00  0.00    -0.550 OA
ENDBRANCH   9  10
ENDBRANCH   8   9
ENDBRANCH   7   8
ENDBRANCH   6   7
ENDBRANCH   5   6
ENDBRANCH   4   5
ENDBRANCH   3   4
ENDBRANCH   1   3
BRANCH   2  13
ATOM     13  C   UNL     1      41.674 187.070  32.204  1.00  0.00     0.027 C 
BRANCH  13  14
ATOM     14  C   UNL     1      41.777 186.690  33.688  1.00  0.00     0.004 C 
BRANCH  14  15
ATOM     15  C   UNL     1      40.493 187.007  34.471  1.00  0.00     0.000 C 
BRANCH  15  16
ATOM     16  C   UNL     1      39.712 185.742  34.866  1.00  0.00     0.000 C 
BRANCH  16  17
ATOM     17  C   UNL     1      40.607 184.489  34.870  1.00  0.00    -0.000 C 
BRANCH  17  18
ATOM     18  C   UNL     1      40.141 183.404  33.873  1.00  0.00    -0.000 C 
BRANCH  18  19
ATOM     19  C   UNL     1      41.297 182.725  33.122  1.00  0.00    -0.003 C 
ATOM     20  C   UNL     1      42.667 183.069  33.702  1.00  0.00     0.004 C 
ENDBRANCH  18  19
ENDBRANCH  17  18
ENDBRANCH  16  17
ENDBRANCH  15  16
ENDBRANCH  14  15
ENDBRANCH  13  14
ENDBRANCH   2  13
TORSDOF 15
ENDMDL
MODEL 3
REMARK VINA RESULT:    -3.486      2.639      6.075
REMARK INTER + INTRA:          -9.168
REMARK INTER:                  -6.675
REMARK INTRA:                  -2.493
REMARK UNBOUND:                -2.625
REMARK SMILES CCCCCCCCC=CCCCCCCCC(=O)[O-]
REMARK SMILES IDX 10 1 9 2 11 3 12 4 13 5 14 6 15 7 16 8 17 9 18 10 19 11
REMARK SMILES IDX 20 12 8 13 7 14 6 15 5 16 4 17 3 18 2 19 1 20
REMARK H PARENT
REMARK Flexibility Score: inf
ROOT
ATOM      1  C   UNL     1      39.582 186.345  30.247  1.00  0.00    -0.031 C 
ATOM      2  C   UNL     1      38.251 186.332  30.453  1.00  0.00    -0.031 C 
ENDROOT
BRANCH   1   3
ATOM      3  C   UNL     1      40.596 185.531  31.021  1.00  0.00     0.027 C 
BRANCH   3   4
ATOM      4  C   UNL     1      41.585 186.424  31.789  1.00  0.00     0.004 C 
BRANCH   4   5
ATOM      5  C   UNL     1      40.950 187.313  32.879  1.00  0.00     0.000 C 
BRANCH   5   6
ATOM      6  C   UNL     1      41.051 186.760  34.314  1.00  0.00     0.000 C 
BRANCH   6   7
ATOM      7  C   UNL     1      39.948 185.757  34.706  1.00  0.00     0.000 C 
BRANCH   7   8
ATOM      8  C   UNL     1      40.338 184.271  34.560  1.00  0.00     0.006 C 
BRANCH   8   9
ATOM      9  C   UNL     1      41.846 183.996  34.672  1.00  0.00     0.053 C 
BRANCH   9  10
ATOM     10  C   UNL     1      42.346 183.149  33.541  1.00  0.00     0.041 C 
ATOM     11  O   UNL     1      43.582 183.002  33.357  1.00  0.00    -0.550 OA
ATOM     12  O   UNL     1      41.443 182.497  32.711  1.00  0.00    -0.550 OA
ENDBRANCH   9  10
ENDBRANCH   8   9
ENDBRANCH   7   8
ENDBRANCH   6   7
ENDBRANCH   5   6
ENDBRANCH   4   5
ENDBRANCH   3   4
ENDBRANCH   1   3
BRANCH   2  13
ATOM     13  C   UNL     1      37.540 185.516  31.504  1.00  0.00     0.027 C 
BRANCH  13  14
ATOM     14  C   UNL     1      37.037 186.400  32.654  1.00  0.00     0.004 C 
BRANCH  14  15
ATOM     15  C   UNL     1      36.339 185.592  33.760  1.00  0.00     0.000 C 
BRANCH  15  16
ATOM     16  C   UNL     1      36.109 184.122  33.364  1.00  0.00     0.000 C 
BRANCH  16  17
ATOM     17  C   UNL     1      34.618 183.744  33.390  1.00  0.00    -0.000 C 
BRANCH  17  18
ATOM     18  C   UNL     1      34.215 182.773  32.258  1.00  0.00    -0.000 C 
BRANCH  18  19
ATOM     19  C   UNL     1      35.157 182.823  31.044  1.00  0.00    -0.003 C 
ATOM     20  C   UNL     1      34.554 183.565  29.853  1.00  0.00     0.004 C 
ENDBRANCH  18  19
ENDBRANCH  17  18
ENDBRANCH  16  17
ENDBRANCH  15  16
ENDBRANCH  14  15
ENDBRANCH  13  14
ENDBRANCH   2  13
TORSDOF 15
ENDMDL
MODEL 4
REMARK VINA RESULT:    -3.443      2.411      6.158
REMARK INTER + INTRA:          -9.088
REMARK INTER:                  -6.801
REMARK INTRA:                  -2.286
REMARK UNBOUND:                -2.625
REMARK SMILES CCCCCCCCC=CCCCCCCCC(=O)[O-]
REMARK SMILES IDX 10 1 9 2 11 3 12 4 13 5 14 6 15 7 16 8 17 9 18 10 19 11
REMARK SMILES IDX 20 12 8 13 7 14 6 15 5 16 4 17 3 18 2 19 1 20
REMARK H PARENT
REMARK Flexibility Score: inf
ROOT
ATOM      1  C   UNL     1      39.256 186.170  30.378  1.00  0.00    -0.031 C 
ATOM      2  C   UNL     1      38.494 187.257  30.608  1.00  0.00    -0.031 C 
ENDROOT
BRANCH   1   3
ATOM      3  C   UNL     1      40.172 185.513  31.386  1.00  0.00     0.027 C 
BRANCH   3   4
ATOM      4  C   UNL     1      41.566 186.162  31.407  1.00  0.00     0.004 C 
BRANCH   4   5
ATOM      5  C   UNL     1      41.849 187.059  32.631  1.00  0.00     0.000 C 
BRANCH   5   6
ATOM      6  C   UNL     1      41.290 186.535  33.968  1.00  0.00     0.000 C 
BRANCH   6   7
ATOM      7  C   UNL     1      42.352 186.049  34.974  1.00  0.00     0.000 C 
BRANCH   7   8
ATOM      8  C   UNL     1      42.455 184.517  35.123  1.00  0.00     0.006 C 
BRANCH   8   9
ATOM      9  C   UNL     1      43.119 183.806  33.933  1.00  0.00     0.053 C 
BRANCH   9  10
ATOM     10  C   UNL     1      42.442 182.509  33.608  1.00  0.00     0.041 C 
ATOM     11  O   UNL     1      41.465 182.486  32.815  1.00  0.00    -0.550 OA
ATOM     12  O   UNL     1      42.915 181.324  34.155  1.00  0.00    -0.550 OA
ENDBRANCH   9  10
ENDBRANCH   8   9
ENDBRANCH   7   8
ENDBRANCH   6   7
ENDBRANCH   5   6
ENDBRANCH   4   5
ENDBRANCH   3   4
ENDBRANCH   1   3
BRANCH   2  13
ATOM     13  C   UNL     1      38.436 188.020  31.908  1.00  0.00     0.027 C 
BRANCH  13  14
ATOM     14  C   UNL     1      37.237 187.583  32.762  1.00  0.00     0.004 C 
BRANCH  14  15
ATOM     15  C   UNL     1      37.614 186.529  33.816  1.00  0.00     0.000 C 
BRANCH  15  16
ATOM     16  C   UNL     1      37.152 185.113  33.430  1.00  0.00     0.000 C 
BRANCH  16  17
ATOM     17  C   UNL     1      35.771 185.122  32.751  1.00  0.00    -0.000 C 
BRANCH  17  18
ATOM     18  C   UNL     1      35.796 184.564  31.310  1.00  0.00    -0.000 C 
BRANCH  18  19
ATOM     19  C   UNL     1      35.035 183.237  31.153  1.00  0.00    -0.003 C 
ATOM     20  C   UNL     1      34.388 183.081  29.779  1.00  0.00     0.004 C 
ENDBRANCH  18  19
ENDBRANCH  17  18
ENDBRANCH  16  17
ENDBRANCH  15  16
ENDBRANCH  14  15
ENDBRANCH  13  14
ENDBRANCH   2  13
TORSDOF 15
ENDMDL
MODEL 5
REMARK VINA RESULT:    -3.400     16.969     20.787
REMARK INTER + INTRA:          -9.006
REMARK INTER:                  -7.071
REMARK INTRA:                  -1.935
REMARK UNBOUND:                -2.625
REMARK SMILES CCCCCCCCC=CCCCCCCCC(=O)[O-]
REMARK SMILES IDX 10 1 9 2 11 3 12 4 13 5 14 6 15 7 16 8 17 9 18 10 19 11
REMARK SMILES IDX 20 12 8 13 7 14 6 15 5 16 4 17 3 18 2 19 1 20
REMARK H PARENT
REMARK Flexibility Score: inf
ROOT
ATOM      1  C   UNL     1      31.588 171.644  19.684  1.00  0.00    -0.031 C 
ATOM      2  C   UNL     1      31.985 170.913  18.625  1.00  0.00    -0.031 C 
ENDROOT
BRANCH   1   3
ATOM      3  C   UNL     1      30.892 171.101  20.912  1.00  0.00     0.027 C 
BRANCH   3   4
ATOM      4  C   UNL     1      29.459 171.641  21.048  1.00  0.00     0.004 C 
BRANCH   4   5
ATOM      5  C   UNL     1      29.245 173.067  20.498  1.00  0.00     0.000 C 
BRANCH   5   6
ATOM      6  C   UNL     1      29.993 174.180  21.257  1.00  0.00     0.000 C 
BRANCH   6   7
ATOM      7  C   UNL     1      29.118 175.026  22.202  1.00  0.00     0.000 C 
BRANCH   7   8
ATOM      8  C   UNL     1      29.385 174.809  23.706  1.00  0.00     0.006 C 
BRANCH   8   9
ATOM      9  C   UNL     1      30.609 173.931  24.014  1.00  0.00     0.053 C 
BRANCH   9  10
ATOM     10  C   UNL     1      30.222 172.649  24.687  1.00  0.00     0.041 C 
ATOM     11  O   UNL     1      29.083 172.150  24.494  1.00  0.00    -0.550 OA
ATOM     12  O   UNL     1      31.135 171.991  25.501  1.00  0.00    -0.550 OA
ENDBRANCH   9  10
ENDBRANCH   8   9
ENDBRANCH   7   8
ENDBRANCH   6   7
ENDBRANCH   5   6
ENDBRANCH   4   5
ENDBRANCH   3   4
ENDBRANCH   1   3
BRANCH   2  13
ATOM     13  C   UNL     1      31.788 169.425  18.471  1.00  0.00     0.027 C 
BRANCH  13  14
ATOM     14  C   UNL     1      31.572 169.037  17.001  1.00  0.00     0.004 C 
BRANCH  14  15
ATOM     15  C   UNL     1      31.113 170.223  16.137  1.00  0.00     0.000 C 
BRANCH  15  16
ATOM     16  C   UNL     1      31.979 170.408  14.878  1.00  0.00     0.000 C 
BRANCH  16  17
ATOM     17  C   UNL     1      32.989 171.558  15.038  1.00  0.00    -0.000 C 
BRANCH  17  18
ATOM     18  C   UNL     1      34.453 171.074  15.134  1.00  0.00    -0.000 C 
BRANCH  18  19
ATOM     19  C   UNL     1      34.957 170.929  16.579  1.00  0.00    -0.003 C 
ATOM     20  C   UNL     1      35.300 169.487  16.948  1.00  0.00     0.004 C 
ENDBRANCH  18  19
ENDBRANCH  17  18
ENDBRANCH  16  17
ENDBRANCH  15  16
ENDBRANCH  14  15
ENDBRANCH  13  14
ENDBRANCH   2  13
TORSDOF 15
ENDMDL
MODEL 6
REMARK VINA RESULT:    -3.368     17.066     19.564
REMARK INTER + INTRA:          -8.945
REMARK INTER:                  -7.077
REMARK INTRA:                  -1.868
REMARK UNBOUND:                -2.625
REMARK SMILES CCCCCCCCC=CCCCCCCCC(=O)[O-]
REMARK SMILES IDX 10 1 9 2 11 3 12 4 13 5 14 6 15 7 16 8 17 9 18 10 19 11
REMARK SMILES IDX 20 12 8 13 7 14 6 15 5 16 4 17 3 18 2 19 1 20
REMARK H PARENT
REMARK Flexibility Score: inf
ROOT
ATOM      1  C   UNL     1      29.866 174.831  21.537  1.00  0.00    -0.031 C 
ATOM      2  C   UNL     1      30.165 173.710  20.853  1.00  0.00    -0.031 C 
ENDROOT
BRANCH   1   3
ATOM      3  C   UNL     1      28.488 175.215  22.030  1.00  0.00     0.027 C 
BRANCH   3   4
ATOM      4  C   UNL     1      28.272 174.822  23.500  1.00  0.00     0.004 C 
BRANCH   4   5
ATOM      5  C   UNL     1      29.565 174.574  24.305  1.00  0.00     0.000 C 
BRANCH   5   6
ATOM      6  C   UNL     1      29.640 173.208  25.016  1.00  0.00     0.000 C 
BRANCH   6   7
ATOM      7  C   UNL     1      29.355 171.989  24.118  1.00  0.00     0.000 C 
BRANCH   7   8
ATOM      8  C   UNL     1      30.609 171.248  23.607  1.00  0.00     0.006 C 
BRANCH   8   9
ATOM      9  C   UNL     1      31.900 171.587  24.368  1.00  0.00     0.053 C 
BRANCH   9  10
ATOM     10  C   UNL     1      32.941 170.521  24.206  1.00  0.00     0.041 C 
ATOM     11  O   UNL     1      33.221 170.077  23.062  1.00  0.00    -0.550 OA
ATOM     12  O   UNL     1      33.624 170.043  25.317  1.00  0.00    -0.550 OA
ENDBRANCH   9  10
ENDBRANCH   8   9
ENDBRANCH   7   8
ENDBRANCH   6   7
ENDBRANCH   5   6
ENDBRANCH   4   5
ENDBRANCH   3   4
ENDBRANCH   1   3
BRANCH   2  13
ATOM     13  C   UNL     1      29.174 172.649  20.444  1.00  0.00     0.027 C 
BRANCH  13  14
ATOM     14  C   UNL     1      29.874 171.453  19.782  1.00  0.00     0.004 C 
BRANCH  14  15
ATOM     15  C   UNL     1      31.404 171.514  19.917  1.00  0.00     0.000 C 
BRANCH  15  16
ATOM     16  C   UNL     1      32.109 170.355  19.190  1.00  0.00     0.000 C 
BRANCH  16  17
ATOM     17  C   UNL     1      32.871 170.835  17.942  1.00  0.00    -0.000 C 
BRANCH  17  18
ATOM     18  C   UNL     1      33.834 169.772  17.369  1.00  0.00    -0.000 C 
BRANCH  18  19
ATOM     19  C   UNL     1      35.110 170.369  16.754  1.00  0.00    -0.003 C 
ATOM     20  C   UNL     1      34.845 171.135  15.460  1.00  0.00     0.004 C 
ENDBRANCH  18  19
ENDBRANCH  17  18
ENDBRANCH  16  17
ENDBRANCH  15  16
ENDBRANCH  14  15
ENDBRANCH  13  14
ENDBRANCH   2  13
TORSDOF 15
ENDMDL
MODEL 7
REMARK VINA RESULT:    -3.367     18.196     21.393
REMARK INTER + INTRA:          -8.944
REMARK INTER:                  -6.426
REMARK INTRA:                  -2.518
REMARK UNBOUND:                -2.625
REMARK SMILES CCCCCCCCC=CCCCCCCCC(=O)[O-]
REMARK SMILES IDX 10 1 9 2 11 3 12 4 13 5 14 6 15 7 16 8 17 9 18 10 19 11
REMARK SMILES IDX 20 12 8 13 7 14 6 15 5 16 4 17 3 18 2 19 1 20
REMARK H PARENT
REMARK Flexibility Score: inf
ROOT
ATOM      1  C   UNL     1      32.748 170.403  19.607  1.00  0.00    -0.031 C 
ATOM      2  C   UNL     1      32.075 170.973  18.589  1.00  0.00    -0.031 C 
ENDROOT
BRANCH   1   3
ATOM      3  C   UNL     1      32.482 169.025  20.171  1.00  0.00     0.027 C 
BRANCH   3   4
ATOM      4  C   UNL     1      32.020 169.082  21.637  1.00  0.00     0.004 C 
BRANCH   4   5
ATOM      5  C   UNL     1      30.498 169.242  21.834  1.00  0.00     0.000 C 
BRANCH   5   6
ATOM      6  C   UNL     1      29.991 170.697  21.859  1.00  0.00     0.000 C 
BRANCH   6   7
ATOM      7  C   UNL     1      28.935 171.038  20.789  1.00  0.00     0.000 C 
BRANCH   7   8
ATOM      8  C   UNL     1      28.855 172.530  20.405  1.00  0.00     0.006 C 
BRANCH   8   9
ATOM      9  C   UNL     1      30.061 173.368  20.860  1.00  0.00     0.053 C 
BRANCH   9  10
ATOM     10  C   UNL     1      29.691 174.342  21.937  1.00  0.00     0.041 C 
ATOM     11  O   UNL     1      29.845 174.037  23.148  1.00  0.00    -0.550 OA
ATOM     12  O   UNL     1      29.208 175.600  21.599  1.00  0.00    -0.550 OA
ENDBRANCH   9  10
ENDBRANCH   8   9
ENDBRANCH   7   8
ENDBRANCH   6   7
ENDBRANCH   5   6
ENDBRANCH   4   5
ENDBRANCH   3   4
ENDBRANCH   1   3
BRANCH   2  13
ATOM     13  C   UNL     1      30.925 170.341  17.845  1.00  0.00     0.027 C 
BRANCH  13  14
ATOM     14  C   UNL     1      31.241 170.186  16.350  1.00  0.00     0.004 C 
BRANCH  14  15
ATOM     15  C   UNL     1      31.142 171.515  15.584  1.00  0.00     0.000 C 
BRANCH  15  16
ATOM     16  C   UNL     1      32.456 171.890  14.875  1.00  0.00     0.000 C 
BRANCH  16  17
ATOM     17  C   UNL     1      33.493 170.754  14.945  1.00  0.00    -0.000 C 
BRANCH  17  18
ATOM     18  C   UNL     1      34.868 171.217  15.476  1.00  0.00    -0.000 C 
BRANCH  18  19
ATOM     19  C   UNL     1      35.172 170.726  16.900  1.00  0.00    -0.003 C 
ATOM     20  C   UNL     1      35.129 169.205  17.027  1.00  0.00     0.004 C 
ENDBRANCH  18  19
ENDBRANCH  17  18
ENDBRANCH  16  17
ENDBRANCH  15  16
ENDBRANCH  14  15
ENDBRANCH  13  14
ENDBRANCH   2  13
TORSDOF 15
ENDMDL
MODEL 8
REMARK VINA RESULT:    -3.304     17.412     20.899
REMARK INTER + INTRA:          -8.827
REMARK INTER:                  -7.020
REMARK INTRA:                  -1.806
REMARK UNBOUND:                -2.625
REMARK SMILES CCCCCCCCC=CCCCCCCCC(=O)[O-]
REMARK SMILES IDX 10 1 9 2 11 3 12 4 13 5 14 6 15 7 16 8 17 9 18 10 19 11
REMARK SMILES IDX 20 12 8 13 7 14 6 15 5 16 4 17 3 18 2 19 1 20
REMARK H PARENT
REMARK Flexibility Score: inf
ROOT
ATOM      1  C   UNL     1      31.470 171.519  19.590  1.00  0.00    -0.031 C 
ATOM      2  C   UNL     1      32.407 171.083  18.726  1.00  0.00    -0.031 C 
ENDROOT
BRANCH   1   3
ATOM      3  C   UNL     1      30.978 170.764  20.805  1.00  0.00     0.027 C 
BRANCH   3   4
ATOM      4  C   UNL     1      29.491 171.032  21.087  1.00  0.00     0.004 C 
BRANCH   4   5
ATOM      5  C   UNL     1      28.806 172.003  20.103  1.00  0.00     0.000 C 
BRANCH   5   6
ATOM      6  C   UNL     1      28.328 173.332  20.721  1.00  0.00     0.000 C 
BRANCH   6   7
ATOM      7  C   UNL     1      29.453 174.296  21.144  1.00  0.00     0.000 C 
BRANCH   7   8
ATOM      8  C   UNL     1      29.082 175.271  22.280  1.00  0.00     0.006 C 
BRANCH   8   9
ATOM      9  C   UNL     1      28.700 174.589  23.604  1.00  0.00     0.053 C 
BRANCH   9  10
ATOM     10  C   UNL     1      29.780 173.673  24.093  1.00  0.00     0.041 C 
ATOM     11  O   UNL     1      29.524 172.466  24.343  1.00  0.00    -0.550 OA
ATOM     12  O   UNL     1      31.078 174.146  24.239  1.00  0.00    -0.550 OA
ENDBRANCH   9  10
ENDBRANCH   8   9
ENDBRANCH   7   8
ENDBRANCH   6   7
ENDBRANCH   5   6
ENDBRANCH   4   5
ENDBRANCH   3   4
ENDBRANCH   1   3
BRANCH   2  13
ATOM     13  C   UNL     1      33.116 169.755  18.810  1.00  0.00     0.027 C 
BRANCH  13  14
ATOM     14  C   UNL     1      33.643 169.313  17.437  1.00  0.00     0.004 C 
BRANCH  14  15
ATOM     15  C   UNL     1      35.013 169.925  17.103  1.00  0.00     0.000 C 
BRANCH  15  16
ATOM     16  C   UNL     1      34.908 171.133  16.156  1.00  0.00     0.000 C 
BRANCH  16  17
ATOM     17  C   UNL     1      33.908 170.884  15.013  1.00  0.00    -0.000 C 
BRANCH  17  18
ATOM     18  C   UNL     1      32.661 171.794  15.085  1.00  0.00    -0.000 C 
BRANCH  18  19
ATOM     19  C   UNL     1      31.335 171.025  14.969  1.00  0.00    -0.003 C 
ATOM     20  C   UNL     1      30.228 171.615  15.840  1.00  0.00     0.004 C 
ENDBRANCH  18  19
ENDBRANCH  17  18
ENDBRANCH  16  17
ENDBRANCH  15  16
ENDBRANCH  14  15
ENDBRANCH  13  14
ENDBRANCH   2  13
TORSDOF 15
ENDMDL
MODEL 9
REMARK VINA RESULT:    -3.303     17.958     21.076
REMARK INTER + INTRA:          -8.823
REMARK INTER:                  -6.716
REMARK INTRA:                  -2.107
REMARK UNBOUND:                -2.625
REMARK SMILES CCCCCCCCC=CCCCCCCCC(=O)[O-]
REMARK SMILES IDX 10 1 9 2 11 3 12 4 13 5 14 6 15 7 16 8 17 9 18 10 19 11
REMARK SMILES IDX 20 12 8 13 7 14 6 15 5 16 4 17 3 18 2 19 1 20
REMARK H PARENT
REMARK Flexibility Score: inf
ROOT
ATOM      1  C   UNL     1      32.975 169.212  21.245  1.00  0.00    -0.031 C 
ATOM      2  C   UNL     1      33.208 169.415  19.933  1.00  0.00    -0.031 C 
ENDROOT
BRANCH   1   3
ATOM      3  C   UNL     1      32.020 170.015  22.099  1.00  0.00     0.027 C 
BRANCH   3   4
ATOM      4  C   UNL     1      30.598 169.430  22.080  1.00  0.00     0.004 C 
BRANCH   4   5
ATOM      5  C   UNL     1      29.597 170.183  21.179  1.00  0.00     0.000 C 
BRANCH   5   6
ATOM      6  C   UNL     1      29.408 171.675  21.516  1.00  0.00     0.000 C 
BRANCH   6   7
ATOM      7  C   UNL     1      30.176 172.652  20.605  1.00  0.00     0.000 C 
BRANCH   7   8
ATOM      8  C   UNL     1      30.092 174.135  21.022  1.00  0.00     0.006 C 
BRANCH   8   9
ATOM      9  C   UNL     1      29.624 174.362  22.468  1.00  0.00     0.053 C 
BRANCH   9  10
ATOM     10  C   UNL     1      28.373 175.187  22.527  1.00  0.00     0.041 C 
ATOM     11  O   UNL     1      28.130 176.035  21.630  1.00  0.00    -0.550 OA
ATOM     12  O   UNL     1      27.462 174.992  23.557  1.00  0.00    -0.550 OA
ENDBRANCH   9  10
ENDBRANCH   8   9
ENDBRANCH   7   8
ENDBRANCH   6   7
ENDBRANCH   5   6
ENDBRANCH   4   5
ENDBRANCH   3   4
ENDBRANCH   1   3
BRANCH   2  13
ATOM     13  C   UNL     1      32.569 170.491  19.092  1.00  0.00     0.027 C 
BRANCH  13  14
ATOM     14  C   UNL     1      31.656 169.891  18.012  1.00  0.00     0.004 C 
BRANCH  14  15
ATOM     15  C   UNL     1      31.039 170.961  17.098  1.00  0.00     0.000 C 
BRANCH  15  16
ATOM     16  C   UNL     1      31.305 170.691  15.606  1.00  0.00     0.000 C 
BRANCH  16  17
ATOM     17  C   UNL     1      32.650 169.977  15.380  1.00  0.00    -0.000 C 
BRANCH  17  18
ATOM     18  C   UNL     1      33.812 170.948  15.075  1.00  0.00    -0.000 C 
BRANCH  18  19
ATOM     19  C   UNL     1      34.859 171.024  16.198  1.00  0.00    -0.003 C 
ATOM     20  C   UNL     1      35.255 169.650  16.734  1.00  0.00     0.004 C 
ENDBRANCH  18  19
ENDBRANCH  17  18
ENDBRANCH  16  17
ENDBRANCH  15  16
ENDBRANCH  14  15
ENDBRANCH  13  14
ENDBRANCH   2  13
TORSDOF 15
ENDMDL
