MODEL 1
REMARK VINA RESULT:    -5.400      0.000      0.000
REMARK INTER + INTRA:          -6.797
REMARK INTER:                  -6.505
REMARK INTRA:                  -0.292
REMARK UNBOUND:                -0.292
REMARK SMILES Oc1cc(O)c2cc(O)c(-c3ccc(O)c(O)c3)[o+]c2c1
REMARK SMILES IDX 10 1 19 2 20 3 21 4 2 5 3 6 4 7 6 8 7 9 8 10 11 11 12 12
REMARK SMILES IDX 13 13 14 14 18 15 16 16 15 17 17 19 9 21 1 23 5 25
REMARK H PARENT 15 18 17 20 9 22 1 24 5 26
REMARK Flexibility Score: inf
ROOT
ATOM      1  C   UNL     1    -116.731  12.556  22.988  1.00  0.00     0.402 A 
ATOM      2  O   UNL     1    -116.758  12.278  21.687  1.00  0.00    -0.202 OA
ATOM      3  C   UNL     1    -117.544  12.911  20.822  1.00  0.00     0.368 A 
ATOM      4  C   UNL     1    -117.500  12.550  19.473  1.00  0.00     0.162 A 
ATOM      5  C   UNL     1    -118.315  13.202  18.542  1.00  0.00     0.128 A 
ATOM      6  C   UNL     1    -119.176  14.218  18.962  1.00  0.00     0.093 A 
ATOM      7  C   UNL     1    -119.239  14.597  20.308  1.00  0.00     0.136 A 
ATOM      8  C   UNL     1    -118.416  13.938  21.258  1.00  0.00     0.125 A 
ATOM      9  C   UNL     1    -118.423  14.243  22.629  1.00  0.00     0.078 A 
ATOM     10  C   UNL     1    -117.586  13.546  23.506  1.00  0.00     0.223 A 
ENDROOT
BRANCH   1  11
ATOM     11  C   UNL     1    -115.802  11.787  23.848  1.00  0.00     0.087 A 
ATOM     12  C   UNL     1    -116.053  10.428  24.093  1.00  0.00     0.022 A 
ATOM     13  C   UNL     1    -115.180   9.679  24.885  1.00  0.00     0.051 A 
ATOM     14  C   UNL     1    -114.035  10.273  25.432  1.00  0.00     0.157 A 
ATOM     15  C   UNL     1    -114.642  12.376  24.382  1.00  0.00     0.068 A 
ATOM     16  C   UNL     1    -113.763  11.627  25.175  1.00  0.00     0.158 A 
BRANCH  14  17
ATOM     17  O   UNL     1    -113.167   9.523  26.225  1.00  0.00    -0.504 OA
ATOM     18  H   UNL     1    -112.279   9.190  25.869  1.00  0.00     0.293 HD
ENDBRANCH  14  17
BRANCH  16  19
ATOM     19  O   UNL     1    -112.625  12.244  25.693  1.00  0.00    -0.504 OA
ATOM     20  H   UNL     1    -111.709  11.814  25.641  1.00  0.00     0.293 HD
ENDBRANCH  16  19
ENDBRANCH   1  11
BRANCH  10  21
ATOM     21  O   UNL     1    -117.628  13.814  24.875  1.00  0.00    -0.500 OA
ATOM     22  H   UNL     1    -117.810  14.746  25.229  1.00  0.00     0.294 HD
ENDBRANCH  10  21
BRANCH   5  23
ATOM     23  O   UNL     1    -118.276  12.847  17.195  1.00  0.00    -0.507 OA
ATOM     24  H   UNL     1    -117.402  12.634  16.729  1.00  0.00     0.293 HD
ENDBRANCH   5  23
BRANCH   7  25
ATOM     25  O   UNL     1    -120.125  15.625  20.646  1.00  0.00    -0.507 OA
ATOM     26  H   UNL     1    -120.383  15.868  21.592  1.00  0.00     0.293 HD
ENDBRANCH   7  25
TORSDOF 6
ENDMDL
MODEL 2
REMARK VINA RESULT:    -5.110     12.721     14.310
REMARK INTER + INTRA:          -6.448
REMARK INTER:                  -6.099
REMARK INTRA:                  -0.349
REMARK UNBOUND:                -0.292
REMARK SMILES Oc1cc(O)c2cc(O)c(-c3ccc(O)c(O)c3)[o+]c2c1
REMARK SMILES IDX 10 1 19 2 20 3 21 4 2 5 3 6 4 7 6 8 7 9 8 10 11 11 12 12
REMARK SMILES IDX 13 13 14 14 18 15 16 16 15 17 17 19 9 21 1 23 5 25
REMARK H PARENT 15 18 17 20 9 22 1 24 5 26
REMARK Flexibility Score: inf
ROOT
ATOM      1  C   UNL     1    -102.719  10.473  21.314  1.00  0.00     0.402 A 
ATOM      2  O   UNL     1    -103.744  10.839  20.549  1.00  0.00    -0.202 OA
ATOM      3  C   UNL     1    -103.793  10.619  19.239  1.00  0.00     0.368 A 
ATOM      4  C   UNL     1    -104.915  11.038  18.520  1.00  0.00     0.162 A 
ATOM      5  C   UNL     1    -104.993  10.817  17.142  1.00  0.00     0.128 A 
ATOM      6  C   UNL     1    -103.945  10.173  16.480  1.00  0.00     0.093 A 
ATOM      7  C   UNL     1    -102.809   9.744  17.178  1.00  0.00     0.136 A 
ATOM      8  C   UNL     1    -102.724   9.968  18.577  1.00  0.00     0.125 A 
ATOM      9  C   UNL     1    -101.619   9.584  19.354  1.00  0.00     0.078 A 
ATOM     10  C   UNL     1    -101.605   9.844  20.728  1.00  0.00     0.223 A 
ENDROOT
BRANCH   1  11
ATOM     11  C   UNL     1    -102.788  10.765  22.764  1.00  0.00     0.087 A 
ATOM     12  C   UNL     1    -102.290  11.984  23.247  1.00  0.00     0.022 A 
ATOM     13  C   UNL     1    -102.363  12.289  24.609  1.00  0.00     0.051 A 
ATOM     14  C   UNL     1    -102.948  11.386  25.505  1.00  0.00     0.157 A 
ATOM     15  C   UNL     1    -103.393   9.868  23.663  1.00  0.00     0.068 A 
ATOM     16  C   UNL     1    -103.470  10.171  25.029  1.00  0.00     0.158 A 
BRANCH  14  17
ATOM     17  O   UNL     1    -103.017  11.691  26.864  1.00  0.00    -0.504 OA
ATOM     18  H   UNL     1    -103.781  12.234  27.247  1.00  0.00     0.293 HD
ENDBRANCH  14  17
BRANCH  16  19
ATOM     19  O   UNL     1    -104.071   9.256  25.892  1.00  0.00    -0.504 OA
ATOM     20  H   UNL     1    -104.849   9.511  26.488  1.00  0.00     0.293 HD
ENDBRANCH  16  19
ENDBRANCH   1  11
BRANCH  10  21
ATOM     21  O   UNL     1    -100.486   9.507  21.492  1.00  0.00    -0.500 OA
ATOM     22  H   UNL     1    -100.536   8.821  22.235  1.00  0.00     0.294 HD
ENDBRANCH  10  21
BRANCH   5  23
ATOM     23  O   UNL     1    -106.109  11.232  16.419  1.00  0.00    -0.507 OA
ATOM     24  H   UNL     1    -106.532  10.642  15.713  1.00  0.00     0.293 HD
ENDBRANCH   5  23
BRANCH   7  25
ATOM     25  O   UNL     1    -101.806   9.106  16.443  1.00  0.00    -0.507 OA
ATOM     26  H   UNL     1    -101.974   8.507  15.648  1.00  0.00     0.293 HD
ENDBRANCH   7  25
TORSDOF 6
ENDMDL
MODEL 3
REMARK VINA RESULT:    -5.081      1.237      2.731
REMARK INTER + INTRA:          -6.413
REMARK INTER:                  -6.346
REMARK INTRA:                  -0.067
REMARK UNBOUND:                -0.292
REMARK SMILES Oc1cc(O)c2cc(O)c(-c3ccc(O)c(O)c3)[o+]c2c1
REMARK SMILES IDX 10 1 19 2 20 3 21 4 2 5 3 6 4 7 6 8 7 9 8 10 11 11 12 12
REMARK SMILES IDX 13 13 14 14 18 15 16 16 15 17 17 19 9 21 1 23 5 25
REMARK H PARENT 15 18 17 20 9 22 1 24 5 26
REMARK Flexibility Score: inf
ROOT
ATOM      1  C   UNL     1    -116.010  11.428  22.373  1.00  0.00     0.402 A 
ATOM      2  O   UNL     1    -116.755  12.498  22.631  1.00  0.00    -0.202 OA
ATOM      3  C   UNL     1    -117.501  13.107  21.714  1.00  0.00     0.368 A 
ATOM      4  C   UNL     1    -118.253  14.225  22.082  1.00  0.00     0.162 A 
ATOM      5  C   UNL     1    -119.049  14.882  21.138  1.00  0.00     0.128 A 
ATOM      6  C   UNL     1    -119.092  14.418  19.821  1.00  0.00     0.093 A 
ATOM      7  C   UNL     1    -118.347  13.299  19.428  1.00  0.00     0.136 A 
ATOM      8  C   UNL     1    -117.536  12.630  20.381  1.00  0.00     0.125 A 
ATOM      9  C   UNL     1    -116.747  11.510  20.074  1.00  0.00     0.078 A 
ATOM     10  C   UNL     1    -115.969  10.907  21.067  1.00  0.00     0.223 A 
ENDROOT
BRANCH   1  11
ATOM     11  C   UNL     1    -115.231  10.833  23.484  1.00  0.00     0.087 A 
ATOM     12  C   UNL     1    -115.353   9.461  23.755  1.00  0.00     0.022 A 
ATOM     13  C   UNL     1    -114.613   8.875  24.785  1.00  0.00     0.051 A 
ATOM     14  C   UNL     1    -113.730   9.647  25.549  1.00  0.00     0.157 A 
ATOM     15  C   UNL     1    -114.328  11.602  24.240  1.00  0.00     0.068 A 
ATOM     16  C   UNL     1    -113.583  11.017  25.272  1.00  0.00     0.158 A 
BRANCH  14  17
ATOM     17  O   UNL     1    -112.995   9.060  26.579  1.00  0.00    -0.504 OA
ATOM     18  H   UNL     1    -112.107   8.605  26.403  1.00  0.00     0.293 HD
ENDBRANCH  14  17
BRANCH  16  19
ATOM     19  O   UNL     1    -112.702  11.811  26.004  1.00  0.00    -0.504 OA
ATOM     20  H   UNL     1    -111.701  11.786  25.851  1.00  0.00     0.293 HD
ENDBRANCH  16  19
ENDBRANCH   1  11
BRANCH  10  21
ATOM     21  O   UNL     1    -115.147   9.824  20.750  1.00  0.00    -0.500 OA
ATOM     22  H   UNL     1    -114.180   9.953  20.478  1.00  0.00     0.294 HD
ENDBRANCH  10  21
BRANCH   5  23
ATOM     23  O   UNL     1    -119.801  15.998  21.498  1.00  0.00    -0.507 OA
ATOM     24  H   UNL     1    -120.788  15.924  21.714  1.00  0.00     0.293 HD
ENDBRANCH   5  23
BRANCH   7  25
ATOM     25  O   UNL     1    -118.447  12.897  18.093  1.00  0.00    -0.507 OA
ATOM     26  H   UNL     1    -117.809  12.258  17.640  1.00  0.00     0.293 HD
ENDBRANCH   7  25
TORSDOF 6
ENDMDL
MODEL 4
REMARK VINA RESULT:    -4.815     16.975     18.527
REMARK INTER + INTRA:          -6.093
REMARK INTER:                  -5.759
REMARK INTRA:                  -0.334
REMARK UNBOUND:                -0.292
REMARK SMILES Oc1cc(O)c2cc(O)c(-c3ccc(O)c(O)c3)[o+]c2c1
REMARK SMILES IDX 10 1 19 2 20 3 21 4 2 5 3 6 4 7 6 8 7 9 8 10 11 11 12 12
REMARK SMILES IDX 13 13 14 14 18 15 16 16 15 17 17 19 9 21 1 23 5 25
REMARK H PARENT 15 18 17 20 9 22 1 24 5 26
REMARK Flexibility Score: inf
ROOT
ATOM      1  C   UNL     1    -107.833  27.601  20.622  1.00  0.00     0.402 A 
ATOM      2  O   UNL     1    -107.090  26.988  19.704  1.00  0.00    -0.202 OA
ATOM      3  C   UNL     1    -105.766  26.907  19.773  1.00  0.00     0.368 A 
ATOM      4  C   UNL     1    -105.071  26.240  18.760  1.00  0.00     0.162 A 
ATOM      5  C   UNL     1    -103.678  26.138  18.810  1.00  0.00     0.128 A 
ATOM      6  C   UNL     1    -102.976  26.705  19.876  1.00  0.00     0.093 A 
ATOM      7  C   UNL     1    -103.648  27.379  20.902  1.00  0.00     0.136 A 
ATOM      8  C   UNL     1    -105.063  27.488  20.856  1.00  0.00     0.125 A 
ATOM      9  C   UNL     1    -105.818  28.156  21.834  1.00  0.00     0.078 A 
ATOM     10  C   UNL     1    -107.210  28.226  21.718  1.00  0.00     0.223 A 
ENDROOT
BRANCH   1  11
ATOM     11  C   UNL     1    -109.303  27.613  20.438  1.00  0.00     0.087 A 
ATOM     12  C   UNL     1    -109.911  28.714  19.815  1.00  0.00     0.022 A 
ATOM     13  C   UNL     1    -111.294  28.738  19.614  1.00  0.00     0.051 A 
ATOM     14  C   UNL     1    -112.086  27.657  20.019  1.00  0.00     0.157 A 
ATOM     15  C   UNL     1    -110.099  26.520  20.826  1.00  0.00     0.068 A 
ATOM     16  C   UNL     1    -111.485  26.541  20.624  1.00  0.00     0.158 A 
BRANCH  14  17
ATOM     17  O   UNL     1    -113.466  27.686  19.819  1.00  0.00    -0.504 OA
ATOM     18  H   UNL     1    -113.884  27.354  18.958  1.00  0.00     0.293 HD
ENDBRANCH  14  17
BRANCH  16  19
ATOM     19  O   UNL     1    -112.244  25.442  21.026  1.00  0.00    -0.504 OA
ATOM     20  H   UNL     1    -112.153  25.035  21.948  1.00  0.00     0.293 HD
ENDBRANCH  16  19
ENDBRANCH   1  11
BRANCH  10  21
ATOM     21  O   UNL     1    -107.956  28.932  22.662  1.00  0.00    -0.500 OA
ATOM     22  H   UNL     1    -107.656  29.834  23.011  1.00  0.00     0.294 HD
ENDBRANCH  10  21
BRANCH   5  23
ATOM     23  O   UNL     1    -102.979  25.474  17.803  1.00  0.00    -0.507 OA
ATOM     24  H   UNL     1    -102.911  24.463  17.785  1.00  0.00     0.293 HD
ENDBRANCH   5  23
BRANCH   7  25
ATOM     25  O   UNL     1    -102.874  27.916  21.935  1.00  0.00    -0.507 OA
ATOM     26  H   UNL     1    -102.089  28.536  21.796  1.00  0.00     0.293 HD
ENDBRANCH   7  25
TORSDOF 6
ENDMDL
MODEL 5
REMARK VINA RESULT:    -4.809     18.076     19.004
REMARK INTER + INTRA:          -6.085
REMARK INTER:                  -5.738
REMARK INTRA:                  -0.347
REMARK UNBOUND:                -0.292
REMARK SMILES Oc1cc(O)c2cc(O)c(-c3ccc(O)c(O)c3)[o+]c2c1
REMARK SMILES IDX 10 1 19 2 20 3 21 4 2 5 3 6 4 7 6 8 7 9 8 10 11 11 12 12
REMARK SMILES IDX 13 13 14 14 18 15 16 16 15 17 17 19 9 21 1 23 5 25
REMARK H PARENT 15 18 17 20 9 22 1 24 5 26
REMARK Flexibility Score: inf
ROOT
ATOM      1  C   UNL     1    -105.160  27.519  20.474  1.00  0.00     0.402 A 
ATOM      2  O   UNL     1    -106.176  27.127  19.710  1.00  0.00    -0.202 OA
ATOM      3  C   UNL     1    -107.445  27.184  20.100  1.00  0.00     0.368 A 
ATOM      4  C   UNL     1    -108.446  26.751  19.226  1.00  0.00     0.162 A 
ATOM      5  C   UNL     1    -109.789  26.802  19.609  1.00  0.00     0.128 A 
ATOM      6  C   UNL     1    -110.134  27.290  20.872  1.00  0.00     0.093 A 
ATOM      7  C   UNL     1    -109.150  27.730  21.766  1.00  0.00     0.136 A 
ATOM      8  C   UNL     1    -107.785  27.678  21.383  1.00  0.00     0.125 A 
ATOM      9  C   UNL     1    -106.732  28.085  22.219  1.00  0.00     0.078 A 
ATOM     10  C   UNL     1    -105.410  27.999  21.773  1.00  0.00     0.223 A 
ENDROOT
BRANCH   1  11
ATOM     11  C   UNL     1    -103.789  27.416  19.921  1.00  0.00     0.087 A 
ATOM     12  C   UNL     1    -103.246  28.502  19.216  1.00  0.00     0.022 A 
ATOM     13  C   UNL     1    -101.949  28.435  18.703  1.00  0.00     0.051 A 
ATOM     14  C   UNL     1    -101.169  27.288  18.900  1.00  0.00     0.157 A 
ATOM     15  C   UNL     1    -102.997  26.274  20.134  1.00  0.00     0.068 A 
ATOM     16  C   UNL     1    -101.695  26.204  19.623  1.00  0.00     0.158 A 
BRANCH  14  17
ATOM     17  O   UNL     1     -99.875  27.222  18.384  1.00  0.00    -0.504 OA
ATOM     18  H   UNL     1     -99.402  26.336  18.251  1.00  0.00     0.293 HD
ENDBRANCH  14  17
BRANCH  16  19
ATOM     19  O   UNL     1    -100.940  25.053  19.848  1.00  0.00    -0.504 OA
ATOM     20  H   UNL     1    -101.075  24.474  20.667  1.00  0.00     0.293 HD
ENDBRANCH  16  19
ENDBRANCH   1  11
BRANCH  10  21
ATOM     21  O   UNL     1    -104.361  28.356  22.621  1.00  0.00    -0.500 OA
ATOM     22  H   UNL     1    -104.328  29.261  23.074  1.00  0.00     0.294 HD
ENDBRANCH  10  21
BRANCH   5  23
ATOM     23  O   UNL     1    -110.791  26.371  18.743  1.00  0.00    -0.507 OA
ATOM     24  H   UNL     1    -110.621  25.648  18.054  1.00  0.00     0.293 HD
ENDBRANCH   5  23
BRANCH   7  25
ATOM     25  O   UNL     1    -109.578  28.207  23.009  1.00  0.00    -0.507 OA
ATOM     26  H   UNL     1    -109.889  29.152  23.181  1.00  0.00     0.293 HD
ENDBRANCH   7  25
TORSDOF 6
ENDMDL
MODEL 6
REMARK VINA RESULT:    -4.786     17.362     18.681
REMARK INTER + INTRA:          -6.057
REMARK INTER:                  -5.745
REMARK INTRA:                  -0.312
REMARK UNBOUND:                -0.292
REMARK SMILES Oc1cc(O)c2cc(O)c(-c3ccc(O)c(O)c3)[o+]c2c1
REMARK SMILES IDX 10 1 19 2 20 3 21 4 2 5 3 6 4 7 6 8 7 9 8 10 11 11 12 12
REMARK SMILES IDX 13 13 14 14 18 15 16 16 15 17 17 19 9 21 1 23 5 25
REMARK H PARENT 15 18 17 20 9 22 1 24 5 26
REMARK Flexibility Score: inf
ROOT
ATOM      1  C   UNL     1    -107.471  27.434  21.217  1.00  0.00     0.402 A 
ATOM      2  O   UNL     1    -106.248  27.757  21.627  1.00  0.00    -0.202 OA
ATOM      3  C   UNL     1    -105.165  27.625  20.868  1.00  0.00     0.368 A 
ATOM      4  C   UNL     1    -103.921  27.994  21.387  1.00  0.00     0.162 A 
ATOM      5  C   UNL     1    -102.767  27.869  20.608  1.00  0.00     0.128 A 
ATOM      6  C   UNL     1    -102.857  27.372  19.305  1.00  0.00     0.093 A 
ATOM      7  C   UNL     1    -104.091  26.995  18.763  1.00  0.00     0.136 A 
ATOM      8  C   UNL     1    -105.266  27.119  19.549  1.00  0.00     0.125 A 
ATOM      9  C   UNL     1    -106.542  26.753  19.092  1.00  0.00     0.078 A 
ATOM     10  C   UNL     1    -107.654  26.899  19.928  1.00  0.00     0.223 A 
ENDROOT
BRANCH   1  11
ATOM     11  C   UNL     1    -108.600  27.637  22.154  1.00  0.00     0.087 A 
ATOM     12  C   UNL     1    -109.170  28.914  22.280  1.00  0.00     0.022 A 
ATOM     13  C   UNL     1    -110.249  29.125  23.142  1.00  0.00     0.051 A 
ATOM     14  C   UNL     1    -110.782  28.062  23.881  1.00  0.00     0.157 A 
ATOM     15  C   UNL     1    -109.151  26.567  22.882  1.00  0.00     0.068 A 
ATOM     16  C   UNL     1    -110.233  26.775  23.746  1.00  0.00     0.158 A 
BRANCH  14  17
ATOM     17  O   UNL     1    -111.857  28.276  24.744  1.00  0.00    -0.504 OA
ATOM     18  H   UNL     1    -112.092  29.203  25.076  1.00  0.00     0.293 HD
ENDBRANCH  14  17
BRANCH  16  19
ATOM     19  O   UNL     1    -110.750  25.692  24.456  1.00  0.00    -0.504 OA
ATOM     20  H   UNL     1    -111.312  25.815  25.290  1.00  0.00     0.293 HD
ENDBRANCH  16  19
ENDBRANCH   1  11
BRANCH  10  21
ATOM     21  O   UNL     1    -108.915  26.490  19.493  1.00  0.00    -0.500 OA
ATOM     22  H   UNL     1    -109.237  25.537  19.614  1.00  0.00     0.294 HD
ENDBRANCH  10  21
BRANCH   5  23
ATOM     23  O   UNL     1    -101.523  28.235  21.119  1.00  0.00    -0.507 OA
ATOM     24  H   UNL     1    -101.124  29.148  20.936  1.00  0.00     0.293 HD
ENDBRANCH   5  23
BRANCH   7  25
ATOM     25  O   UNL     1    -104.096  26.511  17.451  1.00  0.00    -0.507 OA
ATOM     26  H   UNL     1    -104.092  25.532  17.204  1.00  0.00     0.293 HD
ENDBRANCH   7  25
TORSDOF 6
ENDMDL
MODEL 7
REMARK VINA RESULT:    -4.697     12.906     14.410
REMARK INTER + INTRA:          -5.951
REMARK INTER:                  -5.759
REMARK INTRA:                  -0.192
REMARK UNBOUND:                -0.292
REMARK SMILES Oc1cc(O)c2cc(O)c(-c3ccc(O)c(O)c3)[o+]c2c1
REMARK SMILES IDX 10 1 19 2 20 3 21 4 2 5 3 6 4 7 6 8 7 9 8 10 11 11 12 12
REMARK SMILES IDX 13 13 14 14 18 15 16 16 15 17 17 19 9 21 1 23 5 25
REMARK H PARENT 15 18 17 20 9 22 1 24 5 26
REMARK Flexibility Score: inf
ROOT
ATOM      1  C   UNL     1    -103.018   9.863  22.272  1.00  0.00     0.402 A 
ATOM      2  O   UNL     1    -102.224  10.221  21.266  1.00  0.00    -0.202 OA
ATOM      3  C   UNL     1    -102.575  10.117  19.988  1.00  0.00     0.368 A 
ATOM      4  C   UNL     1    -101.673  10.522  19.001  1.00  0.00     0.162 A 
ATOM      5  C   UNL     1    -102.018  10.427  17.649  1.00  0.00     0.128 A 
ATOM      6  C   UNL     1    -103.270   9.926  17.284  1.00  0.00     0.093 A 
ATOM      7  C   UNL     1    -104.191   9.514  18.255  1.00  0.00     0.136 A 
ATOM      8  C   UNL     1    -103.845   9.606  19.628  1.00  0.00     0.125 A 
ATOM      9  C   UNL     1    -104.700   9.205  20.668  1.00  0.00     0.078 A 
ATOM     10  C   UNL     1    -104.287   9.321  21.999  1.00  0.00     0.223 A 
ENDROOT
BRANCH   1  11
ATOM     11  C   UNL     1    -102.516  10.037  23.655  1.00  0.00     0.087 A 
ATOM     12  C   UNL     1    -101.333   9.391  24.046  1.00  0.00     0.022 A 
ATOM     13  C   UNL     1    -100.830   9.557  25.339  1.00  0.00     0.051 A 
ATOM     14  C   UNL     1    -101.494  10.381  26.255  1.00  0.00     0.157 A 
ATOM     15  C   UNL     1    -103.170  10.880  24.571  1.00  0.00     0.068 A 
ATOM     16  C   UNL     1    -102.668  11.050  25.868  1.00  0.00     0.158 A 
BRANCH  14  17
ATOM     17  O   UNL     1    -100.992  10.542  27.546  1.00  0.00    -0.504 OA
ATOM     18  H   UNL     1    -101.318  11.286  28.153  1.00  0.00     0.293 HD
ENDBRANCH  14  17
BRANCH  16  19
ATOM     19  O   UNL     1    -103.345  11.889  26.751  1.00  0.00    -0.504 OA
ATOM     20  H   UNL     1    -102.963  12.138  27.656  1.00  0.00     0.293 HD
ENDBRANCH  16  19
ENDBRANCH   1  11
BRANCH  10  21
ATOM     21  O   UNL     1    -105.116   8.876  23.030  1.00  0.00    -0.500 OA
ATOM     22  H   UNL     1    -105.936   9.397  23.315  1.00  0.00     0.294 HD
ENDBRANCH  10  21
BRANCH   5  23
ATOM     23  O   UNL     1    -101.123  10.828  16.659  1.00  0.00    -0.507 OA
ATOM     24  H   UNL     1    -100.129  10.649  16.740  1.00  0.00     0.293 HD
ENDBRANCH   5  23
BRANCH   7  25
ATOM     25  O   UNL     1    -105.423   9.028  17.807  1.00  0.00    -0.507 OA
ATOM     26  H   UNL     1    -105.584   8.079  17.499  1.00  0.00     0.293 HD
ENDBRANCH   7  25
TORSDOF 6
ENDMDL
MODEL 8
REMARK VINA RESULT:    -4.543      2.200      7.176
REMARK INTER + INTRA:          -5.765
REMARK INTER:                  -5.813
REMARK INTRA:                   0.048
REMARK UNBOUND:                -0.292
REMARK SMILES Oc1cc(O)c2cc(O)c(-c3ccc(O)c(O)c3)[o+]c2c1
REMARK SMILES IDX 10 1 19 2 20 3 21 4 2 5 3 6 4 7 6 8 7 9 8 10 11 11 12 12
REMARK SMILES IDX 13 13 14 14 18 15 16 16 15 17 17 19 9 21 1 23 5 25
REMARK H PARENT 15 18 17 20 9 22 1 24 5 26
REMARK Flexibility Score: inf
ROOT
ATOM      1  C   UNL     1    -115.365  11.147  23.344  1.00  0.00     0.402 A 
ATOM      2  O   UNL     1    -114.168  10.802  22.877  1.00  0.00    -0.202 OA
ATOM      3  C   UNL     1    -113.244  10.196  23.615  1.00  0.00     0.368 A 
ATOM      4  C   UNL     1    -112.016   9.870  23.034  1.00  0.00     0.162 A 
ATOM      5  C   UNL     1    -111.027   9.230  23.787  1.00  0.00     0.128 A 
ATOM      6  C   UNL     1    -111.268   8.913  25.126  1.00  0.00     0.093 A 
ATOM      7  C   UNL     1    -112.490   9.229  25.731  1.00  0.00     0.136 A 
ATOM      8  C   UNL     1    -113.497   9.881  24.972  1.00  0.00     0.125 A 
ATOM      9  C   UNL     1    -114.746  10.247  25.499  1.00  0.00     0.078 A 
ATOM     10  C   UNL     1    -115.686  10.893  24.691  1.00  0.00     0.223 A 
ENDROOT
BRANCH   1  11
ATOM     11  C   UNL     1    -116.314  11.809  22.418  1.00  0.00     0.087 A 
ATOM     12  C   UNL     1    -116.534  11.258  21.147  1.00  0.00     0.022 A 
ATOM     13  C   UNL     1    -117.439  11.853  20.264  1.00  0.00     0.051 A 
ATOM     14  C   UNL     1    -118.147  12.999  20.645  1.00  0.00     0.157 A 
ATOM     15  C   UNL     1    -117.041  12.948  22.806  1.00  0.00     0.068 A 
ATOM     16  C   UNL     1    -117.951  13.547  21.925  1.00  0.00     0.158 A 
BRANCH  14  17
ATOM     17  O   UNL     1    -119.048  13.594  19.762  1.00  0.00    -0.504 OA
ATOM     18  H   UNL     1    -119.605  14.395  20.033  1.00  0.00     0.293 HD
ENDBRANCH  14  17
BRANCH  16  19
ATOM     19  O   UNL     1    -118.651  14.678  22.340  1.00  0.00    -0.504 OA
ATOM     20  H   UNL     1    -118.723  14.938  23.316  1.00  0.00     0.293 HD
ENDBRANCH  16  19
ENDBRANCH   1  11
BRANCH  10  21
ATOM     21  O   UNL     1    -116.908  11.301  25.227  1.00  0.00    -0.500 OA
ATOM     22  H   UNL     1    -117.224  12.261  25.160  1.00  0.00     0.294 HD
ENDBRANCH  10  21
BRANCH   5  23
ATOM     23  O   UNL     1    -109.799   8.903  23.214  1.00  0.00    -0.507 OA
ATOM     24  H   UNL     1    -109.363   8.003  23.377  1.00  0.00     0.293 HD
ENDBRANCH   5  23
BRANCH   7  25
ATOM     25  O   UNL     1    -112.654   8.875  27.074  1.00  0.00    -0.507 OA
ATOM     26  H   UNL     1    -113.442   8.358  27.436  1.00  0.00     0.293 HD
ENDBRANCH   7  25
TORSDOF 6
ENDMDL
MODEL 9
REMARK VINA RESULT:    -4.510     15.794     17.360
REMARK INTER + INTRA:          -5.725
REMARK INTER:                  -5.379
REMARK INTRA:                  -0.345
REMARK UNBOUND:                -0.292
REMARK SMILES Oc1cc(O)c2cc(O)c(-c3ccc(O)c(O)c3)[o+]c2c1
REMARK SMILES IDX 10 1 19 2 20 3 21 4 2 5 3 6 4 7 6 8 7 9 8 10 11 11 12 12
REMARK SMILES IDX 13 13 14 14 18 15 16 16 15 17 17 19 9 21 1 23 5 25
REMARK H PARENT 15 18 17 20 9 22 1 24 5 26
REMARK Flexibility Score: inf
ROOT
ATOM      1  C   UNL     1    -109.819  27.210  20.805  1.00  0.00     0.402 A 
ATOM      2  O   UNL     1    -108.933  26.859  19.878  1.00  0.00    -0.202 OA
ATOM      3  C   UNL     1    -107.622  27.021  20.024  1.00  0.00     0.368 A 
ATOM      4  C   UNL     1    -106.768  26.618  18.993  1.00  0.00     0.162 A 
ATOM      5  C   UNL     1    -105.384  26.774  19.122  1.00  0.00     0.128 A 
ATOM      6  C   UNL     1    -104.853  27.334  20.286  1.00  0.00     0.093 A 
ATOM      7  C   UNL     1    -105.687  27.746  21.332  1.00  0.00     0.136 A 
ATOM      8  C   UNL     1    -107.092  27.592  21.206  1.00  0.00     0.125 A 
ATOM      9  C   UNL     1    -108.004  27.988  22.198  1.00  0.00     0.078 A 
ATOM     10  C   UNL     1    -109.377  27.809  22.000  1.00  0.00     0.223 A 
ENDROOT
BRANCH   1  11
ATOM     11  C   UNL     1    -111.254  26.968  20.529  1.00  0.00     0.087 A 
ATOM     12  C   UNL     1    -112.020  27.977  19.924  1.00  0.00     0.022 A 
ATOM     13  C   UNL     1    -113.370  27.764  19.636  1.00  0.00     0.051 A 
ATOM     14  C   UNL     1    -113.972  26.535  19.935  1.00  0.00     0.157 A 
ATOM     15  C   UNL     1    -111.856  25.729  20.811  1.00  0.00     0.068 A 
ATOM     16  C   UNL     1    -113.209  25.511  20.522  1.00  0.00     0.158 A 
BRANCH  14  17
ATOM     17  O   UNL     1    -115.320  26.326  19.650  1.00  0.00    -0.504 OA
ATOM     18  H   UNL     1    -115.824  26.924  19.005  1.00  0.00     0.293 HD
ENDBRANCH  14  17
BRANCH  16  19
ATOM     19  O   UNL     1    -113.774  24.272  20.819  1.00  0.00    -0.504 OA
ATOM     20  H   UNL     1    -114.156  24.061  21.733  1.00  0.00     0.293 HD
ENDBRANCH  16  19
ENDBRANCH   1  11
BRANCH  10  21
ATOM     21  O   UNL     1    -110.286  28.248  22.963  1.00  0.00    -0.500 OA
ATOM     22  H   UNL     1    -111.002  27.637  23.336  1.00  0.00     0.294 HD
ENDBRANCH  10  21
BRANCH   5  23
ATOM     23  O   UNL     1    -104.528  26.375  18.098  1.00  0.00    -0.507 OA
ATOM     24  H   UNL     1    -104.639  26.718  17.151  1.00  0.00     0.293 HD
ENDBRANCH   5  23
BRANCH   7  25
ATOM     25  O   UNL     1    -105.076  28.294  22.464  1.00  0.00    -0.507 OA
ATOM     26  H   UNL     1    -104.277  27.892  22.932  1.00  0.00     0.293 HD
ENDBRANCH   7  25
TORSDOF 6
ENDMDL
