MODEL 1
REMARK VINA RESULT:    -5.216      0.000      0.000
REMARK INTER + INTRA:         -10.901
REMARK INTER:                 -10.095
REMARK INTRA:                  -0.806
REMARK UNBOUND:                -0.806
REMARK SMILES CCCCCCCCCCCCCCCCCC(=O)[O-]
REMARK SMILES IDX 10 1 11 2 12 3 13 4 14 5 15 6 16 7 17 8 18 9 19 10 20 11
REMARK SMILES IDX 9 12 8 13 7 14 6 15 5 16 4 17 3 18 2 19 1 20
REMARK H PARENT
REMARK Flexibility Score: inf
ROOT
ATOM      1  C   UNL     1      20.275  30.362  36.828  1.00  0.00     0.000 C 
ENDROOT
BRANCH   1   2
ATOM      2  C   UNL     1      20.749  28.933  36.493  1.00  0.00     0.000 C 
BRANCH   2   3
ATOM      3  C   UNL     1      19.680  27.837  36.650  1.00  0.00     0.000 C 
BRANCH   3   4
ATOM      4  C   UNL     1      18.305  28.396  37.040  1.00  0.00     0.000 C 
BRANCH   4   5
ATOM      5  C   UNL     1      17.235  27.295  37.007  1.00  0.00     0.000 C 
BRANCH   5   6
ATOM      6  C   UNL     1      17.506  26.226  35.933  1.00  0.00     0.000 C 
BRANCH   6   7
ATOM      7  C   UNL     1      18.501  25.123  36.347  1.00  0.00     0.006 C 
BRANCH   7   8
ATOM      8  C   UNL     1      18.673  23.998  35.312  1.00  0.00     0.053 C 
BRANCH   8   9
ATOM      9  C   UNL     1      19.766  24.300  34.334  1.00  0.00     0.041 C 
ATOM     10  O   UNL     1      20.875  24.738  34.738  1.00  0.00    -0.550 OA
ATOM     11  O   UNL     1      19.549  24.126  32.973  1.00  0.00    -0.550 OA
ENDBRANCH   8   9
ENDBRANCH   7   8
ENDBRANCH   6   7
ENDBRANCH   5   6
ENDBRANCH   4   5
ENDBRANCH   3   4
ENDBRANCH   2   3
ENDBRANCH   1   2
BRANCH   1  12
ATOM     12  C   UNL     1      21.332  31.463  36.633  1.00  0.00     0.000 C 
BRANCH  12  13
ATOM     13  C   UNL     1      20.740  32.879  36.710  1.00  0.00    -0.000 C 
BRANCH  13  14
ATOM     14  C   UNL     1      19.205  32.826  36.772  1.00  0.00    -0.000 C 
BRANCH  14  15
ATOM     15  C   UNL     1      18.561  34.221  36.716  1.00  0.00    -0.000 C 
BRANCH  15  16
ATOM     16  C   UNL     1      19.113  35.079  35.565  1.00  0.00    -0.000 C 
BRANCH  16  17
ATOM     17  C   UNL     1      18.307  34.922  34.265  1.00  0.00    -0.000 C 
BRANCH  17  18
ATOM     18  C   UNL     1      19.147  35.124  32.986  1.00  0.00    -0.000 C 
BRANCH  18  19
ATOM     19  C   UNL     1      20.651  34.956  33.249  1.00  0.00    -0.003 C 
ATOM     20  C   UNL     1      21.078  33.499  33.101  1.00  0.00     0.004 C 
ENDBRANCH  18  19
ENDBRANCH  17  18
ENDBRANCH  16  17
ENDBRANCH  15  16
ENDBRANCH  14  15
ENDBRANCH  13  14
ENDBRANCH  12  13
ENDBRANCH   1  12
TORSDOF 16
ENDMDL
MODEL 2
REMARK VINA RESULT:    -4.970     16.479     18.844
REMARK INTER + INTRA:         -10.425
REMARK INTER:                  -8.146
REMARK INTRA:                  -2.279
REMARK UNBOUND:                -0.806
REMARK SMILES CCCCCCCCCCCCCCCCCC(=O)[O-]
REMARK SMILES IDX 10 1 11 2 12 3 13 4 14 5 15 6 16 7 17 8 18 9 19 10 20 11
REMARK SMILES IDX 9 12 8 13 7 14 6 15 5 16 4 17 3 18 2 19 1 20
REMARK H PARENT
REMARK Flexibility Score: inf
ROOT
ATOM      1  C   UNL     1      21.631  22.811  18.099  1.00  0.00     0.000 C 
ENDROOT
BRANCH   1   2
ATOM      2  C   UNL     1      22.305  22.789  19.487  1.00  0.00     0.000 C 
BRANCH   2   3
ATOM      3  C   UNL     1      22.835  21.414  19.933  1.00  0.00     0.000 C 
BRANCH   3   4
ATOM      4  C   UNL     1      22.392  21.036  21.354  1.00  0.00     0.000 C 
BRANCH   4   5
ATOM      5  C   UNL     1      22.753  19.578  21.671  1.00  0.00     0.000 C 
BRANCH   5   6
ATOM      6  C   UNL     1      23.978  19.077  20.884  1.00  0.00     0.000 C 
BRANCH   6   7
ATOM      7  C   UNL     1      24.247  17.563  20.989  1.00  0.00     0.006 C 
BRANCH   7   8
ATOM      8  C   UNL     1      23.684  16.732  19.824  1.00  0.00     0.053 C 
BRANCH   8   9
ATOM      9  C   UNL     1      24.745  16.365  18.834  1.00  0.00     0.041 C 
ATOM     10  O   UNL     1      24.480  15.589  17.879  1.00  0.00    -0.550 OA
ATOM     11  O   UNL     1      26.036  16.856  18.983  1.00  0.00    -0.550 OA
ENDBRANCH   8   9
ENDBRANCH   7   8
ENDBRANCH   6   7
ENDBRANCH   5   6
ENDBRANCH   4   5
ENDBRANCH   3   4
ENDBRANCH   2   3
ENDBRANCH   1   2
BRANCH   1  12
ATOM     12  C   UNL     1      20.818  24.081  17.789  1.00  0.00     0.000 C 
BRANCH  12  13
ATOM     13  C   UNL     1      20.575  24.952  19.031  1.00  0.00    -0.000 C 
BRANCH  13  14
ATOM     14  C   UNL     1      19.281  24.533  19.747  1.00  0.00    -0.000 C 
BRANCH  14  15
ATOM     15  C   UNL     1      19.525  24.075  21.194  1.00  0.00    -0.000 C 
BRANCH  15  16
ATOM     16  C   UNL     1      18.938  22.682  21.478  1.00  0.00    -0.000 C 
BRANCH  16  17
ATOM     17  C   UNL     1      18.286  22.046  20.239  1.00  0.00    -0.000 C 
BRANCH  17  18
ATOM     18  C   UNL     1      19.042  20.810  19.705  1.00  0.00    -0.000 C 
BRANCH  18  19
ATOM     19  C   UNL     1      18.424  20.270  18.407  1.00  0.00    -0.003 C 
ATOM     20  C   UNL     1      18.233  21.384  17.382  1.00  0.00     0.004 C 
ENDBRANCH  18  19
ENDBRANCH  17  18
ENDBRANCH  16  17
ENDBRANCH  15  16
ENDBRANCH  14  15
ENDBRANCH  13  14
ENDBRANCH  12  13
ENDBRANCH   1  12
TORSDOF 16
ENDMDL
MODEL 3
REMARK VINA RESULT:    -4.921     15.846     18.293
REMARK INTER + INTRA:         -10.329
REMARK INTER:                  -8.127
REMARK INTRA:                  -2.202
REMARK UNBOUND:                -0.806
REMARK SMILES CCCCCCCCCCCCCCCCCC(=O)[O-]
REMARK SMILES IDX 10 1 11 2 12 3 13 4 14 5 15 6 16 7 17 8 18 9 19 10 20 11
REMARK SMILES IDX 9 12 8 13 7 14 6 15 5 16 4 17 3 18 2 19 1 20
REMARK H PARENT
REMARK Flexibility Score: inf
ROOT
ATOM      1  C   UNL     1      19.724  24.793  20.033  1.00  0.00     0.000 C 
ENDROOT
BRANCH   1   2
ATOM      2  C   UNL     1      20.192  24.271  21.407  1.00  0.00     0.000 C 
BRANCH   2   3
ATOM      3  C   UNL     1      20.547  22.774  21.450  1.00  0.00     0.000 C 
BRANCH   3   4
ATOM      4  C   UNL     1      22.061  22.519  21.457  1.00  0.00     0.000 C 
BRANCH   4   5
ATOM      5  C   UNL     1      22.412  21.280  20.621  1.00  0.00     0.000 C 
BRANCH   5   6
ATOM      6  C   UNL     1      22.802  20.065  21.483  1.00  0.00     0.000 C 
BRANCH   6   7
ATOM      7  C   UNL     1      23.970  19.223  20.932  1.00  0.00     0.006 C 
BRANCH   7   8
ATOM      8  C   UNL     1      23.943  17.744  21.351  1.00  0.00     0.053 C 
BRANCH   8   9
ATOM      9  C   UNL     1      22.972  16.948  20.535  1.00  0.00     0.041 C 
ATOM     10  O   UNL     1      23.361  16.340  19.503  1.00  0.00    -0.550 OA
ATOM     11  O   UNL     1      21.632  16.904  20.896  1.00  0.00    -0.550 OA
ENDBRANCH   8   9
ENDBRANCH   7   8
ENDBRANCH   6   7
ENDBRANCH   5   6
ENDBRANCH   4   5
ENDBRANCH   3   4
ENDBRANCH   2   3
ENDBRANCH   1   2
BRANCH   1  12
ATOM     12  C   UNL     1      20.841  24.979  18.990  1.00  0.00     0.000 C 
BRANCH  12  13
ATOM     13  C   UNL     1      20.848  23.877  17.920  1.00  0.00    -0.000 C 
BRANCH  13  14
ATOM     14  C   UNL     1      19.414  23.488  17.527  1.00  0.00    -0.000 C 
BRANCH  14  15
ATOM     15  C   UNL     1      19.159  21.975  17.635  1.00  0.00    -0.000 C 
BRANCH  15  16
ATOM     16  C   UNL     1      18.273  21.612  18.838  1.00  0.00    -0.000 C 
BRANCH  16  17
ATOM     17  C   UNL     1      18.677  20.282  19.496  1.00  0.00    -0.000 C 
BRANCH  17  18
ATOM     18  C   UNL     1      18.065  20.071  20.897  1.00  0.00    -0.000 C 
BRANCH  18  19
ATOM     19  C   UNL     1      16.931  21.065  21.189  1.00  0.00    -0.003 C 
ATOM     20  C   UNL     1      17.201  21.847  22.471  1.00  0.00     0.004 C 
ENDBRANCH  18  19
ENDBRANCH  17  18
ENDBRANCH  16  17
ENDBRANCH  15  16
ENDBRANCH  14  15
ENDBRANCH  13  14
ENDBRANCH  12  13
ENDBRANCH   1  12
TORSDOF 16
ENDMDL
MODEL 4
REMARK VINA RESULT:    -4.915     15.697     19.122
REMARK INTER + INTRA:         -10.318
REMARK INTER:                  -8.593
REMARK INTRA:                  -1.725
REMARK UNBOUND:                -0.806
REMARK SMILES CCCCCCCCCCCCCCCCCC(=O)[O-]
REMARK SMILES IDX 10 1 11 2 12 3 13 4 14 5 15 6 16 7 17 8 18 9 19 10 20 11
REMARK SMILES IDX 9 12 8 13 7 14 6 15 5 16 4 17 3 18 2 19 1 20
REMARK H PARENT
REMARK Flexibility Score: inf
ROOT
ATOM      1  C   UNL     1      21.849  22.742  18.595  1.00  0.00     0.000 C 
ENDROOT
BRANCH   1   2
ATOM      2  C   UNL     1      21.023  24.045  18.612  1.00  0.00     0.000 C 
BRANCH   2   3
ATOM      3  C   UNL     1      19.818  24.067  17.655  1.00  0.00     0.000 C 
BRANCH   3   4
ATOM      4  C   UNL     1      19.469  22.677  17.103  1.00  0.00     0.000 C 
BRANCH   4   5
ATOM      5  C   UNL     1      18.312  22.049  17.892  1.00  0.00     0.000 C 
BRANCH   5   6
ATOM      6  C   UNL     1      18.763  20.890  18.800  1.00  0.00     0.000 C 
BRANCH   6   7
ATOM      7  C   UNL     1      18.548  21.122  20.309  1.00  0.00     0.006 C 
BRANCH   7   8
ATOM      8  C   UNL     1      18.179  22.565  20.687  1.00  0.00     0.053 C 
BRANCH   8   9
ATOM      9  C   UNL     1      18.431  22.847  22.136  1.00  0.00     0.041 C 
ATOM     10  O   UNL     1      17.697  22.331  23.019  1.00  0.00    -0.550 OA
ATOM     11  O   UNL     1      19.457  23.706  22.510  1.00  0.00    -0.550 OA
ENDBRANCH   8   9
ENDBRANCH   7   8
ENDBRANCH   6   7
ENDBRANCH   5   6
ENDBRANCH   4   5
ENDBRANCH   3   4
ENDBRANCH   2   3
ENDBRANCH   1   2
BRANCH   1  12
ATOM     12  C   UNL     1      22.640  22.454  19.883  1.00  0.00     0.000 C 
BRANCH  12  13
ATOM     13  C   UNL     1      21.870  21.562  20.870  1.00  0.00    -0.000 C 
BRANCH  13  14
ATOM     14  C   UNL     1      22.787  20.476  21.455  1.00  0.00    -0.000 C 
BRANCH  14  15
ATOM     15  C   UNL     1      22.097  19.106  21.552  1.00  0.00    -0.000 C 
BRANCH  15  16
ATOM     16  C   UNL     1      23.026  17.948  21.152  1.00  0.00    -0.000 C 
BRANCH  16  17
ATOM     17  C   UNL     1      24.515  18.325  21.230  1.00  0.00    -0.000 C 
BRANCH  17  18
ATOM     18  C   UNL     1      25.167  18.566  19.852  1.00  0.00    -0.000 C 
BRANCH  18  19
ATOM     19  C   UNL     1      26.090  17.410  19.437  1.00  0.00    -0.003 C 
ATOM     20  C   UNL     1      25.324  16.348  18.654  1.00  0.00     0.004 C 
ENDBRANCH  18  19
ENDBRANCH  17  18
ENDBRANCH  16  17
ENDBRANCH  15  16
ENDBRANCH  14  15
ENDBRANCH  13  14
ENDBRANCH  12  13
ENDBRANCH   1  12
TORSDOF 16
ENDMDL
MODEL 5
REMARK VINA RESULT:    -4.912     16.259     18.603
REMARK INTER + INTRA:         -10.312
REMARK INTER:                  -8.117
REMARK INTRA:                  -2.196
REMARK UNBOUND:                -0.806
REMARK SMILES CCCCCCCCCCCCCCCCCC(=O)[O-]
REMARK SMILES IDX 10 1 11 2 12 3 13 4 14 5 15 6 16 7 17 8 18 9 19 10 20 11
REMARK SMILES IDX 9 12 8 13 7 14 6 15 5 16 4 17 3 18 2 19 1 20
REMARK H PARENT
REMARK Flexibility Score: inf
ROOT
ATOM      1  C   UNL     1      21.527  22.700  18.660  1.00  0.00     0.000 C 
ENDROOT
BRANCH   1   2
ATOM      2  C   UNL     1      22.521  22.939  19.815  1.00  0.00     0.000 C 
BRANCH   2   3
ATOM      3  C   UNL     1      22.144  22.271  21.149  1.00  0.00     0.000 C 
BRANCH   3   4
ATOM      4  C   UNL     1      21.704  20.810  20.982  1.00  0.00     0.000 C 
BRANCH   4   5
ATOM      5  C   UNL     1      22.791  19.849  21.483  1.00  0.00     0.000 C 
BRANCH   5   6
ATOM      6  C   UNL     1      22.429  18.368  21.273  1.00  0.00     0.000 C 
BRANCH   6   7
ATOM      7  C   UNL     1      23.628  17.399  21.247  1.00  0.00     0.006 C 
BRANCH   7   8
ATOM      8  C   UNL     1      25.003  18.085  21.303  1.00  0.00     0.053 C 
BRANCH   8   9
ATOM      9  C   UNL     1      25.812  17.820  20.072  1.00  0.00     0.041 C 
ATOM     10  O   UNL     1      27.053  18.030  20.072  1.00  0.00    -0.550 OA
ATOM     11  O   UNL     1      25.190  17.370  18.914  1.00  0.00    -0.550 OA
ENDBRANCH   8   9
ENDBRANCH   7   8
ENDBRANCH   6   7
ENDBRANCH   5   6
ENDBRANCH   4   5
ENDBRANCH   3   4
ENDBRANCH   2   3
ENDBRANCH   1   2
BRANCH   1  12
ATOM     12  C   UNL     1      20.963  23.977  18.011  1.00  0.00     0.000 C 
BRANCH  12  13
ATOM     13  C   UNL     1      19.483  23.842  17.618  1.00  0.00    -0.000 C 
BRANCH  13  14
ATOM     14  C   UNL     1      19.118  22.371  17.361  1.00  0.00    -0.000 C 
BRANCH  14  15
ATOM     15  C   UNL     1      18.074  21.836  18.355  1.00  0.00    -0.000 C 
BRANCH  15  16
ATOM     16  C   UNL     1      18.566  20.594  19.116  1.00  0.00    -0.000 C 
BRANCH  16  17
ATOM     17  C   UNL     1      18.084  20.560  20.576  1.00  0.00    -0.000 C 
BRANCH  17  18
ATOM     18  C   UNL     1      17.530  21.910  21.078  1.00  0.00    -0.000 C 
BRANCH  18  19
ATOM     19  C   UNL     1      18.543  22.660  21.956  1.00  0.00    -0.003 C 
ATOM     20  C   UNL     1      19.063  23.911  21.253  1.00  0.00     0.004 C 
ENDBRANCH  18  19
ENDBRANCH  17  18
ENDBRANCH  16  17
ENDBRANCH  15  16
ENDBRANCH  14  15
ENDBRANCH  13  14
ENDBRANCH  12  13
ENDBRANCH   1  12
TORSDOF 16
ENDMDL
MODEL 6
REMARK VINA RESULT:    -4.872     16.285     18.904
REMARK INTER + INTRA:         -10.235
REMARK INTER:                  -8.048
REMARK INTRA:                  -2.187
REMARK UNBOUND:                -0.806
REMARK SMILES CCCCCCCCCCCCCCCCCC(=O)[O-]
REMARK SMILES IDX 10 1 11 2 12 3 13 4 14 5 15 6 16 7 17 8 18 9 19 10 20 11
REMARK SMILES IDX 9 12 8 13 7 14 6 15 5 16 4 17 3 18 2 19 1 20
REMARK H PARENT
REMARK Flexibility Score: inf
ROOT
ATOM      1  C   UNL     1      19.889  24.618  20.658  1.00  0.00     0.000 C 
ENDROOT
BRANCH   1   2
ATOM      2  C   UNL     1      20.910  25.015  19.572  1.00  0.00     0.000 C 
BRANCH   2   3
ATOM      3  C   UNL     1      20.452  24.769  18.124  1.00  0.00     0.000 C 
BRANCH   3   4
ATOM      4  C   UNL     1      21.148  23.564  17.474  1.00  0.00     0.000 C 
BRANCH   4   5
ATOM      5  C   UNL     1      20.202  22.357  17.404  1.00  0.00     0.000 C 
BRANCH   5   6
ATOM      6  C   UNL     1      18.733  22.727  17.681  1.00  0.00     0.000 C 
BRANCH   6   7
ATOM      7  C   UNL     1      17.885  21.604  18.312  1.00  0.00     0.006 C 
BRANCH   7   8
ATOM      8  C   UNL     1      18.702  20.483  18.974  1.00  0.00     0.053 C 
BRANCH   8   9
ATOM      9  C   UNL     1      18.208  20.170  20.353  1.00  0.00     0.041 C 
ATOM     10  O   UNL     1      17.222  20.791  20.828  1.00  0.00    -0.550 OA
ATOM     11  O   UNL     1      18.858  19.215  21.125  1.00  0.00    -0.550 OA
ENDBRANCH   8   9
ENDBRANCH   7   8
ENDBRANCH   6   7
ENDBRANCH   5   6
ENDBRANCH   4   5
ENDBRANCH   3   4
ENDBRANCH   2   3
ENDBRANCH   1   2
BRANCH   1  12
ATOM     12  C   UNL     1      20.038  23.185  21.201  1.00  0.00     0.000 C 
BRANCH  12  13
ATOM     13  C   UNL     1      21.505  22.769  21.392  1.00  0.00    -0.000 C 
BRANCH  13  14
ATOM     14  C   UNL     1      21.813  21.482  20.611  1.00  0.00    -0.000 C 
BRANCH  14  15
ATOM     15  C   UNL     1      22.876  20.610  21.300  1.00  0.00    -0.000 C 
BRANCH  15  16
ATOM     16  C   UNL     1      22.334  19.229  21.705  1.00  0.00    -0.000 C 
BRANCH  16  17
ATOM     17  C   UNL     1      23.164  18.070  21.129  1.00  0.00    -0.000 C 
BRANCH  17  18
ATOM     18  C   UNL     1      24.688  18.257  21.294  1.00  0.00    -0.000 C 
BRANCH  18  19
ATOM     19  C   UNL     1      25.446  18.018  19.980  1.00  0.00    -0.003 C 
ATOM     20  C   UNL     1      26.946  17.883  20.226  1.00  0.00     0.004 C 
ENDBRANCH  18  19
ENDBRANCH  17  18
ENDBRANCH  16  17
ENDBRANCH  15  16
ENDBRANCH  14  15
ENDBRANCH  13  14
ENDBRANCH  12  13
ENDBRANCH   1  12
TORSDOF 16
ENDMDL
MODEL 7
REMARK VINA RESULT:    -4.824     16.494     18.600
REMARK INTER + INTRA:         -10.143
REMARK INTER:                  -7.678
REMARK INTRA:                  -2.465
REMARK UNBOUND:                -0.806
REMARK SMILES CCCCCCCCCCCCCCCCCC(=O)[O-]
REMARK SMILES IDX 10 1 11 2 12 3 13 4 14 5 15 6 16 7 17 8 18 9 19 10 20 11
REMARK SMILES IDX 9 12 8 13 7 14 6 15 5 16 4 17 3 18 2 19 1 20
REMARK H PARENT
REMARK Flexibility Score: inf
ROOT
ATOM      1  C   UNL     1      20.568  24.847  19.259  1.00  0.00     0.000 C 
ENDROOT
BRANCH   1   2
ATOM      2  C   UNL     1      21.257  23.963  18.200  1.00  0.00     0.000 C 
BRANCH   2   3
ATOM      3  C   UNL     1      21.690  22.570  18.693  1.00  0.00     0.000 C 
BRANCH   3   4
ATOM      4  C   UNL     1      22.520  22.626  19.984  1.00  0.00     0.000 C 
BRANCH   4   5
ATOM      5  C   UNL     1      22.052  21.558  20.983  1.00  0.00     0.000 C 
BRANCH   5   6
ATOM      6  C   UNL     1      23.032  20.377  21.103  1.00  0.00     0.000 C 
BRANCH   6   7
ATOM      7  C   UNL     1      22.451  19.112  21.767  1.00  0.00     0.006 C 
BRANCH   7   8
ATOM      8  C   UNL     1      22.778  17.800  21.036  1.00  0.00     0.053 C 
BRANCH   8   9
ATOM      9  C   UNL     1      24.239  17.678  20.730  1.00  0.00     0.041 C 
ATOM     10  O   UNL     1      25.090  17.781  21.652  1.00  0.00    -0.550 OA
ATOM     11  O   UNL     1      24.662  17.481  19.421  1.00  0.00    -0.550 OA
ENDBRANCH   8   9
ENDBRANCH   7   8
ENDBRANCH   6   7
ENDBRANCH   5   6
ENDBRANCH   4   5
ENDBRANCH   3   4
ENDBRANCH   2   3
ENDBRANCH   1   2
BRANCH   1  12
ATOM     12  C   UNL     1      19.133  24.429  19.624  1.00  0.00     0.000 C 
BRANCH  12  13
ATOM     13  C   UNL     1      19.045  23.724  20.987  1.00  0.00    -0.000 C 
BRANCH  13  14
ATOM     14  C   UNL     1      18.521  22.288  20.826  1.00  0.00    -0.000 C 
BRANCH  14  15
ATOM     15  C   UNL     1      18.202  21.933  19.365  1.00  0.00    -0.000 C 
BRANCH  15  16
ATOM     16  C   UNL     1      18.560  20.478  19.019  1.00  0.00    -0.000 C 
BRANCH  16  17
ATOM     17  C   UNL     1      19.103  19.695  20.226  1.00  0.00    -0.000 C 
BRANCH  17  18
ATOM     18  C   UNL     1      18.709  18.202  20.226  1.00  0.00    -0.000 C 
BRANCH  18  19
ATOM     19  C   UNL     1      19.022  17.520  21.566  1.00  0.00    -0.003 C 
ATOM     20  C   UNL     1      18.078  18.002  22.663  1.00  0.00     0.004 C 
ENDBRANCH  18  19
ENDBRANCH  17  18
ENDBRANCH  16  17
ENDBRANCH  15  16
ENDBRANCH  14  15
ENDBRANCH  13  14
ENDBRANCH  12  13
ENDBRANCH   1  12
TORSDOF 16
ENDMDL
MODEL 8
REMARK VINA RESULT:    -4.753     15.838     19.209
REMARK INTER + INTRA:         -10.005
REMARK INTER:                  -7.679
REMARK INTRA:                  -2.326
REMARK UNBOUND:                -0.806
REMARK SMILES CCCCCCCCCCCCCCCCCC(=O)[O-]
REMARK SMILES IDX 10 1 11 2 12 3 13 4 14 5 15 6 16 7 17 8 18 9 19 10 20 11
REMARK SMILES IDX 9 12 8 13 7 14 6 15 5 16 4 17 3 18 2 19 1 20
REMARK H PARENT
REMARK Flexibility Score: inf
ROOT
ATOM      1  C   UNL     1      22.040  21.956  21.114  1.00  0.00     0.000 C 
ENDROOT
BRANCH   1   2
ATOM      2  C   UNL     1      22.485  22.653  19.812  1.00  0.00     0.000 C 
BRANCH   2   3
ATOM      3  C   UNL     1      21.386  23.460  19.097  1.00  0.00     0.000 C 
BRANCH   3   4
ATOM      4  C   UNL     1      21.007  22.872  17.731  1.00  0.00     0.000 C 
BRANCH   4   5
ATOM      5  C   UNL     1      19.521  22.489  17.692  1.00  0.00     0.000 C 
BRANCH   5   6
ATOM      6  C   UNL     1      19.159  21.383  18.701  1.00  0.00     0.000 C 
BRANCH   6   7
ATOM      7  C   UNL     1      18.074  21.767  19.728  1.00  0.00     0.006 C 
BRANCH   7   8
ATOM      8  C   UNL     1      18.412  21.395  21.181  1.00  0.00     0.053 C 
BRANCH   8   9
ATOM      9  C   UNL     1      18.370  22.586  22.088  1.00  0.00     0.041 C 
ATOM     10  O   UNL     1      19.071  23.601  21.833  1.00  0.00    -0.550 OA
ATOM     11  O   UNL     1      17.583  22.563  23.232  1.00  0.00    -0.550 OA
ENDBRANCH   8   9
ENDBRANCH   7   8
ENDBRANCH   6   7
ENDBRANCH   5   6
ENDBRANCH   4   5
ENDBRANCH   3   4
ENDBRANCH   2   3
ENDBRANCH   1   2
BRANCH   1  12
ATOM     12  C   UNL     1      21.994  20.419  21.048  1.00  0.00     0.000 C 
BRANCH  12  13
ATOM     13  C   UNL     1      23.157  19.754  21.800  1.00  0.00    -0.000 C 
BRANCH  13  14
ATOM     14  C   UNL     1      24.085  19.011  20.826  1.00  0.00    -0.000 C 
BRANCH  14  15
ATOM     15  C   UNL     1      24.064  17.488  21.031  1.00  0.00    -0.000 C 
BRANCH  15  16
ATOM     16  C   UNL     1      23.809  16.720  19.723  1.00  0.00    -0.000 C 
BRANCH  16  17
ATOM     17  C   UNL     1      22.416  16.070  19.675  1.00  0.00    -0.000 C 
BRANCH  17  18
ATOM     18  C   UNL     1      21.509  16.460  20.862  1.00  0.00    -0.000 C 
BRANCH  18  19
ATOM     19  C   UNL     1      20.210  17.136  20.399  1.00  0.00    -0.003 C 
ATOM     20  C   UNL     1      19.494  17.811  21.565  1.00  0.00     0.004 C 
ENDBRANCH  18  19
ENDBRANCH  17  18
ENDBRANCH  16  17
ENDBRANCH  15  16
ENDBRANCH  14  15
ENDBRANCH  13  14
ENDBRANCH  12  13
ENDBRANCH   1  12
TORSDOF 16
ENDMDL
MODEL 9
REMARK VINA RESULT:    -4.716     16.704     18.946
REMARK INTER + INTRA:          -9.934
REMARK INTER:                  -7.585
REMARK INTRA:                  -2.348
REMARK UNBOUND:                -0.806
REMARK SMILES CCCCCCCCCCCCCCCCCC(=O)[O-]
REMARK SMILES IDX 10 1 11 2 12 3 13 4 14 5 15 6 16 7 17 8 18 9 19 10 20 11
REMARK SMILES IDX 9 12 8 13 7 14 6 15 5 16 4 17 3 18 2 19 1 20
REMARK H PARENT
REMARK Flexibility Score: inf
ROOT
ATOM      1  C   UNL     1      21.388  23.459  18.005  1.00  0.00     0.000 C 
ENDROOT
BRANCH   1   2
ATOM      2  C   UNL     1      20.656  24.602  18.738  1.00  0.00     0.000 C 
BRANCH   2   3
ATOM      3  C   UNL     1      19.164  24.349  19.016  1.00  0.00     0.000 C 
BRANCH   3   4
ATOM      4  C   UNL     1      18.871  24.070  20.497  1.00  0.00     0.000 C 
BRANCH   4   5
ATOM      5  C   UNL     1      18.503  22.595  20.714  1.00  0.00     0.000 C 
BRANCH   5   6
ATOM      6  C   UNL     1      18.312  21.822  19.396  1.00  0.00     0.000 C 
BRANCH   6   7
ATOM      7  C   UNL     1      19.008  20.448  19.338  1.00  0.00     0.006 C 
BRANCH   7   8
ATOM      8  C   UNL     1      19.176  19.760  20.702  1.00  0.00     0.053 C 
BRANCH   8   9
ATOM      9  C   UNL     1      19.450  18.295  20.560  1.00  0.00     0.041 C 
ATOM     10  O   UNL     1      20.037  17.668  21.481  1.00  0.00    -0.550 OA
ATOM     11  O   UNL     1      19.086  17.628  19.397  1.00  0.00    -0.550 OA
ENDBRANCH   8   9
ENDBRANCH   7   8
ENDBRANCH   6   7
ENDBRANCH   5   6
ENDBRANCH   4   5
ENDBRANCH   3   4
ENDBRANCH   2   3
ENDBRANCH   1   2
BRANCH   1  12
ATOM     12  C   UNL     1      22.110  22.454  18.920  1.00  0.00     0.000 C 
BRANCH  12  13
ATOM     13  C   UNL     1      22.196  22.930  20.379  1.00  0.00    -0.000 C 
BRANCH  13  14
ATOM     14  C   UNL     1      22.253  21.733  21.341  1.00  0.00    -0.000 C 
BRANCH  14  15
ATOM     15  C   UNL     1      22.847  20.474  20.688  1.00  0.00    -0.000 C 
BRANCH  15  16
ATOM     16  C   UNL     1      23.024  19.319  21.687  1.00  0.00    -0.000 C 
BRANCH  16  17
ATOM     17  C   UNL     1      23.958  18.215  21.163  1.00  0.00    -0.000 C 
BRANCH  17  18
ATOM     18  C   UNL     1      24.859  18.667  19.994  1.00  0.00    -0.000 C 
BRANCH  18  19
ATOM     19  C   UNL     1      26.127  17.809  19.875  1.00  0.00    -0.003 C 
ATOM     20  C   UNL     1      25.932  16.672  18.877  1.00  0.00     0.004 C 
ENDBRANCH  18  19
ENDBRANCH  17  18
ENDBRANCH  16  17
ENDBRANCH  15  16
ENDBRANCH  14  15
ENDBRANCH  13  14
ENDBRANCH  12  13
ENDBRANCH   1  12
TORSDOF 16
ENDMDL
