MODEL 1
REMARK VINA RESULT:    -5.084      0.000      0.000
REMARK INTER + INTRA:         -16.782
REMARK INTER:                 -13.406
REMARK INTRA:                  -3.376
REMARK UNBOUND:                -3.376
REMARK SMILES CCCCCCCCCCCCCCCCCCCCCCCCCCCCCC(=O)[O-]
REMARK SMILES IDX 16 1 17 2 18 3 19 4 20 5 21 6 22 7 23 8 24 9 25 10 26 11
REMARK SMILES IDX 27 12 28 13 29 14 30 15 31 16 32 17 15 18 14 19 13 20 12 21
REMARK SMILES IDX 11 22 10 23 9 24 8 25 7 26 6 27 5 28 4 29 3 30 2 31 1 32
REMARK H PARENT
REMARK Flexibility Score: inf
ROOT
ATOM      1  C   UNL     1      64.365  31.187  24.117  1.00  0.00     0.000 C 
ENDROOT
BRANCH   1   2
ATOM      2  C   UNL     1      64.256  32.373  23.147  1.00  0.00     0.000 C 
BRANCH   2   3
ATOM      3  C   UNL     1      65.569  32.651  22.395  1.00  0.00     0.000 C 
BRANCH   3   4
ATOM      4  C   UNL     1      65.438  33.610  21.195  1.00  0.00     0.000 C 
BRANCH   4   5
ATOM      5  C   UNL     1      64.045  34.248  21.015  1.00  0.00     0.000 C 
BRANCH   5   6
ATOM      6  C   UNL     1      63.286  33.818  19.746  1.00  0.00     0.000 C 
BRANCH   6   7
ATOM      7  C   UNL     1      64.194  33.730  18.508  1.00  0.00     0.000 C 
BRANCH   7   8
ATOM      8  C   UNL     1      63.543  34.314  17.240  1.00  0.00     0.000 C 
BRANCH   8   9
ATOM      9  C   UNL     1      62.170  33.721  16.870  1.00  0.00     0.000 C 
BRANCH   9  10
ATOM     10  C   UNL     1      62.107  33.216  15.418  1.00  0.00     0.000 C 
BRANCH  10  11
ATOM     11  C   UNL     1      60.718  33.401  14.787  1.00  0.00     0.000 C 
BRANCH  11  12
ATOM     12  C   UNL     1      60.552  32.622  13.474  1.00  0.00     0.000 C 
BRANCH  12  13
ATOM     13  C   UNL     1      60.216  31.148  13.748  1.00  0.00     0.006 C 
BRANCH  13  14
ATOM     14  C   UNL     1      60.666  30.226  12.608  1.00  0.00     0.053 C 
BRANCH  14  15
ATOM     15  C   UNL     1      60.995  28.850  13.101  1.00  0.00     0.041 C 
ATOM     16  O   UNL     1      60.090  27.980  13.201  1.00  0.00    -0.550 OA
ATOM     17  O   UNL     1      62.306  28.518  13.416  1.00  0.00    -0.550 OA
ENDBRANCH  14  15
ENDBRANCH  13  14
ENDBRANCH  12  13
ENDBRANCH  11  12
ENDBRANCH  10  11
ENDBRANCH   9  10
ENDBRANCH   8   9
ENDBRANCH   7   8
ENDBRANCH   6   7
ENDBRANCH   5   6
ENDBRANCH   4   5
ENDBRANCH   3   4
ENDBRANCH   2   3
ENDBRANCH   1   2
BRANCH   1  18
ATOM     18  C   UNL     1      65.592  30.320  23.796  1.00  0.00     0.000 C 
BRANCH  18  19
ATOM     19  C   UNL     1      66.312  29.828  25.062  1.00  0.00     0.000 C 
BRANCH  19  20
ATOM     20  C   UNL     1      65.333  29.426  26.179  1.00  0.00     0.000 C 
BRANCH  20  21
ATOM     21  C   UNL     1      65.634  30.133  27.517  1.00  0.00     0.000 C 
BRANCH  21  22
ATOM     22  C   UNL     1      64.404  30.793  28.170  1.00  0.00     0.000 C 
BRANCH  22  23
ATOM     23  C   UNL     1      63.041  30.332  27.621  1.00  0.00     0.000 C 
BRANCH  23  24
ATOM     24  C   UNL     1      62.086  29.727  28.667  1.00  0.00    -0.000 C 
BRANCH  24  25
ATOM     25  C   UNL     1      62.249  28.208  28.822  1.00  0.00    -0.000 C 
BRANCH  25  26
ATOM     26  C   UNL     1      62.369  27.526  27.452  1.00  0.00    -0.000 C 
BRANCH  26  27
ATOM     27  C   UNL     1      61.002  27.245  26.802  1.00  0.00    -0.000 C 
BRANCH  27  28
ATOM     28  C   UNL     1      60.931  27.531  25.289  1.00  0.00    -0.000 C 
BRANCH  28  29
ATOM     29  C   UNL     1      62.129  28.313  24.716  1.00  0.00    -0.000 C 
BRANCH  29  30
ATOM     30  C   UNL     1      63.008  27.526  23.723  1.00  0.00    -0.000 C 
BRANCH  30  31
ATOM     31  C   UNL     1      63.937  26.483  24.368  1.00  0.00    -0.003 C 
ATOM     32  C   UNL     1      65.279  26.353  23.648  1.00  0.00     0.004 C 
ENDBRANCH  30  31
ENDBRANCH  29  30
ENDBRANCH  28  29
ENDBRANCH  27  28
ENDBRANCH  26  27
ENDBRANCH  25  26
ENDBRANCH  24  25
ENDBRANCH  23  24
ENDBRANCH  22  23
ENDBRANCH  21  22
ENDBRANCH  20  21
ENDBRANCH  19  20
ENDBRANCH  18  19
ENDBRANCH   1  18
TORSDOF 28
ENDMDL
MODEL 2
REMARK VINA RESULT:    -4.961      2.465     10.203
REMARK INTER + INTRA:         -16.459
REMARK INTER:                 -13.568
REMARK INTRA:                  -2.891
REMARK UNBOUND:                -3.376
REMARK SMILES CCCCCCCCCCCCCCCCCCCCCCCCCCCCCC(=O)[O-]
REMARK SMILES IDX 16 1 17 2 18 3 19 4 20 5 21 6 22 7 23 8 24 9 25 10 26 11
REMARK SMILES IDX 27 12 28 13 29 14 30 15 31 16 32 17 15 18 14 19 13 20 12 21
REMARK SMILES IDX 11 22 10 23 9 24 8 25 7 26 6 27 5 28 4 29 3 30 2 31 1 32
REMARK H PARENT
REMARK Flexibility Score: inf
ROOT
ATOM      1  C   UNL     1      64.112  31.558  23.744  1.00  0.00     0.000 C 
ENDROOT
BRANCH   1   2
ATOM      2  C   UNL     1      64.888  30.235  23.829  1.00  0.00     0.000 C 
BRANCH   2   3
ATOM      3  C   UNL     1      66.088  30.309  24.789  1.00  0.00     0.000 C 
BRANCH   3   4
ATOM      4  C   UNL     1      65.865  29.635  26.158  1.00  0.00     0.000 C 
BRANCH   4   5
ATOM      5  C   UNL     1      64.866  30.353  27.088  1.00  0.00     0.000 C 
BRANCH   5   6
ATOM      6  C   UNL     1      63.687  29.491  27.576  1.00  0.00     0.000 C 
BRANCH   6   7
ATOM      7  C   UNL     1      62.377  29.791  26.828  1.00  0.00     0.000 C 
BRANCH   7   8
ATOM      8  C   UNL     1      61.710  28.529  26.251  1.00  0.00     0.000 C 
BRANCH   8   9
ATOM      9  C   UNL     1      62.229  28.079  24.872  1.00  0.00     0.000 C 
BRANCH   9  10
ATOM     10  C   UNL     1      62.696  26.614  24.856  1.00  0.00     0.000 C 
BRANCH  10  11
ATOM     11  C   UNL     1      64.073  26.424  25.513  1.00  0.00     0.000 C 
BRANCH  11  12
ATOM     12  C   UNL     1      65.232  26.564  24.514  1.00  0.00     0.000 C 
BRANCH  12  13
ATOM     13  C   UNL     1      64.822  26.060  23.123  1.00  0.00     0.006 C 
BRANCH  13  14
ATOM     14  C   UNL     1      66.017  25.532  22.318  1.00  0.00     0.053 C 
BRANCH  14  15
ATOM     15  C   UNL     1      66.393  26.462  21.205  1.00  0.00     0.041 C 
ATOM     16  O   UNL     1      66.349  26.068  20.009  1.00  0.00    -0.550 OA
ATOM     17  O   UNL     1      66.756  27.772  21.484  1.00  0.00    -0.550 OA
ENDBRANCH  14  15
ENDBRANCH  13  14
ENDBRANCH  12  13
ENDBRANCH  11  12
ENDBRANCH  10  11
ENDBRANCH   9  10
ENDBRANCH   8   9
ENDBRANCH   7   8
ENDBRANCH   6   7
ENDBRANCH   5   6
ENDBRANCH   4   5
ENDBRANCH   3   4
ENDBRANCH   2   3
ENDBRANCH   1   2
BRANCH   1  18
ATOM     18  C   UNL     1      64.789  32.536  22.770  1.00  0.00     0.000 C 
BRANCH  18  19
ATOM     19  C   UNL     1      63.787  33.496  22.109  1.00  0.00     0.000 C 
BRANCH  19  20
ATOM     20  C   UNL     1      64.395  34.252  20.915  1.00  0.00     0.000 C 
BRANCH  20  21
ATOM     21  C   UNL     1      63.736  33.872  19.572  1.00  0.00     0.000 C 
BRANCH  21  22
ATOM     22  C   UNL     1      62.199  33.777  19.631  1.00  0.00     0.000 C 
BRANCH  22  23
ATOM     23  C   UNL     1      61.464  34.200  18.346  1.00  0.00     0.000 C 
BRANCH  23  24
ATOM     24  C   UNL     1      61.527  33.184  17.190  1.00  0.00    -0.000 C 
BRANCH  24  25
ATOM     25  C   UNL     1      62.155  33.764  15.914  1.00  0.00    -0.000 C 
BRANCH  25  26
ATOM     26  C   UNL     1      61.395  33.293  14.666  1.00  0.00    -0.000 C 
BRANCH  26  27
ATOM     27  C   UNL     1      60.354  32.202  14.976  1.00  0.00    -0.000 C 
BRANCH  27  28
ATOM     28  C   UNL     1      59.618  31.639  13.744  1.00  0.00    -0.000 C 
BRANCH  28  29
ATOM     29  C   UNL     1      60.533  31.128  12.614  1.00  0.00    -0.000 C 
BRANCH  29  30
ATOM     30  C   UNL     1      61.392  29.901  12.974  1.00  0.00    -0.000 C 
BRANCH  30  31
ATOM     31  C   UNL     1      60.594  28.647  13.375  1.00  0.00    -0.003 C 
ATOM     32  C   UNL     1      59.366  28.416  12.496  1.00  0.00     0.004 C 
ENDBRANCH  30  31
ENDBRANCH  29  30
ENDBRANCH  28  29
ENDBRANCH  27  28
ENDBRANCH  26  27
ENDBRANCH  25  26
ENDBRANCH  24  25
ENDBRANCH  23  24
ENDBRANCH  22  23
ENDBRANCH  21  22
ENDBRANCH  20  21
ENDBRANCH  19  20
ENDBRANCH  18  19
ENDBRANCH   1  18
TORSDOF 28
ENDMDL
MODEL 3
REMARK VINA RESULT:    -4.901      2.898     10.266
REMARK INTER + INTRA:         -16.300
REMARK INTER:                 -13.049
REMARK INTRA:                  -3.251
REMARK UNBOUND:                -3.376
REMARK SMILES CCCCCCCCCCCCCCCCCCCCCCCCCCCCCC(=O)[O-]
REMARK SMILES IDX 16 1 17 2 18 3 19 4 20 5 21 6 22 7 23 8 24 9 25 10 26 11
REMARK SMILES IDX 27 12 28 13 29 14 30 15 31 16 32 17 15 18 14 19 13 20 12 21
REMARK SMILES IDX 11 22 10 23 9 24 8 25 7 26 6 27 5 28 4 29 3 30 2 31 1 32
REMARK H PARENT
REMARK Flexibility Score: inf
ROOT
ATOM      1  C   UNL     1      65.115  30.410  23.731  1.00  0.00     0.000 C 
ENDROOT
BRANCH   1   2
ATOM      2  C   UNL     1      66.568  30.466  24.229  1.00  0.00     0.000 C 
BRANCH   2   3
ATOM      3  C   UNL     1      66.741  29.857  25.631  1.00  0.00     0.000 C 
BRANCH   3   4
ATOM      4  C   UNL     1      65.463  29.236  26.230  1.00  0.00     0.000 C 
BRANCH   4   5
ATOM      5  C   UNL     1      64.921  29.939  27.492  1.00  0.00     0.000 C 
BRANCH   5   6
ATOM      6  C   UNL     1      63.495  30.506  27.367  1.00  0.00     0.000 C 
BRANCH   6   7
ATOM      7  C   UNL     1      62.650  30.282  28.632  1.00  0.00     0.000 C 
BRANCH   7   8
ATOM      8  C   UNL     1      61.568  29.202  28.450  1.00  0.00     0.000 C 
BRANCH   8   9
ATOM      9  C   UNL     1      62.076  27.748  28.456  1.00  0.00     0.000 C 
BRANCH   9  10
ATOM     10  C   UNL     1      62.112  27.120  27.053  1.00  0.00     0.000 C 
BRANCH  10  11
ATOM     11  C   UNL     1      60.742  27.146  26.358  1.00  0.00     0.000 C 
BRANCH  11  12
ATOM     12  C   UNL     1      60.763  27.917  25.029  1.00  0.00     0.000 C 
BRANCH  12  13
ATOM     13  C   UNL     1      62.182  28.405  24.701  1.00  0.00     0.006 C 
BRANCH  13  14
ATOM     14  C   UNL     1      62.725  27.788  23.405  1.00  0.00     0.053 C 
BRANCH  14  15
ATOM     15  C   UNL     1      63.722  26.705  23.680  1.00  0.00     0.041 C 
ATOM     16  O   UNL     1      63.337  25.580  24.096  1.00  0.00    -0.550 OA
ATOM     17  O   UNL     1      65.072  26.923  23.442  1.00  0.00    -0.550 OA
ENDBRANCH  14  15
ENDBRANCH  13  14
ENDBRANCH  12  13
ENDBRANCH  11  12
ENDBRANCH  10  11
ENDBRANCH   9  10
ENDBRANCH   8   9
ENDBRANCH   7   8
ENDBRANCH   6   7
ENDBRANCH   5   6
ENDBRANCH   4   5
ENDBRANCH   3   4
ENDBRANCH   2   3
ENDBRANCH   1   2
BRANCH   1  18
ATOM     18  C   UNL     1      64.480  31.809  23.717  1.00  0.00     0.000 C 
BRANCH  18  19
ATOM     19  C   UNL     1      64.995  32.677  22.557  1.00  0.00     0.000 C 
BRANCH  19  20
ATOM     20  C   UNL     1      63.904  33.595  21.979  1.00  0.00     0.000 C 
BRANCH  20  21
ATOM     21  C   UNL     1      64.453  34.581  20.925  1.00  0.00     0.000 C 
BRANCH  21  22
ATOM     22  C   UNL     1      64.893  33.912  19.609  1.00  0.00     0.000 C 
BRANCH  22  23
ATOM     23  C   UNL     1      63.935  34.106  18.419  1.00  0.00     0.000 C 
BRANCH  23  24
ATOM     24  C   UNL     1      62.505  33.577  18.638  1.00  0.00    -0.000 C 
BRANCH  24  25
ATOM     25  C   UNL     1      61.457  34.303  17.782  1.00  0.00    -0.000 C 
BRANCH  25  26
ATOM     26  C   UNL     1      61.556  33.873  16.312  1.00  0.00    -0.000 C 
BRANCH  26  27
ATOM     27  C   UNL     1      61.803  32.362  16.146  1.00  0.00    -0.000 C 
BRANCH  27  28
ATOM     28  C   UNL     1      60.692  31.602  15.394  1.00  0.00    -0.000 C 
BRANCH  28  29
ATOM     29  C   UNL     1      59.925  32.434  14.348  1.00  0.00    -0.000 C 
BRANCH  29  30
ATOM     30  C   UNL     1      60.302  32.145  12.881  1.00  0.00    -0.000 C 
BRANCH  30  31
ATOM     31  C   UNL     1      61.153  30.880  12.669  1.00  0.00    -0.003 C 
ATOM     32  C   UNL     1      62.631  31.189  12.431  1.00  0.00     0.004 C 
ENDBRANCH  30  31
ENDBRANCH  29  30
ENDBRANCH  28  29
ENDBRANCH  27  28
ENDBRANCH  26  27
ENDBRANCH  25  26
ENDBRANCH  24  25
ENDBRANCH  23  24
ENDBRANCH  22  23
ENDBRANCH  21  22
ENDBRANCH  20  21
ENDBRANCH  19  20
ENDBRANCH  18  19
ENDBRANCH   1  18
TORSDOF 28
ENDMDL
MODEL 4
REMARK VINA RESULT:    -4.886      3.574     11.418
REMARK INTER + INTRA:         -16.259
REMARK INTER:                 -13.525
REMARK INTRA:                  -2.734
REMARK UNBOUND:                -3.376
REMARK SMILES CCCCCCCCCCCCCCCCCCCCCCCCCCCCCC(=O)[O-]
REMARK SMILES IDX 16 1 17 2 18 3 19 4 20 5 21 6 22 7 23 8 24 9 25 10 26 11
REMARK SMILES IDX 27 12 28 13 29 14 30 15 31 16 32 17 15 18 14 19 13 20 12 21
REMARK SMILES IDX 11 22 10 23 9 24 8 25 7 26 6 27 5 28 4 29 3 30 2 31 1 32
REMARK H PARENT
REMARK Flexibility Score: inf
ROOT
ATOM      1  C   UNL     1      61.638  33.421  18.831  1.00  0.00     0.000 C 
ENDROOT
BRANCH   1   2
ATOM      2  C   UNL     1      62.845  33.736  19.727  1.00  0.00     0.000 C 
BRANCH   2   3
ATOM      3  C   UNL     1      64.116  34.058  18.922  1.00  0.00     0.000 C 
BRANCH   3   4
ATOM      4  C   UNL     1      65.330  34.484  19.773  1.00  0.00     0.000 C 
BRANCH   4   5
ATOM      5  C   UNL     1      65.310  33.995  21.236  1.00  0.00     0.000 C 
BRANCH   5   6
ATOM      6  C   UNL     1      66.435  33.015  21.616  1.00  0.00     0.000 C 
BRANCH   6   7
ATOM      7  C   UNL     1      66.046  32.077  22.770  1.00  0.00     0.000 C 
BRANCH   7   8
ATOM      8  C   UNL     1      64.553  32.162  23.138  1.00  0.00     0.000 C 
BRANCH   8   9
ATOM      9  C   UNL     1      64.045  31.068  24.097  1.00  0.00     0.000 C 
BRANCH   9  10
ATOM     10  C   UNL     1      65.057  29.926  24.294  1.00  0.00     0.000 C 
BRANCH  10  11
ATOM     11  C   UNL     1      64.673  28.655  23.519  1.00  0.00     0.000 C 
BRANCH  11  12
ATOM     12  C   UNL     1      63.642  27.794  24.264  1.00  0.00     0.000 C 
BRANCH  12  13
ATOM     13  C   UNL     1      62.210  28.210  23.896  1.00  0.00     0.006 C 
BRANCH  13  14
ATOM     14  C   UNL     1      61.369  28.559  25.130  1.00  0.00     0.053 C 
BRANCH  14  15
ATOM     15  C   UNL     1      60.857  27.332  25.821  1.00  0.00     0.041 C 
ATOM     16  O   UNL     1      61.465  26.869  26.822  1.00  0.00    -0.550 OA
ATOM     17  O   UNL     1      59.690  26.721  25.382  1.00  0.00    -0.550 OA
ENDBRANCH  14  15
ENDBRANCH  13  14
ENDBRANCH  12  13
ENDBRANCH  11  12
ENDBRANCH  10  11
ENDBRANCH   9  10
ENDBRANCH   8   9
ENDBRANCH   7   8
ENDBRANCH   6   7
ENDBRANCH   5   6
ENDBRANCH   4   5
ENDBRANCH   3   4
ENDBRANCH   2   3
ENDBRANCH   1   2
BRANCH   1  18
ATOM     18  C   UNL     1      61.524  34.430  17.678  1.00  0.00     0.000 C 
BRANCH  18  19
ATOM     19  C   UNL     1      61.367  33.746  16.310  1.00  0.00     0.000 C 
BRANCH  19  20
ATOM     20  C   UNL     1      62.711  33.279  15.726  1.00  0.00     0.000 C 
BRANCH  20  21
ATOM     21  C   UNL     1      62.610  32.894  14.235  1.00  0.00     0.000 C 
BRANCH  21  22
ATOM     22  C   UNL     1      61.201  33.062  13.636  1.00  0.00     0.000 C 
BRANCH  22  23
ATOM     23  C   UNL     1      60.619  31.808  12.958  1.00  0.00     0.000 C 
BRANCH  23  24
ATOM     24  C   UNL     1      60.159  30.698  13.921  1.00  0.00    -0.000 C 
BRANCH  24  25
ATOM     25  C   UNL     1      61.155  29.532  14.015  1.00  0.00    -0.000 C 
BRANCH  25  26
ATOM     26  C   UNL     1      60.670  28.328  13.195  1.00  0.00    -0.000 C 
BRANCH  26  27
ATOM     27  C   UNL     1      59.455  28.659  12.309  1.00  0.00    -0.000 C 
BRANCH  27  28
ATOM     28  C   UNL     1      59.788  28.941  10.830  1.00  0.00    -0.000 C 
BRANCH  28  29
ATOM     29  C   UNL     1      61.232  28.600  10.410  1.00  0.00    -0.000 C 
BRANCH  29  30
ATOM     30  C   UNL     1      62.146  29.818  10.170  1.00  0.00    -0.000 C 
BRANCH  30  31
ATOM     31  C   UNL     1      63.356  29.916  11.116  1.00  0.00    -0.003 C 
ATOM     32  C   UNL     1      64.246  31.123  10.822  1.00  0.00     0.004 C 
ENDBRANCH  30  31
ENDBRANCH  29  30
ENDBRANCH  28  29
ENDBRANCH  27  28
ENDBRANCH  26  27
ENDBRANCH  25  26
ENDBRANCH  24  25
ENDBRANCH  23  24
ENDBRANCH  22  23
ENDBRANCH  21  22
ENDBRANCH  20  21
ENDBRANCH  19  20
ENDBRANCH  18  19
ENDBRANCH   1  18
TORSDOF 28
ENDMDL
MODEL 5
REMARK VINA RESULT:    -4.878      2.961     10.272
REMARK INTER + INTRA:         -16.239
REMARK INTER:                 -12.915
REMARK INTRA:                  -3.323
REMARK UNBOUND:                -3.376
REMARK SMILES CCCCCCCCCCCCCCCCCCCCCCCCCCCCCC(=O)[O-]
REMARK SMILES IDX 16 1 17 2 18 3 19 4 20 5 21 6 22 7 23 8 24 9 25 10 26 11
REMARK SMILES IDX 27 12 28 13 29 14 30 15 31 16 32 17 15 18 14 19 13 20 12 21
REMARK SMILES IDX 11 22 10 23 9 24 8 25 7 26 6 27 5 28 4 29 3 30 2 31 1 32
REMARK H PARENT
REMARK Flexibility Score: inf
ROOT
ATOM      1  C   UNL     1      62.301  28.465  25.214  1.00  0.00     0.000 C 
ENDROOT
BRANCH   1   2
ATOM      2  C   UNL     1      60.847  27.972  25.237  1.00  0.00     0.000 C 
BRANCH   2   3
ATOM      3  C   UNL     1      60.521  27.134  26.486  1.00  0.00     0.000 C 
BRANCH   3   4
ATOM      4  C   UNL     1      61.531  27.277  27.642  1.00  0.00     0.000 C 
BRANCH   4   5
ATOM      5  C   UNL     1      61.120  28.267  28.753  1.00  0.00     0.000 C 
BRANCH   5   6
ATOM      6  C   UNL     1      61.883  29.605  28.754  1.00  0.00     0.000 C 
BRANCH   6   7
ATOM      7  C   UNL     1      63.410  29.422  28.786  1.00  0.00     0.000 C 
BRANCH   7   8
ATOM      8  C   UNL     1      64.156  30.429  27.893  1.00  0.00     0.000 C 
BRANCH   8   9
ATOM      9  C   UNL     1      65.611  30.725  28.303  1.00  0.00     0.000 C 
BRANCH   9  10
ATOM     10  C   UNL     1      66.641  30.151  27.314  1.00  0.00     0.000 C 
BRANCH  10  11
ATOM     11  C   UNL     1      65.989  29.328  26.192  1.00  0.00     0.000 C 
BRANCH  11  12
ATOM     12  C   UNL     1      66.830  29.305  24.906  1.00  0.00     0.000 C 
BRANCH  12  13
ATOM     13  C   UNL     1      66.315  28.234  23.933  1.00  0.00     0.006 C 
BRANCH  13  14
ATOM     14  C   UNL     1      65.336  27.260  24.602  1.00  0.00     0.053 C 
BRANCH  14  15
ATOM     15  C   UNL     1      65.012  26.098  23.714  1.00  0.00     0.041 C 
ATOM     16  O   UNL     1      63.940  25.457  23.878  1.00  0.00    -0.550 OA
ATOM     17  O   UNL     1      65.873  25.746  22.684  1.00  0.00    -0.550 OA
ENDBRANCH  14  15
ENDBRANCH  13  14
ENDBRANCH  12  13
ENDBRANCH  11  12
ENDBRANCH  10  11
ENDBRANCH   9  10
ENDBRANCH   8   9
ENDBRANCH   7   8
ENDBRANCH   6   7
ENDBRANCH   5   6
ENDBRANCH   4   5
ENDBRANCH   3   4
ENDBRANCH   2   3
ENDBRANCH   1   2
BRANCH   1  18
ATOM     18  C   UNL     1      62.369  29.981  24.974  1.00  0.00     0.000 C 
BRANCH  18  19
ATOM     19  C   UNL     1      63.343  30.355  23.844  1.00  0.00     0.000 C 
BRANCH  19  20
ATOM     20  C   UNL     1      64.089  31.672  24.121  1.00  0.00     0.000 C 
BRANCH  20  21
ATOM     21  C   UNL     1      64.570  32.366  22.829  1.00  0.00     0.000 C 
BRANCH  21  22
ATOM     22  C   UNL     1      63.618  33.461  22.312  1.00  0.00     0.000 C 
BRANCH  22  23
ATOM     23  C   UNL     1      64.149  34.289  21.127  1.00  0.00     0.000 C 
BRANCH  23  24
ATOM     24  C   UNL     1      65.224  33.593  20.272  1.00  0.00    -0.000 C 
BRANCH  24  25
ATOM     25  C   UNL     1      64.982  33.742  18.763  1.00  0.00    -0.000 C 
BRANCH  25  26
ATOM     26  C   UNL     1      63.487  33.636  18.433  1.00  0.00    -0.000 C 
BRANCH  26  27
ATOM     27  C   UNL     1      63.224  33.092  17.017  1.00  0.00    -0.000 C 
BRANCH  27  28
ATOM     28  C   UNL     1      61.738  32.862  16.675  1.00  0.00    -0.000 C 
BRANCH  28  29
ATOM     29  C   UNL     1      61.243  33.579  15.403  1.00  0.00    -0.000 C 
BRANCH  29  30
ATOM     30  C   UNL     1      60.271  32.761  14.530  1.00  0.00    -0.000 C 
BRANCH  30  31
ATOM     31  C   UNL     1      60.759  32.493  13.096  1.00  0.00    -0.003 C 
ATOM     32  C   UNL     1      62.257  32.203  13.020  1.00  0.00     0.004 C 
ENDBRANCH  30  31
ENDBRANCH  29  30
ENDBRANCH  28  29
ENDBRANCH  27  28
ENDBRANCH  26  27
ENDBRANCH  25  26
ENDBRANCH  24  25
ENDBRANCH  23  24
ENDBRANCH  22  23
ENDBRANCH  21  22
ENDBRANCH  20  21
ENDBRANCH  19  20
ENDBRANCH  18  19
ENDBRANCH   1  18
TORSDOF 28
ENDMDL
MODEL 6
REMARK VINA RESULT:    -4.863      2.738     10.336
REMARK INTER + INTRA:         -16.198
REMARK INTER:                 -13.240
REMARK INTRA:                  -2.958
REMARK UNBOUND:                -3.376
REMARK SMILES CCCCCCCCCCCCCCCCCCCCCCCCCCCCCC(=O)[O-]
REMARK SMILES IDX 16 1 17 2 18 3 19 4 20 5 21 6 22 7 23 8 24 9 25 10 26 11
REMARK SMILES IDX 27 12 28 13 29 14 30 15 31 16 32 17 15 18 14 19 13 20 12 21
REMARK SMILES IDX 11 22 10 23 9 24 8 25 7 26 6 27 5 28 4 29 3 30 2 31 1 32
REMARK H PARENT
REMARK Flexibility Score: inf
ROOT
ATOM      1  C   UNL     1      63.542  30.305  24.238  1.00  0.00     0.000 C 
ENDROOT
BRANCH   1   2
ATOM      2  C   UNL     1      63.273  30.507  25.737  1.00  0.00     0.000 C 
BRANCH   2   3
ATOM      3  C   UNL     1      64.459  30.074  26.618  1.00  0.00     0.000 C 
BRANCH   3   4
ATOM      4  C   UNL     1      64.138  29.955  28.122  1.00  0.00     0.000 C 
BRANCH   4   5
ATOM      5  C   UNL     1      62.745  30.471  28.538  1.00  0.00     0.000 C 
BRANCH   5   6
ATOM      6  C   UNL     1      61.724  29.377  28.905  1.00  0.00     0.000 C 
BRANCH   6   7
ATOM      7  C   UNL     1      62.351  27.975  28.979  1.00  0.00     0.000 C 
BRANCH   7   8
ATOM      8  C   UNL     1      61.729  26.983  27.979  1.00  0.00     0.000 C 
BRANCH   8   9
ATOM      9  C   UNL     1      61.033  27.622  26.762  1.00  0.00     0.000 C 
BRANCH   9  10
ATOM     10  C   UNL     1      61.662  27.201  25.423  1.00  0.00     0.000 C 
BRANCH  10  11
ATOM     11  C   UNL     1      63.106  26.699  25.579  1.00  0.00     0.000 C 
BRANCH  11  12
ATOM     12  C   UNL     1      63.610  25.940  24.342  1.00  0.00     0.000 C 
BRANCH  12  13
ATOM     13  C   UNL     1      65.142  25.995  24.250  1.00  0.00     0.006 C 
BRANCH  13  14
ATOM     14  C   UNL     1      65.649  27.366  23.783  1.00  0.00     0.053 C 
BRANCH  14  15
ATOM     15  C   UNL     1      66.242  27.302  22.409  1.00  0.00     0.041 C 
ATOM     16  O   UNL     1      66.682  28.347  21.860  1.00  0.00    -0.550 OA
ATOM     17  O   UNL     1      66.342  26.085  21.749  1.00  0.00    -0.550 OA
ENDBRANCH  14  15
ENDBRANCH  13  14
ENDBRANCH  12  13
ENDBRANCH  11  12
ENDBRANCH  10  11
ENDBRANCH   9  10
ENDBRANCH   8   9
ENDBRANCH   7   8
ENDBRANCH   6   7
ENDBRANCH   5   6
ENDBRANCH   4   5
ENDBRANCH   3   4
ENDBRANCH   2   3
ENDBRANCH   1   2
BRANCH   1  18
ATOM     18  C   UNL     1      64.631  31.265  23.736  1.00  0.00     0.000 C 
BRANCH  18  19
ATOM     19  C   UNL     1      64.046  32.546  23.117  1.00  0.00     0.000 C 
BRANCH  19  20
ATOM     20  C   UNL     1      64.937  33.122  22.003  1.00  0.00     0.000 C 
BRANCH  20  21
ATOM     21  C   UNL     1      64.202  34.164  21.132  1.00  0.00     0.000 C 
BRANCH  21  22
ATOM     22  C   UNL     1      65.078  34.797  20.035  1.00  0.00     0.000 C 
BRANCH  22  23
ATOM     23  C   UNL     1      64.680  34.444  18.590  1.00  0.00     0.000 C 
BRANCH  23  24
ATOM     24  C   UNL     1      63.528  33.430  18.457  1.00  0.00    -0.000 C 
BRANCH  24  25
ATOM     25  C   UNL     1      62.830  33.488  17.090  1.00  0.00    -0.000 C 
BRANCH  25  26
ATOM     26  C   UNL     1      61.649  34.468  17.119  1.00  0.00    -0.000 C 
BRANCH  26  27
ATOM     27  C   UNL     1      60.583  34.150  16.054  1.00  0.00    -0.000 C 
BRANCH  27  28
ATOM     28  C   UNL     1      61.008  33.109  15.000  1.00  0.00    -0.000 C 
BRANCH  28  29
ATOM     29  C   UNL     1      59.848  32.329  14.349  1.00  0.00    -0.000 C 
BRANCH  29  30
ATOM     30  C   UNL     1      60.223  31.545  13.076  1.00  0.00    -0.000 C 
BRANCH  30  31
ATOM     31  C   UNL     1      60.388  30.028  13.274  1.00  0.00    -0.003 C 
ATOM     32  C   UNL     1      61.562  29.670  14.186  1.00  0.00     0.004 C 
ENDBRANCH  30  31
ENDBRANCH  29  30
ENDBRANCH  28  29
ENDBRANCH  27  28
ENDBRANCH  26  27
ENDBRANCH  25  26
ENDBRANCH  24  25
ENDBRANCH  23  24
ENDBRANCH  22  23
ENDBRANCH  21  22
ENDBRANCH  20  21
ENDBRANCH  19  20
ENDBRANCH  18  19
ENDBRANCH   1  18
TORSDOF 28
ENDMDL
MODEL 7
REMARK VINA RESULT:    -4.839      1.584      2.997
REMARK INTER + INTRA:         -16.136
REMARK INTER:                 -13.456
REMARK INTRA:                  -2.680
REMARK UNBOUND:                -3.376
REMARK SMILES CCCCCCCCCCCCCCCCCCCCCCCCCCCCCC(=O)[O-]
REMARK SMILES IDX 16 1 17 2 18 3 19 4 20 5 21 6 22 7 23 8 24 9 25 10 26 11
REMARK SMILES IDX 27 12 28 13 29 14 30 15 31 16 32 17 15 18 14 19 13 20 12 21
REMARK SMILES IDX 11 22 10 23 9 24 8 25 7 26 6 27 5 28 4 29 3 30 2 31 1 32
REMARK H PARENT
REMARK Flexibility Score: inf
ROOT
ATOM      1  C   UNL     1      63.834  33.505  22.052  1.00  0.00     0.000 C 
ENDROOT
BRANCH   1   2
ATOM      2  C   UNL     1      64.617  33.978  20.818  1.00  0.00     0.000 C 
BRANCH   2   3
ATOM      3  C   UNL     1      63.744  34.058  19.553  1.00  0.00     0.000 C 
BRANCH   3   4
ATOM      4  C   UNL     1      62.240  33.810  19.787  1.00  0.00     0.000 C 
BRANCH   4   5
ATOM      5  C   UNL     1      61.475  33.234  18.578  1.00  0.00     0.000 C 
BRANCH   5   6
ATOM      6  C   UNL     1      61.304  34.199  17.390  1.00  0.00     0.000 C 
BRANCH   6   7
ATOM      7  C   UNL     1      62.292  33.920  16.246  1.00  0.00     0.000 C 
BRANCH   7   8
ATOM      8  C   UNL     1      61.922  32.674  15.421  1.00  0.00     0.000 C 
BRANCH   8   9
ATOM      9  C   UNL     1      62.543  32.605  14.013  1.00  0.00     0.000 C 
BRANCH   9  10
ATOM     10  C   UNL     1      61.645  31.879  12.996  1.00  0.00     0.000 C 
BRANCH  10  11
ATOM     11  C   UNL     1      60.684  30.882  13.662  1.00  0.00     0.000 C 
BRANCH  11  12
ATOM     12  C   UNL     1      61.331  29.512  13.919  1.00  0.00     0.000 C 
BRANCH  12  13
ATOM     13  C   UNL     1      60.822  28.468  12.915  1.00  0.00     0.006 C 
BRANCH  13  14
ATOM     14  C   UNL     1      61.565  28.537  11.574  1.00  0.00     0.053 C 
BRANCH  14  15
ATOM     15  C   UNL     1      60.618  28.637  10.417  1.00  0.00     0.041 C 
ATOM     16  O   UNL     1      59.599  29.372  10.494  1.00  0.00    -0.550 OA
ATOM     17  O   UNL     1      60.880  27.946   9.242  1.00  0.00    -0.550 OA
ENDBRANCH  14  15
ENDBRANCH  13  14
ENDBRANCH  12  13
ENDBRANCH  11  12
ENDBRANCH  10  11
ENDBRANCH   9  10
ENDBRANCH   8   9
ENDBRANCH   7   8
ENDBRANCH   6   7
ENDBRANCH   5   6
ENDBRANCH   4   5
ENDBRANCH   3   4
ENDBRANCH   2   3
ENDBRANCH   1   2
BRANCH   1  18
ATOM     18  C   UNL     1      64.663  32.518  22.888  1.00  0.00     0.000 C 
BRANCH  18  19
ATOM     19  C   UNL     1      66.139  32.478  22.461  1.00  0.00     0.000 C 
BRANCH  19  20
ATOM     20  C   UNL     1      66.932  31.373  23.180  1.00  0.00     0.000 C 
BRANCH  20  21
ATOM     21  C   UNL     1      66.018  30.305  23.818  1.00  0.00     0.000 C 
BRANCH  21  22
ATOM     22  C   UNL     1      66.340  30.004  25.295  1.00  0.00     0.000 C 
BRANCH  22  23
ATOM     23  C   UNL     1      65.246  29.241  26.064  1.00  0.00     0.000 C 
BRANCH  23  24
ATOM     24  C   UNL     1      64.222  30.127  26.798  1.00  0.00    -0.000 C 
BRANCH  24  25
ATOM     25  C   UNL     1      62.807  30.024  26.209  1.00  0.00    -0.000 C 
BRANCH  25  26
ATOM     26  C   UNL     1      62.830  29.317  24.847  1.00  0.00    -0.000 C 
BRANCH  26  27
ATOM     27  C   UNL     1      61.600  28.418  24.619  1.00  0.00    -0.000 C 
BRANCH  27  28
ATOM     28  C   UNL     1      61.621  27.083  25.390  1.00  0.00    -0.000 C 
BRANCH  28  29
ATOM     29  C   UNL     1      63.016  26.449  25.560  1.00  0.00    -0.000 C 
BRANCH  29  30
ATOM     30  C   UNL     1      63.595  25.797  24.289  1.00  0.00    -0.000 C 
BRANCH  30  31
ATOM     31  C   UNL     1      65.101  26.029  24.072  1.00  0.00    -0.003 C 
ATOM     32  C   UNL     1      65.415  26.677  22.723  1.00  0.00     0.004 C 
ENDBRANCH  30  31
ENDBRANCH  29  30
ENDBRANCH  28  29
ENDBRANCH  27  28
ENDBRANCH  26  27
ENDBRANCH  25  26
ENDBRANCH  24  25
ENDBRANCH  23  24
ENDBRANCH  22  23
ENDBRANCH  21  22
ENDBRANCH  20  21
ENDBRANCH  19  20
ENDBRANCH  18  19
ENDBRANCH   1  18
TORSDOF 28
ENDMDL
MODEL 8
REMARK VINA RESULT:    -4.787      1.457      3.409
REMARK INTER + INTRA:         -15.998
REMARK INTER:                 -13.408
REMARK INTRA:                  -2.590
REMARK UNBOUND:                -3.376
REMARK SMILES CCCCCCCCCCCCCCCCCCCCCCCCCCCCCC(=O)[O-]
REMARK SMILES IDX 16 1 17 2 18 3 19 4 20 5 21 6 22 7 23 8 24 9 25 10 26 11
REMARK SMILES IDX 27 12 28 13 29 14 30 15 31 16 32 17 15 18 14 19 13 20 12 21
REMARK SMILES IDX 11 22 10 23 9 24 8 25 7 26 6 27 5 28 4 29 3 30 2 31 1 32
REMARK H PARENT
REMARK Flexibility Score: inf
ROOT
ATOM      1  C   UNL     1      64.546  33.104  22.245  1.00  0.00     0.000 C 
ENDROOT
BRANCH   1   2
ATOM      2  C   UNL     1      64.316  34.261  21.260  1.00  0.00     0.000 C 
BRANCH   2   3
ATOM      3  C   UNL     1      64.845  33.955  19.848  1.00  0.00     0.000 C 
BRANCH   3   4
ATOM      4  C   UNL     1      63.757  33.631  18.805  1.00  0.00     0.000 C 
BRANCH   4   5
ATOM      5  C   UNL     1      62.309  33.661  19.337  1.00  0.00     0.000 C 
BRANCH   5   6
ATOM      6  C   UNL     1      61.225  33.283  18.312  1.00  0.00     0.000 C 
BRANCH   6   7
ATOM      7  C   UNL     1      61.772  33.169  16.879  1.00  0.00     0.000 C 
BRANCH   7   8
ATOM      8  C   UNL     1      60.911  33.916  15.844  1.00  0.00     0.000 C 
BRANCH   8   9
ATOM      9  C   UNL     1      60.864  33.281  14.441  1.00  0.00     0.000 C 
BRANCH   9  10
ATOM     10  C   UNL     1      60.453  31.798  14.468  1.00  0.00     0.000 C 
BRANCH  10  11
ATOM     11  C   UNL     1      61.518  30.878  13.848  1.00  0.00     0.000 C 
BRANCH  11  12
ATOM     12  C   UNL     1      61.225  29.388  14.082  1.00  0.00     0.000 C 
BRANCH  12  13
ATOM     13  C   UNL     1      61.222  28.614  12.756  1.00  0.00     0.006 C 
BRANCH  13  14
ATOM     14  C   UNL     1      61.573  29.508  11.559  1.00  0.00     0.053 C 
BRANCH  14  15
ATOM     15  C   UNL     1      60.906  29.042  10.301  1.00  0.00     0.041 C 
ATOM     16  O   UNL     1      60.004  29.740   9.767  1.00  0.00    -0.550 OA
ATOM     17  O   UNL     1      61.305  27.857   9.698  1.00  0.00    -0.550 OA
ENDBRANCH  14  15
ENDBRANCH  13  14
ENDBRANCH  12  13
ENDBRANCH  11  12
ENDBRANCH  10  11
ENDBRANCH   9  10
ENDBRANCH   8   9
ENDBRANCH   7   8
ENDBRANCH   6   7
ENDBRANCH   5   6
ENDBRANCH   4   5
ENDBRANCH   3   4
ENDBRANCH   2   3
ENDBRANCH   1   2
BRANCH   1  18
ATOM     18  C   UNL     1      65.974  32.551  22.127  1.00  0.00     0.000 C 
BRANCH  18  19
ATOM     19  C   UNL     1      66.286  31.494  23.198  1.00  0.00     0.000 C 
BRANCH  19  20
ATOM     20  C   UNL     1      65.018  30.814  23.742  1.00  0.00     0.000 C 
BRANCH  20  21
ATOM     21  C   UNL     1      65.177  30.340  25.203  1.00  0.00     0.000 C 
BRANCH  21  22
ATOM     22  C   UNL     1      65.863  28.968  25.347  1.00  0.00     0.000 C 
BRANCH  22  23
ATOM     23  C   UNL     1      65.510  27.938  24.258  1.00  0.00     0.000 C 
BRANCH  23  24
ATOM     24  C   UNL     1      65.001  26.582  24.780  1.00  0.00    -0.000 C 
BRANCH  24  25
ATOM     25  C   UNL     1      63.469  26.470  24.768  1.00  0.00    -0.000 C 
BRANCH  25  26
ATOM     26  C   UNL     1      62.839  27.647  24.011  1.00  0.00    -0.000 C 
BRANCH  26  27
ATOM     27  C   UNL     1      61.582  28.202  24.706  1.00  0.00    -0.000 C 
BRANCH  27  28
ATOM     28  C   UNL     1      60.889  27.221  25.673  1.00  0.00    -0.000 C 
BRANCH  28  29
ATOM     29  C   UNL     1      61.100  27.521  27.170  1.00  0.00    -0.000 C 
BRANCH  29  30
ATOM     30  C   UNL     1      61.497  28.975  27.494  1.00  0.00    -0.000 C 
BRANCH  30  31
ATOM     31  C   UNL     1      62.966  29.168  27.907  1.00  0.00    -0.003 C 
ATOM     32  C   UNL     1      63.271  30.589  28.380  1.00  0.00     0.004 C 
ENDBRANCH  30  31
ENDBRANCH  29  30
ENDBRANCH  28  29
ENDBRANCH  27  28
ENDBRANCH  26  27
ENDBRANCH  25  26
ENDBRANCH  24  25
ENDBRANCH  23  24
ENDBRANCH  22  23
ENDBRANCH  21  22
ENDBRANCH  20  21
ENDBRANCH  19  20
ENDBRANCH  18  19
ENDBRANCH   1  18
TORSDOF 28
ENDMDL
MODEL 9
REMARK VINA RESULT:    -4.759      3.938     11.600
REMARK INTER + INTRA:         -15.926
REMARK INTER:                 -13.360
REMARK INTRA:                  -2.565
REMARK UNBOUND:                -3.376
REMARK SMILES CCCCCCCCCCCCCCCCCCCCCCCCCCCCCC(=O)[O-]
REMARK SMILES IDX 16 1 17 2 18 3 19 4 20 5 21 6 22 7 23 8 24 9 25 10 26 11
REMARK SMILES IDX 27 12 28 13 29 14 30 15 31 16 32 17 15 18 14 19 13 20 12 21
REMARK SMILES IDX 11 22 10 23 9 24 8 25 7 26 6 27 5 28 4 29 3 30 2 31 1 32
REMARK H PARENT
REMARK Flexibility Score: inf
ROOT
ATOM      1  C   UNL     1      62.189  33.502  19.797  1.00  0.00     0.000 C 
ENDROOT
BRANCH   1   2
ATOM      2  C   UNL     1      63.631  34.028  19.861  1.00  0.00     0.000 C 
BRANCH   2   3
ATOM      3  C   UNL     1      64.275  33.833  21.245  1.00  0.00     0.000 C 
BRANCH   3   4
ATOM      4  C   UNL     1      65.814  33.744  21.237  1.00  0.00     0.000 C 
BRANCH   4   5
ATOM      5  C   UNL     1      66.412  32.632  22.124  1.00  0.00     0.000 C 
BRANCH   5   6
ATOM      6  C   UNL     1      65.428  31.985  23.116  1.00  0.00     0.000 C 
BRANCH   6   7
ATOM      7  C   UNL     1      65.663  30.476  23.293  1.00  0.00     0.000 C 
BRANCH   7   8
ATOM      8  C   UNL     1      66.276  30.117  24.659  1.00  0.00     0.000 C 
BRANCH   8   9
ATOM      9  C   UNL     1      65.803  28.783  25.266  1.00  0.00     0.000 C 
BRANCH   9  10
ATOM     10  C   UNL     1      65.582  27.688  24.208  1.00  0.00     0.000 C 
BRANCH  10  11
ATOM     11  C   UNL     1      64.214  27.001  24.344  1.00  0.00     0.000 C 
BRANCH  11  12
ATOM     12  C   UNL     1      63.059  27.866  23.814  1.00  0.00     0.000 C 
BRANCH  12  13
ATOM     13  C   UNL     1      61.985  28.069  24.893  1.00  0.00     0.006 C 
BRANCH  13  14
ATOM     14  C   UNL     1      62.152  29.399  25.638  1.00  0.00     0.053 C 
BRANCH  14  15
ATOM     15  C   UNL     1      62.197  29.205  27.123  1.00  0.00     0.041 C 
ATOM     16  O   UNL     1      61.128  29.112  27.782  1.00  0.00    -0.550 OA
ATOM     17  O   UNL     1      63.418  29.090  27.773  1.00  0.00    -0.550 OA
ENDBRANCH  14  15
ENDBRANCH  13  14
ENDBRANCH  12  13
ENDBRANCH  11  12
ENDBRANCH  10  11
ENDBRANCH   9  10
ENDBRANCH   8   9
ENDBRANCH   7   8
ENDBRANCH   6   7
ENDBRANCH   5   6
ENDBRANCH   4   5
ENDBRANCH   3   4
ENDBRANCH   2   3
ENDBRANCH   1   2
BRANCH   1  18
ATOM     18  C   UNL     1      61.440  34.084  18.588  1.00  0.00     0.000 C 
BRANCH  18  19
ATOM     19  C   UNL     1      62.384  34.443  17.429  1.00  0.00     0.000 C 
BRANCH  19  20
ATOM     20  C   UNL     1      62.744  33.224  16.563  1.00  0.00     0.000 C 
BRANCH  20  21
ATOM     21  C   UNL     1      61.503  32.413  16.131  1.00  0.00     0.000 C 
BRANCH  21  22
ATOM     22  C   UNL     1      60.744  33.016  14.933  1.00  0.00     0.000 C 
BRANCH  22  23
ATOM     23  C   UNL     1      59.660  32.111  14.319  1.00  0.00     0.000 C 
BRANCH  23  24
ATOM     24  C   UNL     1      60.042  31.447  12.983  1.00  0.00    -0.000 C 
BRANCH  24  25
ATOM     25  C   UNL     1      60.053  29.912  13.057  1.00  0.00    -0.000 C 
BRANCH  25  26
ATOM     26  C   UNL     1      61.169  29.415  13.986  1.00  0.00    -0.000 C 
BRANCH  26  27
ATOM     27  C   UNL     1      62.257  28.621  13.241  1.00  0.00    -0.000 C 
BRANCH  27  28
ATOM     28  C   UNL     1      63.442  29.464  12.730  1.00  0.00    -0.000 C 
BRANCH  28  29
ATOM     29  C   UNL     1      63.200  30.183  11.388  1.00  0.00    -0.000 C 
BRANCH  29  30
ATOM     30  C   UNL     1      63.464  29.328  10.132  1.00  0.00    -0.000 C 
BRANCH  30  31
ATOM     31  C   UNL     1      62.241  29.120   9.222  1.00  0.00    -0.003 C 
ATOM     32  C   UNL     1      61.162  28.248   9.863  1.00  0.00     0.004 C 
ENDBRANCH  30  31
ENDBRANCH  29  30
ENDBRANCH  28  29
ENDBRANCH  27  28
ENDBRANCH  26  27
ENDBRANCH  25  26
ENDBRANCH  24  25
ENDBRANCH  23  24
ENDBRANCH  22  23
ENDBRANCH  21  22
ENDBRANCH  20  21
ENDBRANCH  19  20
ENDBRANCH  18  19
ENDBRANCH   1  18
TORSDOF 28
ENDMDL
