MODEL 1
REMARK VINA RESULT:     4.274      0.000      0.000
REMARK INTER + INTRA:           6.718
REMARK INTER:                   7.272
REMARK INTRA:                  -0.554
REMARK UNBOUND:                -0.554
REMARK SMILES CCCCCCCCCCCCCC(=O)[O-]
REMARK SMILES IDX 8 1 9 2 10 3 11 4 12 5 13 6 14 7 15 8 16 9 7 10 6 11 5 12
REMARK SMILES IDX 4 13 3 14 2 15 1 16
REMARK H PARENT
REMARK Flexibility Score: inf
ROOT
ATOM      1  C   UNL     1     -16.157  31.668 -19.669  1.00  0.00     0.000 C 
ENDROOT
BRANCH   1   2
ATOM      2  C   UNL     1     -15.129  30.554 -19.943  1.00  0.00     0.000 C 
BRANCH   2   3
ATOM      3  C   UNL     1     -14.272  30.145 -18.730  1.00  0.00     0.000 C 
BRANCH   3   4
ATOM      4  C   UNL     1     -13.318  28.978 -19.036  1.00  0.00     0.000 C 
BRANCH   4   5
ATOM      5  C   UNL     1     -12.396  28.636 -17.851  1.00  0.00     0.006 C 
BRANCH   5   6
ATOM      6  C   UNL     1     -12.894  27.478 -16.973  1.00  0.00     0.053 C 
BRANCH   6   7
ATOM      7  C   UNL     1     -13.933  27.926 -15.992  1.00  0.00     0.041 C 
ATOM      8  O   UNL     1     -13.701  28.892 -15.219  1.00  0.00    -0.550 OA
ATOM      9  O   UNL     1     -15.149  27.258 -15.911  1.00  0.00    -0.550 OA
ENDBRANCH   6   7
ENDBRANCH   5   6
ENDBRANCH   4   5
ENDBRANCH   3   4
ENDBRANCH   2   3
ENDBRANCH   1   2
BRANCH   1  10
ATOM     10  C   UNL     1     -15.513  33.060 -19.548  1.00  0.00     0.000 C 
BRANCH  10  11
ATOM     11  C   UNL     1     -16.419  34.066 -18.822  1.00  0.00    -0.000 C 
BRANCH  11  12
ATOM     12  C   UNL     1     -17.889  33.959 -19.262  1.00  0.00    -0.000 C 
BRANCH  12  13
ATOM     13  C   UNL     1     -18.862  33.839 -18.074  1.00  0.00    -0.000 C 
BRANCH  13  14
ATOM     14  C   UNL     1     -20.346  34.037 -18.432  1.00  0.00    -0.000 C 
BRANCH  14  15
ATOM     15  C   UNL     1     -20.701  33.505 -19.829  1.00  0.00    -0.003 C 
ATOM     16  C   UNL     1     -22.114  32.930 -19.855  1.00  0.00     0.004 C 
ENDBRANCH  14  15
ENDBRANCH  13  14
ENDBRANCH  12  13
ENDBRANCH  11  12
ENDBRANCH  10  11
ENDBRANCH   1  10
TORSDOF 12
ENDMDL
MODEL 2
REMARK VINA RESULT:     4.285      3.436      7.719
REMARK INTER + INTRA:           6.737
REMARK INTER:                   7.435
REMARK INTRA:                  -0.698
REMARK UNBOUND:                -0.554
REMARK SMILES CCCCCCCCCCCCCC(=O)[O-]
REMARK SMILES IDX 8 1 9 2 10 3 11 4 12 5 13 6 14 7 15 8 16 9 7 10 6 11 5 12
REMARK SMILES IDX 4 13 3 14 2 15 1 16
REMARK H PARENT
REMARK Flexibility Score: inf
ROOT
ATOM      1  C   UNL     1     -15.855  30.855 -19.139  1.00  0.00     0.000 C 
ENDROOT
BRANCH   1   2
ATOM      2  C   UNL     1     -16.398  31.996 -20.020  1.00  0.00     0.000 C 
BRANCH   2   3
ATOM      3  C   UNL     1     -15.951  33.410 -19.604  1.00  0.00     0.000 C 
BRANCH   3   4
ATOM      4  C   UNL     1     -16.979  34.124 -18.709  1.00  0.00     0.000 C 
BRANCH   4   5
ATOM      5  C   UNL     1     -18.408  34.067 -19.281  1.00  0.00     0.006 C 
BRANCH   5   6
ATOM      6  C   UNL     1     -19.500  33.794 -18.235  1.00  0.00     0.053 C 
BRANCH   6   7
ATOM      7  C   UNL     1     -20.808  33.434 -18.871  1.00  0.00     0.041 C 
ATOM      8  O   UNL     1     -20.921  33.422 -20.124  1.00  0.00    -0.550 OA
ATOM      9  O   UNL     1     -21.911  33.143 -18.078  1.00  0.00    -0.550 OA
ENDBRANCH   6   7
ENDBRANCH   5   6
ENDBRANCH   4   5
ENDBRANCH   3   4
ENDBRANCH   2   3
ENDBRANCH   1   2
BRANCH   1  10
ATOM     10  C   UNL     1     -14.320  30.752 -19.171  1.00  0.00     0.000 C 
BRANCH  10  11
ATOM     11  C   UNL     1     -13.831  29.302 -19.314  1.00  0.00    -0.000 C 
BRANCH  11  12
ATOM     12  C   UNL     1     -12.442  29.085 -18.691  1.00  0.00    -0.000 C 
BRANCH  12  13
ATOM     13  C   UNL     1     -12.317  27.734 -17.963  1.00  0.00    -0.000 C 
BRANCH  13  14
ATOM     14  C   UNL     1     -12.467  27.808 -16.433  1.00  0.00    -0.000 C 
BRANCH  14  15
ATOM     15  C   UNL     1     -13.880  27.448 -15.952  1.00  0.00    -0.003 C 
ATOM     16  C   UNL     1     -14.467  28.560 -15.087  1.00  0.00     0.004 C 
ENDBRANCH  14  15
ENDBRANCH  13  14
ENDBRANCH  12  13
ENDBRANCH  11  12
ENDBRANCH  10  11
ENDBRANCH   1  10
TORSDOF 12
ENDMDL
MODEL 3
REMARK VINA RESULT:     6.208     15.661     19.570
REMARK INTER + INTRA:          10.009
REMARK INTER:                  10.534
REMARK INTRA:                  -0.525
REMARK UNBOUND:                -0.554
REMARK SMILES CCCCCCCCCCCCCC(=O)[O-]
REMARK SMILES IDX 8 1 9 2 10 3 11 4 12 5 13 6 14 7 15 8 16 9 7 10 6 11 5 12
REMARK SMILES IDX 4 13 3 14 2 15 1 16
REMARK H PARENT
REMARK Flexibility Score: inf
ROOT
ATOM      1  C   UNL     1      -3.856  20.510 -10.712  1.00  0.00     0.000 C 
ENDROOT
BRANCH   1   2
ATOM      2  C   UNL     1      -5.012  21.415 -11.180  1.00  0.00     0.000 C 
BRANCH   2   3
ATOM      3  C   UNL     1      -6.331  20.682 -11.486  1.00  0.00     0.000 C 
BRANCH   3   4
ATOM      4  C   UNL     1      -6.731  20.762 -12.970  1.00  0.00     0.000 C 
BRANCH   4   5
ATOM      5  C   UNL     1      -7.373  19.460 -13.484  1.00  0.00     0.006 C 
BRANCH   5   6
ATOM      6  C   UNL     1      -7.248  18.267 -12.523  1.00  0.00     0.053 C 
BRANCH   6   7
ATOM      7  C   UNL     1      -7.864  17.025 -13.088  1.00  0.00     0.041 C 
ATOM      8  O   UNL     1      -8.680  17.100 -14.043  1.00  0.00    -0.550 OA
ATOM      9  O   UNL     1      -7.561  15.786 -12.538  1.00  0.00    -0.550 OA
ENDBRANCH   6   7
ENDBRANCH   5   6
ENDBRANCH   4   5
ENDBRANCH   3   4
ENDBRANCH   2   3
ENDBRANCH   1   2
BRANCH   1  10
ATOM     10  C   UNL     1      -4.073  19.030 -11.070  1.00  0.00     0.000 C 
BRANCH  10  11
ATOM     11  C   UNL     1      -2.875  18.150 -10.679  1.00  0.00    -0.000 C 
BRANCH  11  12
ATOM     12  C   UNL     1      -3.302  16.748 -10.211  1.00  0.00    -0.000 C 
BRANCH  12  13
ATOM     13  C   UNL     1      -4.381  16.119 -11.110  1.00  0.00    -0.000 C 
BRANCH  13  14
ATOM     14  C   UNL     1      -4.660  14.629 -10.839  1.00  0.00    -0.000 C 
BRANCH  14  15
ATOM     15  C   UNL     1      -3.738  14.034  -9.765  1.00  0.00    -0.003 C 
ATOM     16  C   UNL     1      -2.314  13.876 -10.289  1.00  0.00     0.004 C 
ENDBRANCH  14  15
ENDBRANCH  13  14
ENDBRANCH  12  13
ENDBRANCH  11  12
ENDBRANCH  10  11
ENDBRANCH   1  10
TORSDOF 12
ENDMDL
MODEL 4
REMARK VINA RESULT:     6.314     14.552     19.288
REMARK INTER + INTRA:          10.190
REMARK INTER:                   9.826
REMARK INTRA:                   0.364
REMARK UNBOUND:                -0.554
REMARK SMILES CCCCCCCCCCCCCC(=O)[O-]
REMARK SMILES IDX 8 1 9 2 10 3 11 4 12 5 13 6 14 7 15 8 16 9 7 10 6 11 5 12
REMARK SMILES IDX 4 13 3 14 2 15 1 16
REMARK H PARENT
REMARK Flexibility Score: inf
ROOT
ATOM      1  C   UNL     1      -4.332  19.489 -10.764  1.00  0.00     0.000 C 
ENDROOT
BRANCH   1   2
ATOM      2  C   UNL     1      -3.939  20.979 -10.764  1.00  0.00     0.000 C 
BRANCH   2   3
ATOM      3  C   UNL     1      -4.957  21.921 -11.434  1.00  0.00     0.000 C 
BRANCH   3   4
ATOM      4  C   UNL     1      -6.373  21.324 -11.501  1.00  0.00     0.000 C 
BRANCH   4   5
ATOM      5  C   UNL     1      -6.460  20.102 -12.435  1.00  0.00     0.006 C 
BRANCH   5   6
ATOM      6  C   UNL     1      -7.366  20.304 -13.660  1.00  0.00     0.053 C 
BRANCH   6   7
ATOM      7  C   UNL     1      -6.787  21.288 -14.629  1.00  0.00     0.041 C 
ATOM      8  O   UNL     1      -7.043  22.515 -14.515  1.00  0.00    -0.550 OA
ATOM      9  O   UNL     1      -5.989  20.845 -15.677  1.00  0.00    -0.550 OA
ENDBRANCH   6   7
ENDBRANCH   5   6
ENDBRANCH   4   5
ENDBRANCH   3   4
ENDBRANCH   2   3
ENDBRANCH   1   2
BRANCH   1  10
ATOM     10  C   UNL     1      -3.114  18.549 -10.764  1.00  0.00     0.000 C 
BRANCH  10  11
ATOM     11  C   UNL     1      -3.508  17.078 -10.966  1.00  0.00    -0.000 C 
BRANCH  11  12
ATOM     12  C   UNL     1      -4.995  16.820 -10.673  1.00  0.00    -0.000 C 
BRANCH  12  13
ATOM     13  C   UNL     1      -5.469  15.436 -11.150  1.00  0.00    -0.000 C 
BRANCH  13  14
ATOM     14  C   UNL     1      -4.392  14.336 -11.111  1.00  0.00    -0.000 C 
BRANCH  14  15
ATOM     15  C   UNL     1      -3.691  14.233  -9.748  1.00  0.00    -0.003 C 
ATOM     16  C   UNL     1      -2.217  13.876  -9.913  1.00  0.00     0.004 C 
ENDBRANCH  14  15
ENDBRANCH  13  14
ENDBRANCH  12  13
ENDBRANCH  11  12
ENDBRANCH  10  11
ENDBRANCH   1  10
TORSDOF 12
ENDMDL
MODEL 5
REMARK VINA RESULT:     6.340     13.788     18.562
REMARK INTER + INTRA:          10.234
REMARK INTER:                  10.408
REMARK INTRA:                  -0.174
REMARK UNBOUND:                -0.554
REMARK SMILES CCCCCCCCCCCCCC(=O)[O-]
REMARK SMILES IDX 8 1 9 2 10 3 11 4 12 5 13 6 14 7 15 8 16 9 7 10 6 11 5 12
REMARK SMILES IDX 4 13 3 14 2 15 1 16
REMARK H PARENT
REMARK Flexibility Score: inf
ROOT
ATOM      1  C   UNL     1      -5.095  20.653 -11.078  1.00  0.00     0.000 C 
ENDROOT
BRANCH   1   2
ATOM      2  C   UNL     1      -5.654  21.994 -11.591  1.00  0.00     0.000 C 
BRANCH   2   3
ATOM      3  C   UNL     1      -4.608  23.108 -11.775  1.00  0.00     0.000 C 
BRANCH   3   4
ATOM      4  C   UNL     1      -5.090  24.475 -11.258  1.00  0.00     0.000 C 
BRANCH   4   5
ATOM      5  C   UNL     1      -4.018  25.573 -11.388  1.00  0.00     0.006 C 
BRANCH   5   6
ATOM      6  C   UNL     1      -4.355  26.878 -10.650  1.00  0.00     0.053 C 
BRANCH   6   7
ATOM      7  C   UNL     1      -5.572  27.543 -11.214  1.00  0.00     0.041 C 
ATOM      8  O   UNL     1      -6.712  27.042 -11.027  1.00  0.00    -0.550 OA
ATOM      9  O   UNL     1      -5.446  28.700 -11.972  1.00  0.00    -0.550 OA
ENDBRANCH   6   7
ENDBRANCH   5   6
ENDBRANCH   4   5
ENDBRANCH   3   4
ENDBRANCH   2   3
ENDBRANCH   1   2
BRANCH   1  10
ATOM     10  C   UNL     1      -6.039  19.468 -11.348  1.00  0.00     0.000 C 
BRANCH  10  11
ATOM     11  C   UNL     1      -5.509  18.150 -10.762  1.00  0.00    -0.000 C 
BRANCH  11  12
ATOM     12  C   UNL     1      -3.973  18.076 -10.770  1.00  0.00    -0.000 C 
BRANCH  12  13
ATOM     13  C   UNL     1      -3.442  16.638 -10.637  1.00  0.00    -0.000 C 
BRANCH  13  14
ATOM     14  C   UNL     1      -4.520  15.541 -10.717  1.00  0.00    -0.000 C 
BRANCH  14  15
ATOM     15  C   UNL     1      -3.986  14.150 -10.346  1.00  0.00    -0.003 C 
ATOM     16  C   UNL     1      -2.471  14.172 -10.168  1.00  0.00     0.004 C 
ENDBRANCH  14  15
ENDBRANCH  13  14
ENDBRANCH  12  13
ENDBRANCH  11  12
ENDBRANCH  10  11
ENDBRANCH   1  10
TORSDOF 12
ENDMDL
MODEL 6
REMARK VINA RESULT:     6.364     15.476     19.792
REMARK INTER + INTRA:          10.274
REMARK INTER:                   9.358
REMARK INTRA:                   0.917
REMARK UNBOUND:                -0.554
REMARK SMILES CCCCCCCCCCCCCC(=O)[O-]
REMARK SMILES IDX 8 1 9 2 10 3 11 4 12 5 13 6 14 7 15 8 16 9 7 10 6 11 5 12
REMARK SMILES IDX 4 13 3 14 2 15 1 16
REMARK H PARENT
REMARK Flexibility Score: inf
ROOT
ATOM      1  C   UNL     1      -3.153  17.314 -11.048  1.00  0.00     0.000 C 
ENDROOT
BRANCH   1   2
ATOM      2  C   UNL     1      -3.044  18.810 -10.697  1.00  0.00     0.000 C 
BRANCH   2   3
ATOM      3  C   UNL     1      -4.325  19.630 -10.933  1.00  0.00     0.000 C 
BRANCH   3   4
ATOM      4  C   UNL     1      -4.064  21.145 -10.997  1.00  0.00     0.000 C 
BRANCH   4   5
ATOM      5  C   UNL     1      -5.281  21.938 -11.510  1.00  0.00     0.006 C 
BRANCH   5   6
ATOM      6  C   UNL     1      -6.585  21.127 -11.575  1.00  0.00     0.053 C 
BRANCH   6   7
ATOM      7  C   UNL     1      -6.860  20.619 -12.957  1.00  0.00     0.041 C 
ATOM      8  O   UNL     1      -7.143  19.407 -13.141  1.00  0.00    -0.550 OA
ATOM      9  O   UNL     1      -6.774  21.479 -14.044  1.00  0.00    -0.550 OA
ENDBRANCH   6   7
ENDBRANCH   5   6
ENDBRANCH   4   5
ENDBRANCH   3   4
ENDBRANCH   2   3
ENDBRANCH   1   2
BRANCH   1  10
ATOM     10  C   UNL     1      -2.758  16.395  -9.879  1.00  0.00     0.000 C 
BRANCH  10  11
ATOM     11  C   UNL     1      -2.305  15.005 -10.353  1.00  0.00    -0.000 C 
BRANCH  11  12
ATOM     12  C   UNL     1      -3.210  13.879  -9.826  1.00  0.00    -0.000 C 
BRANCH  12  13
ATOM     13  C   UNL     1      -4.650  13.967 -10.364  1.00  0.00    -0.000 C 
BRANCH  13  14
ATOM     14  C   UNL     1      -4.864  15.021 -11.465  1.00  0.00    -0.000 C 
BRANCH  14  15
ATOM     15  C   UNL     1      -6.272  15.634 -11.440  1.00  0.00    -0.003 C 
ATOM     16  C   UNL     1      -6.249  17.042 -10.852  1.00  0.00     0.004 C 
ENDBRANCH  14  15
ENDBRANCH  13  14
ENDBRANCH  12  13
ENDBRANCH  11  12
ENDBRANCH  10  11
ENDBRANCH   1  10
TORSDOF 12
ENDMDL
MODEL 7
REMARK VINA RESULT:     6.661     15.437     19.041
REMARK INTER + INTRA:          10.780
REMARK INTER:                  10.721
REMARK INTRA:                   0.059
REMARK UNBOUND:                -0.554
REMARK SMILES CCCCCCCCCCCCCC(=O)[O-]
REMARK SMILES IDX 8 1 9 2 10 3 11 4 12 5 13 6 14 7 15 8 16 9 7 10 6 11 5 12
REMARK SMILES IDX 4 13 3 14 2 15 1 16
REMARK H PARENT
REMARK Flexibility Score: inf
ROOT
ATOM      1  C   UNL     1      -3.400  17.218 -11.117  1.00  0.00     0.000 C 
ENDROOT
BRANCH   1   2
ATOM      2  C   UNL     1      -3.101  18.684 -10.749  1.00  0.00     0.000 C 
BRANCH   2   3
ATOM      3  C   UNL     1      -4.331  19.610 -10.710  1.00  0.00     0.000 C 
BRANCH   3   4
ATOM      4  C   UNL     1      -3.971  21.094 -10.894  1.00  0.00     0.000 C 
BRANCH   4   5
ATOM      5  C   UNL     1      -5.126  21.918 -11.492  1.00  0.00     0.006 C 
BRANCH   5   6
ATOM      6  C   UNL     1      -6.466  21.169 -11.569  1.00  0.00     0.053 C 
BRANCH   6   7
ATOM      7  C   UNL     1      -6.789  20.739 -12.967  1.00  0.00     0.041 C 
ATOM      8  O   UNL     1      -7.144  19.554 -13.200  1.00  0.00    -0.550 OA
ATOM      9  O   UNL     1      -6.667  21.640 -14.018  1.00  0.00    -0.550 OA
ENDBRANCH   6   7
ENDBRANCH   5   6
ENDBRANCH   4   5
ENDBRANCH   3   4
ENDBRANCH   2   3
ENDBRANCH   1   2
BRANCH   1  10
ATOM     10  C   UNL     1      -3.049  16.234  -9.987  1.00  0.00     0.000 C 
BRANCH  10  11
ATOM     11  C   UNL     1      -3.443  14.788 -10.325  1.00  0.00    -0.000 C 
BRANCH  11  12
ATOM     12  C   UNL     1      -4.802  14.699 -11.039  1.00  0.00    -0.000 C 
BRANCH  12  13
ATOM     13  C   UNL     1      -5.825  15.719 -10.508  1.00  0.00    -0.000 C 
BRANCH  13  14
ATOM     14  C   UNL     1      -6.548  16.535 -11.595  1.00  0.00    -0.000 C 
BRANCH  14  15
ATOM     15  C   UNL     1      -7.612  15.720 -12.346  1.00  0.00    -0.003 C 
ATOM     16  C   UNL     1      -8.326  16.576 -13.387  1.00  0.00     0.004 C 
ENDBRANCH  14  15
ENDBRANCH  13  14
ENDBRANCH  12  13
ENDBRANCH  11  12
ENDBRANCH  10  11
ENDBRANCH   1  10
TORSDOF 12
ENDMDL
MODEL 8
REMARK VINA RESULT:     6.931     15.552     18.098
REMARK INTER + INTRA:          11.239
REMARK INTER:                  11.636
REMARK INTRA:                  -0.397
REMARK UNBOUND:                -0.554
REMARK SMILES CCCCCCCCCCCCCC(=O)[O-]
REMARK SMILES IDX 8 1 9 2 10 3 11 4 12 5 13 6 14 7 15 8 16 9 7 10 6 11 5 12
REMARK SMILES IDX 4 13 3 14 2 15 1 16
REMARK H PARENT
REMARK Flexibility Score: inf
ROOT
ATOM      1  C   UNL     1      -6.097  19.953 -11.889  1.00  0.00     0.000 C 
ENDROOT
BRANCH   1   2
ATOM      2  C   UNL     1      -5.478  19.139 -10.736  1.00  0.00     0.000 C 
BRANCH   2   3
ATOM      3  C   UNL     1      -3.958  18.913 -10.840  1.00  0.00     0.000 C 
BRANCH   3   4
ATOM      4  C   UNL     1      -3.570  17.425 -10.812  1.00  0.00     0.000 C 
BRANCH   4   5
ATOM      5  C   UNL     1      -4.794  16.490 -10.817  1.00  0.00     0.006 C 
BRANCH   5   6
ATOM      6  C   UNL     1      -4.474  15.027 -11.162  1.00  0.00     0.053 C 
BRANCH   6   7
ATOM      7  C   UNL     1      -3.508  14.421 -10.192  1.00  0.00     0.041 C 
ATOM      8  O   UNL     1      -3.923  13.907  -9.121  1.00  0.00    -0.550 OA
ATOM      9  O   UNL     1      -2.144  14.451 -10.457  1.00  0.00    -0.550 OA
ENDBRANCH   6   7
ENDBRANCH   5   6
ENDBRANCH   4   5
ENDBRANCH   3   4
ENDBRANCH   2   3
ENDBRANCH   1   2
BRANCH   1  10
ATOM     10  C   UNL     1      -6.258  21.445 -11.550  1.00  0.00     0.000 C 
BRANCH  10  11
ATOM     11  C   UNL     1      -4.913  22.187 -11.514  1.00  0.00    -0.000 C 
BRANCH  11  12
ATOM     12  C   UNL     1      -5.082  23.715 -11.561  1.00  0.00    -0.000 C 
BRANCH  12  13
ATOM     13  C   UNL     1      -3.749  24.470 -11.408  1.00  0.00    -0.000 C 
BRANCH  13  14
ATOM     14  C   UNL     1      -3.834  25.988 -11.651  1.00  0.00    -0.000 C 
BRANCH  14  15
ATOM     15  C   UNL     1      -5.115  26.614 -11.080  1.00  0.00    -0.003 C 
ATOM     16  C   UNL     1      -4.842  27.297  -9.743  1.00  0.00     0.004 C 
ENDBRANCH  14  15
ENDBRANCH  13  14
ENDBRANCH  12  13
ENDBRANCH  11  12
ENDBRANCH  10  11
ENDBRANCH   1  10
TORSDOF 12
ENDMDL
MODEL 9
REMARK VINA RESULT:     7.048     16.793     19.105
REMARK INTER + INTRA:          11.438
REMARK INTER:                  11.359
REMARK INTRA:                   0.079
REMARK UNBOUND:                -0.554
REMARK SMILES CCCCCCCCCCCCCC(=O)[O-]
REMARK SMILES IDX 8 1 9 2 10 3 11 4 12 5 13 6 14 7 15 8 16 9 7 10 6 11 5 12
REMARK SMILES IDX 4 13 3 14 2 15 1 16
REMARK H PARENT
REMARK Flexibility Score: inf
ROOT
ATOM      1  C   UNL     1      -4.224  19.544 -11.195  1.00  0.00     0.000 C 
ENDROOT
BRANCH   1   2
ATOM      2  C   UNL     1      -3.038  18.676 -10.732  1.00  0.00     0.000 C 
BRANCH   2   3
ATOM      3  C   UNL     1      -3.401  17.232 -10.341  1.00  0.00     0.000 C 
BRANCH   3   4
ATOM      4  C   UNL     1      -4.009  16.430 -11.506  1.00  0.00     0.000 C 
BRANCH   4   5
ATOM      5  C   UNL     1      -4.966  15.321 -11.029  1.00  0.00     0.006 C 
BRANCH   5   6
ATOM      6  C   UNL     1      -4.314  13.936 -10.894  1.00  0.00     0.053 C 
BRANCH   6   7
ATOM      7  C   UNL     1      -3.117  13.965  -9.995  1.00  0.00     0.041 C 
ATOM      8  O   UNL     1      -1.959  14.045 -10.484  1.00  0.00    -0.550 OA
ATOM      9  O   UNL     1      -3.278  13.875  -8.618  1.00  0.00    -0.550 OA
ENDBRANCH   6   7
ENDBRANCH   5   6
ENDBRANCH   4   5
ENDBRANCH   3   4
ENDBRANCH   2   3
ENDBRANCH   1   2
BRANCH   1  10
ATOM     10  C   UNL     1      -4.072  21.024 -10.803  1.00  0.00     0.000 C 
BRANCH  10  11
ATOM     11  C   UNL     1      -5.098  21.926 -11.506  1.00  0.00    -0.000 C 
BRANCH  11  12
ATOM     12  C   UNL     1      -6.503  21.301 -11.546  1.00  0.00    -0.000 C 
BRANCH  12  13
ATOM     13  C   UNL     1      -6.698  20.342 -12.734  1.00  0.00    -0.000 C 
BRANCH  13  14
ATOM     14  C   UNL     1      -7.118  18.912 -12.347  1.00  0.00    -0.000 C 
BRANCH  14  15
ATOM     15  C   UNL     1      -7.900  18.197 -13.458  1.00  0.00    -0.003 C 
ATOM     16  C   UNL     1      -8.007  16.700 -13.179  1.00  0.00     0.004 C 
ENDBRANCH  14  15
ENDBRANCH  13  14
ENDBRANCH  12  13
ENDBRANCH  11  12
ENDBRANCH  10  11
ENDBRANCH   1  10
TORSDOF 12
ENDMDL
