MODEL 1
REMARK VINA RESULT:    -5.731      0.000      0.000
REMARK INTER + INTRA:         -19.346
REMARK INTER:                 -14.443
REMARK INTRA:                  -4.904
REMARK UNBOUND:                -4.904
REMARK SMILES CCCCCCCCCCCCCCCCCCCCCCCCCCCC(=O)[O-]
REMARK SMILES IDX 15 1 16 2 17 3 18 4 19 5 20 6 21 7 22 8 23 9 24 10 25 11
REMARK SMILES IDX 26 12 27 13 28 14 29 15 30 16 14 17 13 18 12 19 11 20 10 21
REMARK SMILES IDX 9 22 8 23 7 24 6 25 5 26 4 27 3 28 2 29 1 30
REMARK H PARENT
REMARK Flexibility Score: inf
ROOT
ATOM      1  C   UNL     1     217.814  -7.497  23.453  1.00  0.00     0.000 C 
ENDROOT
BRANCH   1   2
ATOM      2  C   UNL     1     218.014  -7.293  24.963  1.00  0.00     0.000 C 
BRANCH   2   3
ATOM      3  C   UNL     1     217.704  -8.559  25.780  1.00  0.00     0.000 C 
BRANCH   3   4
ATOM      4  C   UNL     1     217.620  -8.287  27.295  1.00  0.00     0.000 C 
BRANCH   4   5
ATOM      5  C   UNL     1     218.584  -7.183  27.778  1.00  0.00     0.000 C 
BRANCH   5   6
ATOM      6  C   UNL     1     219.140  -7.466  29.185  1.00  0.00     0.000 C 
BRANCH   6   7
ATOM      7  C   UNL     1     218.157  -8.243  30.077  1.00  0.00     0.000 C 
BRANCH   7   8
ATOM      8  C   UNL     1     218.630  -9.666  30.434  1.00  0.00     0.000 C 
BRANCH   8   9
ATOM      9  C   UNL     1     220.054  -9.966  29.929  1.00  0.00     0.000 C 
BRANCH   9  10
ATOM     10  C   UNL     1     221.054 -10.188  31.083  1.00  0.00     0.000 C 
BRANCH  10  11
ATOM     11  C   UNL     1     221.786 -11.545  31.029  1.00  0.00     0.000 C 
BRANCH  11  12
ATOM     12  C   UNL     1     222.654 -11.875  32.258  1.00  0.00     0.006 C 
BRANCH  12  13
ATOM     13  C   UNL     1     223.985 -11.108  32.322  1.00  0.00     0.053 C 
BRANCH  13  14
ATOM     14  C   UNL     1     224.180 -10.434  33.645  1.00  0.00     0.041 C 
ATOM     15  O   UNL     1     225.322 -10.031  33.989  1.00  0.00    -0.550 OA
ATOM     16  O   UNL     1     223.103 -10.271  34.509  1.00  0.00    -0.550 OA
ENDBRANCH  13  14
ENDBRANCH  12  13
ENDBRANCH  11  12
ENDBRANCH  10  11
ENDBRANCH   9  10
ENDBRANCH   8   9
ENDBRANCH   7   8
ENDBRANCH   6   7
ENDBRANCH   5   6
ENDBRANCH   4   5
ENDBRANCH   3   4
ENDBRANCH   2   3
ENDBRANCH   1   2
BRANCH   1  17
ATOM     17  C   UNL     1     217.483  -8.952  23.087  1.00  0.00     0.000 C 
BRANCH  17  18
ATOM     18  C   UNL     1     218.340  -9.426  21.907  1.00  0.00     0.000 C 
BRANCH  18  19
ATOM     19  C   UNL     1     219.463  -8.424  21.604  1.00  0.00     0.000 C 
BRANCH  19  20
ATOM     20  C   UNL     1     220.860  -8.988  21.910  1.00  0.00     0.000 C 
BRANCH  20  21
ATOM     21  C   UNL     1     221.723  -8.019  22.738  1.00  0.00     0.000 C 
BRANCH  21  22
ATOM     22  C   UNL     1     221.516  -8.199  24.251  1.00  0.00    -0.000 C 
BRANCH  22  23
ATOM     23  C   UNL     1     221.160  -9.649  24.624  1.00  0.00    -0.000 C 
BRANCH  23  24
ATOM     24  C   UNL     1     221.103  -9.870  26.143  1.00  0.00    -0.000 C 
BRANCH  24  25
ATOM     25  C   UNL     1     222.390 -10.499  26.700  1.00  0.00    -0.000 C 
BRANCH  25  26
ATOM     26  C   UNL     1     222.982  -9.631  27.820  1.00  0.00    -0.000 C 
BRANCH  26  27
ATOM     27  C   UNL     1     222.490  -8.173  27.777  1.00  0.00    -0.000 C 
BRANCH  27  28
ATOM     28  C   UNL     1     222.907  -7.310  28.981  1.00  0.00    -0.000 C 
BRANCH  28  29
ATOM     29  C   UNL     1     223.887  -8.026  29.923  1.00  0.00    -0.003 C 
ATOM     30  C   UNL     1     223.734  -7.527  31.357  1.00  0.00     0.004 C 
ENDBRANCH  28  29
ENDBRANCH  27  28
ENDBRANCH  26  27
ENDBRANCH  25  26
ENDBRANCH  24  25
ENDBRANCH  23  24
ENDBRANCH  22  23
ENDBRANCH  21  22
ENDBRANCH  20  21
ENDBRANCH  19  20
ENDBRANCH  18  19
ENDBRANCH  17  18
ENDBRANCH   1  17
TORSDOF 26
ENDMDL
MODEL 2
REMARK VINA RESULT:    -5.669      3.062      5.517
REMARK INTER + INTRA:         -19.190
REMARK INTER:                 -14.556
REMARK INTRA:                  -4.634
REMARK UNBOUND:                -4.904
REMARK SMILES CCCCCCCCCCCCCCCCCCCCCCCCCCCC(=O)[O-]
REMARK SMILES IDX 15 1 16 2 17 3 18 4 19 5 20 6 21 7 22 8 23 9 24 10 25 11
REMARK SMILES IDX 26 12 27 13 28 14 29 15 30 16 14 17 13 18 12 19 11 20 10 21
REMARK SMILES IDX 9 22 8 23 7 24 6 25 5 26 4 27 3 28 2 29 1 30
REMARK H PARENT
REMARK Flexibility Score: inf
ROOT
ATOM      1  C   UNL     1     221.166  -7.761  24.440  1.00  0.00     0.000 C 
ENDROOT
BRANCH   1   2
ATOM      2  C   UNL     1     221.953  -9.074  24.567  1.00  0.00     0.000 C 
BRANCH   2   3
ATOM      3  C   UNL     1     221.178 -10.162  25.330  1.00  0.00     0.000 C 
BRANCH   3   4
ATOM      4  C   UNL     1     221.245  -9.983  26.859  1.00  0.00     0.000 C 
BRANCH   4   5
ATOM      5  C   UNL     1     222.569 -10.476  27.480  1.00  0.00     0.000 C 
BRANCH   5   6
ATOM      6  C   UNL     1     223.181  -9.446  28.446  1.00  0.00     0.000 C 
BRANCH   6   7
ATOM      7  C   UNL     1     223.109  -8.004  27.916  1.00  0.00     0.000 C 
BRANCH   7   8
ATOM      8  C   UNL     1     223.079  -6.933  29.024  1.00  0.00     0.000 C 
BRANCH   8   9
ATOM      9  C   UNL     1     223.486  -7.488  30.401  1.00  0.00     0.000 C 
BRANCH   9  10
ATOM     10  C   UNL     1     224.929  -7.101  30.790  1.00  0.00     0.000 C 
BRANCH  10  11
ATOM     11  C   UNL     1     225.250  -5.604  30.612  1.00  0.00     0.000 C 
BRANCH  11  12
ATOM     12  C   UNL     1     226.419  -5.288  29.660  1.00  0.00     0.006 C 
BRANCH  12  13
ATOM     13  C   UNL     1     225.992  -4.821  28.259  1.00  0.00     0.053 C 
BRANCH  13  14
ATOM     14  C   UNL     1     226.832  -3.683  27.767  1.00  0.00     0.041 C 
ATOM     15  O   UNL     1     226.505  -2.495  28.029  1.00  0.00    -0.550 OA
ATOM     16  O   UNL     1     227.964  -3.933  27.001  1.00  0.00    -0.550 OA
ENDBRANCH  13  14
ENDBRANCH  12  13
ENDBRANCH  11  12
ENDBRANCH  10  11
ENDBRANCH   9  10
ENDBRANCH   8   9
ENDBRANCH   7   8
ENDBRANCH   6   7
ENDBRANCH   5   6
ENDBRANCH   4   5
ENDBRANCH   3   4
ENDBRANCH   2   3
ENDBRANCH   1   2
BRANCH   1  17
ATOM     17  C   UNL     1     221.023  -7.290  22.984  1.00  0.00     0.000 C 
BRANCH  17  18
ATOM     18  C   UNL     1     221.502  -8.374  22.011  1.00  0.00     0.000 C 
BRANCH  18  19
ATOM     19  C   UNL     1     220.439  -8.664  20.941  1.00  0.00     0.000 C 
BRANCH  19  20
ATOM     20  C   UNL     1     219.005  -8.527  21.478  1.00  0.00     0.000 C 
BRANCH  20  21
ATOM     21  C   UNL     1     218.481  -9.829  22.110  1.00  0.00     0.000 C 
BRANCH  21  22
ATOM     22  C   UNL     1     217.855  -9.595  23.494  1.00  0.00    -0.000 C 
BRANCH  22  23
ATOM     23  C   UNL     1     217.508  -8.115  23.737  1.00  0.00    -0.000 C 
BRANCH  23  24
ATOM     24  C   UNL     1     217.744  -7.685  25.193  1.00  0.00    -0.000 C 
BRANCH  24  25
ATOM     25  C   UNL     1     217.819  -8.877  26.159  1.00  0.00    -0.000 C 
BRANCH  25  26
ATOM     26  C   UNL     1     217.585  -8.423  27.607  1.00  0.00    -0.000 C 
BRANCH  26  27
ATOM     27  C   UNL     1     218.590  -7.354  28.074  1.00  0.00    -0.000 C 
BRANCH  27  28
ATOM     28  C   UNL     1     219.455  -7.758  29.281  1.00  0.00    -0.000 C 
BRANCH  28  29
ATOM     29  C   UNL     1     218.798  -8.834  30.158  1.00  0.00    -0.003 C 
ATOM     30  C   UNL     1     219.652 -10.098  30.209  1.00  0.00     0.004 C 
ENDBRANCH  28  29
ENDBRANCH  27  28
ENDBRANCH  26  27
ENDBRANCH  25  26
ENDBRANCH  24  25
ENDBRANCH  23  24
ENDBRANCH  22  23
ENDBRANCH  21  22
ENDBRANCH  20  21
ENDBRANCH  19  20
ENDBRANCH  18  19
ENDBRANCH  17  18
ENDBRANCH   1  17
TORSDOF 26
ENDMDL
MODEL 3
REMARK VINA RESULT:    -5.630      1.913      4.466
REMARK INTER + INTRA:         -19.091
REMARK INTER:                 -13.959
REMARK INTRA:                  -5.132
REMARK UNBOUND:                -4.904
REMARK SMILES CCCCCCCCCCCCCCCCCCCCCCCCCCCC(=O)[O-]
REMARK SMILES IDX 15 1 16 2 17 3 18 4 19 5 20 6 21 7 22 8 23 9 24 10 25 11
REMARK SMILES IDX 26 12 27 13 28 14 29 15 30 16 14 17 13 18 12 19 11 20 10 21
REMARK SMILES IDX 9 22 8 23 7 24 6 25 5 26 4 27 3 28 2 29 1 30
REMARK H PARENT
REMARK Flexibility Score: inf
ROOT
ATOM      1  C   UNL     1     221.465  -7.835  24.580  1.00  0.00     0.000 C 
ENDROOT
BRANCH   1   2
ATOM      2  C   UNL     1     221.427  -9.348  24.842  1.00  0.00     0.000 C 
BRANCH   2   3
ATOM      3  C   UNL     1     221.241  -9.689  26.331  1.00  0.00     0.000 C 
BRANCH   3   4
ATOM      4  C   UNL     1     222.046  -8.761  27.262  1.00  0.00     0.000 C 
BRANCH   4   5
ATOM      5  C   UNL     1     222.181  -9.298  28.703  1.00  0.00     0.000 C 
BRANCH   5   6
ATOM      6  C   UNL     1     222.177 -10.836  28.756  1.00  0.00     0.000 C 
BRANCH   6   7
ATOM      7  C   UNL     1     222.081 -11.390  30.187  1.00  0.00     0.000 C 
BRANCH   7   8
ATOM      8  C   UNL     1     222.299 -10.329  31.283  1.00  0.00     0.000 C 
BRANCH   8   9
ATOM      9  C   UNL     1     223.536 -10.616  32.153  1.00  0.00     0.000 C 
BRANCH   9  10
ATOM     10  C   UNL     1     224.798  -9.887  31.644  1.00  0.00     0.000 C 
BRANCH  10  11
ATOM     11  C   UNL     1     225.508 -10.600  30.475  1.00  0.00     0.000 C 
BRANCH  11  12
ATOM     12  C   UNL     1     226.297  -9.681  29.523  1.00  0.00     0.006 C 
BRANCH  12  13
ATOM     13  C   UNL     1     225.661  -8.298  29.301  1.00  0.00     0.053 C 
BRANCH  13  14
ATOM     14  C   UNL     1     226.568  -7.189  29.737  1.00  0.00     0.041 C 
ATOM     15  O   UNL     1     227.434  -6.731  28.946  1.00  0.00    -0.550 OA
ATOM     16  O   UNL     1     226.470  -6.675  31.025  1.00  0.00    -0.550 OA
ENDBRANCH  13  14
ENDBRANCH  12  13
ENDBRANCH  11  12
ENDBRANCH  10  11
ENDBRANCH   9  10
ENDBRANCH   8   9
ENDBRANCH   7   8
ENDBRANCH   6   7
ENDBRANCH   5   6
ENDBRANCH   4   5
ENDBRANCH   3   4
ENDBRANCH   2   3
ENDBRANCH   1   2
BRANCH   1  17
ATOM     17  C   UNL     1     221.183  -7.478  23.112  1.00  0.00     0.000 C 
BRANCH  17  18
ATOM     18  C   UNL     1     221.355  -8.706  22.209  1.00  0.00     0.000 C 
BRANCH  18  19
ATOM     19  C   UNL     1     220.464  -8.603  20.963  1.00  0.00     0.000 C 
BRANCH  19  20
ATOM     20  C   UNL     1     218.973  -8.797  21.282  1.00  0.00     0.000 C 
BRANCH  20  21
ATOM     21  C   UNL     1     218.723  -9.943  22.279  1.00  0.00     0.000 C 
BRANCH  21  22
ATOM     22  C   UNL     1     217.907  -9.488  23.499  1.00  0.00    -0.000 C 
BRANCH  22  23
ATOM     23  C   UNL     1     217.378  -8.051  23.346  1.00  0.00    -0.000 C 
BRANCH  23  24
ATOM     24  C   UNL     1     217.835  -7.129  24.488  1.00  0.00    -0.000 C 
BRANCH  24  25
ATOM     25  C   UNL     1     217.919  -7.856  25.839  1.00  0.00    -0.000 C 
BRANCH  25  26
ATOM     26  C   UNL     1     218.579  -6.963  26.900  1.00  0.00    -0.000 C 
BRANCH  26  27
ATOM     27  C   UNL     1     218.618  -7.612  28.295  1.00  0.00    -0.000 C 
BRANCH  27  28
ATOM     28  C   UNL     1     218.039  -9.036  28.367  1.00  0.00    -0.000 C 
BRANCH  28  29
ATOM     29  C   UNL     1     218.565  -9.839  29.566  1.00  0.00    -0.003 C 
ATOM     30  C   UNL     1     218.900  -8.921  30.738  1.00  0.00     0.004 C 
ENDBRANCH  28  29
ENDBRANCH  27  28
ENDBRANCH  26  27
ENDBRANCH  25  26
ENDBRANCH  24  25
ENDBRANCH  23  24
ENDBRANCH  22  23
ENDBRANCH  21  22
ENDBRANCH  20  21
ENDBRANCH  19  20
ENDBRANCH  18  19
ENDBRANCH  17  18
ENDBRANCH   1  17
TORSDOF 26
ENDMDL
MODEL 4
REMARK VINA RESULT:    -5.624      1.499      4.064
REMARK INTER + INTRA:         -19.077
REMARK INTER:                 -14.453
REMARK INTRA:                  -4.624
REMARK UNBOUND:                -4.904
REMARK SMILES CCCCCCCCCCCCCCCCCCCCCCCCCCCC(=O)[O-]
REMARK SMILES IDX 15 1 16 2 17 3 18 4 19 5 20 6 21 7 22 8 23 9 24 10 25 11
REMARK SMILES IDX 26 12 27 13 28 14 29 15 30 16 14 17 13 18 12 19 11 20 10 21
REMARK SMILES IDX 9 22 8 23 7 24 6 25 5 26 4 27 3 28 2 29 1 30
REMARK H PARENT
REMARK Flexibility Score: inf
ROOT
ATOM      1  C   UNL     1     218.318  -8.684  27.007  1.00  0.00     0.000 C 
ENDROOT
BRANCH   1   2
ATOM      2  C   UNL     1     217.412  -8.845  28.237  1.00  0.00     0.000 C 
BRANCH   2   3
ATOM      3  C   UNL     1     218.128  -8.500  29.554  1.00  0.00     0.000 C 
BRANCH   3   4
ATOM      4  C   UNL     1     218.926  -9.687  30.130  1.00  0.00     0.000 C 
BRANCH   4   5
ATOM      5  C   UNL     1     220.455  -9.491  30.066  1.00  0.00     0.000 C 
BRANCH   5   6
ATOM      6  C   UNL     1     220.863  -8.016  30.228  1.00  0.00     0.000 C 
BRANCH   6   7
ATOM      7  C   UNL     1     221.857  -7.543  29.154  1.00  0.00     0.000 C 
BRANCH   7   8
ATOM      8  C   UNL     1     223.292  -7.338  29.678  1.00  0.00     0.000 C 
BRANCH   8   9
ATOM      9  C   UNL     1     224.245  -8.477  29.269  1.00  0.00     0.000 C 
BRANCH   9  10
ATOM     10  C   UNL     1     224.787  -9.258  30.485  1.00  0.00     0.000 C 
BRANCH  10  11
ATOM     11  C   UNL     1     223.918 -10.462  30.898  1.00  0.00     0.000 C 
BRANCH  11  12
ATOM     12  C   UNL     1     223.403 -10.438  32.350  1.00  0.00     0.006 C 
BRANCH  12  13
ATOM     13  C   UNL     1     222.151 -11.296  32.597  1.00  0.00     0.053 C 
BRANCH  13  14
ATOM     14  C   UNL     1     222.223 -12.610  31.882  1.00  0.00     0.041 C 
ATOM     15  O   UNL     1     222.661 -13.630  32.475  1.00  0.00    -0.550 OA
ATOM     16  O   UNL     1     221.827 -12.702  30.553  1.00  0.00    -0.550 OA
ENDBRANCH  13  14
ENDBRANCH  12  13
ENDBRANCH  11  12
ENDBRANCH  10  11
ENDBRANCH   9  10
ENDBRANCH   8   9
ENDBRANCH   7   8
ENDBRANCH   6   7
ENDBRANCH   5   6
ENDBRANCH   4   5
ENDBRANCH   3   4
ENDBRANCH   2   3
ENDBRANCH   1   2
BRANCH   1  17
ATOM     17  C   UNL     1     218.843  -7.249  26.838  1.00  0.00     0.000 C 
BRANCH  17  18
ATOM     18  C   UNL     1     218.678  -6.775  25.389  1.00  0.00     0.000 C 
BRANCH  18  19
ATOM     19  C   UNL     1     217.499  -7.485  24.708  1.00  0.00     0.000 C 
BRANCH  19  20
ATOM     20  C   UNL     1     217.823  -7.929  23.273  1.00  0.00     0.000 C 
BRANCH  20  21
ATOM     21  C   UNL     1     217.833  -9.459  23.112  1.00  0.00     0.000 C 
BRANCH  21  22
ATOM     22  C   UNL     1     218.488  -9.904  21.794  1.00  0.00    -0.000 C 
BRANCH  22  23
ATOM     23  C   UNL     1     219.136  -8.730  21.038  1.00  0.00    -0.000 C 
BRANCH  23  24
ATOM     24  C   UNL     1     220.667  -8.842  20.977  1.00  0.00    -0.000 C 
BRANCH  24  25
ATOM     25  C   UNL     1     221.366  -8.031  22.080  1.00  0.00    -0.000 C 
BRANCH  25  26
ATOM     26  C   UNL     1     221.991  -8.960  23.130  1.00  0.00    -0.000 C 
BRANCH  26  27
ATOM     27  C   UNL     1     221.188  -9.013  24.442  1.00  0.00    -0.000 C 
BRANCH  27  28
ATOM     28  C   UNL     1     222.036  -9.139  25.720  1.00  0.00    -0.000 C 
BRANCH  28  29
ATOM     29  C   UNL     1     221.532 -10.235  26.670  1.00  0.00    -0.003 C 
ATOM     30  C   UNL     1     222.695 -10.958  27.343  1.00  0.00     0.004 C 
ENDBRANCH  28  29
ENDBRANCH  27  28
ENDBRANCH  26  27
ENDBRANCH  25  26
ENDBRANCH  24  25
ENDBRANCH  23  24
ENDBRANCH  22  23
ENDBRANCH  21  22
ENDBRANCH  20  21
ENDBRANCH  19  20
ENDBRANCH  18  19
ENDBRANCH  17  18
ENDBRANCH   1  17
TORSDOF 26
ENDMDL
MODEL 5
REMARK VINA RESULT:    -5.624      1.166      4.287
REMARK INTER + INTRA:         -19.076
REMARK INTER:                 -14.298
REMARK INTRA:                  -4.777
REMARK UNBOUND:                -4.904
REMARK SMILES CCCCCCCCCCCCCCCCCCCCCCCCCCCC(=O)[O-]
REMARK SMILES IDX 15 1 16 2 17 3 18 4 19 5 20 6 21 7 22 8 23 9 24 10 25 11
REMARK SMILES IDX 26 12 27 13 28 14 29 15 30 16 14 17 13 18 12 19 11 20 10 21
REMARK SMILES IDX 9 22 8 23 7 24 6 25 5 26 4 27 3 28 2 29 1 30
REMARK H PARENT
REMARK Flexibility Score: inf
ROOT
ATOM      1  C   UNL     1     221.562  -9.648  24.298  1.00  0.00     0.000 C 
ENDROOT
BRANCH   1   2
ATOM      2  C   UNL     1     221.213 -10.277  25.656  1.00  0.00     0.000 C 
BRANCH   2   3
ATOM      3  C   UNL     1     222.383 -11.071  26.263  1.00  0.00     0.000 C 
BRANCH   3   4
ATOM      4  C   UNL     1     222.834 -10.518  27.629  1.00  0.00     0.000 C 
BRANCH   4   5
ATOM      5  C   UNL     1     221.662 -10.134  28.557  1.00  0.00     0.000 C 
BRANCH   5   6
ATOM      6  C   UNL     1     221.716  -8.657  28.987  1.00  0.00     0.000 C 
BRANCH   6   7
ATOM      7  C   UNL     1     222.573  -7.788  28.052  1.00  0.00     0.000 C 
BRANCH   7   8
ATOM      8  C   UNL     1     223.518  -6.821  28.792  1.00  0.00     0.000 C 
BRANCH   8   9
ATOM      9  C   UNL     1     225.005  -7.165  28.586  1.00  0.00     0.000 C 
BRANCH   9  10
ATOM     10  C   UNL     1     225.636  -7.824  29.831  1.00  0.00     0.000 C 
BRANCH  10  11
ATOM     11  C   UNL     1     225.555  -9.364  29.837  1.00  0.00     0.000 C 
BRANCH  11  12
ATOM     12  C   UNL     1     225.219 -10.001  31.199  1.00  0.00     0.006 C 
BRANCH  12  13
ATOM     13  C   UNL     1     223.909 -10.806  31.220  1.00  0.00     0.053 C 
BRANCH  13  14
ATOM     14  C   UNL     1     223.093 -10.516  32.442  1.00  0.00     0.041 C 
ATOM     15  O   UNL     1     222.013  -9.876  32.345  1.00  0.00    -0.550 OA
ATOM     16  O   UNL     1     223.537 -10.933  33.691  1.00  0.00    -0.550 OA
ENDBRANCH  13  14
ENDBRANCH  12  13
ENDBRANCH  11  12
ENDBRANCH  10  11
ENDBRANCH   9  10
ENDBRANCH   8   9
ENDBRANCH   7   8
ENDBRANCH   6   7
ENDBRANCH   5   6
ENDBRANCH   4   5
ENDBRANCH   3   4
ENDBRANCH   2   3
ENDBRANCH   1   2
BRANCH   1  17
ATOM     17  C   UNL     1     221.303  -8.134  24.259  1.00  0.00     0.000 C 
BRANCH  17  18
ATOM     18  C   UNL     1     221.249  -7.628  22.812  1.00  0.00     0.000 C 
BRANCH  18  19
ATOM     19  C   UNL     1     220.878  -8.761  21.845  1.00  0.00     0.000 C 
BRANCH  19  20
ATOM     20  C   UNL     1     219.406  -8.706  21.404  1.00  0.00     0.000 C 
BRANCH  20  21
ATOM     21  C   UNL     1     218.560  -9.837  22.015  1.00  0.00     0.000 C 
BRANCH  21  22
ATOM     22  C   UNL     1     217.899  -9.422  23.339  1.00  0.00    -0.000 C 
BRANCH  22  23
ATOM     23  C   UNL     1     217.536  -7.926  23.367  1.00  0.00    -0.000 C 
BRANCH  23  24
ATOM     24  C   UNL     1     217.883  -7.261  24.709  1.00  0.00    -0.000 C 
BRANCH  24  25
ATOM     25  C   UNL     1     217.581  -8.164  25.915  1.00  0.00    -0.000 C 
BRANCH  25  26
ATOM     26  C   UNL     1     218.680  -8.038  26.980  1.00  0.00    -0.000 C 
BRANCH  26  27
ATOM     27  C   UNL     1     218.366  -6.972  28.046  1.00  0.00    -0.000 C 
BRANCH  27  28
ATOM     28  C   UNL     1     218.672  -7.390  29.495  1.00  0.00    -0.000 C 
BRANCH  28  29
ATOM     29  C   UNL     1     217.880  -8.627  29.944  1.00  0.00    -0.003 C 
ATOM     30  C   UNL     1     218.712  -9.507  30.872  1.00  0.00     0.004 C 
ENDBRANCH  28  29
ENDBRANCH  27  28
ENDBRANCH  26  27
ENDBRANCH  25  26
ENDBRANCH  24  25
ENDBRANCH  23  24
ENDBRANCH  22  23
ENDBRANCH  21  22
ENDBRANCH  20  21
ENDBRANCH  19  20
ENDBRANCH  18  19
ENDBRANCH  17  18
ENDBRANCH   1  17
TORSDOF 26
ENDMDL
MODEL 6
REMARK VINA RESULT:    -5.609      1.626      4.553
REMARK INTER + INTRA:         -19.039
REMARK INTER:                 -13.992
REMARK INTRA:                  -5.047
REMARK UNBOUND:                -4.904
REMARK SMILES CCCCCCCCCCCCCCCCCCCCCCCCCCCC(=O)[O-]
REMARK SMILES IDX 15 1 16 2 17 3 18 4 19 5 20 6 21 7 22 8 23 9 24 10 25 11
REMARK SMILES IDX 26 12 27 13 28 14 29 15 30 16 14 17 13 18 12 19 11 20 10 21
REMARK SMILES IDX 9 22 8 23 7 24 6 25 5 26 4 27 3 28 2 29 1 30
REMARK H PARENT
REMARK Flexibility Score: inf
ROOT
ATOM      1  C   UNL     1     221.897  -9.510  24.808  1.00  0.00     0.000 C 
ENDROOT
BRANCH   1   2
ATOM      2  C   UNL     1     221.482 -10.210  26.111  1.00  0.00     0.000 C 
BRANCH   2   3
ATOM      3  C   UNL     1     222.687 -10.697  26.934  1.00  0.00     0.000 C 
BRANCH   3   4
ATOM      4  C   UNL     1     222.338 -10.943  28.416  1.00  0.00     0.000 C 
BRANCH   4   5
ATOM      5  C   UNL     1     221.263  -9.981  28.964  1.00  0.00     0.000 C 
BRANCH   5   6
ATOM      6  C   UNL     1     221.768  -9.164  30.167  1.00  0.00     0.000 C 
BRANCH   6   7
ATOM      7  C   UNL     1     221.817  -7.652  29.892  1.00  0.00     0.000 C 
BRANCH   7   8
ATOM      8  C   UNL     1     222.148  -7.294  28.430  1.00  0.00     0.000 C 
BRANCH   8   9
ATOM      9  C   UNL     1     223.645  -7.449  28.102  1.00  0.00     0.000 C 
BRANCH   9  10
ATOM     10  C   UNL     1     224.534  -6.514  28.950  1.00  0.00     0.000 C 
BRANCH  10  11
ATOM     11  C   UNL     1     225.838  -7.168  29.450  1.00  0.00     0.000 C 
BRANCH  11  12
ATOM     12  C   UNL     1     225.788  -8.699  29.610  1.00  0.00     0.006 C 
BRANCH  12  13
ATOM     13  C   UNL     1     225.338  -9.181  30.999  1.00  0.00     0.053 C 
BRANCH  13  14
ATOM     14  C   UNL     1     225.277 -10.675  31.081  1.00  0.00     0.041 C 
ATOM     15  O   UNL     1     224.225 -11.245  31.475  1.00  0.00    -0.550 OA
ATOM     16  O   UNL     1     226.389 -11.437  30.744  1.00  0.00    -0.550 OA
ENDBRANCH  13  14
ENDBRANCH  12  13
ENDBRANCH  11  12
ENDBRANCH  10  11
ENDBRANCH   9  10
ENDBRANCH   8   9
ENDBRANCH   7   8
ENDBRANCH   6   7
ENDBRANCH   5   6
ENDBRANCH   4   5
ENDBRANCH   3   4
ENDBRANCH   2   3
ENDBRANCH   1   2
BRANCH   1  17
ATOM     17  C   UNL     1     221.415  -8.053  24.735  1.00  0.00     0.000 C 
BRANCH  17  18
ATOM     18  C   UNL     1     221.381  -7.562  23.282  1.00  0.00     0.000 C 
BRANCH  18  19
ATOM     19  C   UNL     1     222.031  -8.585  22.339  1.00  0.00     0.000 C 
BRANCH  19  20
ATOM     20  C   UNL     1     221.125  -8.960  21.156  1.00  0.00     0.000 C 
BRANCH  20  21
ATOM     21  C   UNL     1     219.719  -8.343  21.264  1.00  0.00     0.000 C 
BRANCH  21  22
ATOM     22  C   UNL     1     218.633  -9.401  21.517  1.00  0.00    -0.000 C 
BRANCH  22  23
ATOM     23  C   UNL     1     218.906 -10.227  22.787  1.00  0.00    -0.000 C 
BRANCH  23  24
ATOM     24  C   UNL     1     218.102  -9.728  23.998  1.00  0.00    -0.000 C 
BRANCH  24  25
ATOM     25  C   UNL     1     217.409  -8.382  23.737  1.00  0.00    -0.000 C 
BRANCH  25  26
ATOM     26  C   UNL     1     217.920  -7.306  24.706  1.00  0.00    -0.000 C 
BRANCH  26  27
ATOM     27  C   UNL     1     217.670  -7.658  26.183  1.00  0.00    -0.000 C 
BRANCH  27  28
ATOM     28  C   UNL     1     218.805  -7.268  27.147  1.00  0.00    -0.000 C 
BRANCH  28  29
ATOM     29  C   UNL     1     218.385  -7.323  28.623  1.00  0.00    -0.003 C 
ATOM     30  C   UNL     1     217.962  -8.734  29.022  1.00  0.00     0.004 C 
ENDBRANCH  28  29
ENDBRANCH  27  28
ENDBRANCH  26  27
ENDBRANCH  25  26
ENDBRANCH  24  25
ENDBRANCH  23  24
ENDBRANCH  22  23
ENDBRANCH  21  22
ENDBRANCH  20  21
ENDBRANCH  19  20
ENDBRANCH  18  19
ENDBRANCH  17  18
ENDBRANCH   1  17
TORSDOF 26
ENDMDL
MODEL 7
REMARK VINA RESULT:    -5.583      1.100      2.266
REMARK INTER + INTRA:         -18.973
REMARK INTER:                 -14.446
REMARK INTRA:                  -4.527
REMARK UNBOUND:                -4.904
REMARK SMILES CCCCCCCCCCCCCCCCCCCCCCCCCCCC(=O)[O-]
REMARK SMILES IDX 15 1 16 2 17 3 18 4 19 5 20 6 21 7 22 8 23 9 24 10 25 11
REMARK SMILES IDX 26 12 27 13 28 14 29 15 30 16 14 17 13 18 12 19 11 20 10 21
REMARK SMILES IDX 9 22 8 23 7 24 6 25 5 26 4 27 3 28 2 29 1 30
REMARK H PARENT
REMARK Flexibility Score: inf
ROOT
ATOM      1  C   UNL     1     217.854  -8.373  24.328  1.00  0.00     0.000 C 
ENDROOT
BRANCH   1   2
ATOM      2  C   UNL     1     217.972  -7.568  25.631  1.00  0.00     0.000 C 
BRANCH   2   3
ATOM      3  C   UNL     1     217.455  -8.342  26.857  1.00  0.00     0.000 C 
BRANCH   3   4
ATOM      4  C   UNL     1     218.369  -8.190  28.089  1.00  0.00     0.000 C 
BRANCH   4   5
ATOM      5  C   UNL     1     218.345  -9.414  29.028  1.00  0.00     0.000 C 
BRANCH   5   6
ATOM      6  C   UNL     1     218.953  -9.104  30.408  1.00  0.00     0.000 C 
BRANCH   6   7
ATOM      7  C   UNL     1     219.740 -10.285  31.000  1.00  0.00     0.000 C 
BRANCH   7   8
ATOM      8  C   UNL     1     220.987 -10.677  30.184  1.00  0.00     0.000 C 
BRANCH   8   9
ATOM      9  C   UNL     1     221.784 -11.826  30.827  1.00  0.00     0.000 C 
BRANCH   9  10
ATOM     10  C   UNL     1     222.459 -11.409  32.151  1.00  0.00     0.000 C 
BRANCH  10  11
ATOM     11  C   UNL     1     223.997 -11.334  32.077  1.00  0.00     0.000 C 
BRANCH  11  12
ATOM     12  C   UNL     1     224.560 -10.301  31.084  1.00  0.00     0.006 C 
BRANCH  12  13
ATOM     13  C   UNL     1     224.840  -8.917  31.694  1.00  0.00     0.053 C 
BRANCH  13  14
ATOM     14  C   UNL     1     224.845  -8.956  33.191  1.00  0.00     0.041 C 
ATOM     15  O   UNL     1     225.860  -9.368  33.811  1.00  0.00    -0.550 OA
ATOM     16  O   UNL     1     223.718  -8.559  33.901  1.00  0.00    -0.550 OA
ENDBRANCH  13  14
ENDBRANCH  12  13
ENDBRANCH  11  12
ENDBRANCH  10  11
ENDBRANCH   9  10
ENDBRANCH   8   9
ENDBRANCH   7   8
ENDBRANCH   6   7
ENDBRANCH   5   6
ENDBRANCH   4   5
ENDBRANCH   3   4
ENDBRANCH   2   3
ENDBRANCH   1   2
BRANCH   1  17
ATOM     17  C   UNL     1     217.895  -9.891  24.560  1.00  0.00     0.000 C 
BRANCH  17  18
ATOM     18  C   UNL     1     218.364 -10.623  23.297  1.00  0.00     0.000 C 
BRANCH  18  19
ATOM     19  C   UNL     1     217.895  -9.894  22.030  1.00  0.00     0.000 C 
BRANCH  19  20
ATOM     20  C   UNL     1     219.021  -9.706  21.001  1.00  0.00     0.000 C 
BRANCH  20  21
ATOM     21  C   UNL     1     219.672  -8.314  21.081  1.00  0.00     0.000 C 
BRANCH  21  22
ATOM     22  C   UNL     1     221.010  -8.337  21.838  1.00  0.00    -0.000 C 
BRANCH  22  23
ATOM     23  C   UNL     1     220.999  -7.417  23.072  1.00  0.00    -0.000 C 
BRANCH  23  24
ATOM     24  C   UNL     1     221.541  -8.112  24.331  1.00  0.00    -0.000 C 
BRANCH  24  25
ATOM     25  C   UNL     1     221.729  -9.625  24.139  1.00  0.00    -0.000 C 
BRANCH  25  26
ATOM     26  C   UNL     1     221.450 -10.380  25.446  1.00  0.00    -0.000 C 
BRANCH  26  27
ATOM     27  C   UNL     1     221.566  -9.488  26.695  1.00  0.00    -0.000 C 
BRANCH  27  28
ATOM     28  C   UNL     1     222.913  -9.577  27.435  1.00  0.00    -0.000 C 
BRANCH  28  29
ATOM     29  C   UNL     1     223.246  -8.306  28.231  1.00  0.00    -0.003 C 
ATOM     30  C   UNL     1     222.014  -7.419  28.392  1.00  0.00     0.004 C 
ENDBRANCH  28  29
ENDBRANCH  27  28
ENDBRANCH  26  27
ENDBRANCH  25  26
ENDBRANCH  24  25
ENDBRANCH  23  24
ENDBRANCH  22  23
ENDBRANCH  21  22
ENDBRANCH  20  21
ENDBRANCH  19  20
ENDBRANCH  18  19
ENDBRANCH  17  18
ENDBRANCH   1  17
TORSDOF 26
ENDMDL
MODEL 8
REMARK VINA RESULT:    -5.554      3.953      6.494
REMARK INTER + INTRA:         -18.899
REMARK INTER:                 -14.997
REMARK INTRA:                  -3.901
REMARK UNBOUND:                -4.904
REMARK SMILES CCCCCCCCCCCCCCCCCCCCCCCCCCCC(=O)[O-]
REMARK SMILES IDX 15 1 16 2 17 3 18 4 19 5 20 6 21 7 22 8 23 9 24 10 25 11
REMARK SMILES IDX 26 12 27 13 28 14 29 15 30 16 14 17 13 18 12 19 11 20 10 21
REMARK SMILES IDX 9 22 8 23 7 24 6 25 5 26 4 27 3 28 2 29 1 30
REMARK H PARENT
REMARK Flexibility Score: inf
ROOT
ATOM      1  C   UNL     1     221.533  -9.573  24.385  1.00  0.00     0.000 C 
ENDROOT
BRANCH   1   2
ATOM      2  C   UNL     1     221.974 -10.245  25.695  1.00  0.00     0.000 C 
BRANCH   2   3
ATOM      3  C   UNL     1     221.244  -9.683  26.927  1.00  0.00     0.000 C 
BRANCH   3   4
ATOM      4  C   UNL     1     222.006  -9.940  28.242  1.00  0.00     0.000 C 
BRANCH   4   5
ATOM      5  C   UNL     1     223.216  -9.004  28.447  1.00  0.00     0.000 C 
BRANCH   5   6
ATOM      6  C   UNL     1     222.816  -7.665  29.092  1.00  0.00     0.000 C 
BRANCH   6   7
ATOM      7  C   UNL     1     223.788  -7.213  30.195  1.00  0.00     0.000 C 
BRANCH   7   8
ATOM      8  C   UNL     1     225.214  -6.920  29.689  1.00  0.00     0.000 C 
BRANCH   8   9
ATOM      9  C   UNL     1     225.228  -6.209  28.323  1.00  0.00     0.000 C 
BRANCH   9  10
ATOM     10  C   UNL     1     226.256  -5.058  28.268  1.00  0.00     0.000 C 
BRANCH  10  11
ATOM     11  C   UNL     1     227.714  -5.505  28.498  1.00  0.00     0.000 C 
BRANCH  11  12
ATOM     12  C   UNL     1     228.790  -4.503  28.039  1.00  0.00     0.006 C 
BRANCH  12  13
ATOM     13  C   UNL     1     228.367  -3.607  26.863  1.00  0.00     0.053 C 
BRANCH  13  14
ATOM     14  C   UNL     1     228.384  -2.155  27.231  1.00  0.00     0.041 C 
ATOM     15  O   UNL     1     227.440  -1.660  27.899  1.00  0.00    -0.550 OA
ATOM     16  O   UNL     1     229.433  -1.344  26.814  1.00  0.00    -0.550 OA
ENDBRANCH  13  14
ENDBRANCH  12  13
ENDBRANCH  11  12
ENDBRANCH  10  11
ENDBRANCH   9  10
ENDBRANCH   8   9
ENDBRANCH   7   8
ENDBRANCH   6   7
ENDBRANCH   5   6
ENDBRANCH   4   5
ENDBRANCH   3   4
ENDBRANCH   2   3
ENDBRANCH   1   2
BRANCH   1  17
ATOM     17  C   UNL     1     221.518  -8.039  24.479  1.00  0.00     0.000 C 
BRANCH  17  18
ATOM     18  C   UNL     1     220.963  -7.420  23.190  1.00  0.00     0.000 C 
BRANCH  18  19
ATOM     19  C   UNL     1     220.947  -8.446  22.048  1.00  0.00     0.000 C 
BRANCH  19  20
ATOM     20  C   UNL     1     219.655  -8.390  21.219  1.00  0.00     0.000 C 
BRANCH  20  21
ATOM     21  C   UNL     1     218.720  -9.582  21.493  1.00  0.00     0.000 C 
BRANCH  21  22
ATOM     22  C   UNL     1     217.745  -9.306  22.650  1.00  0.00    -0.000 C 
BRANCH  22  23
ATOM     23  C   UNL     1     218.001 -10.221  23.861  1.00  0.00    -0.000 C 
BRANCH  23  24
ATOM     24  C   UNL     1     217.920  -9.466  25.197  1.00  0.00    -0.000 C 
BRANCH  24  25
ATOM     25  C   UNL     1     217.746  -7.950  25.014  1.00  0.00    -0.000 C 
BRANCH  25  26
ATOM     26  C   UNL     1     218.333  -7.184  26.208  1.00  0.00    -0.000 C 
BRANCH  26  27
ATOM     27  C   UNL     1     218.104  -7.898  27.553  1.00  0.00    -0.000 C 
BRANCH  27  28
ATOM     28  C   UNL     1     218.677  -7.170  28.782  1.00  0.00    -0.000 C 
BRANCH  28  29
ATOM     29  C   UNL     1     219.064  -8.126  29.920  1.00  0.00    -0.003 C 
ATOM     30  C   UNL     1     218.618  -9.554  29.615  1.00  0.00     0.004 C 
ENDBRANCH  28  29
ENDBRANCH  27  28
ENDBRANCH  26  27
ENDBRANCH  25  26
ENDBRANCH  24  25
ENDBRANCH  23  24
ENDBRANCH  22  23
ENDBRANCH  21  22
ENDBRANCH  20  21
ENDBRANCH  19  20
ENDBRANCH  18  19
ENDBRANCH  17  18
ENDBRANCH   1  17
TORSDOF 26
ENDMDL
MODEL 9
REMARK VINA RESULT:    -5.511      2.214      6.354
REMARK INTER + INTRA:         -18.791
REMARK INTER:                 -13.928
REMARK INTRA:                  -4.863
REMARK UNBOUND:                -4.904
REMARK SMILES CCCCCCCCCCCCCCCCCCCCCCCCCCCC(=O)[O-]
REMARK SMILES IDX 15 1 16 2 17 3 18 4 19 5 20 6 21 7 22 8 23 9 24 10 25 11
REMARK SMILES IDX 26 12 27 13 28 14 29 15 30 16 14 17 13 18 12 19 11 20 10 21
REMARK SMILES IDX 9 22 8 23 7 24 6 25 5 26 4 27 3 28 2 29 1 30
REMARK H PARENT
REMARK Flexibility Score: inf
ROOT
ATOM      1  C   UNL     1     221.389 -10.129  24.951  1.00  0.00     0.000 C 
ENDROOT
BRANCH   1   2
ATOM      2  C   UNL     1     221.618  -8.611  25.019  1.00  0.00     0.000 C 
BRANCH   2   3
ATOM      3  C   UNL     1     221.474  -7.926  23.649  1.00  0.00     0.000 C 
BRANCH   3   4
ATOM      4  C   UNL     1     221.404  -8.931  22.482  1.00  0.00     0.000 C 
BRANCH   4   5
ATOM      5  C   UNL     1     220.756  -8.351  21.207  1.00  0.00     0.000 C 
BRANCH   5   6
ATOM      6  C   UNL     1     219.233  -8.572  21.174  1.00  0.00     0.000 C 
BRANCH   6   7
ATOM      7  C   UNL     1     218.797  -9.875  21.864  1.00  0.00     0.000 C 
BRANCH   7   8
ATOM      8  C   UNL     1     217.557  -9.719  22.766  1.00  0.00     0.000 C 
BRANCH   8   9
ATOM      9  C   UNL     1     217.920  -9.473  24.242  1.00  0.00     0.000 C 
BRANCH   9  10
ATOM     10  C   UNL     1     217.860  -7.978  24.623  1.00  0.00     0.000 C 
BRANCH  10  11
ATOM     11  C   UNL     1     217.768  -7.719  26.140  1.00  0.00     0.000 C 
BRANCH  11  12
ATOM     12  C   UNL     1     218.515  -8.731  27.029  1.00  0.00     0.006 C 
BRANCH  12  13
ATOM     13  C   UNL     1     217.784  -9.096  28.332  1.00  0.00     0.053 C 
BRANCH  13  14
ATOM     14  C   UNL     1     218.346  -8.365  29.513  1.00  0.00     0.041 C 
ATOM     15  O   UNL     1     218.663  -8.996  30.555  1.00  0.00    -0.550 OA
ATOM     16  O   UNL     1     218.497  -6.984  29.469  1.00  0.00    -0.550 OA
ENDBRANCH  13  14
ENDBRANCH  12  13
ENDBRANCH  11  12
ENDBRANCH  10  11
ENDBRANCH   9  10
ENDBRANCH   8   9
ENDBRANCH   7   8
ENDBRANCH   6   7
ENDBRANCH   5   6
ENDBRANCH   4   5
ENDBRANCH   3   4
ENDBRANCH   2   3
ENDBRANCH   1   2
BRANCH   1  17
ATOM     17  C   UNL     1     221.959 -10.872  26.169  1.00  0.00     0.000 C 
BRANCH  17  18
ATOM     18  C   UNL     1     222.654  -9.897  27.127  1.00  0.00     0.000 C 
BRANCH  18  19
ATOM     19  C   UNL     1     221.838  -9.715  28.415  1.00  0.00     0.000 C 
BRANCH  19  20
ATOM     20  C   UNL     1     222.014  -8.320  29.036  1.00  0.00     0.000 C 
BRANCH  20  21
ATOM     21  C   UNL     1     223.131  -7.505  28.361  1.00  0.00     0.000 C 
BRANCH  21  22
ATOM     22  C   UNL     1     223.858  -6.580  29.350  1.00  0.00    -0.000 C 
BRANCH  22  23
ATOM     23  C   UNL     1     224.960  -7.314  30.135  1.00  0.00    -0.000 C 
BRANCH  23  24
ATOM     24  C   UNL     1     226.160  -7.691  29.252  1.00  0.00    -0.000 C 
BRANCH  24  25
ATOM     25  C   UNL     1     226.697  -9.100  29.550  1.00  0.00    -0.000 C 
BRANCH  25  26
ATOM     26  C   UNL     1     225.562 -10.134  29.525  1.00  0.00    -0.000 C 
BRANCH  26  27
ATOM     27  C   UNL     1     225.236 -10.705  30.917  1.00  0.00    -0.000 C 
BRANCH  27  28
ATOM     28  C   UNL     1     223.742 -10.705  31.287  1.00  0.00    -0.000 C 
BRANCH  28  29
ATOM     29  C   UNL     1     223.479 -10.215  32.719  1.00  0.00    -0.003 C 
ATOM     30  C   UNL     1     222.731  -8.884  32.716  1.00  0.00     0.004 C 
ENDBRANCH  28  29
ENDBRANCH  27  28
ENDBRANCH  26  27
ENDBRANCH  25  26
ENDBRANCH  24  25
ENDBRANCH  23  24
ENDBRANCH  22  23
ENDBRANCH  21  22
ENDBRANCH  20  21
ENDBRANCH  19  20
ENDBRANCH  18  19
ENDBRANCH  17  18
ENDBRANCH   1  17
TORSDOF 26
ENDMDL
