MODEL 1
REMARK VINA RESULT:   107.561      0.000      0.000
REMARK INTER + INTRA:         110.705
REMARK INTER:                 110.705
REMARK INTRA:                   0.000
REMARK UNBOUND:                 0.000
REMARK SMILES CC1(C)CC[C@@]2(C)CC[C@]3(C)C(=CC[C@H]4[C@@]5(C)CC[C@@H](O)C(C)(C)[C@@H]5CC[C@]43C)[C@H]2C1
REMARK SMILES IDX 1 1 2 2 4 3 5 4 6 5 8 6 9 7 10 8 12 9 13 10 14 11 15 12
REMARK SMILES IDX 28 13 27 14 26 15 25 16 16 17 18 18 19 19 20 20 22 21 23 22
REMARK SMILES IDX 24 23 17 24 29 25 30 26 31 27 11 28 7 29 3 30 21 31
REMARK H PARENT 21 32
REMARK Flexibility Score: inf
ROOT
ATOM      1  C   UNL     1     -27.765  31.546  -5.533  1.00  0.00     0.011 C 
ATOM      2  C   UNL     1     -27.519  30.944  -6.943  1.00  0.00    -0.035 C 
ATOM      3  C   UNL     1     -27.366  32.094  -7.995  1.00  0.00     0.007 C 
ATOM      4  C   UNL     1     -25.894  32.378  -8.353  1.00  0.00     0.008 C 
ATOM      5  C   UNL     1     -25.151  31.126  -8.944  1.00  0.00    -0.026 C 
ATOM      6  C   UNL     1     -23.642  31.308  -8.649  1.00  0.00     0.008 C 
ATOM      7  C   UNL     1     -22.804  30.165  -9.220  1.00  0.00     0.012 C 
ATOM      8  C   UNL     1     -23.183  28.723  -8.713  1.00  0.00    -0.006 C 
ATOM      9  C   UNL     1     -24.648  28.635  -8.251  1.00  0.00    -0.064 C 
ATOM     10  C   UNL     1     -25.077  27.436  -7.793  1.00  0.00    -0.027 C 
ATOM     11  C   UNL     1     -24.109  26.381  -7.333  1.00  0.00     0.032 C 
ATOM     12  C   UNL     1     -22.912  27.045  -6.605  1.00  0.00     0.006 C 
ATOM     13  C   UNL     1     -22.211  28.183  -7.513  1.00  0.00    -0.020 C 
ATOM     14  C   UNL     1     -20.858  27.692  -8.133  1.00  0.00     0.008 C 
ATOM     15  C   UNL     1     -19.969  26.866  -7.212  1.00  0.00     0.005 C 
ATOM     16  C   UNL     1     -20.739  25.622  -6.718  1.00  0.00     0.003 C 
ATOM     17  C   UNL     1     -21.942  26.038  -5.797  1.00  0.00    -0.025 C 
ATOM     18  C   UNL     1     -22.700  24.727  -5.382  1.00  0.00     0.010 C 
ATOM     19  C   UNL     1     -21.799  23.640  -4.772  1.00  0.00     0.033 C 
ATOM     20  C   UNL     1     -20.683  23.239  -5.740  1.00  0.00     0.120 C 
ATOM     21  C   UNL     1     -19.809  24.454  -6.195  1.00  0.00    -0.006 C 
ATOM     22  C   UNL     1     -18.875  23.957  -7.340  1.00  0.00     0.014 C 
ATOM     23  C   UNL     1     -18.876  24.887  -5.031  1.00  0.00     0.014 C 
ATOM     24  C   UNL     1     -21.485  26.739  -4.464  1.00  0.00     0.012 C 
ATOM     25  C   UNL     1     -21.882  29.360  -6.535  1.00  0.00     0.012 C 
ATOM     26  C   UNL     1     -25.667  29.784  -8.299  1.00  0.00     0.022 C 
ATOM     27  C   UNL     1     -26.238  30.063  -6.879  1.00  0.00     0.015 C 
ATOM     28  C   UNL     1     -23.113  27.843 -10.016  1.00  0.00     0.017 C 
ATOM     29  C   UNL     1     -25.411  31.105 -10.476  1.00  0.00     0.012 C 
ATOM     30  C   UNL     1     -28.745  30.064  -7.292  1.00  0.00     0.011 C 
ENDROOT
BRANCH  20  31
ATOM     31  O   UNL     1     -21.281  22.604  -6.851  1.00  0.00    -0.393 OA
ATOM     32  H   UNL     1     -20.599  22.546  -7.570  1.00  0.00     0.210 HD
ENDBRANCH  20  31
TORSDOF 1
ENDMDL
