MODEL 1
REMARK VINA RESULT:    -4.468      0.000      0.000
REMARK INTER + INTRA:          -8.503
REMARK INTER:                  -7.603
REMARK INTRA:                  -0.900
REMARK UNBOUND:                -0.900
REMARK SMILES CCCCCCCCCCCCCC(=O)[O-]
REMARK SMILES IDX 8 1 9 2 10 3 11 4 12 5 13 6 14 7 15 8 16 9 7 10 6 11 5 12
REMARK SMILES IDX 4 13 3 14 2 15 1 16
REMARK H PARENT
REMARK Flexibility Score: inf
ROOT
ATOM      1  C   UNL     1       3.478  -2.771  -7.736  1.00  0.00     0.000 C 
ENDROOT
BRANCH   1   2
ATOM      2  C   UNL     1       2.701  -3.987  -7.192  1.00  0.00     0.000 C 
BRANCH   2   3
ATOM      3  C   UNL     1       3.142  -5.351  -7.758  1.00  0.00     0.000 C 
BRANCH   3   4
ATOM      4  C   UNL     1       4.375  -5.972  -7.078  1.00  0.00     0.000 C 
BRANCH   4   5
ATOM      5  C   UNL     1       4.275  -5.969  -5.543  1.00  0.00     0.006 C 
BRANCH   5   6
ATOM      6  C   UNL     1       5.613  -6.312  -4.875  1.00  0.00     0.053 C 
BRANCH   6   7
ATOM      7  C   UNL     1       5.619  -7.708  -4.328  1.00  0.00     0.041 C 
ATOM      8  O   UNL     1       6.699  -8.350  -4.241  1.00  0.00    -0.550 OA
ATOM      9  O   UNL     1       4.428  -8.308  -3.942  1.00  0.00    -0.550 OA
ENDBRANCH   6   7
ENDBRANCH   5   6
ENDBRANCH   4   5
ENDBRANCH   3   4
ENDBRANCH   2   3
ENDBRANCH   1   2
BRANCH   1  10
ATOM     10  C   UNL     1       3.906  -2.883  -9.213  1.00  0.00     0.000 C 
BRANCH  10  11
ATOM     11  C   UNL     1       5.429  -2.848  -9.451  1.00  0.00    -0.000 C 
BRANCH  11  12
ATOM     12  C   UNL     1       6.004  -1.462  -9.807  1.00  0.00    -0.000 C 
BRANCH  12  13
ATOM     13  C   UNL     1       6.871  -0.812  -8.713  1.00  0.00    -0.000 C 
BRANCH  13  14
ATOM     14  C   UNL     1       6.047   0.006  -7.705  1.00  0.00    -0.000 C 
BRANCH  14  15
ATOM     15  C   UNL     1       6.914   0.613  -6.591  1.00  0.00    -0.003 C 
ATOM     16  C   UNL     1       8.374   0.166  -6.665  1.00  0.00     0.004 C 
ENDBRANCH  14  15
ENDBRANCH  13  14
ENDBRANCH  12  13
ENDBRANCH  11  12
ENDBRANCH  10  11
ENDBRANCH   1  10
TORSDOF 12
ENDMDL
MODEL 2
REMARK VINA RESULT:    -4.448      2.472      3.902
REMARK INTER + INTRA:          -8.469
REMARK INTER:                  -6.689
REMARK INTRA:                  -1.780
REMARK UNBOUND:                -0.900
REMARK SMILES CCCCCCCCCCCCCC(=O)[O-]
REMARK SMILES IDX 8 1 9 2 10 3 11 4 12 5 13 6 14 7 15 8 16 9 7 10 6 11 5 12
REMARK SMILES IDX 4 13 3 14 2 15 1 16
REMARK H PARENT
REMARK Flexibility Score: inf
ROOT
ATOM      1  C   UNL     1       4.985  -6.032  -9.507  1.00  0.00     0.000 C 
ENDROOT
BRANCH   1   2
ATOM      2  C   UNL     1       3.459  -6.235  -9.587  1.00  0.00     0.000 C 
BRANCH   2   3
ATOM      3  C   UNL     1       2.861  -7.140  -8.491  1.00  0.00     0.000 C 
BRANCH   3   4
ATOM      4  C   UNL     1       3.808  -7.458  -7.320  1.00  0.00     0.000 C 
BRANCH   4   5
ATOM      5  C   UNL     1       3.437  -6.705  -6.031  1.00  0.00     0.006 C 
BRANCH   5   6
ATOM      6  C   UNL     1       4.624  -5.921  -5.456  1.00  0.00     0.053 C 
BRANCH   6   7
ATOM      7  C   UNL     1       5.490  -6.782  -4.587  1.00  0.00     0.041 C 
ATOM      8  O   UNL     1       6.731  -6.845  -4.790  1.00  0.00    -0.550 OA
ATOM      9  O   UNL     1       4.920  -7.537  -3.569  1.00  0.00    -0.550 OA
ENDBRANCH   6   7
ENDBRANCH   5   6
ENDBRANCH   4   5
ENDBRANCH   3   4
ENDBRANCH   2   3
ENDBRANCH   1   2
BRANCH   1  10
ATOM     10  C   UNL     1       5.430  -4.633  -9.038  1.00  0.00     0.000 C 
BRANCH  10  11
ATOM     11  C   UNL     1       4.628  -3.461  -9.640  1.00  0.00    -0.000 C 
BRANCH  11  12
ATOM     12  C   UNL     1       3.919  -2.557  -8.611  1.00  0.00    -0.000 C 
BRANCH  12  13
ATOM     13  C   UNL     1       3.278  -3.295  -7.423  1.00  0.00    -0.000 C 
BRANCH  13  14
ATOM     14  C   UNL     1       1.741  -3.222  -7.432  1.00  0.00    -0.000 C 
BRANCH  14  15
ATOM     15  C   UNL     1       1.141  -3.627  -8.786  1.00  0.00    -0.003 C 
ATOM     16  C   UNL     1       0.112  -2.621  -9.305  1.00  0.00     0.004 C 
ENDBRANCH  14  15
ENDBRANCH  13  14
ENDBRANCH  12  13
ENDBRANCH  11  12
ENDBRANCH  10  11
ENDBRANCH   1  10
TORSDOF 12
ENDMDL
MODEL 3
REMARK VINA RESULT:    -4.322      2.455      3.895
REMARK INTER + INTRA:          -8.254
REMARK INTER:                  -6.751
REMARK INTRA:                  -1.503
REMARK UNBOUND:                -0.900
REMARK SMILES CCCCCCCCCCCCCC(=O)[O-]
REMARK SMILES IDX 8 1 9 2 10 3 11 4 12 5 13 6 14 7 15 8 16 9 7 10 6 11 5 12
REMARK SMILES IDX 4 13 3 14 2 15 1 16
REMARK H PARENT
REMARK Flexibility Score: inf
ROOT
ATOM      1  C   UNL     1       3.137  -6.816  -9.052  1.00  0.00     0.000 C 
ENDROOT
BRANCH   1   2
ATOM      2  C   UNL     1       3.869  -6.385  -7.766  1.00  0.00     0.000 C 
BRANCH   2   3
ATOM      3  C   UNL     1       2.978  -6.275  -6.512  1.00  0.00     0.000 C 
BRANCH   3   4
ATOM      4  C   UNL     1       3.693  -6.552  -5.178  1.00  0.00     0.000 C 
BRANCH   4   5
ATOM      5  C   UNL     1       5.157  -6.079  -5.176  1.00  0.00     0.006 C 
BRANCH   5   6
ATOM      6  C   UNL     1       6.090  -7.086  -4.491  1.00  0.00     0.053 C 
BRANCH   6   7
ATOM      7  C   UNL     1       7.262  -7.436  -5.357  1.00  0.00     0.041 C 
ATOM      8  O   UNL     1       8.435  -7.195  -4.966  1.00  0.00    -0.550 OA
ATOM      9  O   UNL     1       7.057  -8.003  -6.609  1.00  0.00    -0.550 OA
ENDBRANCH   6   7
ENDBRANCH   5   6
ENDBRANCH   4   5
ENDBRANCH   3   4
ENDBRANCH   2   3
ENDBRANCH   1   2
BRANCH   1  10
ATOM     10  C   UNL     1       2.649  -5.655  -9.942  1.00  0.00     0.000 C 
BRANCH  10  11
ATOM     11  C   UNL     1       1.122  -5.440  -9.948  1.00  0.00    -0.000 C 
BRANCH  11  12
ATOM     12  C   UNL     1       0.661  -4.015  -9.579  1.00  0.00    -0.000 C 
BRANCH  12  13
ATOM     13  C   UNL     1       1.043  -3.549  -8.163  1.00  0.00    -0.000 C 
BRANCH  13  14
ATOM     14  C   UNL     1       2.032  -2.371  -8.167  1.00  0.00    -0.000 C 
BRANCH  14  15
ATOM     15  C   UNL     1       3.450  -2.790  -7.750  1.00  0.00    -0.003 C 
ATOM     16  C   UNL     1       4.504  -2.454  -8.805  1.00  0.00     0.004 C 
ENDBRANCH  14  15
ENDBRANCH  13  14
ENDBRANCH  12  13
ENDBRANCH  11  12
ENDBRANCH  10  11
ENDBRANCH   1  10
TORSDOF 12
ENDMDL
MODEL 4
REMARK VINA RESULT:    -4.297      1.291      1.950
REMARK INTER + INTRA:          -8.211
REMARK INTER:                  -7.509
REMARK INTRA:                  -0.702
REMARK UNBOUND:                -0.900
REMARK SMILES CCCCCCCCCCCCCC(=O)[O-]
REMARK SMILES IDX 8 1 9 2 10 3 11 4 12 5 13 6 14 7 15 8 16 9 7 10 6 11 5 12
REMARK SMILES IDX 4 13 3 14 2 15 1 16
REMARK H PARENT
REMARK Flexibility Score: inf
ROOT
ATOM      1  C   UNL     1       2.182  -4.019  -7.232  1.00  0.00     0.000 C 
ENDROOT
BRANCH   1   2
ATOM      2  C   UNL     1       3.436  -4.872  -6.952  1.00  0.00     0.000 C 
BRANCH   2   3
ATOM      3  C   UNL     1       3.167  -6.219  -6.252  1.00  0.00     0.000 C 
BRANCH   3   4
ATOM      4  C   UNL     1       3.853  -6.393  -4.885  1.00  0.00     0.000 C 
BRANCH   4   5
ATOM      5  C   UNL     1       5.389  -6.393  -4.985  1.00  0.00     0.006 C 
BRANCH   5   6
ATOM      6  C   UNL     1       6.000  -7.717  -4.507  1.00  0.00     0.053 C 
BRANCH   6   7
ATOM      7  C   UNL     1       5.611  -8.860  -5.395  1.00  0.00     0.041 C 
ATOM      8  O   UNL     1       4.882  -9.787  -4.954  1.00  0.00    -0.550 OA
ATOM      9  O   UNL     1       6.079  -8.915  -6.702  1.00  0.00    -0.550 OA
ENDBRANCH   6   7
ENDBRANCH   5   6
ENDBRANCH   4   5
ENDBRANCH   3   4
ENDBRANCH   2   3
ENDBRANCH   1   2
BRANCH   1  10
ATOM     10  C   UNL     1       2.430  -2.763  -8.090  1.00  0.00     0.000 C 
BRANCH  10  11
ATOM     11  C   UNL     1       3.216  -3.012  -9.393  1.00  0.00    -0.000 C 
BRANCH  11  12
ATOM     12  C   UNL     1       4.624  -2.384  -9.437  1.00  0.00    -0.000 C 
BRANCH  12  13
ATOM     13  C   UNL     1       5.038  -1.614  -8.171  1.00  0.00    -0.000 C 
BRANCH  13  14
ATOM     14  C   UNL     1       6.155  -0.589  -8.432  1.00  0.00    -0.000 C 
BRANCH  14  15
ATOM     15  C   UNL     1       6.309   0.419  -7.283  1.00  0.00    -0.003 C 
ATOM     16  C   UNL     1       6.577   1.842  -7.774  1.00  0.00     0.004 C 
ENDBRANCH  14  15
ENDBRANCH  13  14
ENDBRANCH  12  13
ENDBRANCH  11  12
ENDBRANCH  10  11
ENDBRANCH   1  10
TORSDOF 12
ENDMDL
MODEL 5
REMARK VINA RESULT:    -4.291      2.801      4.176
REMARK INTER + INTRA:          -8.201
REMARK INTER:                  -6.709
REMARK INTRA:                  -1.493
REMARK UNBOUND:                -0.900
REMARK SMILES CCCCCCCCCCCCCC(=O)[O-]
REMARK SMILES IDX 8 1 9 2 10 3 11 4 12 5 13 6 14 7 15 8 16 9 7 10 6 11 5 12
REMARK SMILES IDX 4 13 3 14 2 15 1 16
REMARK H PARENT
REMARK Flexibility Score: inf
ROOT
ATOM      1  C   UNL     1       3.061  -6.462  -6.601  1.00  0.00     0.000 C 
ENDROOT
BRANCH   1   2
ATOM      2  C   UNL     1       3.708  -6.278  -5.214  1.00  0.00     0.000 C 
BRANCH   2   3
ATOM      3  C   UNL     1       4.057  -7.587  -4.477  1.00  0.00     0.000 C 
BRANCH   3   4
ATOM      4  C   UNL     1       5.497  -7.669  -3.939  1.00  0.00     0.000 C 
BRANCH   4   5
ATOM      5  C   UNL     1       6.452  -6.688  -4.640  1.00  0.00     0.006 C 
BRANCH   5   6
ATOM      6  C   UNL     1       7.254  -7.363  -5.761  1.00  0.00     0.053 C 
BRANCH   6   7
ATOM      7  C   UNL     1       8.629  -7.747  -5.307  1.00  0.00     0.041 C 
ATOM      8  O   UNL     1       9.642  -7.345  -5.939  1.00  0.00    -0.550 OA
ATOM      9  O   UNL     1       8.791  -8.572  -4.202  1.00  0.00    -0.550 OA
ENDBRANCH   6   7
ENDBRANCH   5   6
ENDBRANCH   4   5
ENDBRANCH   3   4
ENDBRANCH   2   3
ENDBRANCH   1   2
BRANCH   1  10
ATOM     10  C   UNL     1       4.057  -6.558  -7.774  1.00  0.00     0.000 C 
BRANCH  10  11
ATOM     11  C   UNL     1       4.980  -5.334  -7.942  1.00  0.00    -0.000 C 
BRANCH  11  12
ATOM     12  C   UNL     1       4.741  -4.504  -9.220  1.00  0.00    -0.000 C 
BRANCH  12  13
ATOM     13  C   UNL     1       4.187  -3.088  -8.986  1.00  0.00    -0.000 C 
BRANCH  13  14
ATOM     14  C   UNL     1       3.432  -2.955  -7.651  1.00  0.00    -0.000 C 
BRANCH  14  15
ATOM     15  C   UNL     1       1.951  -2.596  -7.846  1.00  0.00    -0.003 C 
ATOM     16  C   UNL     1       1.144  -3.730  -8.479  1.00  0.00     0.004 C 
ENDBRANCH  14  15
ENDBRANCH  13  14
ENDBRANCH  12  13
ENDBRANCH  11  12
ENDBRANCH  10  11
ENDBRANCH   1  10
TORSDOF 12
ENDMDL
MODEL 6
REMARK VINA RESULT:    -4.189      2.844      4.469
REMARK INTER + INTRA:          -8.027
REMARK INTER:                  -6.418
REMARK INTRA:                  -1.609
REMARK UNBOUND:                -0.900
REMARK SMILES CCCCCCCCCCCCCC(=O)[O-]
REMARK SMILES IDX 8 1 9 2 10 3 11 4 12 5 13 6 14 7 15 8 16 9 7 10 6 11 5 12
REMARK SMILES IDX 4 13 3 14 2 15 1 16
REMARK H PARENT
REMARK Flexibility Score: inf
ROOT
ATOM      1  C   UNL     1       3.073  -6.984  -7.971  1.00  0.00     0.000 C 
ENDROOT
BRANCH   1   2
ATOM      2  C   UNL     1       4.398  -6.795  -8.736  1.00  0.00     0.000 C 
BRANCH   2   3
ATOM      3  C   UNL     1       5.588  -7.609  -8.192  1.00  0.00     0.000 C 
BRANCH   3   4
ATOM      4  C   UNL     1       6.738  -6.771  -7.605  1.00  0.00     0.000 C 
BRANCH   4   5
ATOM      5  C   UNL     1       7.250  -7.319  -6.261  1.00  0.00     0.006 C 
BRANCH   5   6
ATOM      6  C   UNL     1       6.426  -6.804  -5.074  1.00  0.00     0.053 C 
BRANCH   6   7
ATOM      7  C   UNL     1       5.592  -7.890  -4.464  1.00  0.00     0.041 C 
ATOM      8  O   UNL     1       4.876  -7.651  -3.457  1.00  0.00    -0.550 OA
ATOM      9  O   UNL     1       5.629  -9.174  -4.993  1.00  0.00    -0.550 OA
ENDBRANCH   6   7
ENDBRANCH   5   6
ENDBRANCH   4   5
ENDBRANCH   3   4
ENDBRANCH   2   3
ENDBRANCH   1   2
BRANCH   1  10
ATOM     10  C   UNL     1       2.984  -6.230  -6.630  1.00  0.00     0.000 C 
BRANCH  10  11
ATOM     11  C   UNL     1       3.700  -4.865  -6.604  1.00  0.00    -0.000 C 
BRANCH  11  12
ATOM     12  C   UNL     1       2.860  -3.675  -7.114  1.00  0.00    -0.000 C 
BRANCH  12  13
ATOM     13  C   UNL     1       3.383  -3.007  -8.398  1.00  0.00    -0.000 C 
BRANCH  13  14
ATOM     14  C   UNL     1       2.368  -3.055  -9.553  1.00  0.00    -0.000 C 
BRANCH  14  15
ATOM     15  C   UNL     1       1.131  -3.900  -9.214  1.00  0.00    -0.003 C 
ATOM     16  C   UNL     1      -0.173  -3.108  -9.304  1.00  0.00     0.004 C 
ENDBRANCH  14  15
ENDBRANCH  13  14
ENDBRANCH  12  13
ENDBRANCH  11  12
ENDBRANCH  10  11
ENDBRANCH   1  10
TORSDOF 12
ENDMDL
MODEL 7
REMARK VINA RESULT:    -4.153      7.846     11.085
REMARK INTER + INTRA:          -7.966
REMARK INTER:                  -7.059
REMARK INTRA:                  -0.907
REMARK UNBOUND:                -0.900
REMARK SMILES CCCCCCCCCCCCCC(=O)[O-]
REMARK SMILES IDX 8 1 9 2 10 3 11 4 12 5 13 6 14 7 15 8 16 9 7 10 6 11 5 12
REMARK SMILES IDX 4 13 3 14 2 15 1 16
REMARK H PARENT
REMARK Flexibility Score: inf
ROOT
ATOM      1  C   UNL     1       4.985   6.527  -9.228  1.00  0.00     0.000 C 
ENDROOT
BRANCH   1   2
ATOM      2  C   UNL     1       6.236   7.160  -9.868  1.00  0.00     0.000 C 
BRANCH   2   3
ATOM      3  C   UNL     1       7.111   7.992  -8.908  1.00  0.00     0.000 C 
BRANCH   3   4
ATOM      4  C   UNL     1       7.741   7.200  -7.748  1.00  0.00     0.000 C 
BRANCH   4   5
ATOM      5  C   UNL     1       7.543   7.883  -6.383  1.00  0.00     0.006 C 
BRANCH   5   6
ATOM      6  C   UNL     1       6.106   7.739  -5.867  1.00  0.00     0.053 C 
BRANCH   6   7
ATOM      7  C   UNL     1       6.027   7.929  -4.383  1.00  0.00     0.041 C 
ATOM      8  O   UNL     1       5.191   7.277  -3.703  1.00  0.00    -0.550 OA
ATOM      9  O   UNL     1       6.859   8.847  -3.754  1.00  0.00    -0.550 OA
ENDBRANCH   6   7
ENDBRANCH   5   6
ENDBRANCH   4   5
ENDBRANCH   3   4
ENDBRANCH   2   3
ENDBRANCH   1   2
BRANCH   1  10
ATOM     10  C   UNL     1       4.575   5.161  -9.815  1.00  0.00     0.000 C 
BRANCH  10  11
ATOM     11  C   UNL     1       5.654   4.063  -9.715  1.00  0.00    -0.000 C 
BRANCH  11  12
ATOM     12  C   UNL     1       6.065   3.678  -8.279  1.00  0.00    -0.000 C 
BRANCH  12  13
ATOM     13  C   UNL     1       7.113   2.556  -8.178  1.00  0.00    -0.000 C 
BRANCH  13  14
ATOM     14  C   UNL     1       6.551   1.267  -7.554  1.00  0.00    -0.000 C 
BRANCH  14  15
ATOM     15  C   UNL     1       7.575   0.550  -6.661  1.00  0.00    -0.003 C 
ATOM     16  C   UNL     1       8.564  -0.301  -7.457  1.00  0.00     0.004 C 
ENDBRANCH  14  15
ENDBRANCH  13  14
ENDBRANCH  12  13
ENDBRANCH  11  12
ENDBRANCH  10  11
ENDBRANCH   1  10
TORSDOF 12
ENDMDL
MODEL 8
REMARK VINA RESULT:    -4.114      4.371      7.126
REMARK INTER + INTRA:          -7.899
REMARK INTER:                  -6.251
REMARK INTRA:                  -1.649
REMARK UNBOUND:                -0.900
REMARK SMILES CCCCCCCCCCCCCC(=O)[O-]
REMARK SMILES IDX 8 1 9 2 10 3 11 4 12 5 13 6 14 7 15 8 16 9 7 10 6 11 5 12
REMARK SMILES IDX 4 13 3 14 2 15 1 16
REMARK H PARENT
REMARK Flexibility Score: inf
ROOT
ATOM      1  C   UNL     1       4.633  -7.071  -4.391  1.00  0.00     0.000 C 
ENDROOT
BRANCH   1   2
ATOM      2  C   UNL     1       3.495  -6.440  -5.218  1.00  0.00     0.000 C 
BRANCH   2   3
ATOM      3  C   UNL     1       3.939  -5.769  -6.533  1.00  0.00     0.000 C 
BRANCH   3   4
ATOM      4  C   UNL     1       3.194  -6.248  -7.793  1.00  0.00     0.000 C 
BRANCH   4   5
ATOM      5  C   UNL     1       2.466  -5.107  -8.525  1.00  0.00     0.006 C 
BRANCH   5   6
ATOM      6  C   UNL     1       1.841  -4.100  -7.551  1.00  0.00     0.053 C 
BRANCH   6   7
ATOM      7  C   UNL     1       2.038  -2.687  -8.011  1.00  0.00     0.041 C 
ATOM      8  O   UNL     1       3.197  -2.245  -8.225  1.00  0.00    -0.550 OA
ATOM      9  O   UNL     1       0.941  -1.851  -8.175  1.00  0.00    -0.550 OA
ENDBRANCH   6   7
ENDBRANCH   5   6
ENDBRANCH   4   5
ENDBRANCH   3   4
ENDBRANCH   2   3
ENDBRANCH   1   2
BRANCH   1  10
ATOM     10  C   UNL     1       5.994  -6.357  -4.507  1.00  0.00     0.000 C 
BRANCH  10  11
ATOM     11  C   UNL     1       7.162  -7.258  -4.958  1.00  0.00    -0.000 C 
BRANCH  11  12
ATOM     12  C   UNL     1       6.848  -8.767  -4.993  1.00  0.00    -0.000 C 
BRANCH  12  13
ATOM     13  C   UNL     1       6.953  -9.426  -6.380  1.00  0.00    -0.000 C 
BRANCH  13  14
ATOM     14  C   UNL     1       6.204  -8.642  -7.472  1.00  0.00    -0.000 C 
BRANCH  14  15
ATOM     15  C   UNL     1       5.044  -9.443  -8.081  1.00  0.00    -0.003 C 
ATOM     16  C   UNL     1       3.968  -9.802  -7.056  1.00  0.00     0.004 C 
ENDBRANCH  14  15
ENDBRANCH  13  14
ENDBRANCH  12  13
ENDBRANCH  11  12
ENDBRANCH  10  11
ENDBRANCH   1  10
TORSDOF 12
ENDMDL
MODEL 9
REMARK VINA RESULT:    -4.088      3.286      6.966
REMARK INTER + INTRA:          -7.856
REMARK INTER:                  -6.231
REMARK INTRA:                  -1.626
REMARK UNBOUND:                -0.900
REMARK SMILES CCCCCCCCCCCCCC(=O)[O-]
REMARK SMILES IDX 8 1 9 2 10 3 11 4 12 5 13 6 14 7 15 8 16 9 7 10 6 11 5 12
REMARK SMILES IDX 4 13 3 14 2 15 1 16
REMARK H PARENT
REMARK Flexibility Score: inf
ROOT
ATOM      1  C   UNL     1       4.249  -6.183  -5.187  1.00  0.00     0.000 C 
ENDROOT
BRANCH   1   2
ATOM      2  C   UNL     1       4.059  -5.372  -6.484  1.00  0.00     0.000 C 
BRANCH   2   3
ATOM      3  C   UNL     1       2.647  -5.442  -7.098  1.00  0.00     0.000 C 
BRANCH   3   4
ATOM      4  C   UNL     1       1.988  -4.079  -7.376  1.00  0.00     0.000 C 
BRANCH   4   5
ATOM      5  C   UNL     1       3.006  -2.927  -7.447  1.00  0.00     0.006 C 
BRANCH   5   6
ATOM      6  C   UNL     1       3.387  -2.579  -8.891  1.00  0.00     0.053 C 
BRANCH   6   7
ATOM      7  C   UNL     1       4.869  -2.643  -9.105  1.00  0.00     0.041 C 
ATOM      8  O   UNL     1       5.425  -3.739  -9.380  1.00  0.00    -0.550 OA
ATOM      9  O   UNL     1       5.640  -1.495  -8.973  1.00  0.00    -0.550 OA
ENDBRANCH   6   7
ENDBRANCH   5   6
ENDBRANCH   4   5
ENDBRANCH   3   4
ENDBRANCH   2   3
ENDBRANCH   1   2
BRANCH   1  10
ATOM     10  C   UNL     1       5.714  -6.503  -4.829  1.00  0.00     0.000 C 
BRANCH  10  11
ATOM     11  C   UNL     1       5.992  -7.983  -4.497  1.00  0.00    -0.000 C 
BRANCH  11  12
ATOM     12  C   UNL     1       4.838  -8.954  -4.821  1.00  0.00    -0.000 C 
BRANCH  12  13
ATOM     13  C   UNL     1       4.939  -9.657  -6.187  1.00  0.00    -0.000 C 
BRANCH  13  14
ATOM     14  C   UNL     1       3.794  -9.276  -7.141  1.00  0.00    -0.000 C 
BRANCH  14  15
ATOM     15  C   UNL     1       4.296  -8.578  -8.414  1.00  0.00    -0.003 C 
ATOM     16  C   UNL     1       5.759  -8.143  -8.315  1.00  0.00     0.004 C 
ENDBRANCH  14  15
ENDBRANCH  13  14
ENDBRANCH  12  13
ENDBRANCH  11  12
ENDBRANCH  10  11
ENDBRANCH   1  10
TORSDOF 12
ENDMDL
