MODEL 1
REMARK VINA RESULT:    -1.920      0.000      0.000
REMARK INTER + INTRA:          -3.793
REMARK INTER:                  -3.716
REMARK INTRA:                  -0.077
REMARK UNBOUND:                -0.077
REMARK SMILES CCCCCCCCCCCCCCCCCC(=O)[O-]
REMARK SMILES IDX 10 1 11 2 12 3 13 4 14 5 15 6 16 7 17 8 18 9 19 10 20 11
REMARK SMILES IDX 9 12 8 13 7 14 6 15 5 16 4 17 3 18 2 19 1 20
REMARK H PARENT
REMARK Flexibility Score: inf
ROOT
ATOM      1  C   UNL     1      34.907 105.322 264.689  1.00  0.00     0.000 C 
ENDROOT
BRANCH   1   2
ATOM      2  C   UNL     1      34.937 106.259 263.468  1.00  0.00     0.000 C 
BRANCH   2   3
ATOM      3  C   UNL     1      36.013 107.354 263.576  1.00  0.00     0.000 C 
BRANCH   3   4
ATOM      4  C   UNL     1      37.155 107.154 262.557  1.00  0.00     0.000 C 
BRANCH   4   5
ATOM      5  C   UNL     1      38.511 106.841 263.212  1.00  0.00     0.000 C 
BRANCH   5   6
ATOM      6  C   UNL     1      39.634 106.632 262.183  1.00  0.00     0.000 C 
BRANCH   6   7
ATOM      7  C   UNL     1      39.121 106.650 260.731  1.00  0.00     0.006 C 
BRANCH   7   8
ATOM      8  C   UNL     1      38.318 105.401 260.332  1.00  0.00     0.053 C 
BRANCH   8   9
ATOM      9  C   UNL     1      37.293 105.704 259.283  1.00  0.00     0.041 C 
ATOM     10  O   UNL     1      37.332 105.116 258.171  1.00  0.00    -0.550 OA
ATOM     11  O   UNL     1      36.273 106.608 259.548  1.00  0.00    -0.550 OA
ENDBRANCH   8   9
ENDBRANCH   7   8
ENDBRANCH   6   7
ENDBRANCH   5   6
ENDBRANCH   4   5
ENDBRANCH   3   4
ENDBRANCH   2   3
ENDBRANCH   1   2
BRANCH   1  12
ATOM     12  C   UNL     1      36.248 104.641 265.023  1.00  0.00     0.000 C 
BRANCH  12  13
ATOM     13  C   UNL     1      36.274 104.033 266.436  1.00  0.00    -0.000 C 
BRANCH  13  14
ATOM     14  C   UNL     1      35.010 104.362 267.252  1.00  0.00    -0.000 C 
BRANCH  14  15
ATOM     15  C   UNL     1      34.877 105.830 267.694  1.00  0.00    -0.000 C 
BRANCH  15  16
ATOM     16  C   UNL     1      35.082 106.025 269.203  1.00  0.00    -0.000 C 
BRANCH  16  17
ATOM     17  C   UNL     1      35.068 107.517 269.570  1.00  0.00    -0.000 C 
BRANCH  17  18
ATOM     18  C   UNL     1      35.869 108.377 268.582  1.00  0.00    -0.000 C 
BRANCH  18  19
ATOM     19  C   UNL     1      34.973 109.282 267.722  1.00  0.00    -0.003 C 
ATOM     20  C   UNL     1      35.164 108.993 266.236  1.00  0.00     0.004 C 
ENDBRANCH  18  19
ENDBRANCH  17  18
ENDBRANCH  16  17
ENDBRANCH  15  16
ENDBRANCH  14  15
ENDBRANCH  13  14
ENDBRANCH  12  13
ENDBRANCH   1  12
TORSDOF 16
ENDMDL
MODEL 2
REMARK VINA RESULT:    -1.236      2.168      6.555
REMARK INTER + INTRA:          -2.468
REMARK INTER:                  -1.662
REMARK INTRA:                  -0.807
REMARK UNBOUND:                -0.077
REMARK SMILES CCCCCCCCCCCCCCCCCC(=O)[O-]
REMARK SMILES IDX 10 1 11 2 12 3 13 4 14 5 15 6 16 7 17 8 18 9 19 10 20 11
REMARK SMILES IDX 9 12 8 13 7 14 6 15 5 16 4 17 3 18 2 19 1 20
REMARK H PARENT
REMARK Flexibility Score: inf
ROOT
ATOM      1  C   UNL     1      36.111 104.747 265.986  1.00  0.00     0.000 C 
ENDROOT
BRANCH   1   2
ATOM      2  C   UNL     1      34.896 104.877 266.924  1.00  0.00     0.000 C 
BRANCH   2   3
ATOM      3  C   UNL     1      35.290 104.968 268.409  1.00  0.00     0.000 C 
BRANCH   3   4
ATOM      4  C   UNL     1      34.875 106.312 269.042  1.00  0.00     0.000 C 
BRANCH   4   5
ATOM      5  C   UNL     1      35.720 107.503 268.557  1.00  0.00     0.000 C 
BRANCH   5   6
ATOM      6  C   UNL     1      34.887 108.556 267.809  1.00  0.00     0.000 C 
BRANCH   6   7
ATOM      7  C   UNL     1      34.979 108.409 266.278  1.00  0.00     0.006 C 
BRANCH   7   8
ATOM      8  C   UNL     1      36.378 108.033 265.765  1.00  0.00     0.053 C 
BRANCH   8   9
ATOM      9  C   UNL     1      36.380 107.753 264.294  1.00  0.00     0.041 C 
ATOM     10  O   UNL     1      37.429 107.351 263.727  1.00  0.00    -0.550 OA
ATOM     11  O   UNL     1      35.212 107.899 263.556  1.00  0.00    -0.550 OA
ENDBRANCH   8   9
ENDBRANCH   7   8
ENDBRANCH   6   7
ENDBRANCH   5   6
ENDBRANCH   4   5
ENDBRANCH   3   4
ENDBRANCH   2   3
ENDBRANCH   1   2
BRANCH   1  12
ATOM     12  C   UNL     1      35.892 103.847 264.756  1.00  0.00     0.000 C 
BRANCH  12  13
ATOM     13  C   UNL     1      34.895 104.444 263.748  1.00  0.00    -0.000 C 
BRANCH  13  14
ATOM     14  C   UNL     1      34.876 103.688 262.407  1.00  0.00    -0.000 C 
BRANCH  14  15
ATOM     15  C   UNL     1      35.590 104.397 261.242  1.00  0.00    -0.000 C 
BRANCH  15  16
ATOM     16  C   UNL     1      36.576 105.477 261.711  1.00  0.00    -0.000 C 
BRANCH  16  17
ATOM     17  C   UNL     1      36.895 106.459 260.572  1.00  0.00    -0.000 C 
BRANCH  17  18
ATOM     18  C   UNL     1      37.651 105.794 259.411  1.00  0.00    -0.000 C 
BRANCH  18  19
ATOM     19  C   UNL     1      37.088 106.186 258.037  1.00  0.00    -0.003 C 
ATOM     20  C   UNL     1      36.295 107.487 258.118  1.00  0.00     0.004 C 
ENDBRANCH  18  19
ENDBRANCH  17  18
ENDBRANCH  16  17
ENDBRANCH  15  16
ENDBRANCH  14  15
ENDBRANCH  13  14
ENDBRANCH  12  13
ENDBRANCH   1  12
TORSDOF 16
ENDMDL
MODEL 3
REMARK VINA RESULT:    -0.945      1.549      3.341
REMARK INTER + INTRA:          -1.906
REMARK INTER:                  -0.776
REMARK INTRA:                  -1.131
REMARK UNBOUND:                -0.077
REMARK SMILES CCCCCCCCCCCCCCCCCC(=O)[O-]
REMARK SMILES IDX 10 1 11 2 12 3 13 4 14 5 15 6 16 7 17 8 18 9 19 10 20 11
REMARK SMILES IDX 9 12 8 13 7 14 6 15 5 16 4 17 3 18 2 19 1 20
REMARK H PARENT
REMARK Flexibility Score: inf
ROOT
ATOM      1  C   UNL     1      38.060 106.958 264.187  1.00  0.00     0.000 C 
ENDROOT
BRANCH   1   2
ATOM      2  C   UNL     1      38.884 107.548 263.028  1.00  0.00     0.000 C 
BRANCH   2   3
ATOM      3  C   UNL     1      39.595 106.472 262.187  1.00  0.00     0.000 C 
BRANCH   3   4
ATOM      4  C   UNL     1      39.247 106.578 260.688  1.00  0.00     0.000 C 
BRANCH   4   5
ATOM      5  C   UNL     1      39.021 105.214 260.015  1.00  0.00     0.000 C 
BRANCH   5   6
ATOM      6  C   UNL     1      37.589 105.043 259.482  1.00  0.00     0.000 C 
BRANCH   6   7
ATOM      7  C   UNL     1      36.610 106.079 260.066  1.00  0.00     0.006 C 
BRANCH   7   8
ATOM      8  C   UNL     1      36.761 107.490 259.476  1.00  0.00     0.053 C 
BRANCH   8   9
ATOM      9  C   UNL     1      35.795 107.739 258.358  1.00  0.00     0.041 C 
ATOM     10  O   UNL     1      35.127 106.788 257.875  1.00  0.00    -0.550 OA
ATOM     11  O   UNL     1      35.605 109.027 257.877  1.00  0.00    -0.550 OA
ENDBRANCH   8   9
ENDBRANCH   7   8
ENDBRANCH   6   7
ENDBRANCH   5   6
ENDBRANCH   4   5
ENDBRANCH   3   4
ENDBRANCH   2   3
ENDBRANCH   1   2
BRANCH   1  12
ATOM     12  C   UNL     1      37.272 105.680 263.843  1.00  0.00     0.000 C 
BRANCH  12  13
ATOM     13  C   UNL     1      35.749 105.867 263.961  1.00  0.00    -0.000 C 
BRANCH  13  14
ATOM     14  C   UNL     1      35.264 107.209 263.381  1.00  0.00    -0.000 C 
BRANCH  14  15
ATOM     15  C   UNL     1      34.875 108.273 264.422  1.00  0.00    -0.000 C 
BRANCH  15  16
ATOM     16  C   UNL     1      34.877 107.734 265.860  1.00  0.00    -0.000 C 
BRANCH  16  17
ATOM     17  C   UNL     1      35.334 108.817 266.851  1.00  0.00    -0.000 C 
BRANCH  17  18
ATOM     18  C   UNL     1      35.151 108.394 268.316  1.00  0.00    -0.000 C 
BRANCH  18  19
ATOM     19  C   UNL     1      35.530 106.926 268.561  1.00  0.00    -0.003 C 
ATOM     20  C   UNL     1      34.921 106.410 269.861  1.00  0.00     0.004 C 
ENDBRANCH  18  19
ENDBRANCH  17  18
ENDBRANCH  16  17
ENDBRANCH  15  16
ENDBRANCH  14  15
ENDBRANCH  13  14
ENDBRANCH  12  13
ENDBRANCH   1  12
TORSDOF 16
ENDMDL
MODEL 4
REMARK VINA RESULT:    -0.654      2.044      6.067
REMARK INTER + INTRA:          -1.342
REMARK INTER:                  -1.089
REMARK INTRA:                  -0.253
REMARK UNBOUND:                -0.077
REMARK SMILES CCCCCCCCCCCCCCCCCC(=O)[O-]
REMARK SMILES IDX 10 1 11 2 12 3 13 4 14 5 15 6 16 7 17 8 18 9 19 10 20 11
REMARK SMILES IDX 9 12 8 13 7 14 6 15 5 16 4 17 3 18 2 19 1 20
REMARK H PARENT
REMARK Flexibility Score: inf
ROOT
ATOM      1  C   UNL     1      36.088 104.565 266.779  1.00  0.00     0.000 C 
ENDROOT
BRANCH   1   2
ATOM      2  C   UNL     1      34.960 105.478 267.294  1.00  0.00     0.000 C 
BRANCH   2   3
ATOM      3  C   UNL     1      35.482 106.700 268.070  1.00  0.00     0.000 C 
BRANCH   3   4
ATOM      4  C   UNL     1      34.875 108.022 267.555  1.00  0.00     0.000 C 
BRANCH   4   5
ATOM      5  C   UNL     1      35.786 108.769 266.567  1.00  0.00     0.000 C 
BRANCH   5   6
ATOM      6  C   UNL     1      35.816 108.117 265.175  1.00  0.00     0.000 C 
BRANCH   6   7
ATOM      7  C   UNL     1      37.160 107.431 264.868  1.00  0.00     0.006 C 
BRANCH   7   8
ATOM      8  C   UNL     1      37.451 107.260 263.368  1.00  0.00     0.053 C 
BRANCH   8   9
ATOM      9  C   UNL     1      38.917 107.318 263.070  1.00  0.00     0.041 C 
ATOM     10  O   UNL     1      39.329 107.877 262.020  1.00  0.00    -0.550 OA
ATOM     11  O   UNL     1      39.832 106.787 263.971  1.00  0.00    -0.550 OA
ENDBRANCH   8   9
ENDBRANCH   7   8
ENDBRANCH   6   7
ENDBRANCH   5   6
ENDBRANCH   4   5
ENDBRANCH   3   4
ENDBRANCH   2   3
ENDBRANCH   1   2
BRANCH   1  12
ATOM     12  C   UNL     1      35.974 104.159 265.297  1.00  0.00     0.000 C 
BRANCH  12  13
ATOM     13  C   UNL     1      34.906 104.966 264.538  1.00  0.00    -0.000 C 
BRANCH  13  14
ATOM     14  C   UNL     1      34.952 104.735 263.016  1.00  0.00    -0.000 C 
BRANCH  14  15
ATOM     15  C   UNL     1      36.237 105.214 262.318  1.00  0.00    -0.000 C 
BRANCH  15  16
ATOM     16  C   UNL     1      36.285 104.847 260.829  1.00  0.00    -0.000 C 
BRANCH  16  17
ATOM     17  C   UNL     1      37.195 105.815 260.054  1.00  0.00    -0.000 C 
BRANCH  17  18
ATOM     18  C   UNL     1      37.093 105.632 258.532  1.00  0.00    -0.000 C 
BRANCH  18  19
ATOM     19  C   UNL     1      36.142 106.645 257.877  1.00  0.00    -0.003 C 
ATOM     20  C   UNL     1      36.089 107.945 258.674  1.00  0.00     0.004 C 
ENDBRANCH  18  19
ENDBRANCH  17  18
ENDBRANCH  16  17
ENDBRANCH  15  16
ENDBRANCH  14  15
ENDBRANCH  13  14
ENDBRANCH  12  13
ENDBRANCH   1  12
TORSDOF 16
ENDMDL
MODEL 5
REMARK VINA RESULT:    -0.611      1.929      2.692
REMARK INTER + INTRA:          -1.259
REMARK INTER:                  -1.879
REMARK INTRA:                   0.619
REMARK UNBOUND:                -0.077
REMARK SMILES CCCCCCCCCCCCCCCCCC(=O)[O-]
REMARK SMILES IDX 10 1 11 2 12 3 13 4 14 5 15 6 16 7 17 8 18 9 19 10 20 11
REMARK SMILES IDX 9 12 8 13 7 14 6 15 5 16 4 17 3 18 2 19 1 20
REMARK H PARENT
REMARK Flexibility Score: inf
ROOT
ATOM      1  C   UNL     1      36.053 104.305 264.144  1.00  0.00     0.000 C 
ENDROOT
BRANCH   1   2
ATOM      2  C   UNL     1      35.260 104.250 262.826  1.00  0.00     0.000 C 
BRANCH   2   3
ATOM      3  C   UNL     1      36.141 104.470 261.584  1.00  0.00     0.000 C 
BRANCH   3   4
ATOM      4  C   UNL     1      36.020 105.905 261.028  1.00  0.00     0.000 C 
BRANCH   4   5
ATOM      5  C   UNL     1      36.259 105.995 259.511  1.00  0.00     0.000 C 
BRANCH   5   6
ATOM      6  C   UNL     1      37.751 106.062 259.147  1.00  0.00     0.000 C 
BRANCH   6   7
ATOM      7  C   UNL     1      38.588 106.809 260.202  1.00  0.00     0.006 C 
BRANCH   7   8
ATOM      8  C   UNL     1      38.911 105.976 261.453  1.00  0.00     0.053 C 
BRANCH   8   9
ATOM      9  C   UNL     1      39.078 106.832 262.671  1.00  0.00     0.041 C 
ATOM     10  O   UNL     1      40.215 106.981 263.189  1.00  0.00    -0.550 OA
ATOM     11  O   UNL     1      37.984 107.496 263.210  1.00  0.00    -0.550 OA
ENDBRANCH   8   9
ENDBRANCH   7   8
ENDBRANCH   6   7
ENDBRANCH   5   6
ENDBRANCH   4   5
ENDBRANCH   3   4
ENDBRANCH   2   3
ENDBRANCH   1   2
BRANCH   1  12
ATOM     12  C   UNL     1      35.549 105.342 265.166  1.00  0.00     0.000 C 
BRANCH  12  13
ATOM     13  C   UNL     1      35.479 104.784 266.598  1.00  0.00    -0.000 C 
BRANCH  13  14
ATOM     14  C   UNL     1      34.875 105.785 267.601  1.00  0.00    -0.000 C 
BRANCH  14  15
ATOM     15  C   UNL     1      35.514 105.778 269.001  1.00  0.00    -0.000 C 
BRANCH  15  16
ATOM     16  C   UNL     1      35.357 107.114 269.740  1.00  0.00    -0.000 C 
BRANCH  16  17
ATOM     17  C   UNL     1      35.005 108.245 268.759  1.00  0.00    -0.000 C 
BRANCH  17  18
ATOM     18  C   UNL     1      35.946 108.290 267.547  1.00  0.00    -0.000 C 
BRANCH  18  19
ATOM     19  C   UNL     1      35.402 109.165 266.407  1.00  0.00    -0.003 C 
ATOM     20  C   UNL     1      34.875 110.495 266.938  1.00  0.00     0.004 C 
ENDBRANCH  18  19
ENDBRANCH  17  18
ENDBRANCH  16  17
ENDBRANCH  15  16
ENDBRANCH  14  15
ENDBRANCH  13  14
ENDBRANCH  12  13
ENDBRANCH   1  12
TORSDOF 16
ENDMDL
MODEL 6
REMARK VINA RESULT:    -0.605      3.235      6.982
REMARK INTER + INTRA:          -1.247
REMARK INTER:                  -1.303
REMARK INTRA:                   0.056
REMARK UNBOUND:                -0.077
REMARK SMILES CCCCCCCCCCCCCCCCCC(=O)[O-]
REMARK SMILES IDX 10 1 11 2 12 3 13 4 14 5 15 6 16 7 17 8 18 9 19 10 20 11
REMARK SMILES IDX 9 12 8 13 7 14 6 15 5 16 4 17 3 18 2 19 1 20
REMARK H PARENT
REMARK Flexibility Score: inf
ROOT
ATOM      1  C   UNL     1      39.584 106.886 262.854  1.00  0.00     0.000 C 
ENDROOT
BRANCH   1   2
ATOM      2  C   UNL     1      38.313 107.715 263.110  1.00  0.00     0.000 C 
BRANCH   2   3
ATOM      3  C   UNL     1      37.177 106.896 263.747  1.00  0.00     0.000 C 
BRANCH   3   4
ATOM      4  C   UNL     1      35.782 107.399 263.321  1.00  0.00     0.000 C 
BRANCH   4   5
ATOM      5  C   UNL     1      34.875 107.764 264.508  1.00  0.00     0.000 C 
BRANCH   5   6
ATOM      6  C   UNL     1      35.610 107.708 265.857  1.00  0.00     0.000 C 
BRANCH   6   7
ATOM      7  C   UNL     1      35.486 109.019 266.657  1.00  0.00     0.006 C 
BRANCH   7   8
ATOM      8  C   UNL     1      34.888 108.844 268.062  1.00  0.00     0.053 C 
BRANCH   8   9
ATOM      9  C   UNL     1      35.186 107.493 268.635  1.00  0.00     0.041 C 
ATOM     10  O   UNL     1      35.101 106.465 267.914  1.00  0.00    -0.550 OA
ATOM     11  O   UNL     1      35.596 107.373 269.957  1.00  0.00    -0.550 OA
ENDBRANCH   8   9
ENDBRANCH   7   8
ENDBRANCH   6   7
ENDBRANCH   5   6
ENDBRANCH   4   5
ENDBRANCH   3   4
ENDBRANCH   2   3
ENDBRANCH   1   2
BRANCH   1  12
ATOM     12  C   UNL     1      39.683 106.259 261.451  1.00  0.00     0.000 C 
BRANCH  12  13
ATOM     13  C   UNL     1      38.573 106.741 260.501  1.00  0.00    -0.000 C 
BRANCH  13  14
ATOM     14  C   UNL     1      37.867 105.585 259.770  1.00  0.00    -0.000 C 
BRANCH  14  15
ATOM     15  C   UNL     1      36.411 105.330 260.198  1.00  0.00    -0.000 C 
BRANCH  15  16
ATOM     16  C   UNL     1      36.291 104.333 261.359  1.00  0.00    -0.000 C 
BRANCH  16  17
ATOM     17  C   UNL     1      34.939 104.484 262.075  1.00  0.00    -0.000 C 
BRANCH  17  18
ATOM     18  C   UNL     1      34.927 103.823 263.462  1.00  0.00    -0.000 C 
BRANCH  18  19
ATOM     19  C   UNL     1      36.069 104.315 264.363  1.00  0.00    -0.003 C 
ATOM     20  C   UNL     1      35.701 104.182 265.838  1.00  0.00     0.004 C 
ENDBRANCH  18  19
ENDBRANCH  17  18
ENDBRANCH  16  17
ENDBRANCH  15  16
ENDBRANCH  14  15
ENDBRANCH  13  14
ENDBRANCH  12  13
ENDBRANCH   1  12
TORSDOF 16
ENDMDL
MODEL 7
REMARK VINA RESULT:    -0.475      1.693      2.730
REMARK INTER + INTRA:          -0.996
REMARK INTER:                  -1.469
REMARK INTRA:                   0.473
REMARK UNBOUND:                -0.077
REMARK SMILES CCCCCCCCCCCCCCCCCC(=O)[O-]
REMARK SMILES IDX 10 1 11 2 12 3 13 4 14 5 15 6 16 7 17 8 18 9 19 10 20 11
REMARK SMILES IDX 9 12 8 13 7 14 6 15 5 16 4 17 3 18 2 19 1 20
REMARK H PARENT
REMARK Flexibility Score: inf
ROOT
ATOM      1  C   UNL     1      36.514 104.227 266.115  1.00  0.00     0.000 C 
ENDROOT
BRANCH   1   2
ATOM      2  C   UNL     1      36.723 105.173 264.918  1.00  0.00     0.000 C 
BRANCH   2   3
ATOM      3  C   UNL     1      35.488 105.271 264.005  1.00  0.00     0.000 C 
BRANCH   3   4
ATOM      4  C   UNL     1      35.353 104.051 263.070  1.00  0.00     0.000 C 
BRANCH   4   5
ATOM      5  C   UNL     1      35.413 104.416 261.577  1.00  0.00     0.000 C 
BRANCH   5   6
ATOM      6  C   UNL     1      36.332 105.616 261.295  1.00  0.00     0.000 C 
BRANCH   6   7
ATOM      7  C   UNL     1      37.305 105.359 260.129  1.00  0.00     0.006 C 
BRANCH   7   8
ATOM      8  C   UNL     1      38.672 106.044 260.288  1.00  0.00     0.053 C 
BRANCH   8   9
ATOM      9  C   UNL     1      38.787 106.772 261.592  1.00  0.00     0.041 C 
ATOM     10  O   UNL     1      39.918 106.973 262.107  1.00  0.00    -0.550 OA
ATOM     11  O   UNL     1      37.649 107.262 262.219  1.00  0.00    -0.550 OA
ENDBRANCH   8   9
ENDBRANCH   7   8
ENDBRANCH   6   7
ENDBRANCH   5   6
ENDBRANCH   4   5
ENDBRANCH   3   4
ENDBRANCH   2   3
ENDBRANCH   1   2
BRANCH   1  12
ATOM     12  C   UNL     1      35.063 104.126 266.621  1.00  0.00     0.000 C 
BRANCH  12  13
ATOM     13  C   UNL     1      34.966 104.103 268.157  1.00  0.00    -0.000 C 
BRANCH  13  14
ATOM     14  C   UNL     1      35.217 105.483 268.792  1.00  0.00    -0.000 C 
BRANCH  14  15
ATOM     15  C   UNL     1      34.875 106.689 267.900  1.00  0.00    -0.000 C 
BRANCH  15  16
ATOM     16  C   UNL     1      35.827 107.876 268.103  1.00  0.00    -0.000 C 
BRANCH  16  17
ATOM     17  C   UNL     1      35.059 109.207 268.069  1.00  0.00    -0.000 C 
BRANCH  17  18
ATOM     18  C   UNL     1      35.007 109.824 266.663  1.00  0.00    -0.000 C 
BRANCH  18  19
ATOM     19  C   UNL     1      35.803 109.012 265.630  1.00  0.00    -0.003 C 
ATOM     20  C   UNL     1      34.876 108.173 264.756  1.00  0.00     0.004 C 
ENDBRANCH  18  19
ENDBRANCH  17  18
ENDBRANCH  16  17
ENDBRANCH  15  16
ENDBRANCH  14  15
ENDBRANCH  13  14
ENDBRANCH  12  13
ENDBRANCH   1  12
TORSDOF 16
ENDMDL
MODEL 8
REMARK VINA RESULT:    -0.460      1.399      2.725
REMARK INTER + INTRA:          -0.967
REMARK INTER:                  -1.926
REMARK INTRA:                   0.959
REMARK UNBOUND:                -0.077
REMARK SMILES CCCCCCCCCCCCCCCCCC(=O)[O-]
REMARK SMILES IDX 10 1 11 2 12 3 13 4 14 5 15 6 16 7 17 8 18 9 19 10 20 11
REMARK SMILES IDX 9 12 8 13 7 14 6 15 5 16 4 17 3 18 2 19 1 20
REMARK H PARENT
REMARK Flexibility Score: inf
ROOT
ATOM      1  C   UNL     1      36.487 104.276 265.573  1.00  0.00     0.000 C 
ENDROOT
BRANCH   1   2
ATOM      2  C   UNL     1      36.352 103.767 264.126  1.00  0.00     0.000 C 
BRANCH   2   3
ATOM      3  C   UNL     1      35.230 104.471 263.342  1.00  0.00     0.000 C 
BRANCH   3   4
ATOM      4  C   UNL     1      35.754 105.167 262.069  1.00  0.00     0.000 C 
BRANCH   4   5
ATOM      5  C   UNL     1      36.510 106.475 262.355  1.00  0.00     0.000 C 
BRANCH   5   6
ATOM      6  C   UNL     1      37.528 106.826 261.257  1.00  0.00     0.000 C 
BRANCH   6   7
ATOM      7  C   UNL     1      37.744 105.675 260.257  1.00  0.00     0.006 C 
BRANCH   7   8
ATOM      8  C   UNL     1      37.574 106.082 258.784  1.00  0.00     0.053 C 
BRANCH   8   9
ATOM      9  C   UNL     1      36.405 106.997 258.585  1.00  0.00     0.041 C 
ATOM     10  O   UNL     1      36.558 108.244 258.656  1.00  0.00    -0.550 OA
ATOM     11  O   UNL     1      35.155 106.473 258.282  1.00  0.00    -0.550 OA
ENDBRANCH   8   9
ENDBRANCH   7   8
ENDBRANCH   6   7
ENDBRANCH   5   6
ENDBRANCH   4   5
ENDBRANCH   3   4
ENDBRANCH   2   3
ENDBRANCH   1   2
BRANCH   1  12
ATOM     12  C   UNL     1      35.154 104.517 266.307  1.00  0.00     0.000 C 
BRANCH  12  13
ATOM     13  C   UNL     1      34.876 106.008 266.565  1.00  0.00    -0.000 C 
BRANCH  13  14
ATOM     14  C   UNL     1      35.085 106.881 265.314  1.00  0.00    -0.000 C 
BRANCH  14  15
ATOM     15  C   UNL     1      35.788 108.227 265.562  1.00  0.00    -0.000 C 
BRANCH  15  16
ATOM     16  C   UNL     1      34.878 109.265 266.233  1.00  0.00    -0.000 C 
BRANCH  16  17
ATOM     17  C   UNL     1      35.005 109.198 267.764  1.00  0.00    -0.000 C 
BRANCH  17  18
ATOM     18  C   UNL     1      35.107 107.757 268.286  1.00  0.00    -0.000 C 
BRANCH  18  19
ATOM     19  C   UNL     1      35.422 107.692 269.788  1.00  0.00    -0.003 C 
ATOM     20  C   UNL     1      35.635 106.251 270.243  1.00  0.00     0.004 C 
ENDBRANCH  18  19
ENDBRANCH  17  18
ENDBRANCH  16  17
ENDBRANCH  15  16
ENDBRANCH  14  15
ENDBRANCH  13  14
ENDBRANCH  12  13
ENDBRANCH   1  12
TORSDOF 16
ENDMDL
MODEL 9
REMARK VINA RESULT:    -0.322      3.763      7.422
REMARK INTER + INTRA:          -0.701
REMARK INTER:                  -1.225
REMARK INTRA:                   0.524
REMARK UNBOUND:                -0.077
REMARK SMILES CCCCCCCCCCCCCCCCCC(=O)[O-]
REMARK SMILES IDX 10 1 11 2 12 3 13 4 14 5 15 6 16 7 17 8 18 9 19 10 20 11
REMARK SMILES IDX 9 12 8 13 7 14 6 15 5 16 4 17 3 18 2 19 1 20
REMARK H PARENT
REMARK Flexibility Score: inf
ROOT
ATOM      1  C   UNL     1      36.550 104.963 265.424  1.00  0.00     0.000 C 
ENDROOT
BRANCH   1   2
ATOM      2  C   UNL     1      35.298 105.067 266.314  1.00  0.00     0.000 C 
BRANCH   2   3
ATOM      3  C   UNL     1      34.875 106.521 266.590  1.00  0.00     0.000 C 
BRANCH   3   4
ATOM      4  C   UNL     1      35.266 107.472 265.440  1.00  0.00     0.000 C 
BRANCH   4   5
ATOM      5  C   UNL     1      35.825 108.820 265.925  1.00  0.00     0.000 C 
BRANCH   5   6
ATOM      6  C   UNL     1      34.878 109.541 266.898  1.00  0.00     0.000 C 
BRANCH   6   7
ATOM      7  C   UNL     1      35.181 109.218 268.373  1.00  0.00     0.006 C 
BRANCH   7   8
ATOM      8  C   UNL     1      35.737 107.804 268.606  1.00  0.00     0.053 C 
BRANCH   8   9
ATOM      9  C   UNL     1      35.328 107.251 269.936  1.00  0.00     0.041 C 
ATOM     10  O   UNL     1      35.218 108.013 270.932  1.00  0.00    -0.550 OA
ATOM     11  O   UNL     1      35.030 105.901 270.067  1.00  0.00    -0.550 OA
ENDBRANCH   8   9
ENDBRANCH   7   8
ENDBRANCH   6   7
ENDBRANCH   5   6
ENDBRANCH   4   5
ENDBRANCH   3   4
ENDBRANCH   2   3
ENDBRANCH   1   2
BRANCH   1  12
ATOM     12  C   UNL     1      36.322 104.300 264.052  1.00  0.00     0.000 C 
BRANCH  12  13
ATOM     13  C   UNL     1      34.989 104.712 263.404  1.00  0.00    -0.000 C 
BRANCH  13  14
ATOM     14  C   UNL     1      35.093 104.878 261.877  1.00  0.00    -0.000 C 
BRANCH  14  15
ATOM     15  C   UNL     1      36.526 104.980 261.324  1.00  0.00    -0.000 C 
BRANCH  15  16
ATOM     16  C   UNL     1      36.597 105.699 259.969  1.00  0.00    -0.000 C 
BRANCH  16  17
ATOM     17  C   UNL     1      37.738 106.729 259.954  1.00  0.00    -0.000 C 
BRANCH  17  18
ATOM     18  C   UNL     1      38.909 106.327 260.863  1.00  0.00    -0.000 C 
BRANCH  18  19
ATOM     19  C   UNL     1      39.171 107.349 261.979  1.00  0.00    -0.003 C 
ATOM     20  C   UNL     1      38.390 106.997 263.242  1.00  0.00     0.004 C 
ENDBRANCH  18  19
ENDBRANCH  17  18
ENDBRANCH  16  17
ENDBRANCH  15  16
ENDBRANCH  14  15
ENDBRANCH  13  14
ENDBRANCH  12  13
ENDBRANCH   1  12
TORSDOF 16
ENDMDL
