MODEL 1
REMARK VINA RESULT:    21.824      0.000      0.000
REMARK INTER + INTRA:          48.962
REMARK INTER:                  49.893
REMARK INTRA:                  -0.931
REMARK UNBOUND:                -0.931
REMARK SMILES CCCCCCCCCCCCCCCCCCCCCCCC(=O)[O-]
REMARK SMILES IDX 13 1 14 2 15 3 16 4 17 5 18 6 19 7 20 8 21 9 22 10 23 11
REMARK SMILES IDX 24 12 25 13 26 14 12 15 11 16 10 17 9 18 8 19 7 20 6 21 5 22
REMARK SMILES IDX 4 23 3 24 2 25 1 26
REMARK H PARENT
REMARK Flexibility Score: inf
ROOT
ATOM      1  C   UNL     1     -12.569  37.707 -13.377  1.00  0.00     0.000 C 
ENDROOT
BRANCH   1   2
ATOM      2  C   UNL     1     -11.251  38.380 -13.816  1.00  0.00     0.000 C 
BRANCH   2   3
ATOM      3  C   UNL     1     -10.772  39.501 -12.874  1.00  0.00     0.000 C 
BRANCH   3   4
ATOM      4  C   UNL     1     -11.888  40.333 -12.220  1.00  0.00     0.000 C 
BRANCH   4   5
ATOM      5  C   UNL     1     -11.348  41.479 -11.347  1.00  0.00     0.000 C 
BRANCH   5   6
ATOM      6  C   UNL     1     -10.631  40.980 -10.079  1.00  0.00     0.000 C 
BRANCH   6   7
ATOM      7  C   UNL     1     -10.530  42.006  -8.937  1.00  0.00     0.000 C 
BRANCH   7   8
ATOM      8  C   UNL     1      -9.412  41.679  -7.932  1.00  0.00     0.000 C 
BRANCH   8   9
ATOM      9  C   UNL     1      -9.957  41.456  -6.504  1.00  0.00     0.000 C 
BRANCH   9  10
ATOM     10  C   UNL     1     -11.320  42.129  -6.252  1.00  0.00     0.006 C 
BRANCH  10  11
ATOM     11  C   UNL     1     -12.481  41.142  -6.061  1.00  0.00     0.053 C 
BRANCH  11  12
ATOM     12  C   UNL     1     -13.747  41.638  -6.690  1.00  0.00     0.041 C 
ATOM     13  O   UNL     1     -14.793  41.756  -5.999  1.00  0.00    -0.550 OA
ATOM     14  O   UNL     1     -13.774  41.969  -8.039  1.00  0.00    -0.550 OA
ENDBRANCH  11  12
ENDBRANCH  10  11
ENDBRANCH   9  10
ENDBRANCH   8   9
ENDBRANCH   7   8
ENDBRANCH   6   7
ENDBRANCH   5   6
ENDBRANCH   4   5
ENDBRANCH   3   4
ENDBRANCH   2   3
ENDBRANCH   1   2
BRANCH   1  15
ATOM     15  C   UNL     1     -12.332  36.383 -12.629  1.00  0.00     0.000 C 
BRANCH  15  16
ATOM     16  C   UNL     1     -13.636  35.619 -12.348  1.00  0.00     0.000 C 
BRANCH  16  17
ATOM     17  C   UNL     1     -13.477  34.561 -11.241  1.00  0.00     0.000 C 
BRANCH  17  18
ATOM     18  C   UNL     1     -14.787  33.806 -10.957  1.00  0.00    -0.000 C 
BRANCH  18  19
ATOM     19  C   UNL     1     -14.749  33.038  -9.625  1.00  0.00    -0.000 C 
BRANCH  19  20
ATOM     20  C   UNL     1     -13.866  31.779  -9.682  1.00  0.00    -0.000 C 
BRANCH  20  21
ATOM     21  C   UNL     1     -13.394  31.251  -8.316  1.00  0.00    -0.000 C 
BRANCH  21  22
ATOM     22  C   UNL     1     -12.085  30.447  -8.401  1.00  0.00    -0.000 C 
BRANCH  22  23
ATOM     23  C   UNL     1     -11.506  30.126  -7.013  1.00  0.00    -0.000 C 
BRANCH  23  24
ATOM     24  C   UNL     1     -10.499  28.967  -7.048  1.00  0.00    -0.000 C 
BRANCH  24  25
ATOM     25  C   UNL     1      -9.090  29.478  -7.373  1.00  0.00    -0.003 C 
ATOM     26  C   UNL     1      -8.867  30.880  -6.812  1.00  0.00     0.004 C 
ENDBRANCH  24  25
ENDBRANCH  23  24
ENDBRANCH  22  23
ENDBRANCH  21  22
ENDBRANCH  20  21
ENDBRANCH  19  20
ENDBRANCH  18  19
ENDBRANCH  17  18
ENDBRANCH  16  17
ENDBRANCH  15  16
ENDBRANCH   1  15
TORSDOF 22
ENDMDL
MODEL 2
REMARK VINA RESULT:    22.007      3.807     10.018
REMARK INTER + INTRA:          49.379
REMARK INTER:                  50.400
REMARK INTRA:                  -1.022
REMARK UNBOUND:                -0.931
REMARK SMILES CCCCCCCCCCCCCCCCCCCCCCCC(=O)[O-]
REMARK SMILES IDX 13 1 14 2 15 3 16 4 17 5 18 6 19 7 20 8 21 9 22 10 23 11
REMARK SMILES IDX 24 12 25 13 26 14 12 15 11 16 10 17 9 18 8 19 7 20 6 21 5 22
REMARK SMILES IDX 4 23 3 24 2 25 1 26
REMARK H PARENT
REMARK Flexibility Score: inf
ROOT
ATOM      1  C   UNL     1     -12.844  36.886 -13.606  1.00  0.00     0.000 C 
ENDROOT
BRANCH   1   2
ATOM      2  C   UNL     1     -12.824  36.273 -12.190  1.00  0.00     0.000 C 
BRANCH   2   3
ATOM      3  C   UNL     1     -13.329  34.819 -12.127  1.00  0.00     0.000 C 
BRANCH   3   4
ATOM      4  C   UNL     1     -14.344  34.523 -11.009  1.00  0.00     0.000 C 
BRANCH   4   5
ATOM      5  C   UNL     1     -14.785  33.049 -10.975  1.00  0.00     0.000 C 
BRANCH   5   6
ATOM      6  C   UNL     1     -15.203  32.582  -9.569  1.00  0.00     0.000 C 
BRANCH   6   7
ATOM      7  C   UNL     1     -14.342  31.456  -8.970  1.00  0.00     0.000 C 
BRANCH   7   8
ATOM      8  C   UNL     1     -12.832  31.721  -9.100  1.00  0.00     0.000 C 
BRANCH   8   9
ATOM      9  C   UNL     1     -11.984  30.568  -8.516  1.00  0.00     0.000 C 
BRANCH   9  10
ATOM     10  C   UNL     1     -12.068  30.457  -6.982  1.00  0.00     0.006 C 
BRANCH  10  11
ATOM     11  C   UNL     1     -11.138  29.396  -6.378  1.00  0.00     0.053 C 
BRANCH  11  12
ATOM     12  C   UNL     1      -9.859  29.267  -7.148  1.00  0.00     0.041 C 
ATOM     13  O   UNL     1      -9.640  28.240  -7.842  1.00  0.00    -0.550 OA
ATOM     14  O   UNL     1      -8.910  30.279  -7.100  1.00  0.00    -0.550 OA
ENDBRANCH  11  12
ENDBRANCH  10  11
ENDBRANCH   9  10
ENDBRANCH   8   9
ENDBRANCH   7   8
ENDBRANCH   6   7
ENDBRANCH   5   6
ENDBRANCH   4   5
ENDBRANCH   3   4
ENDBRANCH   2   3
ENDBRANCH   1   2
BRANCH   1  15
ATOM     15  C   UNL     1     -12.520  38.391 -13.600  1.00  0.00     0.000 C 
BRANCH  15  16
ATOM     16  C   UNL     1     -11.010  38.672 -13.554  1.00  0.00     0.000 C 
BRANCH  16  17
ATOM     17  C   UNL     1     -10.633  39.719 -12.491  1.00  0.00     0.000 C 
BRANCH  17  18
ATOM     18  C   UNL     1     -11.452  41.014 -12.625  1.00  0.00    -0.000 C 
BRANCH  18  19
ATOM     19  C   UNL     1     -11.652  41.729 -11.277  1.00  0.00    -0.000 C 
BRANCH  19  20
ATOM     20  C   UNL     1     -10.827  41.104 -10.138  1.00  0.00    -0.000 C 
BRANCH  20  21
ATOM     21  C   UNL     1     -10.629  42.005  -8.906  1.00  0.00    -0.000 C 
BRANCH  21  22
ATOM     22  C   UNL     1      -9.545  41.484  -7.947  1.00  0.00    -0.000 C 
BRANCH  22  23
ATOM     23  C   UNL     1      -9.893  41.751  -6.473  1.00  0.00    -0.000 C 
BRANCH  23  24
ATOM     24  C   UNL     1     -11.294  42.356  -6.299  1.00  0.00    -0.000 C 
BRANCH  24  25
ATOM     25  C   UNL     1     -12.359  41.254  -6.222  1.00  0.00    -0.003 C 
ATOM     26  C   UNL     1     -13.646  41.680  -6.921  1.00  0.00     0.004 C 
ENDBRANCH  24  25
ENDBRANCH  23  24
ENDBRANCH  22  23
ENDBRANCH  21  22
ENDBRANCH  20  21
ENDBRANCH  19  20
ENDBRANCH  18  19
ENDBRANCH  17  18
ENDBRANCH  16  17
ENDBRANCH  15  16
ENDBRANCH   1  15
TORSDOF 22
ENDMDL
MODEL 3
REMARK VINA RESULT:    22.169      1.095      2.606
REMARK INTER + INTRA:          49.750
REMARK INTER:                  49.881
REMARK INTRA:                  -0.131
REMARK UNBOUND:                -0.931
REMARK SMILES CCCCCCCCCCCCCCCCCCCCCCCC(=O)[O-]
REMARK SMILES IDX 13 1 14 2 15 3 16 4 17 5 18 6 19 7 20 8 21 9 22 10 23 11
REMARK SMILES IDX 24 12 25 13 26 14 12 15 11 16 10 17 9 18 8 19 7 20 6 21 5 22
REMARK SMILES IDX 4 23 3 24 2 25 1 26
REMARK H PARENT
REMARK Flexibility Score: inf
ROOT
ATOM      1  C   UNL     1     -13.007  35.230 -12.343  1.00  0.00     0.000 C 
ENDROOT
BRANCH   1   2
ATOM      2  C   UNL     1     -13.282  36.741 -12.496  1.00  0.00     0.000 C 
BRANCH   2   3
ATOM      3  C   UNL     1     -12.798  37.337 -13.832  1.00  0.00     0.000 C 
BRANCH   3   4
ATOM      4  C   UNL     1     -12.154  38.729 -13.736  1.00  0.00     0.000 C 
BRANCH   4   5
ATOM      5  C   UNL     1     -10.753  38.699 -13.099  1.00  0.00     0.000 C 
BRANCH   5   6
ATOM      6  C   UNL     1     -10.367  40.034 -12.438  1.00  0.00     0.000 C 
BRANCH   6   7
ATOM      7  C   UNL     1     -11.499  41.072 -12.350  1.00  0.00     0.000 C 
BRANCH   7   8
ATOM      8  C   UNL     1     -11.883  41.422 -10.902  1.00  0.00     0.000 C 
BRANCH   8   9
ATOM      9  C   UNL     1     -10.717  41.189  -9.915  1.00  0.00     0.000 C 
BRANCH   9  10
ATOM     10  C   UNL     1     -10.891  41.921  -8.571  1.00  0.00     0.006 C 
BRANCH  10  11
ATOM     11  C   UNL     1     -11.363  41.018  -7.422  1.00  0.00     0.053 C 
BRANCH  11  12
ATOM     12  C   UNL     1     -12.208  41.763  -6.434  1.00  0.00     0.041 C 
ATOM     13  O   UNL     1     -11.680  42.598  -5.653  1.00  0.00    -0.550 OA
ATOM     14  O   UNL     1     -13.577  41.537  -6.374  1.00  0.00    -0.550 OA
ENDBRANCH  11  12
ENDBRANCH  10  11
ENDBRANCH   9  10
ENDBRANCH   8   9
ENDBRANCH   7   8
ENDBRANCH   6   7
ENDBRANCH   5   6
ENDBRANCH   4   5
ENDBRANCH   3   4
ENDBRANCH   2   3
ENDBRANCH   1   2
BRANCH   1  15
ATOM     15  C   UNL     1     -14.206  34.471 -11.747  1.00  0.00     0.000 C 
BRANCH  15  16
ATOM     16  C   UNL     1     -13.854  33.734 -10.446  1.00  0.00     0.000 C 
BRANCH  16  17
ATOM     17  C   UNL     1     -14.943  32.733 -10.016  1.00  0.00     0.000 C 
BRANCH  17  18
ATOM     18  C   UNL     1     -14.401  31.641  -9.078  1.00  0.00    -0.000 C 
BRANCH  18  19
ATOM     19  C   UNL     1     -12.863  31.612  -9.033  1.00  0.00    -0.000 C 
BRANCH  19  20
ATOM     20  C   UNL     1     -12.307  30.367  -8.319  1.00  0.00    -0.000 C 
BRANCH  20  21
ATOM     21  C   UNL     1     -12.401  30.400  -6.783  1.00  0.00    -0.000 C 
BRANCH  21  22
ATOM     22  C   UNL     1     -11.601  29.273  -6.107  1.00  0.00    -0.000 C 
BRANCH  22  23
ATOM     23  C   UNL     1     -10.449  28.765  -6.991  1.00  0.00    -0.000 C 
BRANCH  23  24
ATOM     24  C   UNL     1      -9.797  29.889  -7.811  1.00  0.00    -0.000 C 
BRANCH  24  25
ATOM     25  C   UNL     1      -8.741  30.629  -6.980  1.00  0.00    -0.003 C 
ATOM     26  C   UNL     1      -7.725  31.330  -7.875  1.00  0.00     0.004 C 
ENDBRANCH  24  25
ENDBRANCH  23  24
ENDBRANCH  22  23
ENDBRANCH  21  22
ENDBRANCH  20  21
ENDBRANCH  19  20
ENDBRANCH  18  19
ENDBRANCH  17  18
ENDBRANCH  16  17
ENDBRANCH  15  16
ENDBRANCH   1  15
TORSDOF 22
ENDMDL
MODEL 4
REMARK VINA RESULT:    22.492      3.421      9.935
REMARK INTER + INTRA:          50.488
REMARK INTER:                  51.671
REMARK INTRA:                  -1.184
REMARK UNBOUND:                -0.931
REMARK SMILES CCCCCCCCCCCCCCCCCCCCCCCC(=O)[O-]
REMARK SMILES IDX 13 1 14 2 15 3 16 4 17 5 18 6 19 7 20 8 21 9 22 10 23 11
REMARK SMILES IDX 24 12 25 13 26 14 12 15 11 16 10 17 9 18 8 19 7 20 6 21 5 22
REMARK SMILES IDX 4 23 3 24 2 25 1 26
REMARK H PARENT
REMARK Flexibility Score: inf
ROOT
ATOM      1  C   UNL     1     -12.782  36.657 -12.564  1.00  0.00     0.000 C 
ENDROOT
BRANCH   1   2
ATOM      2  C   UNL     1     -13.200  35.177 -12.696  1.00  0.00     0.000 C 
BRANCH   2   3
ATOM      3  C   UNL     1     -13.311  34.432 -11.352  1.00  0.00     0.000 C 
BRANCH   3   4
ATOM      4  C   UNL     1     -14.695  33.840 -11.040  1.00  0.00     0.000 C 
BRANCH   4   5
ATOM      5  C   UNL     1     -14.806  33.303  -9.602  1.00  0.00     0.000 C 
BRANCH   5   6
ATOM      6  C   UNL     1     -14.655  31.773  -9.521  1.00  0.00     0.000 C 
BRANCH   6   7
ATOM      7  C   UNL     1     -13.865  31.257  -8.305  1.00  0.00     0.000 C 
BRANCH   7   8
ATOM      8  C   UNL     1     -12.407  30.902  -8.643  1.00  0.00     0.000 C 
BRANCH   8   9
ATOM      9  C   UNL     1     -11.786  29.937  -7.609  1.00  0.00     0.000 C 
BRANCH   9  10
ATOM     10  C   UNL     1     -10.416  29.375  -8.035  1.00  0.00     0.006 C 
BRANCH  10  11
ATOM     11  C   UNL     1      -9.319  29.523  -6.971  1.00  0.00     0.053 C 
BRANCH  11  12
ATOM     12  C   UNL     1      -8.558  30.805  -7.125  1.00  0.00     0.041 C 
ATOM     13  O   UNL     1      -8.384  31.560  -6.132  1.00  0.00    -0.550 OA
ATOM     14  O   UNL     1      -8.043  31.167  -8.362  1.00  0.00    -0.550 OA
ENDBRANCH  11  12
ENDBRANCH  10  11
ENDBRANCH   9  10
ENDBRANCH   8   9
ENDBRANCH   7   8
ENDBRANCH   6   7
ENDBRANCH   5   6
ENDBRANCH   4   5
ENDBRANCH   3   4
ENDBRANCH   2   3
ENDBRANCH   1   2
BRANCH   1  15
ATOM     15  C   UNL     1     -12.879  37.417 -13.899  1.00  0.00     0.000 C 
BRANCH  15  16
ATOM     16  C   UNL     1     -12.243  38.815 -13.833  1.00  0.00     0.000 C 
BRANCH  16  17
ATOM     17  C   UNL     1     -10.786  38.782 -13.338  1.00  0.00     0.000 C 
BRANCH  17  18
ATOM     18  C   UNL     1     -10.442  39.983 -12.441  1.00  0.00    -0.000 C 
BRANCH  18  19
ATOM     19  C   UNL     1     -11.654  40.897 -12.188  1.00  0.00    -0.000 C 
BRANCH  19  20
ATOM     20  C   UNL     1     -11.506  41.754 -10.919  1.00  0.00    -0.000 C 
BRANCH  20  21
ATOM     21  C   UNL     1     -10.997  40.999  -9.678  1.00  0.00    -0.000 C 
BRANCH  21  22
ATOM     22  C   UNL     1     -10.140  41.877  -8.750  1.00  0.00    -0.000 C 
BRANCH  22  23
ATOM     23  C   UNL     1     -10.686  41.911  -7.312  1.00  0.00    -0.000 C 
BRANCH  23  24
ATOM     24  C   UNL     1     -12.154  41.468  -7.229  1.00  0.00    -0.000 C 
BRANCH  24  25
ATOM     25  C   UNL     1     -12.730  41.746  -5.835  1.00  0.00    -0.003 C 
ATOM     26  C   UNL     1     -11.723  42.480  -4.957  1.00  0.00     0.004 C 
ENDBRANCH  24  25
ENDBRANCH  23  24
ENDBRANCH  22  23
ENDBRANCH  21  22
ENDBRANCH  20  21
ENDBRANCH  19  20
ENDBRANCH  18  19
ENDBRANCH  17  18
ENDBRANCH  16  17
ENDBRANCH  15  16
ENDBRANCH   1  15
TORSDOF 22
ENDMDL
MODEL 5
REMARK VINA RESULT:    22.551      3.442      9.978
REMARK INTER + INTRA:          50.624
REMARK INTER:                  51.382
REMARK INTRA:                  -0.758
REMARK UNBOUND:                -0.931
REMARK SMILES CCCCCCCCCCCCCCCCCCCCCCCC(=O)[O-]
REMARK SMILES IDX 13 1 14 2 15 3 16 4 17 5 18 6 19 7 20 8 21 9 22 10 23 11
REMARK SMILES IDX 24 12 25 13 26 14 12 15 11 16 10 17 9 18 8 19 7 20 6 21 5 22
REMARK SMILES IDX 4 23 3 24 2 25 1 26
REMARK H PARENT
REMARK Flexibility Score: inf
ROOT
ATOM      1  C   UNL     1     -12.388  36.668 -13.280  1.00  0.00     0.000 C 
ENDROOT
BRANCH   1   2
ATOM      2  C   UNL     1     -13.506  36.149 -12.352  1.00  0.00     0.000 C 
BRANCH   2   3
ATOM      3  C   UNL     1     -13.224  34.763 -11.740  1.00  0.00     0.000 C 
BRANCH   3   4
ATOM      4  C   UNL     1     -14.468  33.970 -11.306  1.00  0.00     0.000 C 
BRANCH   4   5
ATOM      5  C   UNL     1     -14.397  33.501  -9.842  1.00  0.00     0.000 C 
BRANCH   5   6
ATOM      6  C   UNL     1     -14.582  31.980  -9.691  1.00  0.00     0.000 C 
BRANCH   6   7
ATOM      7  C   UNL     1     -13.793  31.336  -8.538  1.00  0.00     0.000 C 
BRANCH   7   8
ATOM      8  C   UNL     1     -12.298  31.162  -8.856  1.00  0.00     0.000 C 
BRANCH   8   9
ATOM      9  C   UNL     1     -11.819  29.710  -8.636  1.00  0.00     0.000 C 
BRANCH   9  10
ATOM     10  C   UNL     1     -10.331  29.603  -8.249  1.00  0.00     0.006 C 
BRANCH  10  11
ATOM     11  C   UNL     1     -10.055  29.812  -6.753  1.00  0.00     0.053 C 
BRANCH  11  12
ATOM     12  C   UNL     1     -11.321  29.955  -5.964  1.00  0.00     0.041 C 
ATOM     13  O   UNL     1     -12.116  28.984  -5.862  1.00  0.00    -0.550 OA
ATOM     14  O   UNL     1     -11.625  31.159  -5.343  1.00  0.00    -0.550 OA
ENDBRANCH  11  12
ENDBRANCH  10  11
ENDBRANCH   9  10
ENDBRANCH   8   9
ENDBRANCH   7   8
ENDBRANCH   6   7
ENDBRANCH   5   6
ENDBRANCH   4   5
ENDBRANCH   3   4
ENDBRANCH   2   3
ENDBRANCH   1   2
BRANCH   1  15
ATOM     15  C   UNL     1     -12.616  38.127 -13.717  1.00  0.00     0.000 C 
BRANCH  15  16
ATOM     16  C   UNL     1     -11.536  39.081 -13.183  1.00  0.00     0.000 C 
BRANCH  16  17
ATOM     17  C   UNL     1     -12.096  40.112 -12.185  1.00  0.00     0.000 C 
BRANCH  17  18
ATOM     18  C   UNL     1     -11.392  41.475 -12.292  1.00  0.00    -0.000 C 
BRANCH  18  19
ATOM     19  C   UNL     1     -11.202  42.150 -10.923  1.00  0.00    -0.000 C 
BRANCH  19  20
ATOM     20  C   UNL     1     -11.008  41.141  -9.777  1.00  0.00    -0.000 C 
BRANCH  20  21
ATOM     21  C   UNL     1      -9.641  41.210  -9.072  1.00  0.00    -0.000 C 
BRANCH  21  22
ATOM     22  C   UNL     1      -9.750  41.586  -7.585  1.00  0.00    -0.000 C 
BRANCH  22  23
ATOM     23  C   UNL     1     -10.839  42.641  -7.329  1.00  0.00    -0.000 C 
BRANCH  23  24
ATOM     24  C   UNL     1     -11.596  42.399  -6.015  1.00  0.00    -0.000 C 
BRANCH  24  25
ATOM     25  C   UNL     1     -12.625  41.272  -6.178  1.00  0.00    -0.003 C 
ATOM     26  C   UNL     1     -13.699  41.647  -7.193  1.00  0.00     0.004 C 
ENDBRANCH  24  25
ENDBRANCH  23  24
ENDBRANCH  22  23
ENDBRANCH  21  22
ENDBRANCH  20  21
ENDBRANCH  19  20
ENDBRANCH  18  19
ENDBRANCH  17  18
ENDBRANCH  16  17
ENDBRANCH  15  16
ENDBRANCH   1  15
TORSDOF 22
ENDMDL
MODEL 6
REMARK VINA RESULT:    22.827      0.956      1.958
REMARK INTER + INTRA:          51.254
REMARK INTER:                  52.296
REMARK INTRA:                  -1.042
REMARK UNBOUND:                -0.931
REMARK SMILES CCCCCCCCCCCCCCCCCCCCCCCC(=O)[O-]
REMARK SMILES IDX 13 1 14 2 15 3 16 4 17 5 18 6 19 7 20 8 21 9 22 10 23 11
REMARK SMILES IDX 24 12 25 13 26 14 12 15 11 16 10 17 9 18 8 19 7 20 6 21 5 22
REMARK SMILES IDX 4 23 3 24 2 25 1 26
REMARK H PARENT
REMARK Flexibility Score: inf
ROOT
ATOM      1  C   UNL     1     -12.534  36.225 -12.208  1.00  0.00     0.000 C 
ENDROOT
BRANCH   1   2
ATOM      2  C   UNL     1     -12.452  37.167 -13.427  1.00  0.00     0.000 C 
BRANCH   2   3
ATOM      3  C   UNL     1     -12.684  38.653 -13.092  1.00  0.00     0.000 C 
BRANCH   3   4
ATOM      4  C   UNL     1     -11.414  39.467 -12.796  1.00  0.00     0.000 C 
BRANCH   4   5
ATOM      5  C   UNL     1     -11.714  40.928 -12.415  1.00  0.00     0.000 C 
BRANCH   5   6
ATOM      6  C   UNL     1     -11.774  41.149 -10.893  1.00  0.00     0.000 C 
BRANCH   6   7
ATOM      7  C   UNL     1     -10.469  40.846 -10.136  1.00  0.00     0.000 C 
BRANCH   7   8
ATOM      8  C   UNL     1     -10.122  41.913  -9.084  1.00  0.00     0.000 C 
BRANCH   8   9
ATOM      9  C   UNL     1      -9.463  41.302  -7.827  1.00  0.00     0.000 C 
BRANCH   9  10
ATOM     10  C   UNL     1     -10.296  41.487  -6.544  1.00  0.00     0.006 C 
BRANCH  10  11
ATOM     11  C   UNL     1     -11.476  42.457  -6.696  1.00  0.00     0.053 C 
BRANCH  11  12
ATOM     12  C   UNL     1     -12.796  41.751  -6.616  1.00  0.00     0.041 C 
ATOM     13  O   UNL     1     -13.506  41.620  -7.647  1.00  0.00    -0.550 OA
ATOM     14  O   UNL     1     -13.242  41.239  -5.404  1.00  0.00    -0.550 OA
ENDBRANCH  11  12
ENDBRANCH  10  11
ENDBRANCH   9  10
ENDBRANCH   8   9
ENDBRANCH   7   8
ENDBRANCH   6   7
ENDBRANCH   5   6
ENDBRANCH   4   5
ENDBRANCH   3   4
ENDBRANCH   2   3
ENDBRANCH   1   2
BRANCH   1  15
ATOM     15  C   UNL     1     -13.639  35.165 -12.356  1.00  0.00     0.000 C 
BRANCH  15  16
ATOM     16  C   UNL     1     -14.036  34.529 -11.015  1.00  0.00     0.000 C 
BRANCH  16  17
ATOM     17  C   UNL     1     -14.799  33.203 -11.189  1.00  0.00     0.000 C 
BRANCH  17  18
ATOM     18  C   UNL     1     -14.764  32.333  -9.921  1.00  0.00    -0.000 C 
BRANCH  18  19
ATOM     19  C   UNL     1     -13.374  32.309  -9.261  1.00  0.00    -0.000 C 
BRANCH  19  20
ATOM     20  C   UNL     1     -13.013  30.934  -8.671  1.00  0.00    -0.000 C 
BRANCH  20  21
ATOM     21  C   UNL     1     -11.567  30.473  -8.931  1.00  0.00    -0.000 C 
BRANCH  21  22
ATOM     22  C   UNL     1     -11.296  29.041  -8.440  1.00  0.00    -0.000 C 
BRANCH  22  23
ATOM     23  C   UNL     1     -10.555  29.017  -7.092  1.00  0.00    -0.000 C 
BRANCH  23  24
ATOM     24  C   UNL     1     -10.572  30.381  -6.387  1.00  0.00    -0.000 C 
BRANCH  24  25
ATOM     25  C   UNL     1     -11.758  30.480  -5.419  1.00  0.00    -0.003 C 
ATOM     26  C   UNL     1     -12.140  29.108  -4.871  1.00  0.00     0.004 C 
ENDBRANCH  24  25
ENDBRANCH  23  24
ENDBRANCH  22  23
ENDBRANCH  21  22
ENDBRANCH  20  21
ENDBRANCH  19  20
ENDBRANCH  18  19
ENDBRANCH  17  18
ENDBRANCH  16  17
ENDBRANCH  15  16
ENDBRANCH   1  15
TORSDOF 22
ENDMDL
MODEL 7
REMARK VINA RESULT:    23.113      1.201      2.712
REMARK INTER + INTRA:          51.908
REMARK INTER:                  52.881
REMARK INTRA:                  -0.973
REMARK UNBOUND:                -0.931
REMARK SMILES CCCCCCCCCCCCCCCCCCCCCCCC(=O)[O-]
REMARK SMILES IDX 13 1 14 2 15 3 16 4 17 5 18 6 19 7 20 8 21 9 22 10 23 11
REMARK SMILES IDX 24 12 25 13 26 14 12 15 11 16 10 17 9 18 8 19 7 20 6 21 5 22
REMARK SMILES IDX 4 23 3 24 2 25 1 26
REMARK H PARENT
REMARK Flexibility Score: inf
ROOT
ATOM      1  C   UNL     1     -13.068  35.246 -12.419  1.00  0.00     0.000 C 
ENDROOT
BRANCH   1   2
ATOM      2  C   UNL     1     -12.870  36.776 -12.392  1.00  0.00     0.000 C 
BRANCH   2   3
ATOM      3  C   UNL     1     -12.863  37.436 -13.784  1.00  0.00     0.000 C 
BRANCH   3   4
ATOM      4  C   UNL     1     -12.105  38.770 -13.876  1.00  0.00     0.000 C 
BRANCH   4   5
ATOM      5  C   UNL     1     -10.705  38.709 -13.238  1.00  0.00     0.000 C 
BRANCH   5   6
ATOM      6  C   UNL     1     -10.515  39.741 -12.112  1.00  0.00     0.000 C 
BRANCH   6   7
ATOM      7  C   UNL     1     -11.595  40.834 -12.038  1.00  0.00     0.000 C 
BRANCH   7   8
ATOM      8  C   UNL     1     -11.696  41.485 -10.648  1.00  0.00     0.000 C 
BRANCH   8   9
ATOM      9  C   UNL     1     -10.559  41.030  -9.705  1.00  0.00     0.000 C 
BRANCH   9  10
ATOM     10  C   UNL     1     -10.277  42.019  -8.558  1.00  0.00     0.006 C 
BRANCH  10  11
ATOM     11  C   UNL     1     -10.492  41.432  -7.156  1.00  0.00     0.053 C 
BRANCH  11  12
ATOM     12  C   UNL     1     -11.789  41.881  -6.553  1.00  0.00     0.041 C 
ATOM     13  O   UNL     1     -11.790  42.599  -5.519  1.00  0.00    -0.550 OA
ATOM     14  O   UNL     1     -12.995  41.506  -7.131  1.00  0.00    -0.550 OA
ENDBRANCH  11  12
ENDBRANCH  10  11
ENDBRANCH   9  10
ENDBRANCH   8   9
ENDBRANCH   7   8
ENDBRANCH   6   7
ENDBRANCH   5   6
ENDBRANCH   4   5
ENDBRANCH   3   4
ENDBRANCH   2   3
ENDBRANCH   1   2
BRANCH   1  15
ATOM     15  C   UNL     1     -13.594  34.696 -11.081  1.00  0.00     0.000 C 
BRANCH  15  16
ATOM     16  C   UNL     1     -14.252  33.315 -11.225  1.00  0.00     0.000 C 
BRANCH  16  17
ATOM     17  C   UNL     1     -15.122  32.942 -10.010  1.00  0.00     0.000 C 
BRANCH  17  18
ATOM     18  C   UNL     1     -14.501  31.816  -9.166  1.00  0.00    -0.000 C 
BRANCH  18  19
ATOM     19  C   UNL     1     -12.980  31.699  -9.366  1.00  0.00    -0.000 C 
BRANCH  19  20
ATOM     20  C   UNL     1     -12.305  30.790  -8.323  1.00  0.00    -0.000 C 
BRANCH  20  21
ATOM     21  C   UNL     1     -11.503  29.613  -8.907  1.00  0.00    -0.000 C 
BRANCH  21  22
ATOM     22  C   UNL     1     -10.285  29.231  -8.048  1.00  0.00    -0.000 C 
BRANCH  22  23
ATOM     23  C   UNL     1     -10.402  29.752  -6.606  1.00  0.00    -0.000 C 
BRANCH  23  24
ATOM     24  C   UNL     1     -11.490  29.024  -5.803  1.00  0.00    -0.000 C 
BRANCH  24  25
ATOM     25  C   UNL     1     -12.352  30.022  -5.020  1.00  0.00    -0.003 C 
ATOM     26  C   UNL     1     -11.573  31.295  -4.702  1.00  0.00     0.004 C 
ENDBRANCH  24  25
ENDBRANCH  23  24
ENDBRANCH  22  23
ENDBRANCH  21  22
ENDBRANCH  20  21
ENDBRANCH  19  20
ENDBRANCH  18  19
ENDBRANCH  17  18
ENDBRANCH  16  17
ENDBRANCH  15  16
ENDBRANCH   1  15
TORSDOF 22
ENDMDL
MODEL 8
REMARK VINA RESULT:    23.218      1.843      4.542
REMARK INTER + INTRA:          52.147
REMARK INTER:                  52.855
REMARK INTRA:                  -0.708
REMARK UNBOUND:                -0.931
REMARK SMILES CCCCCCCCCCCCCCCCCCCCCCCC(=O)[O-]
REMARK SMILES IDX 13 1 14 2 15 3 16 4 17 5 18 6 19 7 20 8 21 9 22 10 23 11
REMARK SMILES IDX 24 12 25 13 26 14 12 15 11 16 10 17 9 18 8 19 7 20 6 21 5 22
REMARK SMILES IDX 4 23 3 24 2 25 1 26
REMARK H PARENT
REMARK Flexibility Score: inf
ROOT
ATOM      1  C   UNL     1     -13.987  33.699 -10.379  1.00  0.00     0.000 C 
ENDROOT
BRANCH   1   2
ATOM      2  C   UNL     1     -14.482  34.349 -11.688  1.00  0.00     0.000 C 
BRANCH   2   3
ATOM      3  C   UNL     1     -13.364  34.979 -12.540  1.00  0.00     0.000 C 
BRANCH   3   4
ATOM      4  C   UNL     1     -13.116  36.477 -12.297  1.00  0.00     0.000 C 
BRANCH   4   5
ATOM      5  C   UNL     1     -12.031  37.063 -13.218  1.00  0.00     0.000 C 
BRANCH   5   6
ATOM      6  C   UNL     1     -12.228  38.564 -13.495  1.00  0.00     0.000 C 
BRANCH   6   7
ATOM      7  C   UNL     1     -11.260  39.500 -12.750  1.00  0.00     0.000 C 
BRANCH   7   8
ATOM      8  C   UNL     1     -11.977  40.651 -12.025  1.00  0.00     0.000 C 
BRANCH   8   9
ATOM      9  C   UNL     1     -11.115  41.255 -10.892  1.00  0.00     0.000 C 
BRANCH   9  10
ATOM     10  C   UNL     1     -11.911  41.562  -9.610  1.00  0.00     0.006 C 
BRANCH  10  11
ATOM     11  C   UNL     1     -11.094  41.423  -8.317  1.00  0.00     0.053 C 
BRANCH  11  12
ATOM     12  C   UNL     1     -11.916  41.722  -7.100  1.00  0.00     0.041 C 
ATOM     13  O   UNL     1     -13.156  41.501  -7.104  1.00  0.00    -0.550 OA
ATOM     14  O   UNL     1     -11.315  42.244  -5.962  1.00  0.00    -0.550 OA
ENDBRANCH  11  12
ENDBRANCH  10  11
ENDBRANCH   9  10
ENDBRANCH   8   9
ENDBRANCH   7   8
ENDBRANCH   6   7
ENDBRANCH   5   6
ENDBRANCH   4   5
ENDBRANCH   3   4
ENDBRANCH   2   3
ENDBRANCH   1   2
BRANCH   1  15
ATOM     15  C   UNL     1     -14.849  32.496  -9.957  1.00  0.00     0.000 C 
BRANCH  15  16
ATOM     16  C   UNL     1     -14.187  31.649  -8.858  1.00  0.00     0.000 C 
BRANCH  16  17
ATOM     17  C   UNL     1     -12.741  31.251  -9.205  1.00  0.00     0.000 C 
BRANCH  17  18
ATOM     18  C   UNL     1     -11.949  30.780  -7.973  1.00  0.00    -0.000 C 
BRANCH  18  19
ATOM     19  C   UNL     1     -11.209  29.454  -8.219  1.00  0.00    -0.000 C 
BRANCH  19  20
ATOM     20  C   UNL     1     -10.350  29.013  -7.020  1.00  0.00    -0.000 C 
BRANCH  20  21
ATOM     21  C   UNL     1      -8.909  29.553  -7.017  1.00  0.00    -0.000 C 
BRANCH  21  22
ATOM     22  C   UNL     1      -8.826  31.049  -7.369  1.00  0.00    -0.000 C 
BRANCH  22  23
ATOM     23  C   UNL     1      -7.793  31.331  -8.473  1.00  0.00    -0.000 C 
BRANCH  23  24
ATOM     24  C   UNL     1      -7.699  32.824  -8.823  1.00  0.00    -0.000 C 
BRANCH  24  25
ATOM     25  C   UNL     1      -6.448  33.110  -9.662  1.00  0.00    -0.003 C 
ATOM     26  C   UNL     1      -6.812  33.401 -11.115  1.00  0.00     0.004 C 
ENDBRANCH  24  25
ENDBRANCH  23  24
ENDBRANCH  22  23
ENDBRANCH  21  22
ENDBRANCH  20  21
ENDBRANCH  19  20
ENDBRANCH  18  19
ENDBRANCH  17  18
ENDBRANCH  16  17
ENDBRANCH  15  16
ENDBRANCH   1  15
TORSDOF 22
ENDMDL
MODEL 9
REMARK VINA RESULT:    24.101      1.764      2.299
REMARK INTER + INTRA:          54.168
REMARK INTER:                  54.209
REMARK INTRA:                  -0.042
REMARK UNBOUND:                -0.931
REMARK SMILES CCCCCCCCCCCCCCCCCCCCCCCC(=O)[O-]
REMARK SMILES IDX 13 1 14 2 15 3 16 4 17 5 18 6 19 7 20 8 21 9 22 10 23 11
REMARK SMILES IDX 24 12 25 13 26 14 12 15 11 16 10 17 9 18 8 19 7 20 6 21 5 22
REMARK SMILES IDX 4 23 3 24 2 25 1 26
REMARK H PARENT
REMARK Flexibility Score: inf
ROOT
ATOM      1  C   UNL     1     -12.613  37.493 -13.359  1.00  0.00     0.000 C 
ENDROOT
BRANCH   1   2
ATOM      2  C   UNL     1     -11.192  38.018 -13.652  1.00  0.00     0.000 C 
BRANCH   2   3
ATOM      3  C   UNL     1     -11.015  39.528 -13.403  1.00  0.00     0.000 C 
BRANCH   3   4
ATOM      4  C   UNL     1     -11.340  40.002 -11.977  1.00  0.00     0.000 C 
BRANCH   4   5
ATOM      5  C   UNL     1     -11.751  41.485 -11.918  1.00  0.00     0.000 C 
BRANCH   5   6
ATOM      6  C   UNL     1     -12.626  41.815 -10.696  1.00  0.00     0.000 C 
BRANCH   6   7
ATOM      7  C   UNL     1     -12.102  41.280  -9.352  1.00  0.00     0.000 C 
BRANCH   7   8
ATOM      8  C   UNL     1     -13.012  41.641  -8.165  1.00  0.00     0.000 C 
BRANCH   8   9
ATOM      9  C   UNL     1     -12.264  41.581  -6.815  1.00  0.00     0.000 C 
BRANCH   9  10
ATOM     10  C   UNL     1     -11.103  42.589  -6.708  1.00  0.00     0.006 C 
BRANCH  10  11
ATOM     11  C   UNL     1      -9.975  42.356  -7.722  1.00  0.00     0.053 C 
BRANCH  11  12
ATOM     12  C   UNL     1      -9.010  41.307  -7.257  1.00  0.00     0.041 C 
ATOM     13  O   UNL     1      -9.257  40.636  -6.222  1.00  0.00    -0.550 OA
ATOM     14  O   UNL     1      -7.840  41.072  -7.966  1.00  0.00    -0.550 OA
ENDBRANCH  11  12
ENDBRANCH  10  11
ENDBRANCH   9  10
ENDBRANCH   8   9
ENDBRANCH   7   8
ENDBRANCH   6   7
ENDBRANCH   5   6
ENDBRANCH   4   5
ENDBRANCH   3   4
ENDBRANCH   2   3
ENDBRANCH   1   2
BRANCH   1  15
ATOM     15  C   UNL     1     -12.613  36.024 -12.896  1.00  0.00     0.000 C 
BRANCH  15  16
ATOM     16  C   UNL     1     -13.659  35.747 -11.805  1.00  0.00     0.000 C 
BRANCH  16  17
ATOM     17  C   UNL     1     -13.971  34.247 -11.649  1.00  0.00     0.000 C 
BRANCH  17  18
ATOM     18  C   UNL     1     -14.413  33.884 -10.221  1.00  0.00    -0.000 C 
BRANCH  18  19
ATOM     19  C   UNL     1     -14.655  32.375 -10.045  1.00  0.00    -0.000 C 
BRANCH  19  20
ATOM     20  C   UNL     1     -14.135  31.836  -8.700  1.00  0.00    -0.000 C 
BRANCH  20  21
ATOM     21  C   UNL     1     -12.813  31.051  -8.780  1.00  0.00    -0.000 C 
BRANCH  21  22
ATOM     22  C   UNL     1     -12.142  30.863  -7.409  1.00  0.00    -0.000 C 
BRANCH  22  23
ATOM     23  C   UNL     1     -11.922  29.380  -7.066  1.00  0.00    -0.000 C 
BRANCH  23  24
ATOM     24  C   UNL     1     -10.563  28.858  -7.556  1.00  0.00    -0.000 C 
BRANCH  24  25
ATOM     25  C   UNL     1      -9.664  30.015  -8.008  1.00  0.00    -0.003 C 
ATOM     26  C   UNL     1      -8.773  30.500  -6.868  1.00  0.00     0.004 C 
ENDBRANCH  24  25
ENDBRANCH  23  24
ENDBRANCH  22  23
ENDBRANCH  21  22
ENDBRANCH  20  21
ENDBRANCH  19  20
ENDBRANCH  18  19
ENDBRANCH  17  18
ENDBRANCH  16  17
ENDBRANCH  15  16
ENDBRANCH   1  15
TORSDOF 22
ENDMDL
