MODEL 1
REMARK VINA RESULT:    -5.109      0.000      0.000
REMARK INTER + INTRA:         -14.134
REMARK INTER:                 -11.679
REMARK INTRA:                  -2.455
REMARK UNBOUND:                -2.455
REMARK SMILES CCCCCCCCCCCCCCCCCCCCCCCC(=O)[O-]
REMARK SMILES IDX 13 1 14 2 15 3 16 4 17 5 18 6 19 7 20 8 21 9 22 10 23 11
REMARK SMILES IDX 24 12 25 13 26 14 12 15 11 16 10 17 9 18 8 19 7 20 6 21 5 22
REMARK SMILES IDX 4 23 3 24 2 25 1 26
REMARK H PARENT
REMARK Flexibility Score: inf
ROOT
ATOM      1  C   UNL     1      21.963 119.947 295.798  1.00  0.00     0.000 C 
ENDROOT
BRANCH   1   2
ATOM      2  C   UNL     1      23.370 120.351 295.331  1.00  0.00     0.000 C 
BRANCH   2   3
ATOM      3  C   UNL     1      24.489 119.792 296.227  1.00  0.00     0.000 C 
BRANCH   3   4
ATOM      4  C   UNL     1      25.854 120.491 296.088  1.00  0.00     0.000 C 
BRANCH   4   5
ATOM      5  C   UNL     1      25.875 121.557 294.980  1.00  0.00     0.000 C 
BRANCH   5   6
ATOM      6  C   UNL     1      26.802 121.177 293.815  1.00  0.00     0.000 C 
BRANCH   6   7
ATOM      7  C   UNL     1      26.162 120.155 292.858  1.00  0.00     0.000 C 
BRANCH   7   8
ATOM      8  C   UNL     1      26.473 118.699 293.268  1.00  0.00     0.000 C 
BRANCH   8   9
ATOM      9  C   UNL     1      25.332 117.709 292.969  1.00  0.00     0.000 C 
BRANCH   9  10
ATOM     10  C   UNL     1      24.384 118.200 291.866  1.00  0.00     0.006 C 
BRANCH  10  11
ATOM     11  C   UNL     1      24.438 117.282 290.636  1.00  0.00     0.053 C 
BRANCH  11  12
ATOM     12  C   UNL     1      24.065 118.026 289.391  1.00  0.00     0.041 C 
ATOM     13  O   UNL     1      23.079 117.659 288.698  1.00  0.00    -0.550 OA
ATOM     14  O   UNL     1      24.837 119.104 288.970  1.00  0.00    -0.550 OA
ENDBRANCH  11  12
ENDBRANCH  10  11
ENDBRANCH   9  10
ENDBRANCH   8   9
ENDBRANCH   7   8
ENDBRANCH   6   7
ENDBRANCH   5   6
ENDBRANCH   4   5
ENDBRANCH   3   4
ENDBRANCH   2   3
ENDBRANCH   1   2
BRANCH   1  15
ATOM     15  C   UNL     1      21.466 118.642 295.146  1.00  0.00     0.000 C 
BRANCH  15  16
ATOM     16  C   UNL     1      21.939 117.365 295.871  1.00  0.00     0.000 C 
BRANCH  16  17
ATOM     17  C   UNL     1      21.246 117.178 297.233  1.00  0.00     0.000 C 
BRANCH  17  18
ATOM     18  C   UNL     1      19.743 117.518 297.200  1.00  0.00    -0.000 C 
BRANCH  18  19
ATOM     19  C   UNL     1      18.834 116.403 296.645  1.00  0.00    -0.000 C 
BRANCH  19  20
ATOM     20  C   UNL     1      17.489 116.929 296.109  1.00  0.00    -0.000 C 
BRANCH  20  21
ATOM     21  C   UNL     1      17.639 118.301 295.412  1.00  0.00    -0.000 C 
BRANCH  21  22
ATOM     22  C   UNL     1      17.380 118.255 293.892  1.00  0.00    -0.000 C 
BRANCH  22  23
ATOM     23  C   UNL     1      18.270 117.272 293.111  1.00  0.00    -0.000 C 
BRANCH  23  24
ATOM     24  C   UNL     1      17.462 116.229 292.318  1.00  0.00    -0.000 C 
BRANCH  24  25
ATOM     25  C   UNL     1      18.150 115.840 291.000  1.00  0.00    -0.003 C 
ATOM     26  C   UNL     1      17.406 114.740 290.243  1.00  0.00     0.004 C 
ENDBRANCH  24  25
ENDBRANCH  23  24
ENDBRANCH  22  23
ENDBRANCH  21  22
ENDBRANCH  20  21
ENDBRANCH  19  20
ENDBRANCH  18  19
ENDBRANCH  17  18
ENDBRANCH  16  17
ENDBRANCH  15  16
ENDBRANCH   1  15
TORSDOF 22
ENDMDL
MODEL 2
REMARK VINA RESULT:    -5.011      1.816      3.142
REMARK INTER + INTRA:         -13.910
REMARK INTER:                 -11.789
REMARK INTRA:                  -2.122
REMARK UNBOUND:                -2.455
REMARK SMILES CCCCCCCCCCCCCCCCCCCCCCCC(=O)[O-]
REMARK SMILES IDX 13 1 14 2 15 3 16 4 17 5 18 6 19 7 20 8 21 9 22 10 23 11
REMARK SMILES IDX 24 12 25 13 26 14 12 15 11 16 10 17 9 18 8 19 7 20 6 21 5 22
REMARK SMILES IDX 4 23 3 24 2 25 1 26
REMARK H PARENT
REMARK Flexibility Score: inf
ROOT
ATOM      1  C   UNL     1      19.796 119.258 296.002  1.00  0.00     0.000 C 
ENDROOT
BRANCH   1   2
ATOM      2  C   UNL     1      20.967 120.112 296.512  1.00  0.00     0.000 C 
BRANCH   2   3
ATOM      3  C   UNL     1      22.229 119.287 296.817  1.00  0.00     0.000 C 
BRANCH   3   4
ATOM      4  C   UNL     1      22.194 117.827 296.329  1.00  0.00     0.000 C 
BRANCH   4   5
ATOM      5  C   UNL     1      22.590 117.677 294.850  1.00  0.00     0.000 C 
BRANCH   5   6
ATOM      6  C   UNL     1      23.701 118.656 294.436  1.00  0.00     0.000 C 
BRANCH   6   7
ATOM      7  C   UNL     1      24.724 118.018 293.479  1.00  0.00     0.000 C 
BRANCH   7   8
ATOM      8  C   UNL     1      25.070 118.944 292.294  1.00  0.00     0.000 C 
BRANCH   8   9
ATOM      9  C   UNL     1      25.509 118.195 291.023  1.00  0.00     0.000 C 
BRANCH   9  10
ATOM     10  C   UNL     1      24.350 117.928 290.052  1.00  0.00     0.006 C 
BRANCH  10  11
ATOM     11  C   UNL     1      24.653 118.489 288.655  1.00  0.00     0.053 C 
BRANCH  11  12
ATOM     12  C   UNL     1      23.390 118.772 287.902  1.00  0.00     0.041 C 
ATOM     13  O   UNL     1      22.809 117.857 287.261  1.00  0.00    -0.550 OA
ATOM     14  O   UNL     1      22.875 120.064 287.874  1.00  0.00    -0.550 OA
ENDBRANCH  11  12
ENDBRANCH  10  11
ENDBRANCH   9  10
ENDBRANCH   8   9
ENDBRANCH   7   8
ENDBRANCH   6   7
ENDBRANCH   5   6
ENDBRANCH   4   5
ENDBRANCH   3   4
ENDBRANCH   2   3
ENDBRANCH   1   2
BRANCH   1  15
ATOM     15  C   UNL     1      19.135 119.839 294.736  1.00  0.00     0.000 C 
BRANCH  15  16
ATOM     16  C   UNL     1      17.839 120.628 295.018  1.00  0.00     0.000 C 
BRANCH  16  17
ATOM     17  C   UNL     1      16.811 120.482 293.882  1.00  0.00     0.000 C 
BRANCH  17  18
ATOM     18  C   UNL     1      15.487 119.842 294.342  1.00  0.00    -0.000 C 
BRANCH  18  19
ATOM     19  C   UNL     1      15.562 119.076 295.678  1.00  0.00    -0.000 C 
BRANCH  19  20
ATOM     20  C   UNL     1      15.575 117.546 295.499  1.00  0.00    -0.000 C 
BRANCH  20  21
ATOM     21  C   UNL     1      17.009 116.995 295.323  1.00  0.00    -0.000 C 
BRANCH  21  22
ATOM     22  C   UNL     1      17.194 116.147 294.047  1.00  0.00    -0.000 C 
BRANCH  22  23
ATOM     23  C   UNL     1      17.349 116.956 292.746  1.00  0.00    -0.000 C 
BRANCH  23  24
ATOM     24  C   UNL     1      18.295 116.289 291.733  1.00  0.00    -0.000 C 
BRANCH  24  25
ATOM     25  C   UNL     1      17.553 115.799 290.479  1.00  0.00    -0.003 C 
ATOM     26  C   UNL     1      17.140 114.330 290.569  1.00  0.00     0.004 C 
ENDBRANCH  24  25
ENDBRANCH  23  24
ENDBRANCH  22  23
ENDBRANCH  21  22
ENDBRANCH  20  21
ENDBRANCH  19  20
ENDBRANCH  18  19
ENDBRANCH  17  18
ENDBRANCH  16  17
ENDBRANCH  15  16
ENDBRANCH   1  15
TORSDOF 22
ENDMDL
MODEL 3
REMARK VINA RESULT:    -4.985      3.999      5.891
REMARK INTER + INTRA:         -13.851
REMARK INTER:                 -11.651
REMARK INTRA:                  -2.200
REMARK UNBOUND:                -2.455
REMARK SMILES CCCCCCCCCCCCCCCCCCCCCCCC(=O)[O-]
REMARK SMILES IDX 13 1 14 2 15 3 16 4 17 5 18 6 19 7 20 8 21 9 22 10 23 11
REMARK SMILES IDX 24 12 25 13 26 14 12 15 11 16 10 17 9 18 8 19 7 20 6 21 5 22
REMARK SMILES IDX 4 23 3 24 2 25 1 26
REMARK H PARENT
REMARK Flexibility Score: inf
ROOT
ATOM      1  C   UNL     1      22.673 118.440 299.213  1.00  0.00     0.000 C 
ENDROOT
BRANCH   1   2
ATOM      2  C   UNL     1      21.475 118.592 300.164  1.00  0.00     0.000 C 
BRANCH   2   3
ATOM      3  C   UNL     1      21.612 119.788 301.122  1.00  0.00     0.000 C 
BRANCH   3   4
ATOM      4  C   UNL     1      22.269 121.043 300.518  1.00  0.00     0.000 C 
BRANCH   4   5
ATOM      5  C   UNL     1      23.228 121.748 301.491  1.00  0.00     0.000 C 
BRANCH   5   6
ATOM      6  C   UNL     1      23.660 120.841 302.654  1.00  0.00     0.000 C 
BRANCH   6   7
ATOM      7  C   UNL     1      24.869 119.958 302.297  1.00  0.00     0.000 C 
BRANCH   7   8
ATOM      8  C   UNL     1      26.198 120.742 302.346  1.00  0.00     0.000 C 
BRANCH   8   9
ATOM      9  C   UNL     1      26.869 120.920 300.972  1.00  0.00     0.000 C 
BRANCH   9  10
ATOM     10  C   UNL     1      26.620 119.739 300.024  1.00  0.00     0.006 C 
BRANCH  10  11
ATOM     11  C   UNL     1      25.836 120.179 298.780  1.00  0.00     0.053 C 
BRANCH  11  12
ATOM     12  C   UNL     1      26.417 119.579 297.536  1.00  0.00     0.041 C 
ATOM     13  O   UNL     1      27.650 119.335 297.460  1.00  0.00    -0.550 OA
ATOM     14  O   UNL     1      25.598 119.328 296.440  1.00  0.00    -0.550 OA
ENDBRANCH  11  12
ENDBRANCH  10  11
ENDBRANCH   9  10
ENDBRANCH   8   9
ENDBRANCH   7   8
ENDBRANCH   6   7
ENDBRANCH   5   6
ENDBRANCH   4   5
ENDBRANCH   3   4
ENDBRANCH   2   3
ENDBRANCH   1   2
BRANCH   1  15
ATOM     15  C   UNL     1      22.266 118.462 297.727  1.00  0.00     0.000 C 
BRANCH  15  16
ATOM     16  C   UNL     1      21.981 117.063 297.140  1.00  0.00     0.000 C 
BRANCH  16  17
ATOM     17  C   UNL     1      20.528 116.615 297.382  1.00  0.00     0.000 C 
BRANCH  17  18
ATOM     18  C   UNL     1      19.547 117.135 296.314  1.00  0.00    -0.000 C 
BRANCH  18  19
ATOM     19  C   UNL     1      18.597 118.253 296.789  1.00  0.00    -0.000 C 
BRANCH  19  20
ATOM     20  C   UNL     1      17.110 117.861 296.702  1.00  0.00    -0.000 C 
BRANCH  20  21
ATOM     21  C   UNL     1      16.805 117.018 295.443  1.00  0.00    -0.000 C 
BRANCH  21  22
ATOM     22  C   UNL     1      16.733 117.848 294.145  1.00  0.00    -0.000 C 
BRANCH  22  23
ATOM     23  C   UNL     1      17.725 117.424 293.047  1.00  0.00    -0.000 C 
BRANCH  23  24
ATOM     24  C   UNL     1      17.407 116.042 292.450  1.00  0.00    -0.000 C 
BRANCH  24  25
ATOM     25  C   UNL     1      18.143 115.798 291.123  1.00  0.00    -0.003 C 
ATOM     26  C   UNL     1      17.469 114.735 290.256  1.00  0.00     0.004 C 
ENDBRANCH  24  25
ENDBRANCH  23  24
ENDBRANCH  22  23
ENDBRANCH  21  22
ENDBRANCH  20  21
ENDBRANCH  19  20
ENDBRANCH  18  19
ENDBRANCH  17  18
ENDBRANCH  16  17
ENDBRANCH  15  16
ENDBRANCH   1  15
TORSDOF 22
ENDMDL
MODEL 4
REMARK VINA RESULT:    -4.895      3.546      5.027
REMARK INTER + INTRA:         -13.646
REMARK INTER:                 -11.078
REMARK INTRA:                  -2.568
REMARK UNBOUND:                -2.455
REMARK SMILES CCCCCCCCCCCCCCCCCCCCCCCC(=O)[O-]
REMARK SMILES IDX 13 1 14 2 15 3 16 4 17 5 18 6 19 7 20 8 21 9 22 10 23 11
REMARK SMILES IDX 24 12 25 13 26 14 12 15 11 16 10 17 9 18 8 19 7 20 6 21 5 22
REMARK SMILES IDX 4 23 3 24 2 25 1 26
REMARK H PARENT
REMARK Flexibility Score: inf
ROOT
ATOM      1  C   UNL     1      23.315 119.319 300.170  1.00  0.00     0.000 C 
ENDROOT
BRANCH   1   2
ATOM      2  C   UNL     1      23.018 120.808 299.928  1.00  0.00     0.000 C 
BRANCH   2   3
ATOM      3  C   UNL     1      24.055 121.744 300.573  1.00  0.00     0.000 C 
BRANCH   3   4
ATOM      4  C   UNL     1      24.244 121.569 302.091  1.00  0.00     0.000 C 
BRANCH   4   5
ATOM      5  C   UNL     1      25.633 121.025 302.465  1.00  0.00     0.000 C 
BRANCH   5   6
ATOM      6  C   UNL     1      26.589 120.972 301.263  1.00  0.00     0.000 C 
BRANCH   6   7
ATOM      7  C   UNL     1      26.964 119.532 300.869  1.00  0.00     0.000 C 
BRANCH   7   8
ATOM      8  C   UNL     1      27.646 119.465 299.486  1.00  0.00     0.000 C 
BRANCH   8   9
ATOM      9  C   UNL     1      26.661 119.316 298.311  1.00  0.00     0.000 C 
BRANCH   9  10
ATOM     10  C   UNL     1      26.179 120.664 297.757  1.00  0.00     0.006 C 
BRANCH  10  11
ATOM     11  C   UNL     1      25.223 120.469 296.572  1.00  0.00     0.053 C 
BRANCH  11  12
ATOM     12  C   UNL     1      25.559 121.400 295.448  1.00  0.00     0.041 C 
ATOM     13  O   UNL     1      25.811 122.613 295.678  1.00  0.00    -0.550 OA
ATOM     14  O   UNL     1      25.551 120.936 294.137  1.00  0.00    -0.550 OA
ENDBRANCH  11  12
ENDBRANCH  10  11
ENDBRANCH   9  10
ENDBRANCH   8   9
ENDBRANCH   7   8
ENDBRANCH   6   7
ENDBRANCH   5   6
ENDBRANCH   4   5
ENDBRANCH   3   4
ENDBRANCH   2   3
ENDBRANCH   1   2
BRANCH   1  15
ATOM     15  C   UNL     1      22.504 118.388 299.249  1.00  0.00     0.000 C 
BRANCH  15  16
ATOM     16  C   UNL     1      23.309 117.844 298.050  1.00  0.00     0.000 C 
BRANCH  16  17
ATOM     17  C   UNL     1      22.407 117.169 297.001  1.00  0.00     0.000 C 
BRANCH  17  18
ATOM     18  C   UNL     1      20.905 117.385 297.264  1.00  0.00    -0.000 C 
BRANCH  18  19
ATOM     19  C   UNL     1      20.044 117.594 296.002  1.00  0.00    -0.000 C 
BRANCH  19  20
ATOM     20  C   UNL     1      18.986 118.701 296.166  1.00  0.00    -0.000 C 
BRANCH  20  21
ATOM     21  C   UNL     1      17.674 118.364 295.422  1.00  0.00    -0.000 C 
BRANCH  21  22
ATOM     22  C   UNL     1      17.300 116.869 295.473  1.00  0.00    -0.000 C 
BRANCH  22  23
ATOM     23  C   UNL     1      16.985 116.231 294.108  1.00  0.00    -0.000 C 
BRANCH  23  24
ATOM     24  C   UNL     1      17.775 116.866 292.950  1.00  0.00    -0.000 C 
BRANCH  24  25
ATOM     25  C   UNL     1      17.469 116.197 291.601  1.00  0.00    -0.003 C 
ATOM     26  C   UNL     1      18.724 115.692 290.889  1.00  0.00     0.004 C 
ENDBRANCH  24  25
ENDBRANCH  23  24
ENDBRANCH  22  23
ENDBRANCH  21  22
ENDBRANCH  20  21
ENDBRANCH  19  20
ENDBRANCH  18  19
ENDBRANCH  17  18
ENDBRANCH  16  17
ENDBRANCH  15  16
ENDBRANCH   1  15
TORSDOF 22
ENDMDL
MODEL 5
REMARK VINA RESULT:    -4.880      5.162      7.370
REMARK INTER + INTRA:         -13.612
REMARK INTER:                 -10.083
REMARK INTRA:                  -3.529
REMARK UNBOUND:                -2.455
REMARK SMILES CCCCCCCCCCCCCCCCCCCCCCCC(=O)[O-]
REMARK SMILES IDX 13 1 14 2 15 3 16 4 17 5 18 6 19 7 20 8 21 9 22 10 23 11
REMARK SMILES IDX 24 12 25 13 26 14 12 15 11 16 10 17 9 18 8 19 7 20 6 21 5 22
REMARK SMILES IDX 4 23 3 24 2 25 1 26
REMARK H PARENT
REMARK Flexibility Score: inf
ROOT
ATOM      1  C   UNL     1      19.478 117.728 296.304  1.00  0.00     0.000 C 
ENDROOT
BRANCH   1   2
ATOM      2  C   UNL     1      20.353 116.919 297.275  1.00  0.00     0.000 C 
BRANCH   2   3
ATOM      3  C   UNL     1      21.828 116.848 296.843  1.00  0.00     0.000 C 
BRANCH   3   4
ATOM      4  C   UNL     1      22.816 117.604 297.750  1.00  0.00     0.000 C 
BRANCH   4   5
ATOM      5  C   UNL     1      22.841 119.118 297.483  1.00  0.00     0.000 C 
BRANCH   5   6
ATOM      6  C   UNL     1      22.484 119.942 298.731  1.00  0.00     0.000 C 
BRANCH   6   7
ATOM      7  C   UNL     1      21.867 119.083 299.849  1.00  0.00     0.000 C 
BRANCH   7   8
ATOM      8  C   UNL     1      20.389 119.443 300.112  1.00  0.00     0.000 C 
BRANCH   8   9
ATOM      9  C   UNL     1      19.953 120.783 299.491  1.00  0.00     0.000 C 
BRANCH   9  10
ATOM     10  C   UNL     1      20.429 122.001 300.294  1.00  0.00     0.006 C 
BRANCH  10  11
ATOM     11  C   UNL     1      19.657 122.134 301.614  1.00  0.00     0.053 C 
BRANCH  11  12
ATOM     12  C   UNL     1      18.731 123.311 301.581  1.00  0.00     0.041 C 
ATOM     13  O   UNL     1      18.772 124.130 300.624  1.00  0.00    -0.550 OA
ATOM     14  O   UNL     1      17.847 123.527 302.633  1.00  0.00    -0.550 OA
ENDBRANCH  11  12
ENDBRANCH  10  11
ENDBRANCH   9  10
ENDBRANCH   8   9
ENDBRANCH   7   8
ENDBRANCH   6   7
ENDBRANCH   5   6
ENDBRANCH   4   5
ENDBRANCH   3   4
ENDBRANCH   2   3
ENDBRANCH   1   2
BRANCH   1  15
ATOM     15  C   UNL     1      20.247 118.203 295.056  1.00  0.00     0.000 C 
BRANCH  15  16
ATOM     16  C   UNL     1      20.010 119.688 294.708  1.00  0.00     0.000 C 
BRANCH  16  17
ATOM     17  C   UNL     1      19.588 120.513 295.937  1.00  0.00     0.000 C 
BRANCH  17  18
ATOM     18  C   UNL     1      18.183 121.131 295.799  1.00  0.00    -0.000 C 
BRANCH  18  19
ATOM     19  C   UNL     1      17.744 121.436 294.353  1.00  0.00    -0.000 C 
BRANCH  19  20
ATOM     20  C   UNL     1      16.501 120.637 293.916  1.00  0.00    -0.000 C 
BRANCH  20  21
ATOM     21  C   UNL     1      16.064 119.613 294.988  1.00  0.00    -0.000 C 
BRANCH  21  22
ATOM     22  C   UNL     1      16.354 118.148 294.601  1.00  0.00    -0.000 C 
BRANCH  22  23
ATOM     23  C   UNL     1      16.901 117.949 293.176  1.00  0.00    -0.000 C 
BRANCH  23  24
ATOM     24  C   UNL     1      17.638 116.610 292.997  1.00  0.00    -0.000 C 
BRANCH  24  25
ATOM     25  C   UNL     1      17.461 116.034 291.583  1.00  0.00    -0.003 C 
ATOM     26  C   UNL     1      18.791 115.725 290.896  1.00  0.00     0.004 C 
ENDBRANCH  24  25
ENDBRANCH  23  24
ENDBRANCH  22  23
ENDBRANCH  21  22
ENDBRANCH  20  21
ENDBRANCH  19  20
ENDBRANCH  18  19
ENDBRANCH  17  18
ENDBRANCH  16  17
ENDBRANCH  15  16
ENDBRANCH   1  15
TORSDOF 22
ENDMDL
MODEL 6
REMARK VINA RESULT:    -4.828      5.130      6.822
REMARK INTER + INTRA:         -13.494
REMARK INTER:                  -9.403
REMARK INTRA:                  -4.091
REMARK UNBOUND:                -2.455
REMARK SMILES CCCCCCCCCCCCCCCCCCCCCCCC(=O)[O-]
REMARK SMILES IDX 13 1 14 2 15 3 16 4 17 5 18 6 19 7 20 8 21 9 22 10 23 11
REMARK SMILES IDX 24 12 25 13 26 14 12 15 11 16 10 17 9 18 8 19 7 20 6 21 5 22
REMARK SMILES IDX 4 23 3 24 2 25 1 26
REMARK H PARENT
REMARK Flexibility Score: inf
ROOT
ATOM      1  C   UNL     1      18.649 121.369 295.955  1.00  0.00     0.000 C 
ENDROOT
BRANCH   1   2
ATOM      2  C   UNL     1      20.055 120.773 295.781  1.00  0.00     0.000 C 
BRANCH   2   3
ATOM      3  C   UNL     1      20.127 119.709 294.671  1.00  0.00     0.000 C 
BRANCH   3   4
ATOM      4  C   UNL     1      20.875 118.417 295.047  1.00  0.00     0.000 C 
BRANCH   4   5
ATOM      5  C   UNL     1      20.009 117.432 295.850  1.00  0.00     0.000 C 
BRANCH   5   6
ATOM      6  C   UNL     1      20.447 117.324 297.319  1.00  0.00     0.000 C 
BRANCH   6   7
ATOM      7  C   UNL     1      21.978 117.344 297.482  1.00  0.00     0.000 C 
BRANCH   7   8
ATOM      8  C   UNL     1      22.443 118.420 298.486  1.00  0.00     0.000 C 
BRANCH   8   9
ATOM      9  C   UNL     1      21.300 119.044 299.307  1.00  0.00     0.000 C 
BRANCH   9  10
ATOM     10  C   UNL     1      21.256 120.575 299.210  1.00  0.00     0.006 C 
BRANCH  10  11
ATOM     11  C   UNL     1      20.508 121.187 300.404  1.00  0.00     0.053 C 
BRANCH  11  12
ATOM     12  C   UNL     1      21.370 121.203 301.629  1.00  0.00     0.041 C 
ATOM     13  O   UNL     1      22.532 121.689 301.586  1.00  0.00    -0.550 OA
ATOM     14  O   UNL     1      20.903 120.641 302.812  1.00  0.00    -0.550 OA
ENDBRANCH  11  12
ENDBRANCH  10  11
ENDBRANCH   9  10
ENDBRANCH   8   9
ENDBRANCH   7   8
ENDBRANCH   6   7
ENDBRANCH   5   6
ENDBRANCH   4   5
ENDBRANCH   3   4
ENDBRANCH   2   3
ENDBRANCH   1   2
BRANCH   1  15
ATOM     15  C   UNL     1      18.405 121.927 297.370  1.00  0.00     0.000 C 
BRANCH  15  16
ATOM     16  C   UNL     1      17.402 121.098 298.201  1.00  0.00     0.000 C 
BRANCH  16  17
ATOM     17  C   UNL     1      17.620 119.584 298.034  1.00  0.00     0.000 C 
BRANCH  17  18
ATOM     18  C   UNL     1      16.393 118.855 297.451  1.00  0.00    -0.000 C 
BRANCH  18  19
ATOM     19  C   UNL     1      16.670 117.436 296.917  1.00  0.00    -0.000 C 
BRANCH  19  20
ATOM     20  C   UNL     1      16.301 117.265 295.432  1.00  0.00    -0.000 C 
BRANCH  20  21
ATOM     21  C   UNL     1      16.528 118.563 294.625  1.00  0.00    -0.000 C 
BRANCH  21  22
ATOM     22  C   UNL     1      17.144 118.327 293.230  1.00  0.00    -0.000 C 
BRANCH  22  23
ATOM     23  C   UNL     1      17.203 116.853 292.788  1.00  0.00    -0.000 C 
BRANCH  23  24
ATOM     24  C   UNL     1      18.492 116.507 292.021  1.00  0.00    -0.000 C 
BRANCH  24  25
ATOM     25  C   UNL     1      18.209 115.705 290.741  1.00  0.00    -0.003 C 
ATOM     26  C   UNL     1      17.169 114.603 290.948  1.00  0.00     0.004 C 
ENDBRANCH  24  25
ENDBRANCH  23  24
ENDBRANCH  22  23
ENDBRANCH  21  22
ENDBRANCH  20  21
ENDBRANCH  19  20
ENDBRANCH  18  19
ENDBRANCH  17  18
ENDBRANCH  16  17
ENDBRANCH  15  16
ENDBRANCH   1  15
TORSDOF 22
ENDMDL
MODEL 7
REMARK VINA RESULT:    -4.824      4.655      6.777
REMARK INTER + INTRA:         -13.483
REMARK INTER:                  -9.963
REMARK INTRA:                  -3.520
REMARK UNBOUND:                -2.455
REMARK SMILES CCCCCCCCCCCCCCCCCCCCCCCC(=O)[O-]
REMARK SMILES IDX 13 1 14 2 15 3 16 4 17 5 18 6 19 7 20 8 21 9 22 10 23 11
REMARK SMILES IDX 24 12 25 13 26 14 12 15 11 16 10 17 9 18 8 19 7 20 6 21 5 22
REMARK SMILES IDX 4 23 3 24 2 25 1 26
REMARK H PARENT
REMARK Flexibility Score: inf
ROOT
ATOM      1  C   UNL     1      15.773 122.086 292.649  1.00  0.00     0.000 C 
ENDROOT
BRANCH   1   2
ATOM      2  C   UNL     1      15.396 123.398 293.356  1.00  0.00     0.000 C 
BRANCH   2   3
ATOM      3  C   UNL     1      16.616 124.261 293.719  1.00  0.00     0.000 C 
BRANCH   3   4
ATOM      4  C   UNL     1      17.733 123.531 294.486  1.00  0.00     0.000 C 
BRANCH   4   5
ATOM      5  C   UNL     1      19.046 123.434 293.692  1.00  0.00     0.000 C 
BRANCH   5   6
ATOM      6  C   UNL     1      19.779 122.103 293.925  1.00  0.00     0.000 C 
BRANCH   6   7
ATOM      7  C   UNL     1      18.842 120.995 294.437  1.00  0.00     0.000 C 
BRANCH   7   8
ATOM      8  C   UNL     1      19.437 120.241 295.646  1.00  0.00     0.000 C 
BRANCH   8   9
ATOM      9  C   UNL     1      19.167 120.922 297.001  1.00  0.00     0.000 C 
BRANCH   9  10
ATOM     10  C   UNL     1      20.113 120.446 298.112  1.00  0.00     0.006 C 
BRANCH  10  11
ATOM     11  C   UNL     1      21.275 119.622 297.539  1.00  0.00     0.053 C 
BRANCH  11  12
ATOM     12  C   UNL     1      21.252 118.219 298.064  1.00  0.00     0.041 C 
ATOM     13  O   UNL     1      21.325 117.241 297.274  1.00  0.00    -0.550 OA
ATOM     14  O   UNL     1      21.106 117.992 299.428  1.00  0.00    -0.550 OA
ENDBRANCH  11  12
ENDBRANCH  10  11
ENDBRANCH   9  10
ENDBRANCH   8   9
ENDBRANCH   7   8
ENDBRANCH   6   7
ENDBRANCH   5   6
ENDBRANCH   4   5
ENDBRANCH   3   4
ENDBRANCH   2   3
ENDBRANCH   1   2
BRANCH   1  15
ATOM     15  C   UNL     1      15.303 120.835 293.416  1.00  0.00     0.000 C 
BRANCH  15  16
ATOM     16  C   UNL     1      14.651 121.149 294.780  1.00  0.00     0.000 C 
BRANCH  16  17
ATOM     17  C   UNL     1      15.562 120.769 295.961  1.00  0.00     0.000 C 
BRANCH  17  18
ATOM     18  C   UNL     1      15.156 119.446 296.638  1.00  0.00    -0.000 C 
BRANCH  18  19
ATOM     19  C   UNL     1      15.525 118.171 295.854  1.00  0.00    -0.000 C 
BRANCH  19  20
ATOM     20  C   UNL     1      16.899 117.595 296.246  1.00  0.00    -0.000 C 
BRANCH  20  21
ATOM     21  C   UNL     1      17.635 116.977 295.035  1.00  0.00    -0.000 C 
BRANCH  21  22
ATOM     22  C   UNL     1      17.376 117.720 293.708  1.00  0.00    -0.000 C 
BRANCH  22  23
ATOM     23  C   UNL     1      17.195 116.811 292.479  1.00  0.00    -0.000 C 
BRANCH  23  24
ATOM     24  C   UNL     1      18.530 116.404 291.830  1.00  0.00    -0.000 C 
BRANCH  24  25
ATOM     25  C   UNL     1      18.326 115.582 290.548  1.00  0.00    -0.003 C 
ATOM     26  C   UNL     1      17.203 114.553 290.674  1.00  0.00     0.004 C 
ENDBRANCH  24  25
ENDBRANCH  23  24
ENDBRANCH  22  23
ENDBRANCH  21  22
ENDBRANCH  20  21
ENDBRANCH  19  20
ENDBRANCH  18  19
ENDBRANCH  17  18
ENDBRANCH  16  17
ENDBRANCH  15  16
ENDBRANCH   1  15
TORSDOF 22
ENDMDL
MODEL 8
REMARK VINA RESULT:    -4.796      4.496      5.916
REMARK INTER + INTRA:         -13.419
REMARK INTER:                 -10.868
REMARK INTRA:                  -2.550
REMARK UNBOUND:                -2.455
REMARK SMILES CCCCCCCCCCCCCCCCCCCCCCCC(=O)[O-]
REMARK SMILES IDX 13 1 14 2 15 3 16 4 17 5 18 6 19 7 20 8 21 9 22 10 23 11
REMARK SMILES IDX 24 12 25 13 26 14 12 15 11 16 10 17 9 18 8 19 7 20 6 21 5 22
REMARK SMILES IDX 4 23 3 24 2 25 1 26
REMARK H PARENT
REMARK Flexibility Score: inf
ROOT
ATOM      1  C   UNL     1      21.156 121.773 300.661  1.00  0.00     0.000 C 
ENDROOT
BRANCH   1   2
ATOM      2  C   UNL     1      22.661 121.814 300.968  1.00  0.00     0.000 C 
BRANCH   2   3
ATOM      3  C   UNL     1      23.067 120.887 302.127  1.00  0.00     0.000 C 
BRANCH   3   4
ATOM      4  C   UNL     1      23.657 119.529 301.707  1.00  0.00     0.000 C 
BRANCH   4   5
ATOM      5  C   UNL     1      24.589 119.628 300.488  1.00  0.00     0.000 C 
BRANCH   5   6
ATOM      6  C   UNL     1      24.009 118.935 299.245  1.00  0.00     0.000 C 
BRANCH   6   7
ATOM      7  C   UNL     1      24.193 119.768 297.964  1.00  0.00     0.000 C 
BRANCH   7   8
ATOM      8  C   UNL     1      25.622 120.340 297.841  1.00  0.00     0.000 C 
BRANCH   8   9
ATOM      9  C   UNL     1      26.481 119.647 296.768  1.00  0.00     0.000 C 
BRANCH   9  10
ATOM     10  C   UNL     1      27.750 119.000 297.340  1.00  0.00     0.006 C 
BRANCH  10  11
ATOM     11  C   UNL     1      27.891 119.283 298.843  1.00  0.00     0.053 C 
BRANCH  11  12
ATOM     12  C   UNL     1      28.248 118.039 299.595  1.00  0.00     0.041 C 
ATOM     13  O   UNL     1      27.347 117.267 300.020  1.00  0.00    -0.550 OA
ATOM     14  O   UNL     1      29.582 117.751 299.866  1.00  0.00    -0.550 OA
ENDBRANCH  11  12
ENDBRANCH  10  11
ENDBRANCH   9  10
ENDBRANCH   8   9
ENDBRANCH   7   8
ENDBRANCH   6   7
ENDBRANCH   5   6
ENDBRANCH   4   5
ENDBRANCH   3   4
ENDBRANCH   2   3
ENDBRANCH   1   2
BRANCH   1  15
ATOM     15  C   UNL     1      20.752 120.559 299.803  1.00  0.00     0.000 C 
BRANCH  15  16
ATOM     16  C   UNL     1      20.132 120.939 298.441  1.00  0.00     0.000 C 
BRANCH  16  17
ATOM     17  C   UNL     1      20.631 120.033 297.301  1.00  0.00     0.000 C 
BRANCH  17  18
ATOM     18  C   UNL     1      20.389 118.535 297.567  1.00  0.00    -0.000 C 
BRANCH  18  19
ATOM     19  C   UNL     1      20.334 117.649 296.307  1.00  0.00    -0.000 C 
BRANCH  19  20
ATOM     20  C   UNL     1      20.307 118.459 294.997  1.00  0.00    -0.000 C 
BRANCH  20  21
ATOM     21  C   UNL     1      18.870 118.645 294.460  1.00  0.00    -0.000 C 
BRANCH  21  22
ATOM     22  C   UNL     1      17.852 117.651 295.056  1.00  0.00    -0.000 C 
BRANCH  22  23
ATOM     23  C   UNL     1      17.190 116.708 294.035  1.00  0.00    -0.000 C 
BRANCH  23  24
ATOM     24  C   UNL     1      17.721 116.903 292.604  1.00  0.00    -0.000 C 
BRANCH  24  25
ATOM     25  C   UNL     1      17.349 115.731 291.682  1.00  0.00    -0.003 C 
ATOM     26  C   UNL     1      18.403 115.463 290.607  1.00  0.00     0.004 C 
ENDBRANCH  24  25
ENDBRANCH  23  24
ENDBRANCH  22  23
ENDBRANCH  21  22
ENDBRANCH  20  21
ENDBRANCH  19  20
ENDBRANCH  18  19
ENDBRANCH  17  18
ENDBRANCH  16  17
ENDBRANCH  15  16
ENDBRANCH   1  15
TORSDOF 22
ENDMDL
MODEL 9
REMARK VINA RESULT:    -4.776      4.860      7.481
REMARK INTER + INTRA:         -13.373
REMARK INTER:                  -9.964
REMARK INTRA:                  -3.409
REMARK UNBOUND:                -2.455
REMARK SMILES CCCCCCCCCCCCCCCCCCCCCCCC(=O)[O-]
REMARK SMILES IDX 13 1 14 2 15 3 16 4 17 5 18 6 19 7 20 8 21 9 22 10 23 11
REMARK SMILES IDX 24 12 25 13 26 14 12 15 11 16 10 17 9 18 8 19 7 20 6 21 5 22
REMARK SMILES IDX 4 23 3 24 2 25 1 26
REMARK H PARENT
REMARK Flexibility Score: inf
ROOT
ATOM      1  C   UNL     1      19.939 117.749 297.018  1.00  0.00     0.000 C 
ENDROOT
BRANCH   1   2
ATOM      2  C   UNL     1      20.100 118.362 298.419  1.00  0.00     0.000 C 
BRANCH   2   3
ATOM      3  C   UNL     1      21.023 119.593 298.437  1.00  0.00     0.000 C 
BRANCH   3   4
ATOM      4  C   UNL     1      20.327 120.931 298.743  1.00  0.00     0.000 C 
BRANCH   4   5
ATOM      5  C   UNL     1      18.817 120.782 298.995  1.00  0.00     0.000 C 
BRANCH   5   6
ATOM      6  C   UNL     1      18.443 120.988 300.471  1.00  0.00     0.000 C 
BRANCH   6   7
ATOM      7  C   UNL     1      19.216 122.151 301.119  1.00  0.00     0.000 C 
BRANCH   7   8
ATOM      8  C   UNL     1      19.656 121.826 302.562  1.00  0.00     0.000 C 
BRANCH   8   9
ATOM      9  C   UNL     1      20.663 120.665 302.661  1.00  0.00     0.000 C 
BRANCH   9  10
ATOM     10  C   UNL     1      22.118 121.112 302.458  1.00  0.00     0.006 C 
BRANCH  10  11
ATOM     11  C   UNL     1      22.875 120.143 301.539  1.00  0.00     0.053 C 
BRANCH  11  12
ATOM     12  C   UNL     1      24.239 120.667 301.209  1.00  0.00     0.041 C 
ATOM     13  O   UNL     1      25.155 119.881 300.848  1.00  0.00    -0.550 OA
ATOM     14  O   UNL     1      24.510 122.025 301.340  1.00  0.00    -0.550 OA
ENDBRANCH  11  12
ENDBRANCH  10  11
ENDBRANCH   9  10
ENDBRANCH   8   9
ENDBRANCH   7   8
ENDBRANCH   6   7
ENDBRANCH   5   6
ENDBRANCH   4   5
ENDBRANCH   3   4
ENDBRANCH   2   3
ENDBRANCH   1   2
BRANCH   1  15
ATOM     15  C   UNL     1      21.211 117.876 296.158  1.00  0.00     0.000 C 
BRANCH  15  16
ATOM     16  C   UNL     1      20.974 118.563 294.796  1.00  0.00     0.000 C 
BRANCH  16  17
ATOM     17  C   UNL     1      21.047 120.097 294.898  1.00  0.00     0.000 C 
BRANCH  17  18
ATOM     18  C   UNL     1      19.811 120.803 294.309  1.00  0.00    -0.000 C 
BRANCH  18  19
ATOM     19  C   UNL     1      18.725 121.181 295.336  1.00  0.00    -0.000 C 
BRANCH  19  20
ATOM     20  C   UNL     1      17.661 120.083 295.524  1.00  0.00    -0.000 C 
BRANCH  20  21
ATOM     21  C   UNL     1      17.168 119.515 294.173  1.00  0.00    -0.000 C 
BRANCH  21  22
ATOM     22  C   UNL     1      17.091 117.975 294.140  1.00  0.00    -0.000 C 
BRANCH  22  23
ATOM     23  C   UNL     1      18.027 117.299 293.121  1.00  0.00    -0.000 C 
BRANCH  23  24
ATOM     24  C   UNL     1      17.340 116.173 292.329  1.00  0.00    -0.000 C 
BRANCH  24  25
ATOM     25  C   UNL     1      18.106 115.814 291.046  1.00  0.00    -0.003 C 
ATOM     26  C   UNL     1      17.403 114.741 290.214  1.00  0.00     0.004 C 
ENDBRANCH  24  25
ENDBRANCH  23  24
ENDBRANCH  22  23
ENDBRANCH  21  22
ENDBRANCH  20  21
ENDBRANCH  19  20
ENDBRANCH  18  19
ENDBRANCH  17  18
ENDBRANCH  16  17
ENDBRANCH  15  16
ENDBRANCH   1  15
TORSDOF 22
ENDMDL
