MODEL 1
REMARK VINA RESULT:    -4.042      0.000      0.000
REMARK INTER + INTRA:         -12.257
REMARK INTER:                  -8.768
REMARK INTRA:                  -3.489
REMARK UNBOUND:                -3.489
REMARK SMILES CCCCCCCCCCCCCCCCCCCCCC(=O)[O-]
REMARK SMILES IDX 12 1 11 2 10 3 9 4 8 5 7 6 6 7 5 8 4 9 3 10 2 11 1 12 13 13
REMARK SMILES IDX 14 14 15 15 16 16 17 17 18 18 19 19 20 20 21 21 22 22 23 23
REMARK SMILES IDX 24 24
REMARK H PARENT
REMARK Flexibility Score: inf
ROOT
ATOM      1  C   UNL     1      -1.892  39.248  23.001  1.00  0.00     0.000 C 
ENDROOT
BRANCH   1   2
ATOM      2  C   UNL     1      -2.816  40.313  23.614  1.00  0.00     0.000 C 
BRANCH   2   3
ATOM      3  C   UNL     1      -3.750  39.731  24.689  1.00  0.00     0.000 C 
BRANCH   3   4
ATOM      4  C   UNL     1      -5.241  39.918  24.354  1.00  0.00    -0.000 C 
BRANCH   4   5
ATOM      5  C   UNL     1      -5.658  39.441  22.951  1.00  0.00    -0.000 C 
BRANCH   5   6
ATOM      6  C   UNL     1      -6.707  38.317  22.987  1.00  0.00    -0.000 C 
BRANCH   6   7
ATOM      7  C   UNL     1      -6.208  37.022  22.326  1.00  0.00    -0.000 C 
BRANCH   7   8
ATOM      8  C   UNL     1      -4.676  36.968  22.215  1.00  0.00    -0.000 C 
BRANCH   8   9
ATOM      9  C   UNL     1      -4.238  36.757  20.759  1.00  0.00    -0.000 C 
BRANCH   9  10
ATOM     10  C   UNL     1      -4.483  37.996  19.881  1.00  0.00    -0.000 C 
BRANCH  10  11
ATOM     11  C   UNL     1      -5.565  37.762  18.816  1.00  0.00    -0.003 C 
ATOM     12  C   UNL     1      -6.851  38.502  19.169  1.00  0.00     0.004 C 
ENDBRANCH  10  11
ENDBRANCH   9  10
ENDBRANCH   8   9
ENDBRANCH   7   8
ENDBRANCH   6   7
ENDBRANCH   5   6
ENDBRANCH   4   5
ENDBRANCH   3   4
ENDBRANCH   2   3
ENDBRANCH   1   2
BRANCH   1  13
ATOM     13  C   UNL     1      -1.483  39.582  21.559  1.00  0.00     0.000 C 
BRANCH  13  14
ATOM     14  C   UNL     1      -1.859  41.025  21.202  1.00  0.00     0.000 C 
BRANCH  14  15
ATOM     15  C   UNL     1      -2.657  41.081  19.890  1.00  0.00     0.000 C 
BRANCH  15  16
ATOM     16  C   UNL     1      -1.788  40.741  18.661  1.00  0.00     0.000 C 
BRANCH  16  17
ATOM     17  C   UNL     1      -2.540  40.859  17.324  1.00  0.00     0.000 C 
BRANCH  17  18
ATOM     18  C   UNL     1      -2.901  39.492  16.720  1.00  0.00     0.000 C 
BRANCH  18  19
ATOM     19  C   UNL     1      -1.941  38.377  17.165  1.00  0.00     0.000 C 
BRANCH  19  20
ATOM     20  C   UNL     1      -2.281  37.018  16.530  1.00  0.00     0.006 C 
BRANCH  20  21
ATOM     21  C   UNL     1      -2.170  35.865  17.536  1.00  0.00     0.053 C 
BRANCH  21  22
ATOM     22  C   UNL     1      -1.086  34.903  17.157  1.00  0.00     0.041 C 
ATOM     23  O   UNL     1      -0.050  35.313  16.572  1.00  0.00    -0.550 OA
ATOM     24  O   UNL     1      -1.208  33.558  17.483  1.00  0.00    -0.550 OA
ENDBRANCH  21  22
ENDBRANCH  20  21
ENDBRANCH  19  20
ENDBRANCH  18  19
ENDBRANCH  17  18
ENDBRANCH  16  17
ENDBRANCH  15  16
ENDBRANCH  14  15
ENDBRANCH  13  14
ENDBRANCH   1  13
TORSDOF 20
ENDMDL
MODEL 2
REMARK VINA RESULT:    -4.021      1.540      2.440
REMARK INTER + INTRA:         -12.212
REMARK INTER:                  -8.992
REMARK INTRA:                  -3.220
REMARK UNBOUND:                -3.489
REMARK SMILES CCCCCCCCCCCCCCCCCCCCCC(=O)[O-]
REMARK SMILES IDX 12 1 11 2 10 3 9 4 8 5 7 6 6 7 5 8 4 9 3 10 2 11 1 12 13 13
REMARK SMILES IDX 14 14 15 15 16 16 17 17 18 18 19 19 20 20 21 21 22 22 23 23
REMARK SMILES IDX 24 24
REMARK H PARENT
REMARK Flexibility Score: inf
ROOT
ATOM      1  C   UNL     1      -2.970  39.148  21.024  1.00  0.00     0.000 C 
ENDROOT
BRANCH   1   2
ATOM      2  C   UNL     1      -3.328  37.658  21.139  1.00  0.00     0.000 C 
BRANCH   2   3
ATOM      3  C   UNL     1      -3.831  37.282  22.544  1.00  0.00     0.000 C 
BRANCH   3   4
ATOM      4  C   UNL     1      -4.998  36.278  22.515  1.00  0.00    -0.000 C 
BRANCH   4   5
ATOM      5  C   UNL     1      -6.400  36.910  22.452  1.00  0.00    -0.000 C 
BRANCH   5   6
ATOM      6  C   UNL     1      -6.408  38.391  22.869  1.00  0.00    -0.000 C 
BRANCH   6   7
ATOM      7  C   UNL     1      -7.251  39.265  21.927  1.00  0.00    -0.000 C 
BRANCH   7   8
ATOM      8  C   UNL     1      -6.564  39.507  20.573  1.00  0.00    -0.000 C 
BRANCH   8   9
ATOM      9  C   UNL     1      -7.260  38.716  19.456  1.00  0.00    -0.000 C 
BRANCH   9  10
ATOM     10  C   UNL     1      -6.364  37.617  18.861  1.00  0.00    -0.000 C 
BRANCH  10  11
ATOM     11  C   UNL     1      -5.072  38.176  18.247  1.00  0.00    -0.003 C 
ATOM     12  C   UNL     1      -4.637  37.351  17.039  1.00  0.00     0.004 C 
ENDBRANCH  10  11
ENDBRANCH   9  10
ENDBRANCH   8   9
ENDBRANCH   7   8
ENDBRANCH   6   7
ENDBRANCH   5   6
ENDBRANCH   4   5
ENDBRANCH   3   4
ENDBRANCH   2   3
ENDBRANCH   1   2
BRANCH   1  13
ATOM     13  C   UNL     1      -1.490  39.374  20.683  1.00  0.00     0.000 C 
BRANCH  13  14
ATOM     14  C   UNL     1      -1.322  40.564  19.732  1.00  0.00     0.000 C 
BRANCH  14  15
ATOM     15  C   UNL     1      -2.638  40.880  19.002  1.00  0.00     0.000 C 
BRANCH  15  16
ATOM     16  C   UNL     1      -2.455  40.961  17.472  1.00  0.00     0.000 C 
BRANCH  16  17
ATOM     17  C   UNL     1      -1.913  39.663  16.848  1.00  0.00     0.000 C 
BRANCH  17  18
ATOM     18  C   UNL     1      -0.496  39.823  16.274  1.00  0.00     0.000 C 
BRANCH  18  19
ATOM     19  C   UNL     1       0.533  38.930  16.986  1.00  0.00     0.000 C 
BRANCH  19  20
ATOM     20  C   UNL     1      -0.106  37.681  17.618  1.00  0.00     0.006 C 
BRANCH  20  21
ATOM     21  C   UNL     1       0.140  36.419  16.780  1.00  0.00     0.053 C 
BRANCH  21  22
ATOM     22  C   UNL     1      -0.855  35.345  17.095  1.00  0.00     0.041 C 
ATOM     23  O   UNL     1      -1.844  35.592  17.834  1.00  0.00    -0.550 OA
ATOM     24  O   UNL     1      -0.707  34.079  16.544  1.00  0.00    -0.550 OA
ENDBRANCH  21  22
ENDBRANCH  20  21
ENDBRANCH  19  20
ENDBRANCH  18  19
ENDBRANCH  17  18
ENDBRANCH  16  17
ENDBRANCH  15  16
ENDBRANCH  14  15
ENDBRANCH  13  14
ENDBRANCH   1  13
TORSDOF 20
ENDMDL
MODEL 3
REMARK VINA RESULT:    -4.004      5.272      8.666
REMARK INTER + INTRA:         -12.175
REMARK INTER:                 -10.968
REMARK INTRA:                  -1.207
REMARK UNBOUND:                -3.489
REMARK SMILES CCCCCCCCCCCCCCCCCCCCCC(=O)[O-]
REMARK SMILES IDX 12 1 11 2 10 3 9 4 8 5 7 6 6 7 5 8 4 9 3 10 2 11 1 12 13 13
REMARK SMILES IDX 14 14 15 15 16 16 17 17 18 18 19 19 20 20 21 21 22 22 23 23
REMARK SMILES IDX 24 24
REMARK H PARENT
REMARK Flexibility Score: inf
ROOT
ATOM      1  C   UNL     1      -0.486  34.407  16.732  1.00  0.00     0.000 C 
ENDROOT
BRANCH   1   2
ATOM      2  C   UNL     1      -1.859  34.773  17.320  1.00  0.00     0.000 C 
BRANCH   2   3
ATOM      3  C   UNL     1      -1.935  36.245  17.760  1.00  0.00     0.000 C 
BRANCH   3   4
ATOM      4  C   UNL     1      -2.861  37.092  16.868  1.00  0.00    -0.000 C 
BRANCH   4   5
ATOM      5  C   UNL     1      -3.184  38.495  17.412  1.00  0.00    -0.000 C 
BRANCH   5   6
ATOM      6  C   UNL     1      -4.224  38.473  18.545  1.00  0.00    -0.000 C 
BRANCH   6   7
ATOM      7  C   UNL     1      -5.486  37.679  18.173  1.00  0.00    -0.000 C 
BRANCH   7   8
ATOM      8  C   UNL     1      -6.744  38.203  18.883  1.00  0.00    -0.000 C 
BRANCH   8   9
ATOM      9  C   UNL     1      -6.374  38.972  20.160  1.00  0.00    -0.000 C 
BRANCH   9  10
ATOM     10  C   UNL     1      -7.546  39.075  21.150  1.00  0.00    -0.000 C 
BRANCH  10  11
ATOM     11  C   UNL     1      -7.161  38.634  22.570  1.00  0.00    -0.003 C 
ATOM     12  C   UNL     1      -6.498  37.259  22.557  1.00  0.00     0.004 C 
ENDBRANCH  10  11
ENDBRANCH   9  10
ENDBRANCH   8   9
ENDBRANCH   7   8
ENDBRANCH   6   7
ENDBRANCH   5   6
ENDBRANCH   4   5
ENDBRANCH   3   4
ENDBRANCH   2   3
ENDBRANCH   1   2
BRANCH   1  13
ATOM     13  C   UNL     1      -0.305  32.892  16.558  1.00  0.00     0.000 C 
BRANCH  13  14
ATOM     14  C   UNL     1      -0.907  32.128  17.742  1.00  0.00     0.000 C 
BRANCH  14  15
ATOM     15  C   UNL     1      -0.520  30.641  17.695  1.00  0.00     0.000 C 
BRANCH  15  16
ATOM     16  C   UNL     1       0.810  30.405  16.949  1.00  0.00     0.000 C 
BRANCH  16  17
ATOM     17  C   UNL     1       0.933  28.997  16.341  1.00  0.00     0.000 C 
BRANCH  17  18
ATOM     18  C   UNL     1      -0.149  28.031  16.849  1.00  0.00     0.000 C 
BRANCH  18  19
ATOM     19  C   UNL     1      -0.110  26.671  16.132  1.00  0.00     0.000 C 
BRANCH  19  20
ATOM     20  C   UNL     1      -0.348  25.492  17.091  1.00  0.00     0.006 C 
BRANCH  20  21
ATOM     21  C   UNL     1       0.768  25.364  18.137  1.00  0.00     0.053 C 
BRANCH  21  22
ATOM     22  C   UNL     1       0.219  25.324  19.530  1.00  0.00     0.041 C 
ATOM     23  O   UNL     1      -1.025  25.366  19.723  1.00  0.00    -0.550 OA
ATOM     24  O   UNL     1       1.081  25.207  20.612  1.00  0.00    -0.550 OA
ENDBRANCH  21  22
ENDBRANCH  20  21
ENDBRANCH  19  20
ENDBRANCH  18  19
ENDBRANCH  17  18
ENDBRANCH  16  17
ENDBRANCH  15  16
ENDBRANCH  14  15
ENDBRANCH  13  14
ENDBRANCH   1  13
TORSDOF 20
ENDMDL
MODEL 4
REMARK VINA RESULT:    -3.917      2.428      5.452
REMARK INTER + INTRA:         -11.985
REMARK INTER:                  -9.071
REMARK INTRA:                  -2.914
REMARK UNBOUND:                -3.489
REMARK SMILES CCCCCCCCCCCCCCCCCCCCCC(=O)[O-]
REMARK SMILES IDX 12 1 11 2 10 3 9 4 8 5 7 6 6 7 5 8 4 9 3 10 2 11 1 12 13 13
REMARK SMILES IDX 14 14 15 15 16 16 17 17 18 18 19 19 20 20 21 21 22 22 23 23
REMARK SMILES IDX 24 24
REMARK H PARENT
REMARK Flexibility Score: inf
ROOT
ATOM      1  C   UNL     1      -2.690  39.145  23.284  1.00  0.00     0.000 C 
ENDROOT
BRANCH   1   2
ATOM      2  C   UNL     1      -1.493  39.243  22.325  1.00  0.00     0.000 C 
BRANCH   2   3
ATOM      3  C   UNL     1      -1.899  39.743  20.928  1.00  0.00     0.000 C 
BRANCH   3   4
ATOM      4  C   UNL     1      -1.559  38.741  19.809  1.00  0.00    -0.000 C 
BRANCH   4   5
ATOM      5  C   UNL     1      -1.731  39.281  18.378  1.00  0.00    -0.000 C 
BRANCH   5   6
ATOM      6  C   UNL     1      -3.205  39.381  17.948  1.00  0.00    -0.000 C 
BRANCH   6   7
ATOM      7  C   UNL     1      -3.474  38.700  16.597  1.00  0.00    -0.000 C 
BRANCH   7   8
ATOM      8  C   UNL     1      -4.228  37.370  16.746  1.00  0.00    -0.000 C 
BRANCH   8   9
ATOM      9  C   UNL     1      -3.578  36.272  15.890  1.00  0.00    -0.000 C 
BRANCH   9  10
ATOM     10  C   UNL     1      -2.090  36.068  16.218  1.00  0.00    -0.000 C 
BRANCH  10  11
ATOM     11  C   UNL     1      -1.866  35.041  17.338  1.00  0.00    -0.003 C 
ATOM     12  C   UNL     1      -0.738  34.078  16.982  1.00  0.00     0.004 C 
ENDBRANCH  10  11
ENDBRANCH   9  10
ENDBRANCH   8   9
ENDBRANCH   7   8
ENDBRANCH   6   7
ENDBRANCH   5   6
ENDBRANCH   4   5
ENDBRANCH   3   4
ENDBRANCH   2   3
ENDBRANCH   1   2
BRANCH   1  13
ATOM     13  C   UNL     1      -3.231  40.523  23.693  1.00  0.00     0.000 C 
BRANCH  13  14
ATOM     14  C   UNL     1      -4.590  40.393  24.391  1.00  0.00     0.000 C 
BRANCH  14  15
ATOM     15  C   UNL     1      -5.729  40.268  23.367  1.00  0.00     0.000 C 
BRANCH  15  16
ATOM     16  C   UNL     1      -5.463  41.094  22.091  1.00  0.00     0.000 C 
BRANCH  16  17
ATOM     17  C   UNL     1      -6.562  40.949  21.024  1.00  0.00     0.000 C 
BRANCH  17  18
ATOM     18  C   UNL     1      -7.157  39.534  20.969  1.00  0.00     0.000 C 
BRANCH  18  19
ATOM     19  C   UNL     1      -6.852  38.815  19.644  1.00  0.00     0.000 C 
BRANCH  19  20
ATOM     20  C   UNL     1      -6.295  37.398  19.857  1.00  0.00     0.006 C 
BRANCH  20  21
ATOM     21  C   UNL     1      -4.979  37.407  20.648  1.00  0.00     0.053 C 
BRANCH  21  22
ATOM     22  C   UNL     1      -5.112  36.679  21.950  1.00  0.00     0.041 C 
ATOM     23  O   UNL     1      -4.104  36.145  22.484  1.00  0.00    -0.550 OA
ATOM     24  O   UNL     1      -6.343  36.621  22.591  1.00  0.00    -0.550 OA
ENDBRANCH  21  22
ENDBRANCH  20  21
ENDBRANCH  19  20
ENDBRANCH  18  19
ENDBRANCH  17  18
ENDBRANCH  16  17
ENDBRANCH  15  16
ENDBRANCH  14  15
ENDBRANCH  13  14
ENDBRANCH   1  13
TORSDOF 20
ENDMDL
MODEL 5
REMARK VINA RESULT:    -3.907      1.691      3.914
REMARK INTER + INTRA:         -11.964
REMARK INTER:                  -9.173
REMARK INTRA:                  -2.791
REMARK UNBOUND:                -3.489
REMARK SMILES CCCCCCCCCCCCCCCCCCCCCC(=O)[O-]
REMARK SMILES IDX 12 1 11 2 10 3 9 4 8 5 7 6 6 7 5 8 4 9 3 10 2 11 1 12 13 13
REMARK SMILES IDX 14 14 15 15 16 16 17 17 18 18 19 19 20 20 21 21 22 22 23 23
REMARK SMILES IDX 24 24
REMARK H PARENT
REMARK Flexibility Score: inf
ROOT
ATOM      1  C   UNL     1      -5.999  37.751  18.536  1.00  0.00     0.000 C 
ENDROOT
BRANCH   1   2
ATOM      2  C   UNL     1      -7.176  38.060  19.474  1.00  0.00     0.000 C 
BRANCH   2   3
ATOM      3  C   UNL     1      -6.929  39.312  20.333  1.00  0.00     0.000 C 
BRANCH   3   4
ATOM      4  C   UNL     1      -7.206  39.079  21.829  1.00  0.00    -0.000 C 
BRANCH   4   5
ATOM      5  C   UNL     1      -6.304  39.875  22.790  1.00  0.00    -0.000 C 
BRANCH   5   6
ATOM      6  C   UNL     1      -5.604  41.063  22.108  1.00  0.00    -0.000 C 
BRANCH   6   7
ATOM      7  C   UNL     1      -4.185  40.718  21.630  1.00  0.00    -0.000 C 
BRANCH   7   8
ATOM      8  C   UNL     1      -3.126  40.927  22.723  1.00  0.00    -0.000 C 
BRANCH   8   9
ATOM      9  C   UNL     1      -2.657  39.581  23.297  1.00  0.00    -0.000 C 
BRANCH   9  10
ATOM     10  C   UNL     1      -2.959  38.400  22.360  1.00  0.00    -0.000 C 
BRANCH  10  11
ATOM     11  C   UNL     1      -3.740  37.277  23.057  1.00  0.00    -0.003 C 
ATOM     12  C   UNL     1      -4.341  36.312  22.039  1.00  0.00     0.004 C 
ENDBRANCH  10  11
ENDBRANCH   9  10
ENDBRANCH   8   9
ENDBRANCH   7   8
ENDBRANCH   6   7
ENDBRANCH   5   6
ENDBRANCH   4   5
ENDBRANCH   3   4
ENDBRANCH   2   3
ENDBRANCH   1   2
BRANCH   1  13
ATOM     13  C   UNL     1      -4.644  38.155  19.137  1.00  0.00     0.000 C 
BRANCH  13  14
ATOM     14  C   UNL     1      -3.761  38.838  18.087  1.00  0.00     0.000 C 
BRANCH  14  15
ATOM     15  C   UNL     1      -2.391  39.213  18.675  1.00  0.00     0.000 C 
BRANCH  15  16
ATOM     16  C   UNL     1      -1.561  37.971  19.061  1.00  0.00     0.000 C 
BRANCH  16  17
ATOM     17  C   UNL     1      -0.377  37.703  18.115  1.00  0.00     0.000 C 
BRANCH  17  18
ATOM     18  C   UNL     1      -0.742  36.764  16.954  1.00  0.00     0.000 C 
BRANCH  18  19
ATOM     19  C   UNL     1      -1.560  35.546  17.414  1.00  0.00     0.000 C 
BRANCH  19  20
ATOM     20  C   UNL     1      -1.096  34.239  16.747  1.00  0.00     0.006 C 
BRANCH  20  21
ATOM     21  C   UNL     1      -0.828  33.130  17.773  1.00  0.00     0.053 C 
BRANCH  21  22
ATOM     22  C   UNL     1      -0.487  31.832  17.108  1.00  0.00     0.041 C 
ATOM     23  O   UNL     1       0.158  31.824  16.027  1.00  0.00    -0.550 OA
ATOM     24  O   UNL     1      -0.852  30.631  17.702  1.00  0.00    -0.550 OA
ENDBRANCH  21  22
ENDBRANCH  20  21
ENDBRANCH  19  20
ENDBRANCH  18  19
ENDBRANCH  17  18
ENDBRANCH  16  17
ENDBRANCH  15  16
ENDBRANCH  14  15
ENDBRANCH  13  14
ENDBRANCH   1  13
TORSDOF 20
ENDMDL
MODEL 6
REMARK VINA RESULT:    -3.875      5.965      9.508
REMARK INTER + INTRA:         -11.896
REMARK INTER:                 -10.557
REMARK INTRA:                  -1.339
REMARK UNBOUND:                -3.489
REMARK SMILES CCCCCCCCCCCCCCCCCCCCCC(=O)[O-]
REMARK SMILES IDX 12 1 11 2 10 3 9 4 8 5 7 6 6 7 5 8 4 9 3 10 2 11 1 12 13 13
REMARK SMILES IDX 14 14 15 15 16 16 17 17 18 18 19 19 20 20 21 21 22 22 23 23
REMARK SMILES IDX 24 24
REMARK H PARENT
REMARK Flexibility Score: inf
ROOT
ATOM      1  C   UNL     1      -0.800  32.404  18.170  1.00  0.00     0.000 C 
ENDROOT
BRANCH   1   2
ATOM      2  C   UNL     1      -0.527  33.601  17.245  1.00  0.00     0.000 C 
BRANCH   2   3
ATOM      3  C   UNL     1      -1.774  34.478  17.038  1.00  0.00     0.000 C 
BRANCH   3   4
ATOM      4  C   UNL     1      -1.475  35.984  17.160  1.00  0.00    -0.000 C 
BRANCH   4   5
ATOM      5  C   UNL     1      -2.563  36.911  16.590  1.00  0.00    -0.000 C 
BRANCH   5   6
ATOM      6  C   UNL     1      -3.217  37.798  17.663  1.00  0.00    -0.000 C 
BRANCH   6   7
ATOM      7  C   UNL     1      -3.032  37.240  19.083  1.00  0.00    -0.000 C 
BRANCH   7   8
ATOM      8  C   UNL     1      -3.232  38.309  20.168  1.00  0.00    -0.000 C 
BRANCH   8   9
ATOM      9  C   UNL     1      -4.466  39.173  19.867  1.00  0.00    -0.000 C 
BRANCH   9  10
ATOM     10  C   UNL     1      -5.581  38.997  20.911  1.00  0.00    -0.000 C 
BRANCH  10  11
ATOM     11  C   UNL     1      -6.935  38.644  20.278  1.00  0.00    -0.003 C 
ATOM     12  C   UNL     1      -6.749  38.017  18.899  1.00  0.00     0.004 C 
ENDBRANCH  10  11
ENDBRANCH   9  10
ENDBRANCH   8   9
ENDBRANCH   7   8
ENDBRANCH   6   7
ENDBRANCH   5   6
ENDBRANCH   4   5
ENDBRANCH   3   4
ENDBRANCH   2   3
ENDBRANCH   1   2
BRANCH   1  13
ATOM     13  C   UNL     1      -0.671  31.057  17.445  1.00  0.00     0.000 C 
BRANCH  13  14
ATOM     14  C   UNL     1       0.682  30.944  16.733  1.00  0.00     0.000 C 
BRANCH  14  15
ATOM     15  C   UNL     1       1.117  29.476  16.602  1.00  0.00     0.000 C 
BRANCH  15  16
ATOM     16  C   UNL     1      -0.023  28.494  16.945  1.00  0.00     0.000 C 
BRANCH  16  17
ATOM     17  C   UNL     1       0.282  27.037  16.556  1.00  0.00     0.000 C 
BRANCH  17  18
ATOM     18  C   UNL     1      -0.314  26.019  17.541  1.00  0.00     0.000 C 
BRANCH  18  19
ATOM     19  C   UNL     1       0.764  25.201  18.271  1.00  0.00     0.000 C 
BRANCH  19  20
ATOM     20  C   UNL     1       0.696  25.366  19.799  1.00  0.00     0.006 C 
BRANCH  20  21
ATOM     21  C   UNL     1      -0.533  26.173  20.239  1.00  0.00     0.053 C 
BRANCH  21  22
ATOM     22  C   UNL     1      -1.302  25.467  21.313  1.00  0.00     0.041 C 
ATOM     23  O   UNL     1      -2.151  26.092  22.001  1.00  0.00    -0.550 OA
ATOM     24  O   UNL     1      -1.104  24.109  21.530  1.00  0.00    -0.550 OA
ENDBRANCH  21  22
ENDBRANCH  20  21
ENDBRANCH  19  20
ENDBRANCH  18  19
ENDBRANCH  17  18
ENDBRANCH  16  17
ENDBRANCH  15  16
ENDBRANCH  14  15
ENDBRANCH  13  14
ENDBRANCH   1  13
TORSDOF 20
ENDMDL
MODEL 7
REMARK VINA RESULT:    -3.868      5.638      9.789
REMARK INTER + INTRA:         -11.880
REMARK INTER:                 -10.991
REMARK INTRA:                  -0.889
REMARK UNBOUND:                -3.489
REMARK SMILES CCCCCCCCCCCCCCCCCCCCCC(=O)[O-]
REMARK SMILES IDX 12 1 11 2 10 3 9 4 8 5 7 6 6 7 5 8 4 9 3 10 2 11 1 12 13 13
REMARK SMILES IDX 14 14 15 15 16 16 17 17 18 18 19 19 20 20 21 21 22 22 23 23
REMARK SMILES IDX 24 24
REMARK H PARENT
REMARK Flexibility Score: inf
ROOT
ATOM      1  C   UNL     1      -1.539  33.990  17.345  1.00  0.00     0.000 C 
ENDROOT
BRANCH   1   2
ATOM      2  C   UNL     1      -0.461  32.964  17.727  1.00  0.00     0.000 C 
BRANCH   2   3
ATOM      3  C   UNL     1      -0.258  31.893  16.641  1.00  0.00     0.000 C 
BRANCH   3   4
ATOM      4  C   UNL     1      -0.105  30.474  17.218  1.00  0.00    -0.000 C 
BRANCH   4   5
ATOM      5  C   UNL     1       1.053  29.652  16.623  1.00  0.00    -0.000 C 
BRANCH   5   6
ATOM      6  C   UNL     1       0.644  28.212  16.269  1.00  0.00    -0.000 C 
BRANCH   6   7
ATOM      7  C   UNL     1      -0.105  27.511  17.413  1.00  0.00    -0.000 C 
BRANCH   7   8
ATOM      8  C   UNL     1       0.073  25.985  17.388  1.00  0.00    -0.000 C 
BRANCH   8   9
ATOM      9  C   UNL     1      -0.456  25.349  18.682  1.00  0.00    -0.000 C 
BRANCH   9  10
ATOM     10  C   UNL     1       0.611  25.279  19.786  1.00  0.00    -0.000 C 
BRANCH  10  11
ATOM     11  C   UNL     1       0.090  25.772  21.145  1.00  0.00    -0.003 C 
ATOM     12  C   UNL     1      -1.432  25.693  21.211  1.00  0.00     0.004 C 
ENDBRANCH  10  11
ENDBRANCH   9  10
ENDBRANCH   8   9
ENDBRANCH   7   8
ENDBRANCH   6   7
ENDBRANCH   5   6
ENDBRANCH   4   5
ENDBRANCH   3   4
ENDBRANCH   2   3
ENDBRANCH   1   2
BRANCH   1  13
ATOM     13  C   UNL     1      -0.944  35.343  16.928  1.00  0.00     0.000 C 
BRANCH  13  14
ATOM     14  C   UNL     1      -2.048  36.329  16.532  1.00  0.00     0.000 C 
BRANCH  14  15
ATOM     15  C   UNL     1      -2.799  36.846  17.770  1.00  0.00     0.000 C 
BRANCH  15  16
ATOM     16  C   UNL     1      -4.176  37.445  17.412  1.00  0.00     0.000 C 
BRANCH  16  17
ATOM     17  C   UNL     1      -4.833  38.212  18.572  1.00  0.00     0.000 C 
BRANCH  17  18
ATOM     18  C   UNL     1      -6.280  37.767  18.838  1.00  0.00     0.000 C 
BRANCH  18  19
ATOM     19  C   UNL     1      -7.039  38.742  19.753  1.00  0.00     0.000 C 
BRANCH  19  20
ATOM     20  C   UNL     1      -6.466  38.779  21.180  1.00  0.00     0.006 C 
BRANCH  20  21
ATOM     21  C   UNL     1      -6.260  37.372  21.757  1.00  0.00     0.053 C 
BRANCH  21  22
ATOM     22  C   UNL     1      -4.874  37.194  22.298  1.00  0.00     0.041 C 
ATOM     23  O   UNL     1      -4.270  36.100  22.146  1.00  0.00    -0.550 OA
ATOM     24  O   UNL     1      -4.239  38.249  22.939  1.00  0.00    -0.550 OA
ENDBRANCH  21  22
ENDBRANCH  20  21
ENDBRANCH  19  20
ENDBRANCH  18  19
ENDBRANCH  17  18
ENDBRANCH  16  17
ENDBRANCH  15  16
ENDBRANCH  14  15
ENDBRANCH  13  14
ENDBRANCH   1  13
TORSDOF 20
ENDMDL
MODEL 8
REMARK VINA RESULT:    -3.804      4.941      8.251
REMARK INTER + INTRA:         -11.741
REMARK INTER:                  -9.081
REMARK INTRA:                  -2.659
REMARK UNBOUND:                -3.489
REMARK SMILES CCCCCCCCCCCCCCCCCCCCCC(=O)[O-]
REMARK SMILES IDX 12 1 11 2 10 3 9 4 8 5 7 6 6 7 5 8 4 9 3 10 2 11 1 12 13 13
REMARK SMILES IDX 14 14 15 15 16 16 17 17 18 18 19 19 20 20 21 21 22 22 23 23
REMARK SMILES IDX 24 24
REMARK H PARENT
REMARK Flexibility Score: inf
ROOT
ATOM      1  C   UNL     1      -3.180  39.739  23.360  1.00  0.00     0.000 C 
ENDROOT
BRANCH   1   2
ATOM      2  C   UNL     1      -3.163  38.631  22.295  1.00  0.00     0.000 C 
BRANCH   2   3
ATOM      3  C   UNL     1      -3.875  37.352  22.769  1.00  0.00     0.000 C 
BRANCH   3   4
ATOM      4  C   UNL     1      -5.149  37.040  21.963  1.00  0.00    -0.000 C 
BRANCH   4   5
ATOM      5  C   UNL     1      -6.467  37.448  22.645  1.00  0.00    -0.000 C 
BRANCH   5   6
ATOM      6  C   UNL     1      -7.194  38.588  21.911  1.00  0.00    -0.000 C 
BRANCH   6   7
ATOM      7  C   UNL     1      -6.474  39.013  20.621  1.00  0.00    -0.000 C 
BRANCH   7   8
ATOM      8  C   UNL     1      -6.948  38.223  19.392  1.00  0.00    -0.000 C 
BRANCH   8   9
ATOM      9  C   UNL     1      -5.779  37.937  18.438  1.00  0.00    -0.000 C 
BRANCH   9  10
ATOM     10  C   UNL     1      -4.537  38.787  18.752  1.00  0.00    -0.000 C 
BRANCH  10  11
ATOM     11  C   UNL     1      -3.247  38.184  18.177  1.00  0.00    -0.003 C 
ATOM     12  C   UNL     1      -2.800  36.969  18.985  1.00  0.00     0.004 C 
ENDBRANCH  10  11
ENDBRANCH   9  10
ENDBRANCH   8   9
ENDBRANCH   7   8
ENDBRANCH   6   7
ENDBRANCH   5   6
ENDBRANCH   4   5
ENDBRANCH   3   4
ENDBRANCH   2   3
ENDBRANCH   1   2
BRANCH   1  13
ATOM     13  C   UNL     1      -4.284  40.777  23.112  1.00  0.00     0.000 C 
BRANCH  13  14
ATOM     14  C   UNL     1      -5.201  40.905  24.335  1.00  0.00     0.000 C 
BRANCH  14  15
ATOM     15  C   UNL     1      -4.848  39.857  25.403  1.00  0.00     0.000 C 
BRANCH  15  16
ATOM     16  C   UNL     1      -4.669  40.485  26.802  1.00  0.00     0.000 C 
BRANCH  16  17
ATOM     17  C   UNL     1      -3.259  40.291  27.387  1.00  0.00     0.000 C 
BRANCH  17  18
ATOM     18  C   UNL     1      -3.225  40.426  28.918  1.00  0.00     0.000 C 
BRANCH  18  19
ATOM     19  C   UNL     1      -2.710  39.154  29.611  1.00  0.00     0.000 C 
BRANCH  19  20
ATOM     20  C   UNL     1      -3.795  38.461  30.453  1.00  0.00     0.006 C 
BRANCH  20  21
ATOM     21  C   UNL     1      -3.216  37.357  31.348  1.00  0.00     0.053 C 
BRANCH  21  22
ATOM     22  C   UNL     1      -3.623  35.994  30.879  1.00  0.00     0.041 C 
ATOM     23  O   UNL     1      -3.753  35.052  31.704  1.00  0.00    -0.550 OA
ATOM     24  O   UNL     1      -3.892  35.775  29.534  1.00  0.00    -0.550 OA
ENDBRANCH  21  22
ENDBRANCH  20  21
ENDBRANCH  19  20
ENDBRANCH  18  19
ENDBRANCH  17  18
ENDBRANCH  16  17
ENDBRANCH  15  16
ENDBRANCH  14  15
ENDBRANCH  13  14
ENDBRANCH   1  13
TORSDOF 20
ENDMDL
MODEL 9
REMARK VINA RESULT:    -3.768      2.835      5.845
REMARK INTER + INTRA:         -11.663
REMARK INTER:                  -8.889
REMARK INTRA:                  -2.773
REMARK UNBOUND:                -3.489
REMARK SMILES CCCCCCCCCCCCCCCCCCCCCC(=O)[O-]
REMARK SMILES IDX 12 1 11 2 10 3 9 4 8 5 7 6 6 7 5 8 4 9 3 10 2 11 1 12 13 13
REMARK SMILES IDX 14 14 15 15 16 16 17 17 18 18 19 19 20 20 21 21 22 22 23 23
REMARK SMILES IDX 24 24
REMARK H PARENT
REMARK Flexibility Score: inf
ROOT
ATOM      1  C   UNL     1      -4.818  36.620  22.294  1.00  0.00     0.000 C 
ENDROOT
BRANCH   1   2
ATOM      2  C   UNL     1      -3.709  37.684  22.318  1.00  0.00     0.000 C 
BRANCH   2   3
ATOM      3  C   UNL     1      -3.340  38.114  23.748  1.00  0.00     0.000 C 
BRANCH   3   4
ATOM      4  C   UNL     1      -3.441  39.636  23.963  1.00  0.00    -0.000 C 
BRANCH   4   5
ATOM      5  C   UNL     1      -4.780  40.123  24.545  1.00  0.00    -0.000 C 
BRANCH   5   6
ATOM      6  C   UNL     1      -4.820  40.070  26.082  1.00  0.00    -0.000 C 
BRANCH   6   7
ATOM      7  C   UNL     1      -3.438  40.299  26.716  1.00  0.00    -0.000 C 
BRANCH   7   8
ATOM      8  C   UNL     1      -3.506  40.435  28.245  1.00  0.00    -0.000 C 
BRANCH   8   9
ATOM      9  C   UNL     1      -2.118  40.249  28.875  1.00  0.00    -0.000 C 
BRANCH   9  10
ATOM     10  C   UNL     1      -2.159  39.409  30.162  1.00  0.00    -0.000 C 
BRANCH  10  11
ATOM     11  C   UNL     1      -3.053  38.168  30.030  1.00  0.00    -0.003 C 
ATOM     12  C   UNL     1      -2.215  36.895  29.935  1.00  0.00     0.004 C 
ENDBRANCH  10  11
ENDBRANCH   9  10
ENDBRANCH   8   9
ENDBRANCH   7   8
ENDBRANCH   6   7
ENDBRANCH   5   6
ENDBRANCH   4   5
ENDBRANCH   3   4
ENDBRANCH   2   3
ENDBRANCH   1   2
BRANCH   1  13
ATOM     13  C   UNL     1      -6.116  37.136  21.656  1.00  0.00     0.000 C 
BRANCH  13  14
ATOM     14  C   UNL     1      -6.906  38.003  22.643  1.00  0.00     0.000 C 
BRANCH  14  15
ATOM     15  C   UNL     1      -7.479  39.249  21.949  1.00  0.00     0.000 C 
BRANCH  15  16
ATOM     16  C   UNL     1      -6.666  39.651  20.701  1.00  0.00     0.000 C 
BRANCH  16  17
ATOM     17  C   UNL     1      -5.584  40.707  20.984  1.00  0.00     0.000 C 
BRANCH  17  18
ATOM     18  C   UNL     1      -4.335  40.534  20.105  1.00  0.00     0.000 C 
BRANCH  18  19
ATOM     19  C   UNL     1      -4.414  39.291  19.205  1.00  0.00     0.000 C 
BRANCH  19  20
ATOM     20  C   UNL     1      -3.050  38.908  18.607  1.00  0.00     0.006 C 
BRANCH  20  21
ATOM     21  C   UNL     1      -2.663  37.459  18.932  1.00  0.00     0.053 C 
BRANCH  21  22
ATOM     22  C   UNL     1      -2.498  36.639  17.689  1.00  0.00     0.041 C 
ATOM     23  O   UNL     1      -1.836  35.568  17.719  1.00  0.00    -0.550 OA
ATOM     24  O   UNL     1      -3.104  37.041  16.507  1.00  0.00    -0.550 OA
ENDBRANCH  21  22
ENDBRANCH  20  21
ENDBRANCH  19  20
ENDBRANCH  18  19
ENDBRANCH  17  18
ENDBRANCH  16  17
ENDBRANCH  15  16
ENDBRANCH  14  15
ENDBRANCH  13  14
ENDBRANCH   1  13
TORSDOF 20
ENDMDL
