MODEL 1
REMARK VINA RESULT:    -4.825      0.000      0.000
REMARK INTER + INTRA:          -8.805
REMARK INTER:                  -8.209
REMARK INTRA:                  -0.596
REMARK UNBOUND:                -0.596
REMARK SMILES CCCCCCCCCCCCCC(=O)[O-]
REMARK SMILES IDX 8 1 9 2 10 3 11 4 12 5 13 6 14 7 15 8 16 9 7 10 6 11 5 12
REMARK SMILES IDX 4 13 3 14 2 15 1 16
REMARK H PARENT
REMARK Flexibility Score: inf
ROOT
ATOM      1  C   UNL     1     -12.420  -2.312 -22.519  1.00  0.00     0.000 C 
ENDROOT
BRANCH   1   2
ATOM      2  C   UNL     1     -13.003  -2.318 -23.948  1.00  0.00     0.000 C 
BRANCH   2   3
ATOM      3  C   UNL     1     -12.072  -3.015 -24.953  1.00  0.00     0.000 C 
BRANCH   3   4
ATOM      4  C   UNL     1     -12.464  -2.751 -26.417  1.00  0.00     0.000 C 
BRANCH   4   5
ATOM      5  C   UNL     1     -11.789  -1.502 -27.023  1.00  0.00     0.006 C 
BRANCH   5   6
ATOM      6  C   UNL     1     -10.530  -1.088 -26.250  1.00  0.00     0.053 C 
BRANCH   6   7
ATOM      7  C   UNL     1     -10.733   0.241 -25.594  1.00  0.00     0.041 C 
ATOM      8  O   UNL     1     -11.721   0.957 -25.903  1.00  0.00    -0.550 OA
ATOM      9  O   UNL     1      -9.802   0.710 -24.676  1.00  0.00    -0.550 OA
ENDBRANCH   6   7
ENDBRANCH   5   6
ENDBRANCH   4   5
ENDBRANCH   3   4
ENDBRANCH   2   3
ENDBRANCH   1   2
BRANCH   1  10
ATOM     10  C   UNL     1     -12.191  -0.900 -21.955  1.00  0.00     0.000 C 
BRANCH  10  11
ATOM     11  C   UNL     1     -11.440  -0.907 -20.614  1.00  0.00    -0.000 C 
BRANCH  11  12
ATOM     12  C   UNL     1     -11.806   0.294 -19.727  1.00  0.00    -0.000 C 
BRANCH  12  13
ATOM     13  C   UNL     1     -11.202   0.189 -18.316  1.00  0.00    -0.000 C 
BRANCH  13  14
ATOM     14  C   UNL     1      -9.757   0.709 -18.252  1.00  0.00    -0.000 C 
BRANCH  14  15
ATOM     15  C   UNL     1      -8.990   0.173 -17.034  1.00  0.00    -0.003 C 
ATOM     16  C   UNL     1      -9.868   0.177 -15.787  1.00  0.00     0.004 C 
ENDBRANCH  14  15
ENDBRANCH  13  14
ENDBRANCH  12  13
ENDBRANCH  11  12
ENDBRANCH  10  11
ENDBRANCH   1  10
TORSDOF 12
ENDMDL
MODEL 2
REMARK VINA RESULT:    -4.780     16.789     18.263
REMARK INTER + INTRA:          -8.729
REMARK INTER:                  -7.891
REMARK INTRA:                  -0.838
REMARK UNBOUND:                -0.596
REMARK SMILES CCCCCCCCCCCCCC(=O)[O-]
REMARK SMILES IDX 8 1 9 2 10 3 11 4 12 5 13 6 14 7 15 8 16 9 7 10 6 11 5 12
REMARK SMILES IDX 4 13 3 14 2 15 1 16
REMARK H PARENT
REMARK Flexibility Score: inf
ROOT
ATOM      1  C   UNL     1       6.252   6.736 -23.261  1.00  0.00     0.000 C 
ENDROOT
BRANCH   1   2
ATOM      2  C   UNL     1       7.013   7.505 -24.362  1.00  0.00     0.000 C 
BRANCH   2   3
ATOM      3  C   UNL     1       6.072   8.036 -25.456  1.00  0.00     0.000 C 
BRANCH   3   4
ATOM      4  C   UNL     1       6.429   7.515 -26.858  1.00  0.00     0.000 C 
BRANCH   4   5
ATOM      5  C   UNL     1       5.599   6.288 -27.292  1.00  0.00     0.006 C 
BRANCH   5   6
ATOM      6  C   UNL     1       6.290   4.964 -26.938  1.00  0.00     0.053 C 
BRANCH   6   7
ATOM      7  C   UNL     1       5.489   4.211 -25.923  1.00  0.00     0.041 C 
ATOM      8  O   UNL     1       4.389   4.670 -25.516  1.00  0.00    -0.550 OA
ATOM      9  O   UNL     1       5.980   3.026 -25.391  1.00  0.00    -0.550 OA
ENDBRANCH   6   7
ENDBRANCH   5   6
ENDBRANCH   4   5
ENDBRANCH   3   4
ENDBRANCH   2   3
ENDBRANCH   1   2
BRANCH   1  10
ATOM     10  C   UNL     1       7.098   5.651 -22.574  1.00  0.00     0.000 C 
BRANCH  10  11
ATOM     11  C   UNL     1       6.372   4.986 -21.393  1.00  0.00    -0.000 C 
BRANCH  11  12
ATOM     12  C   UNL     1       5.597   5.996 -20.532  1.00  0.00    -0.000 C 
BRANCH  12  13
ATOM     13  C   UNL     1       4.461   5.338 -19.730  1.00  0.00    -0.000 C 
BRANCH  13  14
ATOM     14  C   UNL     1       4.794   5.203 -18.236  1.00  0.00    -0.000 C 
BRANCH  14  15
ATOM     15  C   UNL     1       3.542   5.235 -17.347  1.00  0.00    -0.003 C 
ATOM     16  C   UNL     1       3.885   4.883 -15.903  1.00  0.00     0.004 C 
ENDBRANCH  14  15
ENDBRANCH  13  14
ENDBRANCH  12  13
ENDBRANCH  11  12
ENDBRANCH  10  11
ENDBRANCH   1  10
TORSDOF 12
ENDMDL
MODEL 3
REMARK VINA RESULT:    -4.743      2.545      7.409
REMARK INTER + INTRA:          -8.667
REMARK INTER:                  -7.812
REMARK INTRA:                  -0.855
REMARK UNBOUND:                -0.596
REMARK SMILES CCCCCCCCCCCCCC(=O)[O-]
REMARK SMILES IDX 8 1 9 2 10 3 11 4 12 5 13 6 14 7 15 8 16 9 7 10 6 11 5 12
REMARK SMILES IDX 4 13 3 14 2 15 1 16
REMARK H PARENT
REMARK Flexibility Score: inf
ROOT
ATOM      1  C   UNL     1     -11.310  -1.415 -22.461  1.00  0.00     0.000 C 
ENDROOT
BRANCH   1   2
ATOM      2  C   UNL     1     -11.087  -0.658 -21.134  1.00  0.00     0.000 C 
BRANCH   2   3
ATOM      3  C   UNL     1     -12.405  -0.159 -20.520  1.00  0.00     0.000 C 
BRANCH   3   4
ATOM      4  C   UNL     1     -12.192   0.748 -19.297  1.00  0.00     0.000 C 
BRANCH   4   5
ATOM      5  C   UNL     1     -11.097   0.241 -18.334  1.00  0.00     0.006 C 
BRANCH   5   6
ATOM      6  C   UNL     1     -10.007   1.292 -18.088  1.00  0.00     0.053 C 
BRANCH   6   7
ATOM      7  C   UNL     1      -8.655   0.651 -18.080  1.00  0.00     0.041 C 
ATOM      8  O   UNL     1      -7.922   0.730 -17.060  1.00  0.00    -0.550 OA
ATOM      9  O   UNL     1      -8.186   0.006 -19.218  1.00  0.00    -0.550 OA
ENDBRANCH   6   7
ENDBRANCH   5   6
ENDBRANCH   4   5
ENDBRANCH   3   4
ENDBRANCH   2   3
ENDBRANCH   1   2
BRANCH   1  10
ATOM     10  C   UNL     1     -12.617  -2.224 -22.494  1.00  0.00     0.000 C 
BRANCH  10  11
ATOM     11  C   UNL     1     -13.120  -2.488 -23.923  1.00  0.00    -0.000 C 
BRANCH  11  12
ATOM     12  C   UNL     1     -11.986  -2.879 -24.885  1.00  0.00    -0.000 C 
BRANCH  12  13
ATOM     13  C   UNL     1     -12.405  -2.775 -26.361  1.00  0.00    -0.000 C 
BRANCH  13  14
ATOM     14  C   UNL     1     -11.790  -1.555 -27.064  1.00  0.00    -0.000 C 
BRANCH  14  15
ATOM     15  C   UNL     1     -10.686  -0.887 -26.231  1.00  0.00    -0.003 C 
ATOM     16  C   UNL     1      -9.376  -0.819 -27.009  1.00  0.00     0.004 C 
ENDBRANCH  14  15
ENDBRANCH  13  14
ENDBRANCH  12  13
ENDBRANCH  11  12
ENDBRANCH  10  11
ENDBRANCH   1  10
TORSDOF 12
ENDMDL
MODEL 4
REMARK VINA RESULT:    -4.739     16.343     18.867
REMARK INTER + INTRA:          -8.659
REMARK INTER:                  -7.679
REMARK INTRA:                  -0.980
REMARK UNBOUND:                -0.596
REMARK SMILES CCCCCCCCCCCCCC(=O)[O-]
REMARK SMILES IDX 8 1 9 2 10 3 11 4 12 5 13 6 14 7 15 8 16 9 7 10 6 11 5 12
REMARK SMILES IDX 4 13 3 14 2 15 1 16
REMARK H PARENT
REMARK Flexibility Score: inf
ROOT
ATOM      1  C   UNL     1       7.120   5.962 -23.479  1.00  0.00     0.000 C 
ENDROOT
BRANCH   1   2
ATOM      2  C   UNL     1       6.905   5.709 -21.971  1.00  0.00     0.000 C 
BRANCH   2   3
ATOM      3  C   UNL     1       5.462   6.008 -21.531  1.00  0.00     0.000 C 
BRANCH   3   4
ATOM      4  C   UNL     1       5.205   5.675 -20.052  1.00  0.00     0.000 C 
BRANCH   4   5
ATOM      5  C   UNL     1       3.708   5.615 -19.682  1.00  0.00     0.006 C 
BRANCH   5   6
ATOM      6  C   UNL     1       2.800   5.927 -20.879  1.00  0.00     0.053 C 
BRANCH   6   7
ATOM      7  C   UNL     1       1.564   6.638 -20.426  1.00  0.00     0.041 C 
ATOM      8  O   UNL     1       1.236   6.627 -19.211  1.00  0.00    -0.550 OA
ATOM      9  O   UNL     1       0.749   7.272 -21.355  1.00  0.00    -0.550 OA
ENDBRANCH   6   7
ENDBRANCH   5   6
ENDBRANCH   4   5
ENDBRANCH   3   4
ENDBRANCH   2   3
ENDBRANCH   1   2
BRANCH   1  10
ATOM     10  C   UNL     1       6.931   7.433 -23.887  1.00  0.00     0.000 C 
BRANCH  10  11
ATOM     11  C   UNL     1       5.857   7.618 -24.971  1.00  0.00    -0.000 C 
BRANCH  11  12
ATOM     12  C   UNL     1       6.460   7.833 -26.368  1.00  0.00    -0.000 C 
BRANCH  12  13
ATOM     13  C   UNL     1       6.169   6.663 -27.323  1.00  0.00    -0.000 C 
BRANCH  13  14
ATOM     14  C   UNL     1       4.857   5.938 -26.984  1.00  0.00    -0.000 C 
BRANCH  14  15
ATOM     15  C   UNL     1       5.053   4.429 -26.771  1.00  0.00    -0.003 C 
ATOM     16  C   UNL     1       6.489   4.014 -27.075  1.00  0.00     0.004 C 
ENDBRANCH  14  15
ENDBRANCH  13  14
ENDBRANCH  12  13
ENDBRANCH  11  12
ENDBRANCH  10  11
ENDBRANCH   1  10
TORSDOF 12
ENDMDL
MODEL 5
REMARK VINA RESULT:    -4.721     16.283     17.977
REMARK INTER + INTRA:          -8.630
REMARK INTER:                  -7.801
REMARK INTRA:                  -0.829
REMARK UNBOUND:                -0.596
REMARK SMILES CCCCCCCCCCCCCC(=O)[O-]
REMARK SMILES IDX 8 1 9 2 10 3 11 4 12 5 13 6 14 7 15 8 16 9 7 10 6 11 5 12
REMARK SMILES IDX 4 13 3 14 2 15 1 16
REMARK H PARENT
REMARK Flexibility Score: inf
ROOT
ATOM      1  C   UNL     1       7.092   5.982 -23.610  1.00  0.00     0.000 C 
ENDROOT
BRANCH   1   2
ATOM      2  C   UNL     1       6.827   7.460 -23.969  1.00  0.00     0.000 C 
BRANCH   2   3
ATOM      3  C   UNL     1       5.799   7.608 -25.102  1.00  0.00     0.000 C 
BRANCH   3   4
ATOM      4  C   UNL     1       6.420   7.451 -26.500  1.00  0.00     0.000 C 
BRANCH   4   5
ATOM      5  C   UNL     1       5.711   6.398 -27.378  1.00  0.00     0.006 C 
BRANCH   5   6
ATOM      6  C   UNL     1       6.241   4.980 -27.128  1.00  0.00     0.053 C 
BRANCH   6   7
ATOM      7  C   UNL     1       5.133   4.076 -26.688  1.00  0.00     0.041 C 
ATOM      8  O   UNL     1       4.312   3.624 -27.529  1.00  0.00    -0.550 OA
ATOM      9  O   UNL     1       4.978   3.773 -25.341  1.00  0.00    -0.550 OA
ENDBRANCH   6   7
ENDBRANCH   5   6
ENDBRANCH   4   5
ENDBRANCH   3   4
ENDBRANCH   2   3
ENDBRANCH   1   2
BRANCH   1  10
ATOM     10  C   UNL     1       7.000   5.690 -22.103  1.00  0.00     0.000 C 
BRANCH  10  11
ATOM     11  C   UNL     1       5.647   6.100 -21.498  1.00  0.00    -0.000 C 
BRANCH  11  12
ATOM     12  C   UNL     1       5.344   5.367 -20.181  1.00  0.00    -0.000 C 
BRANCH  12  13
ATOM     13  C   UNL     1       3.964   5.732 -19.608  1.00  0.00    -0.000 C 
BRANCH  13  14
ATOM     14  C   UNL     1       2.904   5.934 -20.704  1.00  0.00    -0.000 C 
BRANCH  14  15
ATOM     15  C   UNL     1       1.628   6.604 -20.175  1.00  0.00    -0.003 C 
ATOM     16  C   UNL     1       0.815   7.213 -21.313  1.00  0.00     0.004 C 
ENDBRANCH  14  15
ENDBRANCH  13  14
ENDBRANCH  12  13
ENDBRANCH  11  12
ENDBRANCH  10  11
ENDBRANCH   1  10
TORSDOF 12
ENDMDL
MODEL 6
REMARK VINA RESULT:    -4.704      2.473      5.668
REMARK INTER + INTRA:          -8.601
REMARK INTER:                  -6.871
REMARK INTRA:                  -1.730
REMARK UNBOUND:                -0.596
REMARK SMILES CCCCCCCCCCCCCC(=O)[O-]
REMARK SMILES IDX 8 1 9 2 10 3 11 4 12 5 13 6 14 7 15 8 16 9 7 10 6 11 5 12
REMARK SMILES IDX 4 13 3 14 2 15 1 16
REMARK H PARENT
REMARK Flexibility Score: inf
ROOT
ATOM      1  C   UNL     1     -13.123  -2.505 -25.122  1.00  0.00     0.000 C 
ENDROOT
BRANCH   1   2
ATOM      2  C   UNL     1     -12.335  -2.993 -23.888  1.00  0.00     0.000 C 
BRANCH   2   3
ATOM      3  C   UNL     1     -12.935  -2.472 -22.572  1.00  0.00     0.000 C 
BRANCH   3   4
ATOM      4  C   UNL     1     -13.032  -0.937 -22.524  1.00  0.00     0.000 C 
BRANCH   4   5
ATOM      5  C   UNL     1     -13.124  -0.367 -21.093  1.00  0.00     0.006 C 
BRANCH   5   6
ATOM      6  C   UNL     1     -11.795  -0.477 -20.336  1.00  0.00     0.053 C 
BRANCH   6   7
ATOM      7  C   UNL     1     -11.436   0.837 -19.715  1.00  0.00     0.041 C 
ATOM      8  O   UNL     1     -11.283   1.858 -20.436  1.00  0.00    -0.550 OA
ATOM      9  O   UNL     1     -11.225   0.922 -18.345  1.00  0.00    -0.550 OA
ENDBRANCH   6   7
ENDBRANCH   5   6
ENDBRANCH   4   5
ENDBRANCH   3   4
ENDBRANCH   2   3
ENDBRANCH   1   2
BRANCH   1  10
ATOM     10  C   UNL     1     -12.384  -2.732 -26.451  1.00  0.00     0.000 C 
BRANCH  10  11
ATOM     11  C   UNL     1     -11.609  -1.491 -26.922  1.00  0.00    -0.000 C 
BRANCH  11  12
ATOM     12  C   UNL     1     -11.903  -0.250 -26.065  1.00  0.00    -0.000 C 
BRANCH  12  13
ATOM     13  C   UNL     1     -10.630   0.358 -25.451  1.00  0.00    -0.000 C 
BRANCH  13  14
ATOM     14  C   UNL     1      -9.630  -0.712 -24.986  1.00  0.00    -0.000 C 
BRANCH  14  15
ATOM     15  C   UNL     1      -9.495  -0.770 -23.457  1.00  0.00    -0.003 C 
ATOM     16  C   UNL     1      -9.074   0.583 -22.892  1.00  0.00     0.004 C 
ENDBRANCH  14  15
ENDBRANCH  13  14
ENDBRANCH  12  13
ENDBRANCH  11  12
ENDBRANCH  10  11
ENDBRANCH   1  10
TORSDOF 12
ENDMDL
MODEL 7
REMARK VINA RESULT:    -4.673      2.374      5.980
REMARK INTER + INTRA:          -8.547
REMARK INTER:                  -6.898
REMARK INTRA:                  -1.650
REMARK UNBOUND:                -0.596
REMARK SMILES CCCCCCCCCCCCCC(=O)[O-]
REMARK SMILES IDX 8 1 9 2 10 3 11 4 12 5 13 6 14 7 15 8 16 9 7 10 6 11 5 12
REMARK SMILES IDX 4 13 3 14 2 15 1 16
REMARK H PARENT
REMARK Flexibility Score: inf
ROOT
ATOM      1  C   UNL     1     -13.048  -2.253 -23.482  1.00  0.00     0.000 C 
ENDROOT
BRANCH   1   2
ATOM      2  C   UNL     1     -12.473  -1.694 -22.163  1.00  0.00     0.000 C 
BRANCH   2   3
ATOM      3  C   UNL     1     -11.106  -1.021 -22.363  1.00  0.00     0.000 C 
BRANCH   3   4
ATOM      4  C   UNL     1     -10.536  -0.422 -21.066  1.00  0.00     0.000 C 
BRANCH   4   5
ATOM      5  C   UNL     1      -9.010  -0.200 -21.104  1.00  0.00     0.006 C 
BRANCH   5   6
ATOM      6  C   UNL     1      -8.372  -0.763 -22.381  1.00  0.00     0.053 C 
BRANCH   6   7
ATOM      7  C   UNL     1      -7.630   0.311 -23.112  1.00  0.00     0.041 C 
ATOM      8  O   UNL     1      -6.390   0.453 -22.943  1.00  0.00    -0.550 OA
ATOM      9  O   UNL     1      -8.316   1.187 -23.944  1.00  0.00    -0.550 OA
ENDBRANCH   6   7
ENDBRANCH   5   6
ENDBRANCH   4   5
ENDBRANCH   3   4
ENDBRANCH   2   3
ENDBRANCH   1   2
BRANCH   1  10
ATOM     10  C   UNL     1     -12.003  -2.977 -24.348  1.00  0.00     0.000 C 
BRANCH  10  11
ATOM     11  C   UNL     1     -12.432  -3.104 -25.819  1.00  0.00    -0.000 C 
BRANCH  11  12
ATOM     12  C   UNL     1     -11.987  -1.904 -26.670  1.00  0.00    -0.000 C 
BRANCH  12  13
ATOM     13  C   UNL     1     -10.891  -1.070 -25.984  1.00  0.00    -0.000 C 
BRANCH  13  14
ATOM     14  C   UNL     1     -11.250   0.423 -25.904  1.00  0.00    -0.000 C 
BRANCH  14  15
ATOM     15  C   UNL     1     -12.765   0.661 -25.808  1.00  0.00    -0.003 C 
ATOM     16  C   UNL     1     -13.125   1.392 -24.519  1.00  0.00     0.004 C 
ENDBRANCH  14  15
ENDBRANCH  13  14
ENDBRANCH  12  13
ENDBRANCH  11  12
ENDBRANCH  10  11
ENDBRANCH   1  10
TORSDOF 12
ENDMDL
MODEL 8
REMARK VINA RESULT:    -4.654      1.477      3.544
REMARK INTER + INTRA:          -8.515
REMARK INTER:                  -7.435
REMARK INTRA:                  -1.080
REMARK UNBOUND:                -0.596
REMARK SMILES CCCCCCCCCCCCCC(=O)[O-]
REMARK SMILES IDX 8 1 9 2 10 3 11 4 12 5 13 6 14 7 15 8 16 9 7 10 6 11 5 12
REMARK SMILES IDX 4 13 3 14 2 15 1 16
REMARK H PARENT
REMARK Flexibility Score: inf
ROOT
ATOM      1  C   UNL     1     -12.424  -2.777 -26.360  1.00  0.00     0.000 C 
ENDROOT
BRANCH   1   2
ATOM      2  C   UNL     1     -11.776  -1.551 -27.040  1.00  0.00     0.000 C 
BRANCH   2   3
ATOM      3  C   UNL     1     -10.932  -0.721 -26.060  1.00  0.00     0.000 C 
BRANCH   3   4
ATOM      4  C   UNL     1      -9.431  -0.739 -26.397  1.00  0.00     0.000 C 
BRANCH   4   5
ATOM      5  C   UNL     1      -8.520  -0.487 -25.177  1.00  0.00     0.006 C 
BRANCH   5   6
ATOM      6  C   UNL     1      -9.212  -0.835 -23.852  1.00  0.00     0.053 C 
BRANCH   6   7
ATOM      7  C   UNL     1      -9.283   0.369 -22.967  1.00  0.00     0.041 C 
ATOM      8  O   UNL     1      -8.708   0.366 -21.846  1.00  0.00    -0.550 OA
ATOM      9  O   UNL     1     -10.024   1.476 -23.359  1.00  0.00    -0.550 OA
ENDBRANCH   6   7
ENDBRANCH   5   6
ENDBRANCH   4   5
ENDBRANCH   3   4
ENDBRANCH   2   3
ENDBRANCH   1   2
BRANCH   1  10
ATOM     10  C   UNL     1     -12.000  -2.960 -24.894  1.00  0.00     0.000 C 
BRANCH  10  11
ATOM     11  C   UNL     1     -12.956  -2.273 -23.905  1.00  0.00    -0.000 C 
BRANCH  11  12
ATOM     12  C   UNL     1     -12.442  -2.320 -22.457  1.00  0.00    -0.000 C 
BRANCH  12  13
ATOM     13  C   UNL     1     -12.598  -0.972 -21.733  1.00  0.00    -0.000 C 
BRANCH  13  14
ATOM     14  C   UNL     1     -11.723  -0.875 -20.473  1.00  0.00    -0.000 C 
BRANCH  14  15
ATOM     15  C   UNL     1     -11.999   0.398 -19.659  1.00  0.00    -0.003 C 
ATOM     16  C   UNL     1     -11.189   0.411 -18.367  1.00  0.00     0.004 C 
ENDBRANCH  14  15
ENDBRANCH  13  14
ENDBRANCH  12  13
ENDBRANCH  11  12
ENDBRANCH  10  11
ENDBRANCH   1  10
TORSDOF 12
ENDMDL
MODEL 9
REMARK VINA RESULT:    -3.746      2.697      6.449
REMARK INTER + INTRA:          -6.971
REMARK INTER:                  -5.477
REMARK INTRA:                  -1.494
REMARK UNBOUND:                -0.596
REMARK SMILES CCCCCCCCCCCCCC(=O)[O-]
REMARK SMILES IDX 8 1 9 2 10 3 11 4 12 5 13 6 14 7 15 8 16 9 7 10 6 11 5 12
REMARK SMILES IDX 4 13 3 14 2 15 1 16
REMARK H PARENT
REMARK Flexibility Score: inf
ROOT
ATOM      1  C   UNL     1     -13.125  -2.451 -24.032  1.00  0.00     0.000 C 
ENDROOT
BRANCH   1   2
ATOM      2  C   UNL     1     -12.707  -2.262 -22.557  1.00  0.00     0.000 C 
BRANCH   2   3
ATOM      3  C   UNL     1     -12.123  -0.865 -22.293  1.00  0.00     0.000 C 
BRANCH   3   4
ATOM      4  C   UNL     1     -10.587  -0.863 -22.215  1.00  0.00     0.000 C 
BRANCH   4   5
ATOM      5  C   UNL     1     -10.030  -0.096 -20.997  1.00  0.00     0.006 C 
BRANCH   5   6
ATOM      6  C   UNL     1     -11.030  -0.045 -19.835  1.00  0.00     0.053 C 
BRANCH   6   7
ATOM      7  C   UNL     1     -11.332   1.373 -19.466  1.00  0.00     0.041 C 
ATOM      8  O   UNL     1     -10.398   2.211 -19.354  1.00  0.00    -0.550 OA
ATOM      9  O   UNL     1     -12.639   1.758 -19.199  1.00  0.00    -0.550 OA
ENDBRANCH   6   7
ENDBRANCH   5   6
ENDBRANCH   4   5
ENDBRANCH   3   4
ENDBRANCH   2   3
ENDBRANCH   1   2
BRANCH   1  10
ATOM     10  C   UNL     1     -12.003  -3.013 -24.920  1.00  0.00     0.000 C 
BRANCH  10  11
ATOM     11  C   UNL     1     -12.314  -2.896 -26.421  1.00  0.00    -0.000 C 
BRANCH  11  12
ATOM     12  C   UNL     1     -11.878  -1.545 -27.010  1.00  0.00    -0.000 C 
BRANCH  12  13
ATOM     13  C   UNL     1     -10.861  -0.813 -26.118  1.00  0.00    -0.000 C 
BRANCH  13  14
ATOM     14  C   UNL     1     -11.195   0.676 -25.940  1.00  0.00    -0.000 C 
BRANCH  14  15
ATOM     15  C   UNL     1     -12.708   0.943 -25.918  1.00  0.00    -0.003 C 
ATOM     16  C   UNL     1     -13.121   1.658 -24.636  1.00  0.00     0.004 C 
ENDBRANCH  14  15
ENDBRANCH  13  14
ENDBRANCH  12  13
ENDBRANCH  11  12
ENDBRANCH  10  11
ENDBRANCH   1  10
TORSDOF 12
ENDMDL
