MODEL 1
REMARK VINA RESULT:    -5.540      0.000      0.000
REMARK INTER + INTRA:          -6.823
REMARK INTER:                  -6.512
REMARK INTRA:                  -0.311
REMARK UNBOUND:                -0.311
REMARK SMILES O=c1cc(-c2ccc(O)c(O)c2)oc2cc(O)cc(O)c12
REMARK SMILES IDX 4 1 3 2 2 3 1 4 21 5 19 6 18 7 16 8 15 9 14 10 13 11 5 12
REMARK SMILES IDX 6 13 7 14 8 15 12 16 10 17 9 18 11 20 20 22 17 24
REMARK H PARENT 9 19 11 21 20 23 17 25
REMARK Flexibility Score: inf
ROOT
ATOM      1  C   UNL     1      15.070  19.336  35.721  1.00  0.00     0.138 A 
ATOM      2  C   UNL     1      15.903  18.324  36.217  1.00  0.00     0.100 A 
ATOM      3  C   UNL     1      16.292  17.278  35.378  1.00  0.00     0.197 A 
ATOM      4  O   UNL     1      16.989  16.352  35.869  1.00  0.00    -0.289 OA
ATOM      5  C   UNL     1      15.868  17.264  34.028  1.00  0.00     0.107 A 
ATOM      6  C   UNL     1      16.235  16.272  33.072  1.00  0.00     0.134 A 
ATOM      7  C   UNL     1      15.662  16.298  31.795  1.00  0.00     0.093 A 
ATOM      8  C   UNL     1      14.782  17.312  31.420  1.00  0.00     0.123 A 
ATOM      9  C   UNL     1      14.458  18.319  32.331  1.00  0.00     0.094 A 
ATOM     10  C   UNL     1      14.987  18.302  33.623  1.00  0.00     0.146 A 
ATOM     11  O   UNL     1      14.642  19.271  34.465  1.00  0.00    -0.456 OA
ENDROOT
BRANCH   1  12
ATOM     12  C   UNL     1      14.628  20.472  36.569  1.00  0.00     0.021 A 
ATOM     13  C   UNL     1      15.366  20.804  37.719  1.00  0.00     0.016 A 
ATOM     14  C   UNL     1      14.968  21.864  38.537  1.00  0.00     0.051 A 
ATOM     15  C   UNL     1      13.822  22.603  38.231  1.00  0.00     0.157 A 
ATOM     16  C   UNL     1      13.466  21.212  36.272  1.00  0.00     0.062 A 
ATOM     17  C   UNL     1      13.065  22.275  37.094  1.00  0.00     0.158 A 
BRANCH  15  18
ATOM     18  O   UNL     1      13.452  23.656  39.066  1.00  0.00    -0.504 OA
ATOM     19  H   UNL     1      13.088  24.529  38.702  1.00  0.00     0.293 HD
ENDBRANCH  15  18
BRANCH  17  20
ATOM     20  O   UNL     1      11.915  23.001  36.789  1.00  0.00    -0.504 OA
ATOM     21  H   UNL     1      11.962  23.897  36.317  1.00  0.00     0.293 HD
ENDBRANCH  17  20
ENDBRANCH   1  12
BRANCH   6  22
ATOM     22  O   UNL     1      17.171  15.261  33.314  1.00  0.00    -0.507 OA
ATOM     23  H   UNL     1      16.989  14.273  33.225  1.00  0.00     0.293 HD
ENDBRANCH   6  22
BRANCH   8  24
ATOM     24  O   UNL     1      14.242  17.315  30.137  1.00  0.00    -0.508 OA
ATOM     25  H   UNL     1      13.278  17.577  29.968  1.00  0.00     0.293 HD
ENDBRANCH   8  24
TORSDOF 5
ENDMDL
MODEL 2
REMARK VINA RESULT:    -5.264      2.724      4.514
REMARK INTER + INTRA:          -6.498
REMARK INTER:                  -6.233
REMARK INTRA:                  -0.265
REMARK UNBOUND:                -0.311
REMARK SMILES O=c1cc(-c2ccc(O)c(O)c2)oc2cc(O)cc(O)c12
REMARK SMILES IDX 4 1 3 2 2 3 1 4 21 5 19 6 18 7 16 8 15 9 14 10 13 11 5 12
REMARK SMILES IDX 6 13 7 14 8 15 12 16 10 17 9 18 11 20 20 22 17 24
REMARK H PARENT 9 19 11 21 20 23 17 25
REMARK Flexibility Score: inf
ROOT
ATOM      1  C   UNL     1      15.781  16.332  33.040  1.00  0.00     0.138 A 
ATOM      2  C   UNL     1      15.468  15.126  33.682  1.00  0.00     0.100 A 
ATOM      3  C   UNL     1      16.022  13.932  33.218  1.00  0.00     0.197 A 
ATOM      4  O   UNL     1      15.674  12.859  33.775  1.00  0.00    -0.289 OA
ATOM      5  C   UNL     1      16.919  13.953  32.123  1.00  0.00     0.107 A 
ATOM      6  C   UNL     1      17.577  12.804  31.590  1.00  0.00     0.134 A 
ATOM      7  C   UNL     1      18.353  12.929  30.432  1.00  0.00     0.093 A 
ATOM      8  C   UNL     1      18.546  14.168  29.823  1.00  0.00     0.123 A 
ATOM      9  C   UNL     1      17.950  15.308  30.367  1.00  0.00     0.094 A 
ATOM     10  C   UNL     1      17.143  15.210  31.502  1.00  0.00     0.146 A 
ATOM     11  O   UNL     1      16.583  16.317  31.981  1.00  0.00    -0.456 OA
ENDROOT
BRANCH   1  12
ATOM     12  C   UNL     1      15.220  17.630  33.494  1.00  0.00     0.021 A 
ATOM     13  C   UNL     1      15.754  18.250  34.638  1.00  0.00     0.016 A 
ATOM     14  C   UNL     1      15.240  19.468  35.090  1.00  0.00     0.051 A 
ATOM     15  C   UNL     1      14.179  20.082  34.418  1.00  0.00     0.157 A 
ATOM     16  C   UNL     1      14.143  18.246  32.828  1.00  0.00     0.062 A 
ATOM     17  C   UNL     1      13.625  19.468  33.283  1.00  0.00     0.158 A 
BRANCH  15  18
ATOM     18  O   UNL     1      13.689  21.298  34.893  1.00  0.00    -0.504 OA
ATOM     19  H   UNL     1      12.825  21.361  35.419  1.00  0.00     0.293 HD
ENDBRANCH  15  18
BRANCH  17  20
ATOM     20  O   UNL     1      12.560  20.069  32.614  1.00  0.00    -0.504 OA
ATOM     21  H   UNL     1      12.710  20.724  31.856  1.00  0.00     0.293 HD
ENDBRANCH  17  20
ENDBRANCH   1  12
BRANCH   6  22
ATOM     22  O   UNL     1      17.521  11.533  32.170  1.00  0.00    -0.507 OA
ATOM     23  H   UNL     1      16.979  11.294  32.985  1.00  0.00     0.293 HD
ENDBRANCH   6  22
BRANCH   8  24
ATOM     24  O   UNL     1      19.336  14.258  28.680  1.00  0.00    -0.508 OA
ATOM     25  H   UNL     1      20.319  14.014  28.694  1.00  0.00     0.293 HD
ENDBRANCH   8  24
TORSDOF 5
ENDMDL
MODEL 3
REMARK VINA RESULT:    -5.192      2.824      4.893
REMARK INTER + INTRA:          -6.414
REMARK INTER:                  -6.151
REMARK INTRA:                  -0.263
REMARK UNBOUND:                -0.311
REMARK SMILES O=c1cc(-c2ccc(O)c(O)c2)oc2cc(O)cc(O)c12
REMARK SMILES IDX 4 1 3 2 2 3 1 4 21 5 19 6 18 7 16 8 15 9 14 10 13 11 5 12
REMARK SMILES IDX 6 13 7 14 8 15 12 16 10 17 9 18 11 20 20 22 17 24
REMARK H PARENT 9 19 11 21 20 23 17 25
REMARK Flexibility Score: inf
ROOT
ATOM      1  C   UNL     1      15.876  16.416  32.822  1.00  0.00     0.138 A 
ATOM      2  C   UNL     1      16.874  16.429  31.838  1.00  0.00     0.100 A 
ATOM      3  C   UNL     1      17.399  15.223  31.373  1.00  0.00     0.197 A 
ATOM      4  O   UNL     1      18.338  15.267  30.536  1.00  0.00    -0.289 OA
ATOM      5  C   UNL     1      16.899  13.998  31.875  1.00  0.00     0.107 A 
ATOM      6  C   UNL     1      17.329  12.707  31.445  1.00  0.00     0.134 A 
ATOM      7  C   UNL     1      16.845  11.566  32.095  1.00  0.00     0.093 A 
ATOM      8  C   UNL     1      15.902  11.664  33.118  1.00  0.00     0.123 A 
ATOM      9  C   UNL     1      15.434  12.919  33.510  1.00  0.00     0.094 A 
ATOM     10  C   UNL     1      15.923  14.078  32.903  1.00  0.00     0.146 A 
ATOM     11  O   UNL     1      15.461  15.255  33.316  1.00  0.00    -0.456 OA
ENDROOT
BRANCH   1  12
ATOM     12  C   UNL     1      15.281  17.671  33.351  1.00  0.00     0.021 A 
ATOM     13  C   UNL     1      15.810  18.247  34.519  1.00  0.00     0.016 A 
ATOM     14  C   UNL     1      15.265  19.423  35.041  1.00  0.00     0.051 A 
ATOM     15  C   UNL     1      14.177  20.037  34.415  1.00  0.00     0.157 A 
ATOM     16  C   UNL     1      14.177  18.287  32.731  1.00  0.00     0.062 A 
ATOM     17  C   UNL     1      13.628  19.466  33.255  1.00  0.00     0.158 A 
BRANCH  15  18
ATOM     18  O   UNL     1      13.657  21.211  34.958  1.00  0.00    -0.504 OA
ATOM     19  H   UNL     1      14.139  22.099  34.883  1.00  0.00     0.293 HD
ENDBRANCH  15  18
BRANCH  17  20
ATOM     20  O   UNL     1      12.536  20.068  32.632  1.00  0.00    -0.504 OA
ATOM     21  H   UNL     1      12.572  21.027  32.307  1.00  0.00     0.293 HD
ENDBRANCH  17  20
ENDBRANCH   1  12
BRANCH   6  22
ATOM     22  O   UNL     1      18.205  12.492  30.376  1.00  0.00    -0.507 OA
ATOM     23  H   UNL     1      19.019  13.051  30.175  1.00  0.00     0.293 HD
ENDBRANCH   6  22
BRANCH   8  24
ATOM     24  O   UNL     1      15.431  10.507  33.733  1.00  0.00    -0.508 OA
ATOM     25  H   UNL     1      14.591  10.041  33.414  1.00  0.00     0.293 HD
ENDBRANCH   8  24
TORSDOF 5
ENDMDL
MODEL 4
REMARK VINA RESULT:    -5.165      2.787      7.793
REMARK INTER + INTRA:          -6.382
REMARK INTER:                  -6.118
REMARK INTRA:                  -0.264
REMARK UNBOUND:                -0.311
REMARK SMILES O=c1cc(-c2ccc(O)c(O)c2)oc2cc(O)cc(O)c12
REMARK SMILES IDX 4 1 3 2 2 3 1 4 21 5 19 6 18 7 16 8 15 9 14 10 13 11 5 12
REMARK SMILES IDX 6 13 7 14 8 15 12 16 10 17 9 18 11 20 20 22 17 24
REMARK H PARENT 9 19 11 21 20 23 17 25
REMARK Flexibility Score: inf
ROOT
ATOM      1  C   UNL     1      16.219  15.493  33.389  1.00  0.00     0.138 A 
ATOM      2  C   UNL     1      16.941  15.917  34.513  1.00  0.00     0.100 A 
ATOM      3  C   UNL     1      16.670  17.165  35.077  1.00  0.00     0.197 A 
ATOM      4  O   UNL     1      17.377  17.544  36.046  1.00  0.00    -0.289 OA
ATOM      5  C   UNL     1      15.648  17.976  34.530  1.00  0.00     0.107 A 
ATOM      6  C   UNL     1      15.256  19.247  35.047  1.00  0.00     0.134 A 
ATOM      7  C   UNL     1      14.311  20.013  34.354  1.00  0.00     0.093 A 
ATOM      8  C   UNL     1      13.699  19.529  33.198  1.00  0.00     0.123 A 
ATOM      9  C   UNL     1      14.035  18.264  32.714  1.00  0.00     0.094 A 
ATOM     10  C   UNL     1      15.000  17.491  33.364  1.00  0.00     0.146 A 
ATOM     11  O   UNL     1      15.301  16.297  32.862  1.00  0.00    -0.456 OA
ENDROOT
BRANCH   1  12
ATOM     12  C   UNL     1      16.466  14.175  32.751  1.00  0.00     0.021 A 
ATOM     13  C   UNL     1      15.768  13.044  33.210  1.00  0.00     0.016 A 
ATOM     14  C   UNL     1      15.987  11.791  32.630  1.00  0.00     0.051 A 
ATOM     15  C   UNL     1      16.913  11.643  31.594  1.00  0.00     0.157 A 
ATOM     16  C   UNL     1      17.407  14.017  31.715  1.00  0.00     0.062 A 
ATOM     17  C   UNL     1      17.628  12.760  31.135  1.00  0.00     0.158 A 
BRANCH  15  18
ATOM     18  O   UNL     1      17.108  10.380  31.036  1.00  0.00    -0.504 OA
ATOM     19  H   UNL     1      16.632   9.557  31.387  1.00  0.00     0.293 HD
ENDBRANCH  15  18
BRANCH  17  20
ATOM     20  O   UNL     1      18.561  12.616  30.108  1.00  0.00    -0.504 OA
ATOM     21  H   UNL     1      18.284  12.628  29.134  1.00  0.00     0.293 HD
ENDBRANCH  17  20
ENDBRANCH   1  12
BRANCH   6  22
ATOM     22  O   UNL     1      15.743  19.789  36.241  1.00  0.00    -0.507 OA
ATOM     23  H   UNL     1      16.692  20.094  36.392  1.00  0.00     0.293 HD
ENDBRANCH   6  22
BRANCH   8  24
ATOM     24  O   UNL     1      12.751  20.311  32.542  1.00  0.00    -0.508 OA
ATOM     25  H   UNL     1      12.930  21.282  32.316  1.00  0.00     0.293 HD
ENDBRANCH   8  24
TORSDOF 5
ENDMDL
MODEL 5
REMARK VINA RESULT:    -5.084      1.827      7.384
REMARK INTER + INTRA:          -6.287
REMARK INTER:                  -5.998
REMARK INTRA:                  -0.289
REMARK UNBOUND:                -0.311
REMARK SMILES O=c1cc(-c2ccc(O)c(O)c2)oc2cc(O)cc(O)c12
REMARK SMILES IDX 4 1 3 2 2 3 1 4 21 5 19 6 18 7 16 8 15 9 14 10 13 11 5 12
REMARK SMILES IDX 6 13 7 14 8 15 12 16 10 17 9 18 11 20 20 22 17 24
REMARK H PARENT 9 19 11 21 20 23 17 25
REMARK Flexibility Score: inf
ROOT
ATOM      1  C   UNL     1      15.346  18.308  33.643  1.00  0.00     0.138 A 
ATOM      2  C   UNL     1      14.911  19.339  32.799  1.00  0.00     0.100 A 
ATOM      3  C   UNL     1      14.437  20.529  33.353  1.00  0.00     0.197 A 
ATOM      4  O   UNL     1      13.996  21.413  32.572  1.00  0.00    -0.289 OA
ATOM      5  C   UNL     1      14.428  20.697  34.758  1.00  0.00     0.107 A 
ATOM      6  C   UNL     1      14.005  21.881  35.432  1.00  0.00     0.134 A 
ATOM      7  C   UNL     1      13.931  21.890  36.830  1.00  0.00     0.093 A 
ATOM      8  C   UNL     1      14.320  20.781  37.580  1.00  0.00     0.123 A 
ATOM      9  C   UNL     1      14.786  19.635  36.932  1.00  0.00     0.094 A 
ATOM     10  C   UNL     1      14.840  19.584  35.538  1.00  0.00     0.146 A 
ATOM     11  O   UNL     1      15.277  18.469  34.959  1.00  0.00    -0.456 OA
ENDROOT
BRANCH   1  12
ATOM     12  C   UNL     1      15.861  17.022  33.106  1.00  0.00     0.021 A 
ATOM     13  C   UNL     1      15.746  15.854  33.881  1.00  0.00     0.016 A 
ATOM     14  C   UNL     1      16.228  14.634  33.402  1.00  0.00     0.051 A 
ATOM     15  C   UNL     1      16.845  14.559  32.150  1.00  0.00     0.157 A 
ATOM     16  C   UNL     1      16.495  16.943  31.851  1.00  0.00     0.062 A 
ATOM     17  C   UNL     1      16.981  15.719  31.370  1.00  0.00     0.158 A 
BRANCH  15  18
ATOM     18  O   UNL     1      17.315  13.326  31.699  1.00  0.00    -0.504 OA
ATOM     19  H   UNL     1      17.616  13.183  30.742  1.00  0.00     0.293 HD
ENDBRANCH  15  18
BRANCH  17  20
ATOM     20  O   UNL     1      17.605  15.652  30.125  1.00  0.00    -0.504 OA
ATOM     21  H   UNL     1      17.070  15.622  29.264  1.00  0.00     0.293 HD
ENDBRANCH  17  20
ENDBRANCH   1  12
BRANCH   6  22
ATOM     22  O   UNL     1      13.675  23.074  34.782  1.00  0.00    -0.507 OA
ATOM     23  H   UNL     1      13.268  23.137  33.862  1.00  0.00     0.293 HD
ENDBRANCH   6  22
BRANCH   8  24
ATOM     24  O   UNL     1      14.247  20.830  38.970  1.00  0.00    -0.508 OA
ATOM     25  H   UNL     1      14.136  21.706  39.465  1.00  0.00     0.293 HD
ENDBRANCH   8  24
TORSDOF 5
ENDMDL
MODEL 6
REMARK VINA RESULT:    -5.072      2.454      6.971
REMARK INTER + INTRA:          -6.273
REMARK INTER:                  -5.983
REMARK INTRA:                  -0.290
REMARK UNBOUND:                -0.311
REMARK SMILES O=c1cc(-c2ccc(O)c(O)c2)oc2cc(O)cc(O)c12
REMARK SMILES IDX 4 1 3 2 2 3 1 4 21 5 19 6 18 7 16 8 15 9 14 10 13 11 5 12
REMARK SMILES IDX 6 13 7 14 8 15 12 16 10 17 9 18 11 20 20 22 17 24
REMARK H PARENT 9 19 11 21 20 23 17 25
REMARK Flexibility Score: inf
ROOT
ATOM      1  C   UNL     1      15.628  20.251  36.391  1.00  0.00     0.138 A 
ATOM      2  C   UNL     1      17.001  20.458  36.587  1.00  0.00     0.100 A 
ATOM      3  C   UNL     1      17.445  21.058  37.767  1.00  0.00     0.197 A 
ATOM      4  O   UNL     1      18.677  21.288  37.888  1.00  0.00    -0.289 OA
ATOM      5  C   UNL     1      16.512  21.422  38.766  1.00  0.00     0.107 A 
ATOM      6  C   UNL     1      16.853  22.001  40.024  1.00  0.00     0.134 A 
ATOM      7  C   UNL     1      15.836  22.426  40.887  1.00  0.00     0.093 A 
ATOM      8  C   UNL     1      14.493  22.238  40.566  1.00  0.00     0.123 A 
ATOM      9  C   UNL     1      14.148  21.624  39.361  1.00  0.00     0.094 A 
ATOM     10  C   UNL     1      15.139  21.219  38.464  1.00  0.00     0.146 A 
ATOM     11  O   UNL     1      14.769  20.650  37.322  1.00  0.00    -0.456 OA
ENDROOT
BRANCH   1  12
ATOM     12  C   UNL     1      15.101  19.616  35.156  1.00  0.00     0.021 A 
ATOM     13  C   UNL     1      15.695  18.433  34.680  1.00  0.00     0.016 A 
ATOM     14  C   UNL     1      15.222  17.819  33.518  1.00  0.00     0.051 A 
ATOM     15  C   UNL     1      14.160  18.380  32.803  1.00  0.00     0.157 A 
ATOM     16  C   UNL     1      14.040  20.184  34.425  1.00  0.00     0.062 A 
ATOM     17  C   UNL     1      13.567  19.569  33.256  1.00  0.00     0.158 A 
BRANCH  15  18
ATOM     18  O   UNL     1      13.710  17.744  31.647  1.00  0.00    -0.504 OA
ATOM     19  H   UNL     1      14.135  17.909  30.742  1.00  0.00     0.293 HD
ENDBRANCH  15  18
BRANCH  17  20
ATOM     20  O   UNL     1      12.514  20.140  32.542  1.00  0.00    -0.504 OA
ATOM     21  H   UNL     1      12.159  21.062  32.765  1.00  0.00     0.293 HD
ENDBRANCH  17  20
ENDBRANCH   1  12
BRANCH   6  22
ATOM     22  O   UNL     1      18.166  22.158  40.482  1.00  0.00    -0.507 OA
ATOM     23  H   UNL     1      18.954  22.403  39.903  1.00  0.00     0.293 HD
ENDBRANCH   6  22
BRANCH   8  24
ATOM     24  O   UNL     1      13.507  22.661  41.455  1.00  0.00    -0.508 OA
ATOM     25  H   UNL     1      13.152  22.051  42.182  1.00  0.00     0.293 HD
ENDBRANCH   8  24
TORSDOF 5
ENDMDL
MODEL 7
REMARK VINA RESULT:    -4.955      1.430      2.668
REMARK INTER + INTRA:          -6.135
REMARK INTER:                  -5.851
REMARK INTRA:                  -0.285
REMARK UNBOUND:                -0.311
REMARK SMILES O=c1cc(-c2ccc(O)c(O)c2)oc2cc(O)cc(O)c12
REMARK SMILES IDX 4 1 3 2 2 3 1 4 21 5 19 6 18 7 16 8 15 9 14 10 13 11 5 12
REMARK SMILES IDX 6 13 7 14 8 15 12 16 10 17 9 18 11 20 20 22 17 24
REMARK H PARENT 9 19 11 21 20 23 17 25
REMARK Flexibility Score: inf
ROOT
ATOM      1  C   UNL     1      14.906  20.191  34.790  1.00  0.00     0.138 A 
ATOM      2  C   UNL     1      15.027  20.932  33.606  1.00  0.00     0.100 A 
ATOM      3  C   UNL     1      15.335  20.279  32.412  1.00  0.00     0.197 A 
ATOM      4  O   UNL     1      15.499  20.978  31.378  1.00  0.00    -0.289 OA
ATOM      5  C   UNL     1      15.493  18.873  32.400  1.00  0.00     0.107 A 
ATOM      6  C   UNL     1      15.767  18.097  31.234  1.00  0.00     0.134 A 
ATOM      7  C   UNL     1      16.017  16.725  31.362  1.00  0.00     0.093 A 
ATOM      8  C   UNL     1      15.943  16.091  32.601  1.00  0.00     0.123 A 
ATOM      9  C   UNL     1      15.622  16.832  33.740  1.00  0.00     0.094 A 
ATOM     10  C   UNL     1      15.401  18.208  33.650  1.00  0.00     0.146 A 
ATOM     11  O   UNL     1      15.112  18.879  34.761  1.00  0.00    -0.456 OA
ENDROOT
BRANCH   1  12
ATOM     12  C   UNL     1      14.578  20.835  36.087  1.00  0.00     0.021 A 
ATOM     13  C   UNL     1      15.147  20.333  37.271  1.00  0.00     0.016 A 
ATOM     14  C   UNL     1      14.849  20.916  38.505  1.00  0.00     0.051 A 
ATOM     15  C   UNL     1      13.971  22.001  38.582  1.00  0.00     0.157 A 
ATOM     16  C   UNL     1      13.684  21.919  36.171  1.00  0.00     0.062 A 
ATOM     17  C   UNL     1      13.383  22.505  37.410  1.00  0.00     0.158 A 
BRANCH  15  18
ATOM     18  O   UNL     1      13.695  22.563  39.827  1.00  0.00    -0.504 OA
ATOM     19  H   UNL     1      12.873  22.308  40.362  1.00  0.00     0.293 HD
ENDBRANCH  15  18
BRANCH  17  20
ATOM     20  O   UNL     1      12.498  23.580  37.481  1.00  0.00    -0.504 OA
ATOM     21  H   UNL     1      12.035  23.831  38.346  1.00  0.00     0.293 HD
ENDBRANCH  17  20
ENDBRANCH   1  12
BRANCH   6  22
ATOM     22  O   UNL     1      15.781  18.615  29.935  1.00  0.00    -0.507 OA
ATOM     23  H   UNL     1      15.176  18.313  29.187  1.00  0.00     0.293 HD
ENDBRANCH   6  22
BRANCH   8  24
ATOM     24  O   UNL     1      16.184  14.722  32.689  1.00  0.00    -0.508 OA
ATOM     25  H   UNL     1      17.023  14.305  32.305  1.00  0.00     0.293 HD
ENDBRANCH   8  24
TORSDOF 5
ENDMDL
MODEL 8
REMARK VINA RESULT:    -4.818      1.753      6.904
REMARK INTER + INTRA:          -5.974
REMARK INTER:                  -5.690
REMARK INTRA:                  -0.284
REMARK UNBOUND:                -0.311
REMARK SMILES O=c1cc(-c2ccc(O)c(O)c2)oc2cc(O)cc(O)c12
REMARK SMILES IDX 4 1 3 2 2 3 1 4 21 5 19 6 18 7 16 8 15 9 14 10 13 11 5 12
REMARK SMILES IDX 6 13 7 14 8 15 12 16 10 17 9 18 11 20 20 22 17 24
REMARK H PARENT 9 19 11 21 20 23 17 25
REMARK Flexibility Score: inf
ROOT
ATOM      1  C   UNL     1      15.083  19.669  34.601  1.00  0.00     0.138 A 
ATOM      2  C   UNL     1      15.040  19.313  35.956  1.00  0.00     0.100 A 
ATOM      3  C   UNL     1      14.661  20.263  36.906  1.00  0.00     0.197 A 
ATOM      4  O   UNL     1      14.692  19.934  38.120  1.00  0.00    -0.289 OA
ATOM      5  C   UNL     1      14.294  21.566  36.491  1.00  0.00     0.107 A 
ATOM      6  C   UNL     1      13.852  22.603  37.365  1.00  0.00     0.134 A 
ATOM      7  C   UNL     1      13.626  23.886  36.855  1.00  0.00     0.093 A 
ATOM      8  C   UNL     1      13.767  24.156  35.495  1.00  0.00     0.123 A 
ATOM      9  C   UNL     1      14.147  23.136  34.621  1.00  0.00     0.094 A 
ATOM     10  C   UNL     1      14.412  21.853  35.105  1.00  0.00     0.146 A 
ATOM     11  O   UNL     1      14.785  20.913  34.243  1.00  0.00    -0.456 OA
ENDROOT
BRANCH   1  12
ATOM     12  C   UNL     1      15.477  18.697  33.549  1.00  0.00     0.021 A 
ATOM     13  C   UNL     1      16.696  18.006  33.668  1.00  0.00     0.016 A 
ATOM     14  C   UNL     1      17.093  17.092  32.690  1.00  0.00     0.051 A 
ATOM     15  C   UNL     1      16.289  16.859  31.571  1.00  0.00     0.157 A 
ATOM     16  C   UNL     1      14.677  18.468  32.413  1.00  0.00     0.062 A 
ATOM     17  C   UNL     1      15.076  17.551  31.429  1.00  0.00     0.158 A 
BRANCH  15  18
ATOM     18  O   UNL     1      16.712  15.939  30.612  1.00  0.00    -0.504 OA
ATOM     19  H   UNL     1      17.663  15.592  30.583  1.00  0.00     0.293 HD
ENDBRANCH  15  18
BRANCH  17  20
ATOM     20  O   UNL     1      14.274  17.332  30.310  1.00  0.00    -0.504 OA
ATOM     21  H   UNL     1      14.649  17.378  29.370  1.00  0.00     0.293 HD
ENDBRANCH  17  20
ENDBRANCH   1  12
BRANCH   6  22
ATOM     22  O   UNL     1      13.597  22.419  38.729  1.00  0.00    -0.507 OA
ATOM     23  H   UNL     1      12.680  22.309  39.134  1.00  0.00     0.293 HD
ENDBRANCH   6  22
BRANCH   8  24
ATOM     24  O   UNL     1      13.519  25.442  35.019  1.00  0.00    -0.508 OA
ATOM     25  H   UNL     1      14.260  26.017  34.636  1.00  0.00     0.293 HD
ENDBRANCH   8  24
TORSDOF 5
ENDMDL
MODEL 9
REMARK VINA RESULT:    -4.804      4.889      7.432
REMARK INTER + INTRA:          -5.958
REMARK INTER:                  -5.663
REMARK INTRA:                  -0.296
REMARK UNBOUND:                -0.311
REMARK SMILES O=c1cc(-c2ccc(O)c(O)c2)oc2cc(O)cc(O)c12
REMARK SMILES IDX 4 1 3 2 2 3 1 4 21 5 19 6 18 7 16 8 15 9 14 10 13 11 5 12
REMARK SMILES IDX 6 13 7 14 8 15 12 16 10 17 9 18 11 20 20 22 17 24
REMARK H PARENT 9 19 11 21 20 23 17 25
REMARK Flexibility Score: inf
ROOT
ATOM      1  C   UNL     1      16.453  13.160  32.594  1.00  0.00     0.138 A 
ATOM      2  C   UNL     1      17.698  12.661  32.186  1.00  0.00     0.100 A 
ATOM      3  C   UNL     1      17.801  11.341  31.744  1.00  0.00     0.197 A 
ATOM      4  O   UNL     1      18.942  10.903  31.443  1.00  0.00    -0.289 OA
ATOM      5  C   UNL     1      16.644  10.528  31.683  1.00  0.00     0.107 A 
ATOM      6  C   UNL     1      16.622   9.182  31.211  1.00  0.00     0.134 A 
ATOM      7  C   UNL     1      15.441   8.437  31.305  1.00  0.00     0.093 A 
ATOM      8  C   UNL     1      14.267   9.006  31.796  1.00  0.00     0.123 A 
ATOM      9  C   UNL     1      14.264  10.339  32.210  1.00  0.00     0.094 A 
ATOM     10  C   UNL     1      15.435  11.098  32.161  1.00  0.00     0.146 A 
ATOM     11  O   UNL     1      15.393  12.359  32.578  1.00  0.00    -0.456 OA
ENDROOT
BRANCH   1  12
ATOM     12  C   UNL     1      16.287  14.557  33.071  1.00  0.00     0.021 A 
ATOM     13  C   UNL     1      17.252  15.113  33.929  1.00  0.00     0.016 A 
ATOM     14  C   UNL     1      17.117  16.422  34.397  1.00  0.00     0.051 A 
ATOM     15  C   UNL     1      16.012  17.195  34.028  1.00  0.00     0.157 A 
ATOM     16  C   UNL     1      15.170  15.335  32.712  1.00  0.00     0.062 A 
ATOM     17  C   UNL     1      15.032  16.649  33.183  1.00  0.00     0.158 A 
BRANCH  15  18
ATOM     18  O   UNL     1      15.905  18.499  34.510  1.00  0.00    -0.504 OA
ATOM     19  H   UNL     1      15.500  18.706  35.415  1.00  0.00     0.293 HD
ENDBRANCH  15  18
BRANCH  17  20
ATOM     20  O   UNL     1      13.922  17.411  32.820  1.00  0.00    -0.504 OA
ATOM     21  H   UNL     1      13.805  18.365  33.139  1.00  0.00     0.293 HD
ENDBRANCH  17  20
ENDBRANCH   1  12
BRANCH   6  22
ATOM     22  O   UNL     1      17.718   8.542  30.623  1.00  0.00    -0.507 OA
ATOM     23  H   UNL     1      18.045   8.704  29.683  1.00  0.00     0.293 HD
ENDBRANCH   6  22
BRANCH   8  24
ATOM     24  O   UNL     1      13.105   8.240  31.861  1.00  0.00    -0.508 OA
ATOM     25  H   UNL     1      12.485   8.148  31.066  1.00  0.00     0.293 HD
ENDBRANCH   8  24
TORSDOF 5
ENDMDL
