MODEL 1
REMARK VINA RESULT:    -3.656      0.000      0.000
REMARK INTER + INTRA:          -8.153
REMARK INTER:                  -6.220
REMARK INTRA:                  -1.933
REMARK UNBOUND:                -1.933
REMARK SMILES CCCCCCCCCCCCCC(=O)[O-]
REMARK SMILES IDX 8 1 9 2 10 3 11 4 12 5 13 6 14 7 15 8 16 9 7 10 6 11 5 12
REMARK SMILES IDX 4 13 3 14 2 15 1 16
REMARK H PARENT
REMARK Flexibility Score: inf
ROOT
ATOM      1  C   UNL     1      29.011  29.911 -11.447  1.00  0.00     0.000 C 
ENDROOT
BRANCH   1   2
ATOM      2  C   UNL     1      27.664  30.205 -10.759  1.00  0.00     0.000 C 
BRANCH   2   3
ATOM      3  C   UNL     1      26.890  28.930 -10.387  1.00  0.00     0.000 C 
BRANCH   3   4
ATOM      4  C   UNL     1      25.637  28.712 -11.255  1.00  0.00     0.000 C 
BRANCH   4   5
ATOM      5  C   UNL     1      25.618  27.403 -12.064  1.00  0.00     0.006 C 
BRANCH   5   6
ATOM      6  C   UNL     1      27.022  26.861 -12.363  1.00  0.00     0.053 C 
BRANCH   6   7
ATOM      7  C   UNL     1      26.998  25.991 -13.580  1.00  0.00     0.041 C 
ATOM      8  O   UNL     1      27.424  24.807 -13.521  1.00  0.00    -0.550 OA
ATOM      9  O   UNL     1      26.552  26.503 -14.792  1.00  0.00    -0.550 OA
ENDBRANCH   6   7
ENDBRANCH   5   6
ENDBRANCH   4   5
ENDBRANCH   3   4
ENDBRANCH   2   3
ENDBRANCH   1   2
BRANCH   1  10
ATOM     10  C   UNL     1      29.028  30.130 -12.971  1.00  0.00     0.000 C 
BRANCH  10  11
ATOM     11  C   UNL     1      27.754  30.818 -13.492  1.00  0.00    -0.000 C 
BRANCH  11  12
ATOM     12  C   UNL     1      26.944  29.917 -14.438  1.00  0.00    -0.000 C 
BRANCH  12  13
ATOM     13  C   UNL     1      25.523  30.452 -14.687  1.00  0.00    -0.000 C 
BRANCH  13  14
ATOM     14  C   UNL     1      25.420  31.972 -14.481  1.00  0.00    -0.000 C 
BRANCH  14  15
ATOM     15  C   UNL     1      24.237  32.367 -13.586  1.00  0.00    -0.003 C 
ATOM     16  C   UNL     1      24.567  32.150 -12.112  1.00  0.00     0.004 C 
ENDBRANCH  14  15
ENDBRANCH  13  14
ENDBRANCH  12  13
ENDBRANCH  11  12
ENDBRANCH  10  11
ENDBRANCH   1  10
TORSDOF 12
ENDMDL
MODEL 2
REMARK VINA RESULT:    -3.635      2.789      4.522
REMARK INTER + INTRA:          -8.118
REMARK INTER:                  -6.133
REMARK INTRA:                  -1.984
REMARK UNBOUND:                -1.933
REMARK SMILES CCCCCCCCCCCCCC(=O)[O-]
REMARK SMILES IDX 8 1 9 2 10 3 11 4 12 5 13 6 14 7 15 8 16 9 7 10 6 11 5 12
REMARK SMILES IDX 4 13 3 14 2 15 1 16
REMARK H PARENT
REMARK Flexibility Score: inf
ROOT
ATOM      1  C   UNL     1      27.495  30.392 -11.149  1.00  0.00     0.000 C 
ENDROOT
BRANCH   1   2
ATOM      2  C   UNL     1      26.253  29.548 -10.805  1.00  0.00     0.000 C 
BRANCH   2   3
ATOM      3  C   UNL     1      24.941  30.186 -11.288  1.00  0.00     0.000 C 
BRANCH   3   4
ATOM      4  C   UNL     1      25.096  31.674 -11.656  1.00  0.00     0.000 C 
BRANCH   4   5
ATOM      5  C   UNL     1      23.935  32.273 -12.471  1.00  0.00     0.006 C 
BRANCH   5   6
ATOM      6  C   UNL     1      24.340  32.657 -13.900  1.00  0.00     0.053 C 
BRANCH   6   7
ATOM      7  C   UNL     1      23.437  31.998 -14.894  1.00  0.00     0.041 C 
ATOM      8  O   UNL     1      23.562  32.243 -16.123  1.00  0.00    -0.550 OA
ATOM      9  O   UNL     1      22.425  31.152 -14.460  1.00  0.00    -0.550 OA
ENDBRANCH   6   7
ENDBRANCH   5   6
ENDBRANCH   4   5
ENDBRANCH   3   4
ENDBRANCH   2   3
ENDBRANCH   1   2
BRANCH   1  10
ATOM     10  C   UNL     1      28.556  29.676 -12.003  1.00  0.00     0.000 C 
BRANCH  10  11
ATOM     11  C   UNL     1      28.742  30.318 -13.389  1.00  0.00    -0.000 C 
BRANCH  11  12
ATOM     12  C   UNL     1      27.412  30.784 -14.005  1.00  0.00    -0.000 C 
BRANCH  12  13
ATOM     13  C   UNL     1      26.924  29.851 -15.126  1.00  0.00    -0.000 C 
BRANCH  13  14
ATOM     14  C   UNL     1      25.728  28.986 -14.696  1.00  0.00    -0.000 C 
BRANCH  14  15
ATOM     15  C   UNL     1      26.157  27.623 -14.134  1.00  0.00    -0.003 C 
ATOM     16  C   UNL     1      25.011  26.954 -13.380  1.00  0.00     0.004 C 
ENDBRANCH  14  15
ENDBRANCH  13  14
ENDBRANCH  12  13
ENDBRANCH  11  12
ENDBRANCH  10  11
ENDBRANCH   1  10
TORSDOF 12
ENDMDL
MODEL 3
REMARK VINA RESULT:    -3.595      2.892      5.135
REMARK INTER + INTRA:          -8.051
REMARK INTER:                  -6.284
REMARK INTRA:                  -1.767
REMARK UNBOUND:                -1.933
REMARK SMILES CCCCCCCCCCCCCC(=O)[O-]
REMARK SMILES IDX 8 1 9 2 10 3 11 4 12 5 13 6 14 7 15 8 16 9 7 10 6 11 5 12
REMARK SMILES IDX 4 13 3 14 2 15 1 16
REMARK H PARENT
REMARK Flexibility Score: inf
ROOT
ATOM      1  C   UNL     1      29.130  29.911 -11.453  1.00  0.00     0.000 C 
ENDROOT
BRANCH   1   2
ATOM      2  C   UNL     1      29.162  30.495 -12.878  1.00  0.00     0.000 C 
BRANCH   2   3
ATOM      3  C   UNL     1      28.071  29.911 -13.791  1.00  0.00     0.000 C 
BRANCH   3   4
ATOM      4  C   UNL     1      26.958  30.923 -14.120  1.00  0.00     0.000 C 
BRANCH   4   5
ATOM      5  C   UNL     1      25.557  30.316 -14.318  1.00  0.00     0.006 C 
BRANCH   5   6
ATOM      6  C   UNL     1      24.559  30.742 -13.233  1.00  0.00     0.053 C 
BRANCH   6   7
ATOM      7  C   UNL     1      24.283  32.209 -13.322  1.00  0.00     0.041 C 
ATOM      8  O   UNL     1      24.317  32.925 -12.286  1.00  0.00    -0.550 OA
ATOM      9  O   UNL     1      23.940  32.779 -14.542  1.00  0.00    -0.550 OA
ENDBRANCH   6   7
ENDBRANCH   5   6
ENDBRANCH   4   5
ENDBRANCH   3   4
ENDBRANCH   2   3
ENDBRANCH   1   2
BRANCH   1  10
ATOM     10  C   UNL     1      28.082  30.536 -10.514  1.00  0.00     0.000 C 
BRANCH  10  11
ATOM     11  C   UNL     1      26.765  29.742 -10.475  1.00  0.00    -0.000 C 
BRANCH  11  12
ATOM     12  C   UNL     1      26.988  28.225 -10.584  1.00  0.00    -0.000 C 
BRANCH  12  13
ATOM     13  C   UNL     1      26.249  27.606 -11.783  1.00  0.00    -0.000 C 
BRANCH  13  14
ATOM     14  C   UNL     1      26.689  26.160 -12.064  1.00  0.00    -0.000 C 
BRANCH  14  15
ATOM     15  C   UNL     1      27.102  25.943 -13.527  1.00  0.00    -0.003 C 
ATOM     16  C   UNL     1      26.209  26.740 -14.474  1.00  0.00     0.004 C 
ENDBRANCH  14  15
ENDBRANCH  13  14
ENDBRANCH  12  13
ENDBRANCH  11  12
ENDBRANCH  10  11
ENDBRANCH   1  10
TORSDOF 12
ENDMDL
MODEL 4
REMARK VINA RESULT:    -3.524      1.673      3.657
REMARK INTER + INTRA:          -7.930
REMARK INTER:                  -6.196
REMARK INTRA:                  -1.734
REMARK UNBOUND:                -1.933
REMARK SMILES CCCCCCCCCCCCCC(=O)[O-]
REMARK SMILES IDX 8 1 9 2 10 3 11 4 12 5 13 6 14 7 15 8 16 9 7 10 6 11 5 12
REMARK SMILES IDX 4 13 3 14 2 15 1 16
REMARK H PARENT
REMARK Flexibility Score: inf
ROOT
ATOM      1  C   UNL     1      26.271  30.513 -13.765  1.00  0.00     0.000 C 
ENDROOT
BRANCH   1   2
ATOM      2  C   UNL     1      25.321  29.424 -14.298  1.00  0.00     0.000 C 
BRANCH   2   3
ATOM      3  C   UNL     1      26.056  28.307 -15.057  1.00  0.00     0.000 C 
BRANCH   3   4
ATOM      4  C   UNL     1      25.852  26.917 -14.424  1.00  0.00     0.000 C 
BRANCH   4   5
ATOM      5  C   UNL     1      27.005  26.428 -13.528  1.00  0.00     0.006 C 
BRANCH   5   6
ATOM      6  C   UNL     1      26.653  25.163 -12.735  1.00  0.00     0.053 C 
BRANCH   6   7
ATOM      7  C   UNL     1      27.180  23.947 -13.429  1.00  0.00     0.041 C 
ATOM      8  O   UNL     1      26.466  23.337 -14.268  1.00  0.00    -0.550 OA
ATOM      9  O   UNL     1      28.442  23.459 -13.114  1.00  0.00    -0.550 OA
ENDBRANCH   6   7
ENDBRANCH   5   6
ENDBRANCH   4   5
ENDBRANCH   3   4
ENDBRANCH   2   3
ENDBRANCH   1   2
BRANCH   1  10
ATOM     10  C   UNL     1      27.713  30.442 -14.297  1.00  0.00     0.000 C 
BRANCH  10  11
ATOM     11  C   UNL     1      28.768  30.492 -13.177  1.00  0.00    -0.000 C 
BRANCH  11  12
ATOM     12  C   UNL     1      28.507  29.452 -12.076  1.00  0.00    -0.000 C 
BRANCH  12  13
ATOM     13  C   UNL     1      28.211  30.100 -10.712  1.00  0.00    -0.000 C 
BRANCH  13  14
ATOM     14  C   UNL     1      27.555  29.123  -9.724  1.00  0.00    -0.000 C 
BRANCH  14  15
ATOM     15  C   UNL     1      26.386  28.348 -10.349  1.00  0.00    -0.003 C 
ATOM     16  C   UNL     1      25.153  29.236 -10.492  1.00  0.00     0.004 C 
ENDBRANCH  14  15
ENDBRANCH  13  14
ENDBRANCH  12  13
ENDBRANCH  11  12
ENDBRANCH  10  11
ENDBRANCH   1  10
TORSDOF 12
ENDMDL
MODEL 5
REMARK VINA RESULT:    -3.505      2.230      4.054
REMARK INTER + INTRA:          -7.897
REMARK INTER:                  -6.317
REMARK INTRA:                  -1.579
REMARK UNBOUND:                -1.933
REMARK SMILES CCCCCCCCCCCCCC(=O)[O-]
REMARK SMILES IDX 8 1 9 2 10 3 11 4 12 5 13 6 14 7 15 8 16 9 7 10 6 11 5 12
REMARK SMILES IDX 4 13 3 14 2 15 1 16
REMARK H PARENT
REMARK Flexibility Score: inf
ROOT
ATOM      1  C   UNL     1      25.634  28.118 -11.310  1.00  0.00     0.000 C 
ENDROOT
BRANCH   1   2
ATOM      2  C   UNL     1      25.702  27.433 -12.688  1.00  0.00     0.000 C 
BRANCH   2   3
ATOM      3  C   UNL     1      27.073  26.800 -12.976  1.00  0.00     0.000 C 
BRANCH   3   4
ATOM      4  C   UNL     1      26.980  25.540 -13.857  1.00  0.00     0.000 C 
BRANCH   4   5
ATOM      5  C   UNL     1      27.623  24.274 -13.263  1.00  0.00     0.006 C 
BRANCH   5   6
ATOM      6  C   UNL     1      26.885  23.752 -12.023  1.00  0.00     0.053 C 
BRANCH   6   7
ATOM      7  C   UNL     1      27.158  22.294 -11.827  1.00  0.00     0.041 C 
ATOM      8  O   UNL     1      28.042  21.918 -11.013  1.00  0.00    -0.550 OA
ATOM      9  O   UNL     1      26.470  21.351 -12.581  1.00  0.00    -0.550 OA
ENDBRANCH   6   7
ENDBRANCH   5   6
ENDBRANCH   4   5
ENDBRANCH   3   4
ENDBRANCH   2   3
ENDBRANCH   1   2
BRANCH   1  10
ATOM     10  C   UNL     1      26.931  28.055 -10.484  1.00  0.00     0.000 C 
BRANCH  10  11
ATOM     11  C   UNL     1      27.215  29.358  -9.715  1.00  0.00    -0.000 C 
BRANCH  11  12
ATOM     12  C   UNL     1      27.815  30.452 -10.612  1.00  0.00    -0.000 C 
BRANCH  12  13
ATOM     13  C   UNL     1      28.960  29.927 -11.496  1.00  0.00    -0.000 C 
BRANCH  13  14
ATOM     14  C   UNL     1      28.778  30.294 -12.978  1.00  0.00    -0.000 C 
BRANCH  14  15
ATOM     15  C   UNL     1      27.325  30.654 -13.322  1.00  0.00    -0.003 C 
ATOM     16  C   UNL     1      26.971  30.211 -14.739  1.00  0.00     0.004 C 
ENDBRANCH  14  15
ENDBRANCH  13  14
ENDBRANCH  12  13
ENDBRANCH  11  12
ENDBRANCH  10  11
ENDBRANCH   1  10
TORSDOF 12
ENDMDL
MODEL 6
REMARK VINA RESULT:    -3.491      2.254      4.503
REMARK INTER + INTRA:          -7.874
REMARK INTER:                  -5.679
REMARK INTRA:                  -2.195
REMARK UNBOUND:                -1.933
REMARK SMILES CCCCCCCCCCCCCC(=O)[O-]
REMARK SMILES IDX 8 1 9 2 10 3 11 4 12 5 13 6 14 7 15 8 16 9 7 10 6 11 5 12
REMARK SMILES IDX 4 13 3 14 2 15 1 16
REMARK H PARENT
REMARK Flexibility Score: inf
ROOT
ATOM      1  C   UNL     1      23.944  30.307 -15.959  1.00  0.00     0.000 C 
ENDROOT
BRANCH   1   2
ATOM      2  C   UNL     1      23.919  29.137 -14.957  1.00  0.00     0.000 C 
BRANCH   2   3
ATOM      3  C   UNL     1      25.293  28.859 -14.325  1.00  0.00     0.000 C 
BRANCH   3   4
ATOM      4  C   UNL     1      26.457  29.474 -15.124  1.00  0.00     0.000 C 
BRANCH   4   5
ATOM      5  C   UNL     1      27.346  30.455 -14.339  1.00  0.00     0.006 C 
BRANCH   5   6
ATOM      6  C   UNL     1      27.092  30.419 -12.827  1.00  0.00     0.053 C 
BRANCH   6   7
ATOM      7  C   UNL     1      28.123  29.580 -12.142  1.00  0.00     0.041 C 
ATOM      8  O   UNL     1      27.792  28.503 -11.579  1.00  0.00    -0.550 OA
ATOM      9  O   UNL     1      29.442  30.010 -12.083  1.00  0.00    -0.550 OA
ENDBRANCH   6   7
ENDBRANCH   5   6
ENDBRANCH   4   5
ENDBRANCH   3   4
ENDBRANCH   2   3
ENDBRANCH   1   2
BRANCH   1  10
ATOM     10  C   UNL     1      23.334  31.623 -15.442  1.00  0.00     0.000 C 
BRANCH  10  11
ATOM     11  C   UNL     1      24.398  32.644 -15.002  1.00  0.00    -0.000 C 
BRANCH  11  12
ATOM     12  C   UNL     1      24.528  32.737 -13.474  1.00  0.00    -0.000 C 
BRANCH  12  13
ATOM     13  C   UNL     1      23.379  32.023 -12.740  1.00  0.00    -0.000 C 
BRANCH  13  14
ATOM     14  C   UNL     1      23.805  31.470 -11.371  1.00  0.00    -0.000 C 
BRANCH  14  15
ATOM     15  C   UNL     1      23.485  29.977 -11.211  1.00  0.00    -0.003 C 
ATOM     16  C   UNL     1      24.535  29.279 -10.353  1.00  0.00     0.004 C 
ENDBRANCH  14  15
ENDBRANCH  13  14
ENDBRANCH  12  13
ENDBRANCH  11  12
ENDBRANCH  10  11
ENDBRANCH   1  10
TORSDOF 12
ENDMDL
MODEL 7
REMARK VINA RESULT:    -3.488      2.936      4.770
REMARK INTER + INTRA:          -7.869
REMARK INTER:                  -5.832
REMARK INTRA:                  -2.037
REMARK UNBOUND:                -1.933
REMARK SMILES CCCCCCCCCCCCCC(=O)[O-]
REMARK SMILES IDX 8 1 9 2 10 3 11 4 12 5 13 6 14 7 15 8 16 9 7 10 6 11 5 12
REMARK SMILES IDX 4 13 3 14 2 15 1 16
REMARK H PARENT
REMARK Flexibility Score: inf
ROOT
ATOM      1  C   UNL     1      25.329  27.317 -12.187  1.00  0.00     0.000 C 
ENDROOT
BRANCH   1   2
ATOM      2  C   UNL     1      25.208  28.546 -11.266  1.00  0.00     0.000 C 
BRANCH   2   3
ATOM      3  C   UNL     1      24.265  29.624 -11.824  1.00  0.00     0.000 C 
BRANCH   3   4
ATOM      4  C   UNL     1      24.702  31.054 -11.456  1.00  0.00     0.000 C 
BRANCH   4   5
ATOM      5  C   UNL     1      24.264  32.150 -12.445  1.00  0.00     0.006 C 
BRANCH   5   6
ATOM      6  C   UNL     1      23.600  31.588 -13.709  1.00  0.00     0.053 C 
BRANCH   6   7
ATOM      7  C   UNL     1      24.027  32.364 -14.914  1.00  0.00     0.041 C 
ATOM      8  O   UNL     1      25.058  33.086 -14.869  1.00  0.00    -0.550 OA
ATOM      9  O   UNL     1      23.261  32.329 -16.071  1.00  0.00    -0.550 OA
ENDBRANCH   6   7
ENDBRANCH   5   6
ENDBRANCH   4   5
ENDBRANCH   3   4
ENDBRANCH   2   3
ENDBRANCH   1   2
BRANCH   1  10
ATOM     10  C   UNL     1      26.520  27.346 -13.162  1.00  0.00     0.000 C 
BRANCH  10  11
ATOM     11  C   UNL     1      26.091  27.533 -14.628  1.00  0.00    -0.000 C 
BRANCH  11  12
ATOM     12  C   UNL     1      25.785  29.000 -14.969  1.00  0.00    -0.000 C 
BRANCH  12  13
ATOM     13  C   UNL     1      27.061  29.845 -15.129  1.00  0.00    -0.000 C 
BRANCH  13  14
ATOM     14  C   UNL     1      27.364  30.697 -13.886  1.00  0.00    -0.000 C 
BRANCH  14  15
ATOM     15  C   UNL     1      28.715  30.346 -13.245  1.00  0.00    -0.003 C 
ATOM     16  C   UNL     1      28.584  30.203 -11.732  1.00  0.00     0.004 C 
ENDBRANCH  14  15
ENDBRANCH  13  14
ENDBRANCH  12  13
ENDBRANCH  11  12
ENDBRANCH  10  11
ENDBRANCH   1  10
TORSDOF 12
ENDMDL
MODEL 8
REMARK VINA RESULT:    -3.476      2.853      4.960
REMARK INTER + INTRA:          -7.847
REMARK INTER:                  -6.059
REMARK INTRA:                  -1.788
REMARK UNBOUND:                -1.933
REMARK SMILES CCCCCCCCCCCCCC(=O)[O-]
REMARK SMILES IDX 8 1 9 2 10 3 11 4 12 5 13 6 14 7 15 8 16 9 7 10 6 11 5 12
REMARK SMILES IDX 4 13 3 14 2 15 1 16
REMARK H PARENT
REMARK Flexibility Score: inf
ROOT
ATOM      1  C   UNL     1      27.685  30.632 -13.358  1.00  0.00     0.000 C 
ENDROOT
BRANCH   1   2
ATOM      2  C   UNL     1      27.237  30.229 -14.775  1.00  0.00     0.000 C 
BRANCH   2   3
ATOM      3  C   UNL     1      26.117  29.176 -14.774  1.00  0.00     0.000 C 
BRANCH   3   4
ATOM      4  C   UNL     1      24.952  29.536 -15.715  1.00  0.00     0.000 C 
BRANCH   4   5
ATOM      5  C   UNL     1      23.966  30.584 -15.167  1.00  0.00     0.006 C 
BRANCH   5   6
ATOM      6  C   UNL     1      23.818  30.530 -13.641  1.00  0.00     0.053 C 
BRANCH   6   7
ATOM      7  C   UNL     1      24.132  31.861 -13.037  1.00  0.00     0.041 C 
ATOM      8  O   UNL     1      23.777  32.122 -11.857  1.00  0.00    -0.550 OA
ATOM      9  O   UNL     1      24.774  32.834 -13.793  1.00  0.00    -0.550 OA
ENDBRANCH   6   7
ENDBRANCH   5   6
ENDBRANCH   4   5
ENDBRANCH   3   4
ENDBRANCH   2   3
ENDBRANCH   1   2
BRANCH   1  10
ATOM     10  C   UNL     1      29.110  30.192 -12.973  1.00  0.00     0.000 C 
BRANCH  10  11
ATOM     11  C   UNL     1      29.314  30.090 -11.451  1.00  0.00    -0.000 C 
BRANCH  11  12
ATOM     12  C   UNL     1      28.069  30.523 -10.660  1.00  0.00    -0.000 C 
BRANCH  12  13
ATOM     13  C   UNL     1      27.315  29.330 -10.047  1.00  0.00    -0.000 C 
BRANCH  13  14
ATOM     14  C   UNL     1      25.828  29.310 -10.434  1.00  0.00    -0.000 C 
BRANCH  14  15
ATOM     15  C   UNL     1      25.471  28.125 -11.343  1.00  0.00    -0.003 C 
ATOM     16  C   UNL     1      26.696  27.262 -11.627  1.00  0.00     0.004 C 
ENDBRANCH  14  15
ENDBRANCH  13  14
ENDBRANCH  12  13
ENDBRANCH  11  12
ENDBRANCH  10  11
ENDBRANCH   1  10
TORSDOF 12
ENDMDL
MODEL 9
REMARK VINA RESULT:    -3.475      2.887      5.566
REMARK INTER + INTRA:          -7.846
REMARK INTER:                  -6.211
REMARK INTRA:                  -1.635
REMARK UNBOUND:                -1.933
REMARK SMILES CCCCCCCCCCCCCC(=O)[O-]
REMARK SMILES IDX 8 1 9 2 10 3 11 4 12 5 13 6 14 7 15 8 16 9 7 10 6 11 5 12
REMARK SMILES IDX 4 13 3 14 2 15 1 16
REMARK H PARENT
REMARK Flexibility Score: inf
ROOT
ATOM      1  C   UNL     1      25.933  26.806 -15.005  1.00  0.00     0.000 C 
ENDROOT
BRANCH   1   2
ATOM      2  C   UNL     1      24.711  27.730 -15.162  1.00  0.00     0.000 C 
BRANCH   2   3
ATOM      3  C   UNL     1      25.093  29.167 -15.552  1.00  0.00     0.000 C 
BRANCH   3   4
ATOM      4  C   UNL     1      26.511  29.557 -15.096  1.00  0.00     0.000 C 
BRANCH   4   5
ATOM      5  C   UNL     1      26.616  30.904 -14.356  1.00  0.00     0.006 C 
BRANCH   5   6
ATOM      6  C   UNL     1      25.554  31.073 -13.262  1.00  0.00     0.053 C 
BRANCH   6   7
ATOM      7  C   UNL     1      24.770  32.327 -13.484  1.00  0.00     0.041 C 
ATOM      8  O   UNL     1      24.696  32.833 -14.635  1.00  0.00    -0.550 OA
ATOM      9  O   UNL     1      24.163  32.967 -12.410  1.00  0.00    -0.550 OA
ENDBRANCH   6   7
ENDBRANCH   5   6
ENDBRANCH   4   5
ENDBRANCH   3   4
ENDBRANCH   2   3
ENDBRANCH   1   2
BRANCH   1  10
ATOM     10  C   UNL     1      25.803  25.730 -13.911  1.00  0.00     0.000 C 
BRANCH  10  11
ATOM     11  C   UNL     1      26.875  25.858 -12.815  1.00  0.00    -0.000 C 
BRANCH  11  12
ATOM     12  C   UNL     1      26.525  26.932 -11.773  1.00  0.00    -0.000 C 
BRANCH  12  13
ATOM     13  C   UNL     1      27.401  28.191 -11.907  1.00  0.00    -0.000 C 
BRANCH  13  14
ATOM     14  C   UNL     1      27.501  28.983 -10.594  1.00  0.00    -0.000 C 
BRANCH  14  15
ATOM     15  C   UNL     1      28.317  30.275 -10.745  1.00  0.00    -0.003 C 
ATOM     16  C   UNL     1      29.310  30.166 -11.898  1.00  0.00     0.004 C 
ENDBRANCH  14  15
ENDBRANCH  13  14
ENDBRANCH  12  13
ENDBRANCH  11  12
ENDBRANCH  10  11
ENDBRANCH   1  10
TORSDOF 12
ENDMDL
