MODEL 1
REMARK VINA RESULT:    -4.006      0.000      0.000
REMARK INTER + INTRA:         -13.339
REMARK INTER:                  -9.159
REMARK INTRA:                  -4.179
REMARK UNBOUND:                -4.179
REMARK SMILES CCCCCCCCCCCCCCCCCCCCCCCC(=O)[O-]
REMARK SMILES IDX 13 1 14 2 15 3 16 4 17 5 18 6 19 7 20 8 21 9 22 10 23 11
REMARK SMILES IDX 24 12 25 13 26 14 12 15 11 16 10 17 9 18 8 19 7 20 6 21 5 22
REMARK SMILES IDX 4 23 3 24 2 25 1 26
REMARK H PARENT
REMARK Flexibility Score: inf
ROOT
ATOM      1  C   UNL     1      22.746   1.958  14.027  1.00  0.00     0.000 C 
ENDROOT
BRANCH   1   2
ATOM      2  C   UNL     1      23.867   1.593  15.018  1.00  0.00     0.000 C 
BRANCH   2   3
ATOM      3  C   UNL     1      23.469   0.582  16.110  1.00  0.00     0.000 C 
BRANCH   3   4
ATOM      4  C   UNL     1      22.086   0.875  16.719  1.00  0.00     0.000 C 
BRANCH   4   5
ATOM      5  C   UNL     1      21.298  -0.407  17.036  1.00  0.00     0.000 C 
BRANCH   5   6
ATOM      6  C   UNL     1      20.080  -0.599  16.116  1.00  0.00     0.000 C 
BRANCH   6   7
ATOM      7  C   UNL     1      20.468  -0.944  14.666  1.00  0.00     0.000 C 
BRANCH   7   8
ATOM      8  C   UNL     1      21.094  -2.338  14.475  1.00  0.00     0.000 C 
BRANCH   8   9
ATOM      9  C   UNL     1      22.533  -2.339  13.923  1.00  0.00     0.000 C 
BRANCH   9  10
ATOM     10  C   UNL     1      23.570  -2.971  14.878  1.00  0.00     0.006 C 
BRANCH  10  11
ATOM     11  C   UNL     1      22.968  -3.505  16.187  1.00  0.00     0.053 C 
BRANCH  11  12
ATOM     12  C   UNL     1      23.999  -3.630  17.267  1.00  0.00     0.041 C 
ATOM     13  O   UNL     1      24.319  -2.626  17.957  1.00  0.00    -0.550 OA
ATOM     14  O   UNL     1      24.610  -4.855  17.509  1.00  0.00    -0.550 OA
ENDBRANCH  11  12
ENDBRANCH  10  11
ENDBRANCH   9  10
ENDBRANCH   8   9
ENDBRANCH   7   8
ENDBRANCH   6   7
ENDBRANCH   5   6
ENDBRANCH   4   5
ENDBRANCH   3   4
ENDBRANCH   2   3
ENDBRANCH   1   2
BRANCH   1  15
ATOM     15  C   UNL     1      22.953   3.336  13.374  1.00  0.00     0.000 C 
BRANCH  15  16
ATOM     16  C   UNL     1      24.291   3.984  13.769  1.00  0.00     0.000 C 
BRANCH  16  17
ATOM     17  C   UNL     1      24.649   5.195  12.887  1.00  0.00     0.000 C 
BRANCH  17  18
ATOM     18  C   UNL     1      25.367   6.305  13.672  1.00  0.00    -0.000 C 
BRANCH  18  19
ATOM     19  C   UNL     1      24.586   7.630  13.671  1.00  0.00    -0.000 C 
BRANCH  19  20
ATOM     20  C   UNL     1      23.139   7.460  13.161  1.00  0.00    -0.000 C 
BRANCH  20  21
ATOM     21  C   UNL     1      22.063   7.776  14.217  1.00  0.00    -0.000 C 
BRANCH  21  22
ATOM     22  C   UNL     1      22.282   7.109  15.588  1.00  0.00    -0.000 C 
BRANCH  22  23
ATOM     23  C   UNL     1      21.611   5.730  15.758  1.00  0.00    -0.000 C 
BRANCH  23  24
ATOM     24  C   UNL     1      22.288   4.792  16.778  1.00  0.00    -0.000 C 
BRANCH  24  25
ATOM     25  C   UNL     1      23.755   5.133  17.098  1.00  0.00    -0.003 C 
ATOM     26  C   UNL     1      24.510   3.967  17.737  1.00  0.00     0.004 C 
ENDBRANCH  24  25
ENDBRANCH  23  24
ENDBRANCH  22  23
ENDBRANCH  21  22
ENDBRANCH  20  21
ENDBRANCH  19  20
ENDBRANCH  18  19
ENDBRANCH  17  18
ENDBRANCH  16  17
ENDBRANCH  15  16
ENDBRANCH   1  15
TORSDOF 22
ENDMDL
MODEL 2
REMARK VINA RESULT:    -3.936      5.814      8.098
REMARK INTER + INTRA:         -13.177
REMARK INTER:                 -10.402
REMARK INTRA:                  -2.775
REMARK UNBOUND:                -4.179
REMARK SMILES CCCCCCCCCCCCCCCCCCCCCCCC(=O)[O-]
REMARK SMILES IDX 13 1 14 2 15 3 16 4 17 5 18 6 19 7 20 8 21 9 22 10 23 11
REMARK SMILES IDX 24 12 25 13 26 14 12 15 11 16 10 17 9 18 8 19 7 20 6 21 5 22
REMARK SMILES IDX 4 23 3 24 2 25 1 26
REMARK H PARENT
REMARK Flexibility Score: inf
ROOT
ATOM      1  C   UNL     1      20.130  -1.113  12.347  1.00  0.00     0.000 C 
ENDROOT
BRANCH   1   2
ATOM      2  C   UNL     1      20.134  -2.159  11.216  1.00  0.00     0.000 C 
BRANCH   2   3
ATOM      3  C   UNL     1      19.457  -3.498  11.563  1.00  0.00     0.000 C 
BRANCH   3   4
ATOM      4  C   UNL     1      18.755  -3.474  12.933  1.00  0.00     0.000 C 
BRANCH   4   5
ATOM      5  C   UNL     1      17.247  -3.753  12.827  1.00  0.00     0.000 C 
BRANCH   5   6
ATOM      6  C   UNL     1      16.423  -2.479  12.578  1.00  0.00     0.000 C 
BRANCH   6   7
ATOM      7  C   UNL     1      15.694  -2.486  11.221  1.00  0.00     0.000 C 
BRANCH   7   8
ATOM      8  C   UNL     1      16.491  -1.877  10.052  1.00  0.00     0.000 C 
BRANCH   8   9
ATOM      9  C   UNL     1      16.646  -0.345  10.094  1.00  0.00     0.000 C 
BRANCH   9  10
ATOM     10  C   UNL     1      15.783   0.401   9.052  1.00  0.00     0.006 C 
BRANCH  10  11
ATOM     11  C   UNL     1      14.355   0.707   9.529  1.00  0.00     0.053 C 
BRANCH  11  12
ATOM     12  C   UNL     1      13.326  -0.014   8.713  1.00  0.00     0.041 C 
ATOM     13  O   UNL     1      13.478  -1.234   8.436  1.00  0.00    -0.550 OA
ATOM     14  O   UNL     1      12.201   0.661   8.255  1.00  0.00    -0.550 OA
ENDBRANCH  11  12
ENDBRANCH  10  11
ENDBRANCH   9  10
ENDBRANCH   8   9
ENDBRANCH   7   8
ENDBRANCH   6   7
ENDBRANCH   5   6
ENDBRANCH   4   5
ENDBRANCH   3   4
ENDBRANCH   2   3
ENDBRANCH   1   2
BRANCH   1  15
ATOM     15  C   UNL     1      21.547  -0.700  12.784  1.00  0.00     0.000 C 
BRANCH  15  16
ATOM     16  C   UNL     1      22.308  -1.842  13.479  1.00  0.00     0.000 C 
BRANCH  16  17
ATOM     17  C   UNL     1      22.783  -1.465  14.895  1.00  0.00     0.000 C 
BRANCH  17  18
ATOM     18  C   UNL     1      21.710  -0.708  15.695  1.00  0.00    -0.000 C 
BRANCH  18  19
ATOM     19  C   UNL     1      22.205   0.656  16.205  1.00  0.00    -0.000 C 
BRANCH  19  20
ATOM     20  C   UNL     1      23.645   0.970  15.744  1.00  0.00    -0.000 C 
BRANCH  20  21
ATOM     21  C   UNL     1      23.727   2.021  14.621  1.00  0.00    -0.000 C 
BRANCH  21  22
ATOM     22  C   UNL     1      22.429   2.813  14.375  1.00  0.00    -0.000 C 
BRANCH  22  23
ATOM     23  C   UNL     1      22.188   3.233  12.910  1.00  0.00    -0.000 C 
BRANCH  23  24
ATOM     24  C   UNL     1      22.600   4.678  12.565  1.00  0.00    -0.000 C 
BRANCH  24  25
ATOM     25  C   UNL     1      24.118   4.903  12.426  1.00  0.00    -0.003 C 
ATOM     26  C   UNL     1      24.677   5.848  13.491  1.00  0.00     0.004 C 
ENDBRANCH  24  25
ENDBRANCH  23  24
ENDBRANCH  22  23
ENDBRANCH  21  22
ENDBRANCH  20  21
ENDBRANCH  19  20
ENDBRANCH  18  19
ENDBRANCH  17  18
ENDBRANCH  16  17
ENDBRANCH  15  16
ENDBRANCH   1  15
TORSDOF 22
ENDMDL
MODEL 3
REMARK VINA RESULT:    -3.917      3.439      8.143
REMARK INTER + INTRA:         -13.135
REMARK INTER:                  -9.239
REMARK INTRA:                  -3.896
REMARK UNBOUND:                -4.179
REMARK SMILES CCCCCCCCCCCCCCCCCCCCCCCC(=O)[O-]
REMARK SMILES IDX 13 1 14 2 15 3 16 4 17 5 18 6 19 7 20 8 21 9 22 10 23 11
REMARK SMILES IDX 24 12 25 13 26 14 12 15 11 16 10 17 9 18 8 19 7 20 6 21 5 22
REMARK SMILES IDX 4 23 3 24 2 25 1 26
REMARK H PARENT
REMARK Flexibility Score: inf
ROOT
ATOM      1  C   UNL     1      20.608  -2.099  18.762  1.00  0.00     0.000 C 
ENDROOT
BRANCH   1   2
ATOM      2  C   UNL     1      21.731  -1.638  19.710  1.00  0.00     0.000 C 
BRANCH   2   3
ATOM      3  C   UNL     1      22.913  -0.929  19.024  1.00  0.00     0.000 C 
BRANCH   3   4
ATOM      4  C   UNL     1      22.775   0.604  19.029  1.00  0.00     0.000 C 
BRANCH   4   5
ATOM      5  C   UNL     1      22.899   1.212  17.622  1.00  0.00     0.000 C 
BRANCH   5   6
ATOM      6  C   UNL     1      23.427   0.205  16.585  1.00  0.00     0.000 C 
BRANCH   6   7
ATOM      7  C   UNL     1      23.801   0.862  15.244  1.00  0.00     0.000 C 
BRANCH   7   8
ATOM      8  C   UNL     1      22.973   2.108  14.875  1.00  0.00     0.000 C 
BRANCH   8   9
ATOM      9  C   UNL     1      22.224   2.022  13.531  1.00  0.00     0.000 C 
BRANCH   9  10
ATOM     10  C   UNL     1      22.170   3.358  12.758  1.00  0.00     0.006 C 
BRANCH  10  11
ATOM     11  C   UNL     1      23.418   4.235  12.938  1.00  0.00     0.053 C 
BRANCH  11  12
ATOM     12  C   UNL     1      23.064   5.649  13.284  1.00  0.00     0.041 C 
ATOM     13  O   UNL     1      23.383   6.590  12.510  1.00  0.00    -0.550 OA
ATOM     14  O   UNL     1      22.384   5.929  14.463  1.00  0.00    -0.550 OA
ENDBRANCH  11  12
ENDBRANCH  10  11
ENDBRANCH   9  10
ENDBRANCH   8   9
ENDBRANCH   7   8
ENDBRANCH   6   7
ENDBRANCH   5   6
ENDBRANCH   4   5
ENDBRANCH   3   4
ENDBRANCH   2   3
ENDBRANCH   1   2
BRANCH   1  15
ATOM     15  C   UNL     1      19.541  -1.015  18.530  1.00  0.00     0.000 C 
BRANCH  15  16
ATOM     16  C   UNL     1      19.628  -0.389  17.128  1.00  0.00     0.000 C 
BRANCH  16  17
ATOM     17  C   UNL     1      20.131  -1.382  16.063  1.00  0.00     0.000 C 
BRANCH  17  18
ATOM     18  C   UNL     1      20.419  -0.704  14.713  1.00  0.00    -0.000 C 
BRANCH  18  19
ATOM     19  C   UNL     1      20.605  -1.717  13.570  1.00  0.00    -0.000 C 
BRANCH  19  20
ATOM     20  C   UNL     1      21.550  -2.875  13.958  1.00  0.00    -0.000 C 
BRANCH  20  21
ATOM     21  C   UNL     1      23.038  -2.479  14.003  1.00  0.00    -0.000 C 
BRANCH  21  22
ATOM     22  C   UNL     1      23.870  -3.194  15.084  1.00  0.00    -0.000 C 
BRANCH  22  23
ATOM     23  C   UNL     1      23.092  -3.575  16.361  1.00  0.00    -0.000 C 
BRANCH  23  24
ATOM     24  C   UNL     1      23.907  -4.342  17.422  1.00  0.00    -0.000 C 
BRANCH  24  25
ATOM     25  C   UNL     1      23.089  -5.321  18.284  1.00  0.00    -0.003 C 
ATOM     26  C   UNL     1      23.868  -6.586  18.647  1.00  0.00     0.004 C 
ENDBRANCH  24  25
ENDBRANCH  23  24
ENDBRANCH  22  23
ENDBRANCH  21  22
ENDBRANCH  20  21
ENDBRANCH  19  20
ENDBRANCH  18  19
ENDBRANCH  17  18
ENDBRANCH  16  17
ENDBRANCH  15  16
ENDBRANCH   1  15
TORSDOF 22
ENDMDL
MODEL 4
REMARK VINA RESULT:    -3.862      2.861      6.032
REMARK INTER + INTRA:         -13.008
REMARK INTER:                  -9.294
REMARK INTRA:                  -3.714
REMARK UNBOUND:                -4.179
REMARK SMILES CCCCCCCCCCCCCCCCCCCCCCCC(=O)[O-]
REMARK SMILES IDX 13 1 14 2 15 3 16 4 17 5 18 6 19 7 20 8 21 9 22 10 23 11
REMARK SMILES IDX 24 12 25 13 26 14 12 15 11 16 10 17 9 18 8 19 7 20 6 21 5 22
REMARK SMILES IDX 4 23 3 24 2 25 1 26
REMARK H PARENT
REMARK Flexibility Score: inf
ROOT
ATOM      1  C   UNL     1      21.454  -4.275  17.396  1.00  0.00     0.000 C 
ENDROOT
BRANCH   1   2
ATOM      2  C   UNL     1      22.785  -3.686  17.904  1.00  0.00     0.000 C 
BRANCH   2   3
ATOM      3  C   UNL     1      23.979  -3.853  16.948  1.00  0.00     0.000 C 
BRANCH   3   4
ATOM      4  C   UNL     1      23.707  -3.279  15.546  1.00  0.00     0.000 C 
BRANCH   4   5
ATOM      5  C   UNL     1      23.664  -1.742  15.538  1.00  0.00     0.000 C 
BRANCH   5   6
ATOM      6  C   UNL     1      22.933  -1.175  14.308  1.00  0.00     0.000 C 
BRANCH   6   7
ATOM      7  C   UNL     1      21.798  -2.088  13.808  1.00  0.00     0.000 C 
BRANCH   7   8
ATOM      8  C   UNL     1      20.414  -1.417  13.719  1.00  0.00     0.000 C 
BRANCH   8   9
ATOM      9  C   UNL     1      19.849  -1.268  12.293  1.00  0.00     0.000 C 
BRANCH   9  10
ATOM     10  C   UNL     1      18.702  -2.251  11.968  1.00  0.00     0.006 C 
BRANCH  10  11
ATOM     11  C   UNL     1      19.155  -3.713  11.829  1.00  0.00     0.053 C 
BRANCH  11  12
ATOM     12  C   UNL     1      18.376  -4.627  12.724  1.00  0.00     0.041 C 
ATOM     13  O   UNL     1      18.376  -4.446  13.970  1.00  0.00    -0.550 OA
ATOM     14  O   UNL     1      17.653  -5.683  12.182  1.00  0.00    -0.550 OA
ENDBRANCH  11  12
ENDBRANCH  10  11
ENDBRANCH   9  10
ENDBRANCH   8   9
ENDBRANCH   7   8
ENDBRANCH   6   7
ENDBRANCH   5   6
ENDBRANCH   4   5
ENDBRANCH   3   4
ENDBRANCH   2   3
ENDBRANCH   1   2
BRANCH   1  15
ATOM     15  C   UNL     1      20.361  -3.207  17.212  1.00  0.00     0.000 C 
BRANCH  15  16
ATOM     16  C   UNL     1      20.734  -1.861  17.855  1.00  0.00     0.000 C 
BRANCH  16  17
ATOM     17  C   UNL     1      19.916  -0.685  17.289  1.00  0.00     0.000 C 
BRANCH  17  18
ATOM     18  C   UNL     1      20.801   0.497  16.859  1.00  0.00    -0.000 C 
BRANCH  18  19
ATOM     19  C   UNL     1      22.055   0.648  17.738  1.00  0.00    -0.000 C 
BRANCH  19  20
ATOM     20  C   UNL     1      23.099   1.600  17.115  1.00  0.00    -0.000 C 
BRANCH  20  21
ATOM     21  C   UNL     1      22.531   2.517  16.015  1.00  0.00    -0.000 C 
BRANCH  21  22
ATOM     22  C   UNL     1      23.151   2.319  14.619  1.00  0.00    -0.000 C 
BRANCH  22  23
ATOM     23  C   UNL     1      22.175   2.499  13.438  1.00  0.00    -0.000 C 
BRANCH  23  24
ATOM     24  C   UNL     1      22.524   3.644  12.466  1.00  0.00    -0.000 C 
BRANCH  24  25
ATOM     25  C   UNL     1      23.124   4.898  13.130  1.00  0.00    -0.003 C 
ATOM     26  C   UNL     1      24.572   5.154  12.714  1.00  0.00     0.004 C 
ENDBRANCH  24  25
ENDBRANCH  23  24
ENDBRANCH  22  23
ENDBRANCH  21  22
ENDBRANCH  20  21
ENDBRANCH  19  20
ENDBRANCH  18  19
ENDBRANCH  17  18
ENDBRANCH  16  17
ENDBRANCH  15  16
ENDBRANCH   1  15
TORSDOF 22
ENDMDL
MODEL 5
REMARK VINA RESULT:    -3.842      4.427      8.286
REMARK INTER + INTRA:         -12.963
REMARK INTER:                  -9.047
REMARK INTRA:                  -3.916
REMARK UNBOUND:                -4.179
REMARK SMILES CCCCCCCCCCCCCCCCCCCCCCCC(=O)[O-]
REMARK SMILES IDX 13 1 14 2 15 3 16 4 17 5 18 6 19 7 20 8 21 9 22 10 23 11
REMARK SMILES IDX 24 12 25 13 26 14 12 15 11 16 10 17 9 18 8 19 7 20 6 21 5 22
REMARK SMILES IDX 4 23 3 24 2 25 1 26
REMARK H PARENT
REMARK Flexibility Score: inf
ROOT
ATOM      1  C   UNL     1      21.087   0.238  17.985  1.00  0.00     0.000 C 
ENDROOT
BRANCH   1   2
ATOM      2  C   UNL     1      21.913   1.477  17.590  1.00  0.00     0.000 C 
BRANCH   2   3
ATOM      3  C   UNL     1      23.053   1.209  16.590  1.00  0.00     0.000 C 
BRANCH   3   4
ATOM      4  C   UNL     1      22.684   1.594  15.146  1.00  0.00     0.000 C 
BRANCH   4   5
ATOM      5  C   UNL     1      22.707   0.389  14.191  1.00  0.00     0.000 C 
BRANCH   5   6
ATOM      6  C   UNL     1      21.451   0.308  13.307  1.00  0.00     0.000 C 
BRANCH   6   7
ATOM      7  C   UNL     1      21.464  -0.898  12.350  1.00  0.00     0.000 C 
BRANCH   7   8
ATOM      8  C   UNL     1      20.079  -1.337  11.838  1.00  0.00     0.000 C 
BRANCH   8   9
ATOM      9  C   UNL     1      19.107  -1.834  12.926  1.00  0.00     0.000 C 
BRANCH   9  10
ATOM     10  C   UNL     1      18.898  -3.364  12.928  1.00  0.00     0.006 C 
BRANCH  10  11
ATOM     11  C   UNL     1      17.427  -3.793  12.814  1.00  0.00     0.053 C 
BRANCH  11  12
ATOM     12  C   UNL     1      16.637  -2.858  11.951  1.00  0.00     0.041 C 
ATOM     13  O   UNL     1      16.754  -2.901  10.697  1.00  0.00    -0.550 OA
ATOM     14  O   UNL     1      15.774  -1.936  12.529  1.00  0.00    -0.550 OA
ENDBRANCH  11  12
ENDBRANCH  10  11
ENDBRANCH   9  10
ENDBRANCH   8   9
ENDBRANCH   7   8
ENDBRANCH   6   7
ENDBRANCH   5   6
ENDBRANCH   4   5
ENDBRANCH   3   4
ENDBRANCH   2   3
ENDBRANCH   1   2
BRANCH   1  15
ATOM     15  C   UNL     1      19.818   0.069  17.131  1.00  0.00     0.000 C 
BRANCH  15  16
ATOM     16  C   UNL     1      19.819  -1.239  16.322  1.00  0.00     0.000 C 
BRANCH  16  17
ATOM     17  C   UNL     1      20.986  -2.171  16.698  1.00  0.00     0.000 C 
BRANCH  17  18
ATOM     18  C   UNL     1      21.632  -2.833  15.470  1.00  0.00    -0.000 C 
BRANCH  18  19
ATOM     19  C   UNL     1      23.116  -3.173  15.692  1.00  0.00    -0.000 C 
BRANCH  19  20
ATOM     20  C   UNL     1      23.696  -2.483  16.945  1.00  0.00    -0.000 C 
BRANCH  20  21
ATOM     21  C   UNL     1      24.506  -3.423  17.858  1.00  0.00    -0.000 C 
BRANCH  21  22
ATOM     22  C   UNL     1      24.324  -4.925  17.569  1.00  0.00    -0.000 C 
BRANCH  22  23
ATOM     23  C   UNL     1      23.947  -5.785  18.793  1.00  0.00    -0.000 C 
BRANCH  23  24
ATOM     24  C   UNL     1      22.548  -6.432  18.735  1.00  0.00    -0.000 C 
BRANCH  24  25
ATOM     25  C   UNL     1      21.444  -5.536  18.144  1.00  0.00    -0.003 C 
ATOM     26  C   UNL     1      20.272  -6.337  17.574  1.00  0.00     0.004 C 
ENDBRANCH  24  25
ENDBRANCH  23  24
ENDBRANCH  22  23
ENDBRANCH  21  22
ENDBRANCH  20  21
ENDBRANCH  19  20
ENDBRANCH  18  19
ENDBRANCH  17  18
ENDBRANCH  16  17
ENDBRANCH  15  16
ENDBRANCH   1  15
TORSDOF 22
ENDMDL
MODEL 6
REMARK VINA RESULT:    -3.806      1.485      3.203
REMARK INTER + INTRA:         -12.881
REMARK INTER:                  -8.951
REMARK INTRA:                  -3.930
REMARK UNBOUND:                -4.179
REMARK SMILES CCCCCCCCCCCCCCCCCCCCCCCC(=O)[O-]
REMARK SMILES IDX 13 1 14 2 15 3 16 4 17 5 18 6 19 7 20 8 21 9 22 10 23 11
REMARK SMILES IDX 24 12 25 13 26 14 12 15 11 16 10 17 9 18 8 19 7 20 6 21 5 22
REMARK SMILES IDX 4 23 3 24 2 25 1 26
REMARK H PARENT
REMARK Flexibility Score: inf
ROOT
ATOM      1  C   UNL     1      23.738   0.898  15.530  1.00  0.00     0.000 C 
ENDROOT
BRANCH   1   2
ATOM      2  C   UNL     1      22.678   0.514  16.579  1.00  0.00     0.000 C 
BRANCH   2   3
ATOM      3  C   UNL     1      21.220   0.587  16.089  1.00  0.00     0.000 C 
BRANCH   3   4
ATOM      4  C   UNL     1      20.596  -0.801  15.858  1.00  0.00     0.000 C 
BRANCH   4   5
ATOM      5  C   UNL     1      20.446  -1.138  14.365  1.00  0.00     0.000 C 
BRANCH   5   6
ATOM      6  C   UNL     1      21.172  -2.437  13.974  1.00  0.00     0.000 C 
BRANCH   6   7
ATOM      7  C   UNL     1      22.701  -2.275  13.901  1.00  0.00     0.000 C 
BRANCH   7   8
ATOM      8  C   UNL     1      23.501  -3.240  14.796  1.00  0.00     0.000 C 
BRANCH   8   9
ATOM      9  C   UNL     1      23.920  -2.669  16.165  1.00  0.00     0.000 C 
BRANCH   9  10
ATOM     10  C   UNL     1      23.809  -3.682  17.326  1.00  0.00     0.006 C 
BRANCH  10  11
ATOM     11  C   UNL     1      22.567  -4.584  17.250  1.00  0.00     0.053 C 
BRANCH  11  12
ATOM     12  C   UNL     1      21.329  -3.871  17.698  1.00  0.00     0.041 C 
ATOM     13  O   UNL     1      20.239  -4.051  17.092  1.00  0.00    -0.550 OA
ATOM     14  O   UNL     1      21.377  -3.004  18.783  1.00  0.00    -0.550 OA
ENDBRANCH  11  12
ENDBRANCH  10  11
ENDBRANCH   9  10
ENDBRANCH   8   9
ENDBRANCH   7   8
ENDBRANCH   6   7
ENDBRANCH   5   6
ENDBRANCH   4   5
ENDBRANCH   3   4
ENDBRANCH   2   3
ENDBRANCH   1   2
BRANCH   1  15
ATOM     15  C   UNL     1      23.125   1.503  14.254  1.00  0.00     0.000 C 
BRANCH  15  16
ATOM     16  C   UNL     1      23.448   2.998  14.093  1.00  0.00     0.000 C 
BRANCH  16  17
ATOM     17  C   UNL     1      24.282   3.555  15.263  1.00  0.00     0.000 C 
BRANCH  17  18
ATOM     18  C   UNL     1      23.539   4.647  16.050  1.00  0.00    -0.000 C 
BRANCH  18  19
ATOM     19  C   UNL     1      22.110   4.229  16.436  1.00  0.00    -0.000 C 
BRANCH  19  20
ATOM     20  C   UNL     1      21.051   5.254  15.975  1.00  0.00    -0.000 C 
BRANCH  20  21
ATOM     21  C   UNL     1      21.574   6.270  14.942  1.00  0.00    -0.000 C 
BRANCH  21  22
ATOM     22  C   UNL     1      21.330   5.886  13.471  1.00  0.00    -0.000 C 
BRANCH  22  23
ATOM     23  C   UNL     1      22.470   6.260  12.501  1.00  0.00    -0.000 C 
BRANCH  23  24
ATOM     24  C   UNL     1      23.628   7.064  13.127  1.00  0.00    -0.000 C 
BRANCH  24  25
ATOM     25  C   UNL     1      24.991   6.347  13.125  1.00  0.00    -0.003 C 
ATOM     26  C   UNL     1      26.072   7.125  13.875  1.00  0.00     0.004 C 
ENDBRANCH  24  25
ENDBRANCH  23  24
ENDBRANCH  22  23
ENDBRANCH  21  22
ENDBRANCH  20  21
ENDBRANCH  19  20
ENDBRANCH  18  19
ENDBRANCH  17  18
ENDBRANCH  16  17
ENDBRANCH  15  16
ENDBRANCH   1  15
TORSDOF 22
ENDMDL
MODEL 7
REMARK VINA RESULT:    -3.795      2.901      5.921
REMARK INTER + INTRA:         -12.855
REMARK INTER:                  -8.550
REMARK INTRA:                  -4.305
REMARK UNBOUND:                -4.179
REMARK SMILES CCCCCCCCCCCCCCCCCCCCCCCC(=O)[O-]
REMARK SMILES IDX 13 1 14 2 15 3 16 4 17 5 18 6 19 7 20 8 21 9 22 10 23 11
REMARK SMILES IDX 24 12 25 13 26 14 12 15 11 16 10 17 9 18 8 19 7 20 6 21 5 22
REMARK SMILES IDX 4 23 3 24 2 25 1 26
REMARK H PARENT
REMARK Flexibility Score: inf
ROOT
ATOM      1  C   UNL     1      23.795  -2.746  16.006  1.00  0.00     0.000 C 
ENDROOT
BRANCH   1   2
ATOM      2  C   UNL     1      24.198  -4.004  16.798  1.00  0.00     0.000 C 
BRANCH   2   3
ATOM      3  C   UNL     1      24.622  -3.749  18.257  1.00  0.00     0.000 C 
BRANCH   3   4
ATOM      4  C   UNL     1      24.245  -2.340  18.750  1.00  0.00     0.000 C 
BRANCH   4   5
ATOM      5  C   UNL     1      23.537  -2.365  20.115  1.00  0.00     0.000 C 
BRANCH   5   6
ATOM      6  C   UNL     1      22.050  -1.982  20.020  1.00  0.00     0.000 C 
BRANCH   6   7
ATOM      7  C   UNL     1      21.160  -3.140  19.532  1.00  0.00     0.000 C 
BRANCH   7   8
ATOM      8  C   UNL     1      20.402  -2.868  18.218  1.00  0.00     0.000 C 
BRANCH   8   9
ATOM      9  C   UNL     1      20.505  -3.984  17.160  1.00  0.00     0.000 C 
BRANCH   9  10
ATOM     10  C   UNL     1      20.983  -5.340  17.724  1.00  0.00     0.006 C 
BRANCH  10  11
ATOM     11  C   UNL     1      19.926  -6.453  17.650  1.00  0.00     0.053 C 
BRANCH  11  12
ATOM     12  C   UNL     1      18.683  -6.096  18.406  1.00  0.00     0.041 C 
ATOM     13  O   UNL     1      17.584  -5.981  17.802  1.00  0.00    -0.550 OA
ATOM     14  O   UNL     1      18.738  -5.886  19.779  1.00  0.00    -0.550 OA
ENDBRANCH  11  12
ENDBRANCH  10  11
ENDBRANCH   9  10
ENDBRANCH   8   9
ENDBRANCH   7   8
ENDBRANCH   6   7
ENDBRANCH   5   6
ENDBRANCH   4   5
ENDBRANCH   3   4
ENDBRANCH   2   3
ENDBRANCH   1   2
BRANCH   1  15
ATOM     15  C   UNL     1      23.563  -3.030  14.512  1.00  0.00     0.000 C 
BRANCH  15  16
ATOM     16  C   UNL     1      22.115  -2.752  14.074  1.00  0.00     0.000 C 
BRANCH  16  17
ATOM     17  C   UNL     1      21.979  -1.448  13.264  1.00  0.00     0.000 C 
BRANCH  17  18
ATOM     18  C   UNL     1      20.864  -0.535  13.800  1.00  0.00    -0.000 C 
BRANCH  18  19
ATOM     19  C   UNL     1      20.618  -0.722  15.306  1.00  0.00    -0.000 C 
BRANCH  19  20
ATOM     20  C   UNL     1      21.053   0.508  16.132  1.00  0.00    -0.000 C 
BRANCH  20  21
ATOM     21  C   UNL     1      22.186   0.218  17.135  1.00  0.00    -0.000 C 
BRANCH  21  22
ATOM     22  C   UNL     1      23.531   0.896  16.811  1.00  0.00    -0.000 C 
BRANCH  22  23
ATOM     23  C   UNL     1      23.906   0.922  15.315  1.00  0.00    -0.000 C 
BRANCH  23  24
ATOM     24  C   UNL     1      23.559   2.229  14.574  1.00  0.00    -0.000 C 
BRANCH  24  25
ATOM     25  C   UNL     1      24.362   3.463  15.027  1.00  0.00    -0.003 C 
ATOM     26  C   UNL     1      24.681   4.419  13.876  1.00  0.00     0.004 C 
ENDBRANCH  24  25
ENDBRANCH  23  24
ENDBRANCH  22  23
ENDBRANCH  21  22
ENDBRANCH  20  21
ENDBRANCH  19  20
ENDBRANCH  18  19
ENDBRANCH  17  18
ENDBRANCH  16  17
ENDBRANCH  15  16
ENDBRANCH   1  15
TORSDOF 22
ENDMDL
MODEL 8
REMARK VINA RESULT:    -3.793      1.375      3.050
REMARK INTER + INTRA:         -12.851
REMARK INTER:                  -9.432
REMARK INTRA:                  -3.420
REMARK UNBOUND:                -4.179
REMARK SMILES CCCCCCCCCCCCCCCCCCCCCCCC(=O)[O-]
REMARK SMILES IDX 13 1 14 2 15 3 16 4 17 5 18 6 19 7 20 8 21 9 22 10 23 11
REMARK SMILES IDX 24 12 25 13 26 14 12 15 11 16 10 17 9 18 8 19 7 20 6 21 5 22
REMARK SMILES IDX 4 23 3 24 2 25 1 26
REMARK H PARENT
REMARK Flexibility Score: inf
ROOT
ATOM      1  C   UNL     1      23.976   1.814  18.110  1.00  0.00     0.000 C 
ENDROOT
BRANCH   1   2
ATOM      2  C   UNL     1      23.350   0.472  17.685  1.00  0.00     0.000 C 
BRANCH   2   3
ATOM      3  C   UNL     1      21.877   0.283  18.092  1.00  0.00     0.000 C 
BRANCH   3   4
ATOM      4  C   UNL     1      20.908   0.411  16.902  1.00  0.00     0.000 C 
BRANCH   4   5
ATOM      5  C   UNL     1      20.097  -0.874  16.663  1.00  0.00     0.000 C 
BRANCH   5   6
ATOM      6  C   UNL     1      20.263  -1.423  15.236  1.00  0.00     0.000 C 
BRANCH   6   7
ATOM      7  C   UNL     1      21.215  -0.577  14.371  1.00  0.00     0.000 C 
BRANCH   7   8
ATOM      8  C   UNL     1      22.583  -1.225  14.084  1.00  0.00     0.000 C 
BRANCH   8   9
ATOM      9  C   UNL     1      22.668  -2.735  14.383  1.00  0.00     0.000 C 
BRANCH   9  10
ATOM     10  C   UNL     1      23.827  -3.123  15.326  1.00  0.00     0.006 C 
BRANCH  10  11
ATOM     11  C   UNL     1      23.459  -3.079  16.818  1.00  0.00     0.053 C 
BRANCH  11  12
ATOM     12  C   UNL     1      23.093  -4.434  17.343  1.00  0.00     0.041 C 
ATOM     13  O   UNL     1      23.989  -5.220  17.750  1.00  0.00    -0.550 OA
ATOM     14  O   UNL     1      21.762  -4.831  17.379  1.00  0.00    -0.550 OA
ENDBRANCH  11  12
ENDBRANCH  10  11
ENDBRANCH   9  10
ENDBRANCH   8   9
ENDBRANCH   7   8
ENDBRANCH   6   7
ENDBRANCH   5   6
ENDBRANCH   4   5
ENDBRANCH   3   4
ENDBRANCH   2   3
ENDBRANCH   1   2
BRANCH   1  15
ATOM     15  C   UNL     1      23.780   2.923  17.062  1.00  0.00     0.000 C 
BRANCH  15  16
ATOM     16  C   UNL     1      24.644   2.712  15.807  1.00  0.00     0.000 C 
BRANCH  16  17
ATOM     17  C   UNL     1      23.836   2.168  14.614  1.00  0.00     0.000 C 
BRANCH  17  18
ATOM     18  C   UNL     1      22.460   2.840  14.477  1.00  0.00    -0.000 C 
BRANCH  18  19
ATOM     19  C   UNL     1      21.995   2.944  13.014  1.00  0.00    -0.000 C 
BRANCH  19  20
ATOM     20  C   UNL     1      21.869   4.408  12.539  1.00  0.00    -0.000 C 
BRANCH  20  21
ATOM     21  C   UNL     1      21.157   5.332  13.544  1.00  0.00    -0.000 C 
BRANCH  21  22
ATOM     22  C   UNL     1      21.613   6.803  13.512  1.00  0.00    -0.000 C 
BRANCH  22  23
ATOM     23  C   UNL     1      22.953   7.055  12.790  1.00  0.00    -0.000 C 
BRANCH  23  24
ATOM     24  C   UNL     1      24.115   7.501  13.701  1.00  0.00    -0.000 C 
BRANCH  24  25
ATOM     25  C   UNL     1      25.431   6.726  13.499  1.00  0.00    -0.003 C 
ATOM     26  C   UNL     1      25.204   5.264  13.113  1.00  0.00     0.004 C 
ENDBRANCH  24  25
ENDBRANCH  23  24
ENDBRANCH  22  23
ENDBRANCH  21  22
ENDBRANCH  20  21
ENDBRANCH  19  20
ENDBRANCH  18  19
ENDBRANCH  17  18
ENDBRANCH  16  17
ENDBRANCH  15  16
ENDBRANCH   1  15
TORSDOF 22
ENDMDL
MODEL 9
REMARK VINA RESULT:    -3.792      4.293      7.836
REMARK INTER + INTRA:         -12.848
REMARK INTER:                  -9.321
REMARK INTRA:                  -3.527
REMARK UNBOUND:                -4.179
REMARK SMILES CCCCCCCCCCCCCCCCCCCCCCCC(=O)[O-]
REMARK SMILES IDX 13 1 14 2 15 3 16 4 17 5 18 6 19 7 20 8 21 9 22 10 23 11
REMARK SMILES IDX 24 12 25 13 26 14 12 15 11 16 10 17 9 18 8 19 7 20 6 21 5 22
REMARK SMILES IDX 4 23 3 24 2 25 1 26
REMARK H PARENT
REMARK Flexibility Score: inf
ROOT
ATOM      1  C   UNL     1      24.220  -3.093  16.889  1.00  0.00     0.000 C 
ENDROOT
BRANCH   1   2
ATOM      2  C   UNL     1      23.700  -3.374  15.467  1.00  0.00     0.000 C 
BRANCH   2   3
ATOM      3  C   UNL     1      23.483  -2.124  14.594  1.00  0.00     0.000 C 
BRANCH   3   4
ATOM      4  C   UNL     1      22.341  -2.297  13.576  1.00  0.00     0.000 C 
BRANCH   4   5
ATOM      5  C   UNL     1      21.735  -0.954  13.137  1.00  0.00     0.000 C 
BRANCH   5   6
ATOM      6  C   UNL     1      20.736  -1.104  11.977  1.00  0.00     0.000 C 
BRANCH   6   7
ATOM      7  C   UNL     1      19.871  -2.374  12.087  1.00  0.00     0.000 C 
BRANCH   7   8
ATOM      8  C   UNL     1      18.655  -2.254  13.023  1.00  0.00     0.000 C 
BRANCH   8   9
ATOM      9  C   UNL     1      17.418  -3.070  12.599  1.00  0.00     0.000 C 
BRANCH   9  10
ATOM     10  C   UNL     1      16.127  -2.232  12.472  1.00  0.00     0.006 C 
BRANCH  10  11
ATOM     11  C   UNL     1      15.597  -2.117  11.034  1.00  0.00     0.053 C 
BRANCH  11  12
ATOM     12  C   UNL     1      15.870  -0.768  10.443  1.00  0.00     0.041 C 
ATOM     13  O   UNL     1      17.054  -0.356  10.324  1.00  0.00    -0.550 OA
ATOM     14  O   UNL     1      14.817   0.037  10.027  1.00  0.00    -0.550 OA
ENDBRANCH  11  12
ENDBRANCH  10  11
ENDBRANCH   9  10
ENDBRANCH   8   9
ENDBRANCH   7   8
ENDBRANCH   6   7
ENDBRANCH   5   6
ENDBRANCH   4   5
ENDBRANCH   3   4
ENDBRANCH   2   3
ENDBRANCH   1   2
BRANCH   1  15
ATOM     15  C   UNL     1      23.486  -3.913  17.965  1.00  0.00     0.000 C 
BRANCH  15  16
ATOM     16  C   UNL     1      22.260  -4.657  17.409  1.00  0.00     0.000 C 
BRANCH  16  17
ATOM     17  C   UNL     1      21.046  -4.592  18.354  1.00  0.00     0.000 C 
BRANCH  17  18
ATOM     18  C   UNL     1      20.121  -3.402  18.046  1.00  0.00    -0.000 C 
BRANCH  18  19
ATOM     19  C   UNL     1      20.145  -3.004  16.561  1.00  0.00    -0.000 C 
BRANCH  19  20
ATOM     20  C   UNL     1      20.233  -1.475  16.363  1.00  0.00    -0.000 C 
BRANCH  20  21
ATOM     21  C   UNL     1      21.329  -0.797  17.207  1.00  0.00    -0.000 C 
BRANCH  21  22
ATOM     22  C   UNL     1      21.738   0.610  16.733  1.00  0.00    -0.000 C 
BRANCH  22  23
ATOM     23  C   UNL     1      23.254   0.895  16.766  1.00  0.00    -0.000 C 
BRANCH  23  24
ATOM     24  C   UNL     1      23.873   1.311  15.416  1.00  0.00    -0.000 C 
BRANCH  24  25
ATOM     25  C   UNL     1      25.044   2.307  15.520  1.00  0.00    -0.003 C 
ATOM     26  C   UNL     1      25.069   3.056  16.852  1.00  0.00     0.004 C 
ENDBRANCH  24  25
ENDBRANCH  23  24
ENDBRANCH  22  23
ENDBRANCH  21  22
ENDBRANCH  20  21
ENDBRANCH  19  20
ENDBRANCH  18  19
ENDBRANCH  17  18
ENDBRANCH  16  17
ENDBRANCH  15  16
ENDBRANCH   1  15
TORSDOF 22
ENDMDL
