MODEL 1
REMARK VINA RESULT:    -3.599      0.000      0.000
REMARK INTER + INTRA:          -8.888
REMARK INTER:                  -6.544
REMARK INTRA:                  -2.344
REMARK UNBOUND:                -2.344
REMARK SMILES CCCCCCCCCCCCCCCC(=O)[O-]
REMARK SMILES IDX 9 1 10 2 11 3 12 4 13 5 14 6 15 7 16 8 17 9 18 10 8 11 7 12
REMARK SMILES IDX 6 13 5 14 4 15 3 16 2 17 1 18
REMARK H PARENT
REMARK Flexibility Score: inf
ROOT
ATOM      1  C   UNL     1     136.729 131.275 150.277  1.00  0.00     0.000 C 
ENDROOT
BRANCH   1   2
ATOM      2  C   UNL     1     136.786 130.499 148.949  1.00  0.00     0.000 C 
BRANCH   2   3
ATOM      3  C   UNL     1     138.191 129.956 148.643  1.00  0.00     0.000 C 
BRANCH   3   4
ATOM      4  C   UNL     1     138.784 130.548 147.351  1.00  0.00     0.000 C 
BRANCH   4   5
ATOM      5  C   UNL     1     137.803 131.482 146.624  1.00  0.00     0.000 C 
BRANCH   5   6
ATOM      6  C   UNL     1     138.406 132.867 146.332  1.00  0.00     0.006 C 
BRANCH   6   7
ATOM      7  C   UNL     1     137.381 133.994 146.515  1.00  0.00     0.053 C 
BRANCH   7   8
ATOM      8  C   UNL     1     136.890 134.520 145.200  1.00  0.00     0.041 C 
ATOM      9  O   UNL     1     136.693 133.735 144.237  1.00  0.00    -0.550 OA
ATOM     10  O   UNL     1     136.680 135.883 145.031  1.00  0.00    -0.550 OA
ENDBRANCH   7   8
ENDBRANCH   6   7
ENDBRANCH   5   6
ENDBRANCH   4   5
ENDBRANCH   3   4
ENDBRANCH   2   3
ENDBRANCH   1   2
BRANCH   1  11
ATOM     11  C   UNL     1     136.769 132.801 150.078  1.00  0.00     0.000 C 
BRANCH  11  12
ATOM     12  C   UNL     1     138.170 133.440 150.159  1.00  0.00    -0.000 C 
BRANCH  12  13
ATOM     13  C   UNL     1     138.934 133.189 151.471  1.00  0.00    -0.000 C 
BRANCH  13  14
ATOM     14  C   UNL     1     140.335 132.595 151.243  1.00  0.00    -0.000 C 
BRANCH  14  15
ATOM     15  C   UNL     1     140.764 132.627 149.765  1.00  0.00    -0.000 C 
BRANCH  15  16
ATOM     16  C   UNL     1     141.884 133.631 149.424  1.00  0.00    -0.000 C 
BRANCH  16  17
ATOM     17  C   UNL     1     141.397 134.998 148.912  1.00  0.00    -0.003 C 
ATOM     18  C   UNL     1     141.288 135.059 147.389  1.00  0.00     0.004 C 
ENDBRANCH  16  17
ENDBRANCH  15  16
ENDBRANCH  14  15
ENDBRANCH  13  14
ENDBRANCH  12  13
ENDBRANCH  11  12
ENDBRANCH   1  11
TORSDOF 14
ENDMDL
MODEL 2
REMARK VINA RESULT:    -3.562      1.185      3.693
REMARK INTER + INTRA:          -8.821
REMARK INTER:                  -6.232
REMARK INTRA:                  -2.589
REMARK UNBOUND:                -2.344
REMARK SMILES CCCCCCCCCCCCCCCC(=O)[O-]
REMARK SMILES IDX 9 1 10 2 11 3 12 4 13 5 14 6 15 7 16 8 17 9 18 10 8 11 7 12
REMARK SMILES IDX 6 13 5 14 4 15 3 16 2 17 1 18
REMARK H PARENT
REMARK Flexibility Score: inf
ROOT
ATOM      1  C   UNL     1     141.029 133.033 150.840  1.00  0.00     0.000 C 
ENDROOT
BRANCH   1   2
ATOM      2  C   UNL     1     141.655 133.078 149.435  1.00  0.00     0.000 C 
BRANCH   2   3
ATOM      3  C   UNL     1     140.816 133.900 148.442  1.00  0.00     0.000 C 
BRANCH   3   4
ATOM      4  C   UNL     1     140.589 133.163 147.110  1.00  0.00     0.000 C 
BRANCH   4   5
ATOM      5  C   UNL     1     139.557 133.867 146.214  1.00  0.00     0.000 C 
BRANCH   5   6
ATOM      6  C   UNL     1     138.152 133.251 146.330  1.00  0.00     0.006 C 
BRANCH   6   7
ATOM      7  C   UNL     1     137.047 134.312 146.239  1.00  0.00     0.053 C 
BRANCH   7   8
ATOM      8  C   UNL     1     136.980 134.934 144.877  1.00  0.00     0.041 C 
ATOM      9  O   UNL     1     137.068 136.183 144.746  1.00  0.00    -0.550 OA
ATOM     10  O   UNL     1     136.791 134.136 143.756  1.00  0.00    -0.550 OA
ENDBRANCH   7   8
ENDBRANCH   6   7
ENDBRANCH   5   6
ENDBRANCH   4   5
ENDBRANCH   3   4
ENDBRANCH   2   3
ENDBRANCH   1   2
BRANCH   1  11
ATOM     11  C   UNL     1     139.746 133.877 150.949  1.00  0.00     0.000 C 
BRANCH  11  12
ATOM     12  C   UNL     1     138.442 133.074 151.130  1.00  0.00    -0.000 C 
BRANCH  12  13
ATOM     13  C   UNL     1     137.353 133.340 150.075  1.00  0.00    -0.000 C 
BRANCH  13  14
ATOM     14  C   UNL     1     136.667 132.053 149.587  1.00  0.00    -0.000 C 
BRANCH  14  15
ATOM     15  C   UNL     1     137.536 130.799 149.788  1.00  0.00    -0.000 C 
BRANCH  15  16
ATOM     16  C   UNL     1     138.485 130.458 148.621  1.00  0.00    -0.000 C 
BRANCH  16  17
ATOM     17  C   UNL     1     139.833 129.843 149.036  1.00  0.00    -0.003 C 
ATOM     18  C   UNL     1     139.938 129.599 150.541  1.00  0.00     0.004 C 
ENDBRANCH  16  17
ENDBRANCH  15  16
ENDBRANCH  14  15
ENDBRANCH  13  14
ENDBRANCH  12  13
ENDBRANCH  11  12
ENDBRANCH   1  11
TORSDOF 14
ENDMDL
MODEL 3
REMARK VINA RESULT:    -3.513      1.431      3.625
REMARK INTER + INTRA:          -8.732
REMARK INTER:                  -6.094
REMARK INTRA:                  -2.639
REMARK UNBOUND:                -2.344
REMARK SMILES CCCCCCCCCCCCCCCC(=O)[O-]
REMARK SMILES IDX 9 1 10 2 11 3 12 4 13 5 14 6 15 7 16 8 17 9 18 10 8 11 7 12
REMARK SMILES IDX 6 13 5 14 4 15 3 16 2 17 1 18
REMARK H PARENT
REMARK Flexibility Score: inf
ROOT
ATOM      1  C   UNL     1     140.708 131.287 150.717  1.00  0.00     0.000 C 
ENDROOT
BRANCH   1   2
ATOM      2  C   UNL     1     140.877 130.710 149.301  1.00  0.00     0.000 C 
BRANCH   2   3
ATOM      3  C   UNL     1     141.016 131.804 148.230  1.00  0.00     0.000 C 
BRANCH   3   4
ATOM      4  C   UNL     1     139.782 131.894 147.314  1.00  0.00     0.000 C 
BRANCH   4   5
ATOM      5  C   UNL     1     139.246 133.330 147.184  1.00  0.00     0.000 C 
BRANCH   5   6
ATOM      6  C   UNL     1     137.796 133.378 146.670  1.00  0.00     0.006 C 
BRANCH   6   7
ATOM      7  C   UNL     1     137.632 132.641 145.334  1.00  0.00     0.053 C 
BRANCH   7   8
ATOM      8  C   UNL     1     136.793 133.419 144.367  1.00  0.00     0.041 C 
ATOM      9  O   UNL     1     136.047 132.819 143.549  1.00  0.00    -0.550 OA
ATOM     10  O   UNL     1     136.858 134.807 144.349  1.00  0.00    -0.550 OA
ENDBRANCH   7   8
ENDBRANCH   6   7
ENDBRANCH   5   6
ENDBRANCH   4   5
ENDBRANCH   3   4
ENDBRANCH   2   3
ENDBRANCH   1   2
BRANCH   1  11
ATOM     11  C   UNL     1     141.039 132.789 150.791  1.00  0.00     0.000 C 
BRANCH  11  12
ATOM     12  C   UNL     1     139.857 133.707 151.165  1.00  0.00    -0.000 C 
BRANCH  12  13
ATOM     13  C   UNL     1     138.521 132.988 151.423  1.00  0.00    -0.000 C 
BRANCH  13  14
ATOM     14  C   UNL     1     137.469 133.276 150.338  1.00  0.00    -0.000 C 
BRANCH  14  15
ATOM     15  C   UNL     1     136.532 132.081 150.083  1.00  0.00    -0.000 C 
BRANCH  15  16
ATOM     16  C   UNL     1     137.089 130.704 150.499  1.00  0.00    -0.000 C 
BRANCH  16  17
ATOM     17  C   UNL     1     137.374 129.739 149.335  1.00  0.00    -0.003 C 
ATOM     18  C   UNL     1     136.628 130.114 148.055  1.00  0.00     0.004 C 
ENDBRANCH  16  17
ENDBRANCH  15  16
ENDBRANCH  14  15
ENDBRANCH  13  14
ENDBRANCH  12  13
ENDBRANCH  11  12
ENDBRANCH   1  11
TORSDOF 14
ENDMDL
MODEL 4
REMARK VINA RESULT:    -3.475      1.234      1.977
REMARK INTER + INTRA:          -8.663
REMARK INTER:                  -6.226
REMARK INTRA:                  -2.437
REMARK UNBOUND:                -2.344
REMARK SMILES CCCCCCCCCCCCCCCC(=O)[O-]
REMARK SMILES IDX 9 1 10 2 11 3 12 4 13 5 14 6 15 7 16 8 17 9 18 10 8 11 7 12
REMARK SMILES IDX 6 13 5 14 4 15 3 16 2 17 1 18
REMARK H PARENT
REMARK Flexibility Score: inf
ROOT
ATOM      1  C   UNL     1     136.946 130.789 150.338  1.00  0.00     0.000 C 
ENDROOT
BRANCH   1   2
ATOM      2  C   UNL     1     137.877 129.947 149.447  1.00  0.00     0.000 C 
BRANCH   2   3
ATOM      3  C   UNL     1     137.842 130.388 147.975  1.00  0.00     0.000 C 
BRANCH   3   4
ATOM      4  C   UNL     1     139.218 130.855 147.466  1.00  0.00     0.000 C 
BRANCH   4   5
ATOM      5  C   UNL     1     139.216 132.328 147.024  1.00  0.00     0.000 C 
BRANCH   5   6
ATOM      6  C   UNL     1     138.130 132.632 145.976  1.00  0.00     0.006 C 
BRANCH   6   7
ATOM      7  C   UNL     1     137.390 133.943 146.274  1.00  0.00     0.053 C 
BRANCH   7   8
ATOM      8  C   UNL     1     136.867 134.585 145.026  1.00  0.00     0.041 C 
ATOM      9  O   UNL     1     136.591 133.882 144.019  1.00  0.00    -0.550 OA
ATOM     10  O   UNL     1     136.713 135.965 144.964  1.00  0.00    -0.550 OA
ENDBRANCH   7   8
ENDBRANCH   6   7
ENDBRANCH   5   6
ENDBRANCH   4   5
ENDBRANCH   3   4
ENDBRANCH   2   3
ENDBRANCH   1   2
BRANCH   1  11
ATOM     11  C   UNL     1     136.461 132.075 149.645  1.00  0.00     0.000 C 
BRANCH  11  12
ATOM     12  C   UNL     1     137.226 133.359 150.027  1.00  0.00    -0.000 C 
BRANCH  12  13
ATOM     13  C   UNL     1     138.505 133.141 150.856  1.00  0.00    -0.000 C 
BRANCH  13  14
ATOM     14  C   UNL     1     139.695 133.970 150.345  1.00  0.00    -0.000 C 
BRANCH  14  15
ATOM     15  C   UNL     1     140.988 133.145 150.218  1.00  0.00    -0.000 C 
BRANCH  15  16
ATOM     16  C   UNL     1     141.170 132.036 151.276  1.00  0.00    -0.000 C 
BRANCH  16  17
ATOM     17  C   UNL     1     141.189 130.602 150.718  1.00  0.00    -0.003 C 
ATOM     18  C   UNL     1     142.352 130.351 149.760  1.00  0.00     0.004 C 
ENDBRANCH  16  17
ENDBRANCH  15  16
ENDBRANCH  14  15
ENDBRANCH  13  14
ENDBRANCH  12  13
ENDBRANCH  11  12
ENDBRANCH   1  11
TORSDOF 14
ENDMDL
MODEL 5
REMARK VINA RESULT:    -3.471      3.268      5.609
REMARK INTER + INTRA:          -8.656
REMARK INTER:                  -6.581
REMARK INTRA:                  -2.075
REMARK UNBOUND:                -2.344
REMARK SMILES CCCCCCCCCCCCCCCC(=O)[O-]
REMARK SMILES IDX 9 1 10 2 11 3 12 4 13 5 14 6 15 7 16 8 17 9 18 10 8 11 7 12
REMARK SMILES IDX 6 13 5 14 4 15 3 16 2 17 1 18
REMARK H PARENT
REMARK Flexibility Score: inf
ROOT
ATOM      1  C   UNL     1     137.395 133.357 150.265  1.00  0.00     0.000 C 
ENDROOT
BRANCH   1   2
ATOM      2  C   UNL     1     138.509 132.733 151.124  1.00  0.00     0.000 C 
BRANCH   2   3
ATOM      3  C   UNL     1     139.688 133.694 151.350  1.00  0.00     0.000 C 
BRANCH   3   4
ATOM      4  C   UNL     1     140.695 133.674 150.186  1.00  0.00     0.000 C 
BRANCH   4   5
ATOM      5  C   UNL     1     140.948 135.073 149.599  1.00  0.00     0.000 C 
BRANCH   5   6
ATOM      6  C   UNL     1     141.741 135.030 148.281  1.00  0.00     0.006 C 
BRANCH   6   7
ATOM      7  C   UNL     1     142.564 133.743 148.143  1.00  0.00     0.053 C 
BRANCH   7   8
ATOM      8  C   UNL     1     144.018 133.977 148.422  1.00  0.00     0.041 C 
ATOM      9  O   UNL     1     144.843 134.035 147.474  1.00  0.00    -0.550 OA
ATOM     10  O   UNL     1     144.464 134.102 149.732  1.00  0.00    -0.550 OA
ENDBRANCH   7   8
ENDBRANCH   6   7
ENDBRANCH   5   6
ENDBRANCH   4   5
ENDBRANCH   3   4
ENDBRANCH   2   3
ENDBRANCH   1   2
BRANCH   1  11
ATOM     11  C   UNL     1     137.130 132.569 148.969  1.00  0.00     0.000 C 
BRANCH  11  12
ATOM     12  C   UNL     1     137.799 133.140 147.702  1.00  0.00    -0.000 C 
BRANCH  12  13
ATOM     13  C   UNL     1     139.026 132.361 147.196  1.00  0.00    -0.000 C 
BRANCH  13  14
ATOM     14  C   UNL     1     139.629 132.961 145.915  1.00  0.00    -0.000 C 
BRANCH  14  15
ATOM     15  C   UNL     1     139.147 134.398 145.644  1.00  0.00    -0.000 C 
BRANCH  15  16
ATOM     16  C   UNL     1     138.443 134.614 144.289  1.00  0.00    -0.000 C 
BRANCH  16  17
ATOM     17  C   UNL     1     136.912 134.468 144.320  1.00  0.00    -0.003 C 
ATOM     18  C   UNL     1     136.438 133.072 143.916  1.00  0.00     0.004 C 
ENDBRANCH  16  17
ENDBRANCH  15  16
ENDBRANCH  14  15
ENDBRANCH  13  14
ENDBRANCH  12  13
ENDBRANCH  11  12
ENDBRANCH   1  11
TORSDOF 14
ENDMDL
MODEL 6
REMARK VINA RESULT:    -3.447      1.996      4.557
REMARK INTER + INTRA:          -8.612
REMARK INTER:                  -6.461
REMARK INTRA:                  -2.151
REMARK UNBOUND:                -2.344
REMARK SMILES CCCCCCCCCCCCCCCC(=O)[O-]
REMARK SMILES IDX 9 1 10 2 11 3 12 4 13 5 14 6 15 7 16 8 17 9 18 10 8 11 7 12
REMARK SMILES IDX 6 13 5 14 4 15 3 16 2 17 1 18
REMARK H PARENT
REMARK Flexibility Score: inf
ROOT
ATOM      1  C   UNL     1     136.907 131.087 150.264  1.00  0.00     0.000 C 
ENDROOT
BRANCH   1   2
ATOM      2  C   UNL     1     136.645 132.599 150.149  1.00  0.00     0.000 C 
BRANCH   2   3
ATOM      3  C   UNL     1     137.903 133.439 150.427  1.00  0.00     0.000 C 
BRANCH   3   4
ATOM      4  C   UNL     1     139.042 132.608 151.047  1.00  0.00     0.000 C 
BRANCH   4   5
ATOM      5  C   UNL     1     140.430 133.051 150.557  1.00  0.00     0.000 C 
BRANCH   5   6
ATOM      6  C   UNL     1     140.391 134.383 149.786  1.00  0.00     0.006 C 
BRANCH   6   7
ATOM      7  C   UNL     1     141.756 134.744 149.186  1.00  0.00     0.053 C 
BRANCH   7   8
ATOM      8  C   UNL     1     141.656 135.071 147.727  1.00  0.00     0.041 C 
ATOM      9  O   UNL     1     140.678 134.659 147.051  1.00  0.00    -0.550 OA
ATOM     10  O   UNL     1     142.659 135.807 147.109  1.00  0.00    -0.550 OA
ENDBRANCH   7   8
ENDBRANCH   6   7
ENDBRANCH   5   6
ENDBRANCH   4   5
ENDBRANCH   3   4
ENDBRANCH   2   3
ENDBRANCH   1   2
BRANCH   1  11
ATOM     11  C   UNL     1     136.263 130.282 149.122  1.00  0.00     0.000 C 
BRANCH  11  12
ATOM     12  C   UNL     1     137.186 129.984 147.923  1.00  0.00    -0.000 C 
BRANCH  12  13
ATOM     13  C   UNL     1     138.657 130.400 148.104  1.00  0.00    -0.000 C 
BRANCH  13  14
ATOM     14  C   UNL     1     139.051 131.599 147.225  1.00  0.00    -0.000 C 
BRANCH  14  15
ATOM     15  C   UNL     1     137.878 132.136 146.386  1.00  0.00    -0.000 C 
BRANCH  15  16
ATOM     16  C   UNL     1     137.435 133.577 146.716  1.00  0.00    -0.000 C 
BRANCH  16  17
ATOM     17  C   UNL     1     137.369 134.529 145.509  1.00  0.00    -0.003 C 
ATOM     18  C   UNL     1     136.697 133.900 144.290  1.00  0.00     0.004 C 
ENDBRANCH  16  17
ENDBRANCH  15  16
ENDBRANCH  14  15
ENDBRANCH  13  14
ENDBRANCH  12  13
ENDBRANCH  11  12
ENDBRANCH   1  11
TORSDOF 14
ENDMDL
MODEL 7
REMARK VINA RESULT:    -3.444      1.385      3.157
REMARK INTER + INTRA:          -8.606
REMARK INTER:                  -6.278
REMARK INTRA:                  -2.328
REMARK UNBOUND:                -2.344
REMARK SMILES CCCCCCCCCCCCCCCC(=O)[O-]
REMARK SMILES IDX 9 1 10 2 11 3 12 4 13 5 14 6 15 7 16 8 17 9 18 10 8 11 7 12
REMARK SMILES IDX 6 13 5 14 4 15 3 16 2 17 1 18
REMARK H PARENT
REMARK Flexibility Score: inf
ROOT
ATOM      1  C   UNL     1     139.236 133.357 151.621  1.00  0.00     0.000 C 
ENDROOT
BRANCH   1   2
ATOM      2  C   UNL     1     138.313 132.282 151.021  1.00  0.00     0.000 C 
BRANCH   2   3
ATOM      3  C   UNL     1     137.165 132.885 150.195  1.00  0.00     0.000 C 
BRANCH   3   4
ATOM      4  C   UNL     1     137.206 132.450 148.719  1.00  0.00     0.000 C 
BRANCH   4   5
ATOM      5  C   UNL     1     137.500 133.620 147.766  1.00  0.00     0.000 C 
BRANCH   5   6
ATOM      6  C   UNL     1     137.937 133.150 146.366  1.00  0.00     0.006 C 
BRANCH   6   7
ATOM      7  C   UNL     1     137.071 133.760 145.256  1.00  0.00     0.053 C 
BRANCH   7   8
ATOM      8  C   UNL     1     137.443 135.185 144.977  1.00  0.00     0.041 C 
ATOM      9  O   UNL     1     136.561 136.082 144.981  1.00  0.00    -0.550 OA
ATOM     10  O   UNL     1     138.760 135.515 144.682  1.00  0.00    -0.550 OA
ENDBRANCH   7   8
ENDBRANCH   6   7
ENDBRANCH   5   6
ENDBRANCH   4   5
ENDBRANCH   3   4
ENDBRANCH   2   3
ENDBRANCH   1   2
BRANCH   1  11
ATOM     11  C   UNL     1     140.525 133.560 150.804  1.00  0.00     0.000 C 
BRANCH  11  12
ATOM     12  C   UNL     1     140.450 134.649 149.714  1.00  0.00    -0.000 C 
BRANCH  12  13
ATOM     13  C   UNL     1     141.683 134.750 148.798  1.00  0.00    -0.000 C 
BRANCH  13  14
ATOM     14  C   UNL     1     141.314 135.017 147.328  1.00  0.00    -0.000 C 
BRANCH  14  15
ATOM     15  C   UNL     1     141.582 133.806 146.416  1.00  0.00    -0.000 C 
BRANCH  15  16
ATOM     16  C   UNL     1     141.974 132.504 147.144  1.00  0.00    -0.000 C 
BRANCH  16  17
ATOM     17  C   UNL     1     140.960 131.355 147.013  1.00  0.00    -0.003 C 
ATOM     18  C   UNL     1     140.482 130.825 148.364  1.00  0.00     0.004 C 
ENDBRANCH  16  17
ENDBRANCH  15  16
ENDBRANCH  14  15
ENDBRANCH  13  14
ENDBRANCH  12  13
ENDBRANCH  11  12
ENDBRANCH   1  11
TORSDOF 14
ENDMDL
MODEL 8
REMARK VINA RESULT:    -3.433      2.609      5.272
REMARK INTER + INTRA:          -8.587
REMARK INTER:                  -6.325
REMARK INTRA:                  -2.262
REMARK UNBOUND:                -2.344
REMARK SMILES CCCCCCCCCCCCCCCC(=O)[O-]
REMARK SMILES IDX 9 1 10 2 11 3 12 4 13 5 14 6 15 7 16 8 17 9 18 10 8 11 7 12
REMARK SMILES IDX 6 13 5 14 4 15 3 16 2 17 1 18
REMARK H PARENT
REMARK Flexibility Score: inf
ROOT
ATOM      1  C   UNL     1     140.969 133.614 149.114  1.00  0.00     0.000 C 
ENDROOT
BRANCH   1   2
ATOM      2  C   UNL     1     139.955 134.187 150.120  1.00  0.00     0.000 C 
BRANCH   2   3
ATOM      3  C   UNL     1     138.879 133.164 150.521  1.00  0.00     0.000 C 
BRANCH   3   4
ATOM      4  C   UNL     1     137.516 133.455 149.867  1.00  0.00     0.000 C 
BRANCH   4   5
ATOM      5  C   UNL     1     136.486 132.343 150.127  1.00  0.00     0.000 C 
BRANCH   5   6
ATOM      6  C   UNL     1     137.142 131.007 150.517  1.00  0.00     0.006 C 
BRANCH   6   7
ATOM      7  C   UNL     1     136.112 129.879 150.665  1.00  0.00     0.053 C 
BRANCH   7   8
ATOM      8  C   UNL     1     135.578 129.433 149.338  1.00  0.00     0.041 C 
ATOM      9  O   UNL     1     136.340 128.879 148.502  1.00  0.00    -0.550 OA
ATOM     10  O   UNL     1     134.246 129.656 149.013  1.00  0.00    -0.550 OA
ENDBRANCH   7   8
ENDBRANCH   6   7
ENDBRANCH   5   6
ENDBRANCH   4   5
ENDBRANCH   3   4
ENDBRANCH   2   3
ENDBRANCH   1   2
BRANCH   1  11
ATOM     11  C   UNL     1     140.869 132.084 148.974  1.00  0.00     0.000 C 
BRANCH  11  12
ATOM     12  C   UNL     1     140.456 131.575 147.578  1.00  0.00    -0.000 C 
BRANCH  12  13
ATOM     13  C   UNL     1     139.148 130.764 147.532  1.00  0.00    -0.000 C 
BRANCH  13  14
ATOM     14  C   UNL     1     138.042 131.459 146.720  1.00  0.00    -0.000 C 
BRANCH  14  15
ATOM     15  C   UNL     1     138.474 132.833 146.174  1.00  0.00    -0.000 C 
BRANCH  15  16
ATOM     16  C   UNL     1     137.438 133.964 146.339  1.00  0.00    -0.000 C 
BRANCH  16  17
ATOM     17  C   UNL     1     137.037 134.674 145.034  1.00  0.00    -0.003 C 
ATOM     18  C   UNL     1     136.646 133.701 143.923  1.00  0.00     0.004 C 
ENDBRANCH  16  17
ENDBRANCH  15  16
ENDBRANCH  14  15
ENDBRANCH  13  14
ENDBRANCH  12  13
ENDBRANCH  11  12
ENDBRANCH   1  11
TORSDOF 14
ENDMDL
MODEL 9
REMARK VINA RESULT:    -3.417      3.607      5.827
REMARK INTER + INTRA:          -8.558
REMARK INTER:                  -6.680
REMARK INTRA:                  -1.879
REMARK UNBOUND:                -2.344
REMARK SMILES CCCCCCCCCCCCCCCC(=O)[O-]
REMARK SMILES IDX 9 1 10 2 11 3 12 4 13 5 14 6 15 7 16 8 17 9 18 10 8 11 7 12
REMARK SMILES IDX 6 13 5 14 4 15 3 16 2 17 1 18
REMARK H PARENT
REMARK Flexibility Score: inf
ROOT
ATOM      1  C   UNL     1     137.523 131.767 150.611  1.00  0.00     0.000 C 
ENDROOT
BRANCH   1   2
ATOM      2  C   UNL     1     137.929 133.251 150.617  1.00  0.00     0.000 C 
BRANCH   2   3
ATOM      3  C   UNL     1     139.379 133.464 151.082  1.00  0.00     0.000 C 
BRANCH   3   4
ATOM      4  C   UNL     1     140.122 134.515 150.237  1.00  0.00     0.000 C 
BRANCH   4   5
ATOM      5  C   UNL     1     141.383 133.949 149.565  1.00  0.00     0.000 C 
BRANCH   5   6
ATOM      6  C   UNL     1     141.498 132.421 149.709  1.00  0.00     0.006 C 
BRANCH   6   7
ATOM      7  C   UNL     1     142.796 132.003 150.412  1.00  0.00     0.053 C 
BRANCH   7   8
ATOM      8  C   UNL     1     142.531 131.127 151.598  1.00  0.00     0.041 C 
ATOM      9  O   UNL     1     141.981 130.005 151.447  1.00  0.00    -0.550 OA
ATOM     10  O   UNL     1     142.865 131.563 152.874  1.00  0.00    -0.550 OA
ENDBRANCH   7   8
ENDBRANCH   6   7
ENDBRANCH   5   6
ENDBRANCH   4   5
ENDBRANCH   3   4
ENDBRANCH   2   3
ENDBRANCH   1   2
BRANCH   1  11
ATOM     11  C   UNL     1     136.527 131.426 149.487  1.00  0.00     0.000 C 
BRANCH  11  12
ATOM     12  C   UNL     1     137.034 130.408 148.445  1.00  0.00    -0.000 C 
BRANCH  12  13
ATOM     13  C   UNL     1     137.527 131.014 147.118  1.00  0.00    -0.000 C 
BRANCH  13  14
ATOM     14  C   UNL     1     138.900 131.696 147.247  1.00  0.00    -0.000 C 
BRANCH  14  15
ATOM     15  C   UNL     1     138.872 133.179 146.834  1.00  0.00    -0.000 C 
BRANCH  15  16
ATOM     16  C   UNL     1     137.467 133.778 146.618  1.00  0.00    -0.000 C 
BRANCH  16  17
ATOM     17  C   UNL     1     137.147 134.179 145.168  1.00  0.00    -0.003 C 
ATOM     18  C   UNL     1     136.763 135.651 145.029  1.00  0.00     0.004 C 
ENDBRANCH  16  17
ENDBRANCH  15  16
ENDBRANCH  14  15
ENDBRANCH  13  14
ENDBRANCH  12  13
ENDBRANCH  11  12
ENDBRANCH   1  11
TORSDOF 14
ENDMDL
