MODEL 1
REMARK VINA RESULT:    -7.096      0.000      0.000
REMARK INTER + INTRA:          -8.865
REMARK INTER:                  -8.547
REMARK INTRA:                  -0.318
REMARK UNBOUND:                -0.318
REMARK SMILES O=c1c(O)c(-c2ccc(O)c(O)c2)oc2cc(O)cc(O)c12
REMARK SMILES IDX 5 1 3 2 2 3 1 4 22 5 20 6 19 7 17 8 16 9 15 10 14 11 6 12
REMARK SMILES IDX 7 13 8 14 9 15 13 16 11 17 10 18 12 20 4 22 21 24 18 26
REMARK H PARENT 10 19 12 21 4 23 21 25 18 27
REMARK Flexibility Score: inf
ROOT
ATOM      1  C   UNL     1     -14.887   7.398  19.469  1.00  0.00     0.180 A 
ATOM      2  C   UNL     1     -13.963   7.158  20.501  1.00  0.00     0.208 A 
ATOM      3  C   UNL     1     -12.687   7.739  20.421  1.00  0.00     0.238 A 
ATOM      4  O   UNL     1     -11.883   7.566  21.375  1.00  0.00    -0.285 OA
ATOM      5  C   UNL     1     -12.345   8.539  19.303  1.00  0.00     0.111 A 
ATOM      6  C   UNL     1     -11.069   9.144  19.100  1.00  0.00     0.134 A 
ATOM      7  C   UNL     1     -10.884  10.020  18.024  1.00  0.00     0.093 A 
ATOM      8  C   UNL     1     -11.910  10.262  17.109  1.00  0.00     0.123 A 
ATOM      9  C   UNL     1     -13.141   9.631  17.266  1.00  0.00     0.094 A 
ATOM     10  C   UNL     1     -13.368   8.779  18.349  1.00  0.00     0.146 A 
ATOM     11  O   UNL     1     -14.559   8.206  18.467  1.00  0.00    -0.452 OA
ENDROOT
BRANCH   1  12
ATOM     12  C   UNL     1     -16.242   6.800  19.470  1.00  0.00     0.025 A 
ATOM     13  C   UNL     1     -17.341   7.582  19.859  1.00  0.00     0.016 A 
ATOM     14  C   UNL     1     -18.631   7.045  19.848  1.00  0.00     0.051 A 
ATOM     15  C   UNL     1     -18.844   5.726  19.435  1.00  0.00     0.157 A 
ATOM     16  C   UNL     1     -16.461   5.481  19.035  1.00  0.00     0.062 A 
ATOM     17  C   UNL     1     -17.755   4.940  19.021  1.00  0.00     0.158 A 
BRANCH  15  18
ATOM     18  O   UNL     1     -20.142   5.216  19.436  1.00  0.00    -0.504 OA
ATOM     19  H   UNL     1     -20.331   4.225  19.357  1.00  0.00     0.293 HD
ENDBRANCH  15  18
BRANCH  17  20
ATOM     20  O   UNL     1     -17.962   3.630  18.594  1.00  0.00    -0.504 OA
ATOM     21  H   UNL     1     -18.823   3.350  18.138  1.00  0.00     0.293 HD
ENDBRANCH  17  20
ENDBRANCH   1  12
BRANCH   2  22
ATOM     22  O   UNL     1     -14.328   6.385  21.607  1.00  0.00    -0.502 OA
ATOM     23  H   UNL     1     -15.292   6.160  21.820  1.00  0.00     0.293 HD
ENDBRANCH   2  22
BRANCH   6  24
ATOM     24  O   UNL     1      -9.951   8.896  19.903  1.00  0.00    -0.507 OA
ATOM     25  H   UNL     1      -9.849   8.101  20.515  1.00  0.00     0.293 HD
ENDBRANCH   6  24
BRANCH   8  26
ATOM     26  O   UNL     1     -11.713  11.125  16.031  1.00  0.00    -0.508 OA
ATOM     27  H   UNL     1     -11.311  12.046  16.157  1.00  0.00     0.293 HD
ENDBRANCH   8  26
TORSDOF 6
ENDMDL
MODEL 2
REMARK VINA RESULT:    -7.055      1.683      2.402
REMARK INTER + INTRA:          -8.816
REMARK INTER:                  -8.495
REMARK INTRA:                  -0.322
REMARK UNBOUND:                -0.318
REMARK SMILES O=c1c(O)c(-c2ccc(O)c(O)c2)oc2cc(O)cc(O)c12
REMARK SMILES IDX 5 1 3 2 2 3 1 4 22 5 20 6 19 7 17 8 16 9 15 10 14 11 6 12
REMARK SMILES IDX 7 13 8 14 9 15 13 16 11 17 10 18 12 20 4 22 21 24 18 26
REMARK H PARENT 10 19 12 21 4 23 21 25 18 27
REMARK Flexibility Score: inf
ROOT
ATOM      1  C   UNL     1     -14.171   8.568  18.803  1.00  0.00     0.180 A 
ATOM      2  C   UNL     1     -13.388   9.181  19.796  1.00  0.00     0.208 A 
ATOM      3  C   UNL     1     -12.180   9.798  19.428  1.00  0.00     0.238 A 
ATOM      4  O   UNL     1     -11.511  10.393  20.313  1.00  0.00    -0.285 OA
ATOM      5  C   UNL     1     -11.764   9.779  18.075  1.00  0.00     0.111 A 
ATOM      6  C   UNL     1     -10.541  10.337  17.596  1.00  0.00     0.134 A 
ATOM      7  C   UNL     1     -10.292  10.377  16.219  1.00  0.00     0.093 A 
ATOM      8  C   UNL     1     -11.194   9.819  15.309  1.00  0.00     0.123 A 
ATOM      9  C   UNL     1     -12.362   9.220  15.771  1.00  0.00     0.094 A 
ATOM     10  C   UNL     1     -12.655   9.197  17.136  1.00  0.00     0.146 A 
ATOM     11  O   UNL     1     -13.785   8.625  17.534  1.00  0.00    -0.452 OA
ENDROOT
BRANCH   1  12
ATOM     12  C   UNL     1     -15.442   7.877  19.118  1.00  0.00     0.025 A 
ATOM     13  C   UNL     1     -15.424   6.508  19.429  1.00  0.00     0.016 A 
ATOM     14  C   UNL     1     -16.608   5.839  19.750  1.00  0.00     0.051 A 
ATOM     15  C   UNL     1     -17.824   6.529  19.778  1.00  0.00     0.157 A 
ATOM     16  C   UNL     1     -16.662   8.574  19.168  1.00  0.00     0.062 A 
ATOM     17  C   UNL     1     -17.852   7.905  19.490  1.00  0.00     0.158 A 
BRANCH  15  18
ATOM     18  O   UNL     1     -18.990   5.836  20.099  1.00  0.00    -0.504 OA
ATOM     19  H   UNL     1     -19.911   6.223  19.932  1.00  0.00     0.293 HD
ENDBRANCH  15  18
BRANCH  17  20
ATOM     20  O   UNL     1     -19.058   8.601  19.531  1.00  0.00    -0.504 OA
ATOM     21  H   UNL     1     -19.709   8.492  20.301  1.00  0.00     0.293 HD
ENDBRANCH  17  20
ENDBRANCH   1  12
BRANCH   2  22
ATOM     22  O   UNL     1     -13.828   9.209  21.123  1.00  0.00    -0.502 OA
ATOM     23  H   UNL     1     -14.605   9.782  21.427  1.00  0.00     0.293 HD
ENDBRANCH   2  22
BRANCH   6  24
ATOM     24  O   UNL     1      -9.533  10.836  18.427  1.00  0.00    -0.507 OA
ATOM     25  H   UNL     1      -9.241  11.801  18.460  1.00  0.00     0.293 HD
ENDBRANCH   6  24
BRANCH   8  26
ATOM     26  O   UNL     1     -10.931   9.849  13.940  1.00  0.00    -0.508 OA
ATOM     27  H   UNL     1     -10.005  10.050  13.582  1.00  0.00     0.293 HD
ENDBRANCH   8  26
TORSDOF 6
ENDMDL
MODEL 3
REMARK VINA RESULT:    -6.987      2.788      4.480
REMARK INTER + INTRA:          -8.734
REMARK INTER:                  -8.557
REMARK INTRA:                  -0.177
REMARK UNBOUND:                -0.318
REMARK SMILES O=c1c(O)c(-c2ccc(O)c(O)c2)oc2cc(O)cc(O)c12
REMARK SMILES IDX 5 1 3 2 2 3 1 4 22 5 20 6 19 7 17 8 16 9 15 10 14 11 6 12
REMARK SMILES IDX 7 13 8 14 9 15 13 16 11 17 10 18 12 20 4 22 21 24 18 26
REMARK H PARENT 10 19 12 21 4 23 21 25 18 27
REMARK Flexibility Score: inf
ROOT
ATOM      1  C   UNL     1     -12.163   9.328  17.098  1.00  0.00     0.180 A 
ATOM      2  C   UNL     1     -10.925   9.300  17.763  1.00  0.00     0.208 A 
ATOM      3  C   UNL     1      -9.749   9.500  17.020  1.00  0.00     0.238 A 
ATOM      4  O   UNL     1      -8.647   9.529  17.629  1.00  0.00    -0.285 OA
ATOM      5  C   UNL     1      -9.825   9.708  15.622  1.00  0.00     0.111 A 
ATOM      6  C   UNL     1      -8.697   9.881  14.766  1.00  0.00     0.134 A 
ATOM      7  C   UNL     1      -8.895  10.209  13.420  1.00  0.00     0.093 A 
ATOM      8  C   UNL     1     -10.182  10.307  12.885  1.00  0.00     0.123 A 
ATOM      9  C   UNL     1     -11.288  10.082  13.699  1.00  0.00     0.094 A 
ATOM     10  C   UNL     1     -11.123   9.788  15.054  1.00  0.00     0.146 A 
ATOM     11  O   UNL     1     -12.205   9.591  15.797  1.00  0.00    -0.452 OA
ENDROOT
BRANCH   1  12
ATOM     12  C   UNL     1     -13.442   9.101  17.808  1.00  0.00     0.025 A 
ATOM     13  C   UNL     1     -13.900  10.056  18.729  1.00  0.00     0.016 A 
ATOM     14  C   UNL     1     -15.114   9.873  19.395  1.00  0.00     0.051 A 
ATOM     15  C   UNL     1     -15.896   8.742  19.141  1.00  0.00     0.157 A 
ATOM     16  C   UNL     1     -14.240   7.975  17.538  1.00  0.00     0.062 A 
ATOM     17  C   UNL     1     -15.461   7.789  18.204  1.00  0.00     0.158 A 
BRANCH  15  18
ATOM     18  O   UNL     1     -17.103   8.585  19.822  1.00  0.00    -0.504 OA
ATOM     19  H   UNL     1     -17.897   9.191  19.658  1.00  0.00     0.293 HD
ENDBRANCH  15  18
BRANCH  17  20
ATOM     20  O   UNL     1     -16.242   6.667  17.935  1.00  0.00    -0.504 OA
ATOM     21  H   UNL     1     -16.060   5.774  18.379  1.00  0.00     0.293 HD
ENDBRANCH  17  20
ENDBRANCH   1  12
BRANCH   2  22
ATOM     22  O   UNL     1     -10.873   9.116  19.147  1.00  0.00    -0.502 OA
ATOM     23  H   UNL     1     -10.136   9.507  19.722  1.00  0.00     0.293 HD
ENDBRANCH   2  22
BRANCH   6  24
ATOM     24  O   UNL     1      -7.371   9.714  15.179  1.00  0.00    -0.507 OA
ATOM     25  H   UNL     1      -6.749   8.996  14.839  1.00  0.00     0.293 HD
ENDBRANCH   6  24
BRANCH   8  26
ATOM     26  O   UNL     1     -10.370  10.620  11.539  1.00  0.00    -0.508 OA
ATOM     27  H   UNL     1      -9.690  11.162  11.021  1.00  0.00     0.293 HD
ENDBRANCH   8  26
TORSDOF 6
ENDMDL
MODEL 4
REMARK VINA RESULT:    -6.847      1.508      6.805
REMARK INTER + INTRA:          -8.565
REMARK INTER:                  -8.418
REMARK INTRA:                  -0.148
REMARK UNBOUND:                -0.318
REMARK SMILES O=c1c(O)c(-c2ccc(O)c(O)c2)oc2cc(O)cc(O)c12
REMARK SMILES IDX 5 1 3 2 2 3 1 4 22 5 20 6 19 7 17 8 16 9 15 10 14 11 6 12
REMARK SMILES IDX 7 13 8 14 9 15 13 16 11 17 10 18 12 20 4 22 21 24 18 26
REMARK H PARENT 10 19 12 21 4 23 21 25 18 27
REMARK Flexibility Score: inf
ROOT
ATOM      1  C   UNL     1     -14.303   8.089  19.389  1.00  0.00     0.180 A 
ATOM      2  C   UNL     1     -14.746   8.341  20.699  1.00  0.00     0.208 A 
ATOM      3  C   UNL     1     -15.858   7.637  21.190  1.00  0.00     0.238 A 
ATOM      4  O   UNL     1     -16.216   7.826  22.382  1.00  0.00    -0.285 OA
ATOM      5  C   UNL     1     -16.523   6.702  20.359  1.00  0.00     0.111 A 
ATOM      6  C   UNL     1     -17.682   5.962  20.738  1.00  0.00     0.134 A 
ATOM      7  C   UNL     1     -18.179   4.970  19.884  1.00  0.00     0.093 A 
ATOM      8  C   UNL     1     -17.595   4.737  18.636  1.00  0.00     0.123 A 
ATOM      9  C   UNL     1     -16.499   5.495  18.233  1.00  0.00     0.094 A 
ATOM     10  C   UNL     1     -15.959   6.467  19.078  1.00  0.00     0.146 A 
ATOM     11  O   UNL     1     -14.907   7.160  18.659  1.00  0.00    -0.452 OA
ENDROOT
BRANCH   1  12
ATOM     12  C   UNL     1     -13.155   8.810  18.794  1.00  0.00     0.025 A 
ATOM     13  C   UNL     1     -11.870   8.618  19.325  1.00  0.00     0.016 A 
ATOM     14  C   UNL     1     -10.768   9.272  18.766  1.00  0.00     0.051 A 
ATOM     15  C   UNL     1     -10.931  10.114  17.662  1.00  0.00     0.157 A 
ATOM     16  C   UNL     1     -13.314   9.641  17.671  1.00  0.00     0.062 A 
ATOM     17  C   UNL     1     -12.210  10.297  17.108  1.00  0.00     0.158 A 
BRANCH  15  18
ATOM     18  O   UNL     1      -9.815  10.755  17.127  1.00  0.00    -0.504 OA
ATOM     19  H   UNL     1      -9.816  11.742  16.902  1.00  0.00     0.293 HD
ENDBRANCH  15  18
BRANCH  17  20
ATOM     20  O   UNL     1     -12.377  11.124  15.998  1.00  0.00    -0.504 OA
ATOM     21  H   UNL     1     -11.589  11.576  15.549  1.00  0.00     0.293 HD
ENDBRANCH  17  20
ENDBRANCH   1  12
BRANCH   2  22
ATOM     22  O   UNL     1     -14.063   9.251  21.511  1.00  0.00    -0.502 OA
ATOM     23  H   UNL     1     -14.490  10.101  21.857  1.00  0.00     0.293 HD
ENDBRANCH   2  22
BRANCH   6  24
ATOM     24  O   UNL     1     -18.396   6.181  21.921  1.00  0.00    -0.507 OA
ATOM     25  H   UNL     1     -19.383   6.012  22.036  1.00  0.00     0.293 HD
ENDBRANCH   6  24
BRANCH   8  26
ATOM     26  O   UNL     1     -18.105   3.758  17.784  1.00  0.00    -0.508 OA
ATOM     27  H   UNL     1     -17.684   2.839  17.723  1.00  0.00     0.293 HD
ENDBRANCH   8  26
TORSDOF 6
ENDMDL
MODEL 5
REMARK VINA RESULT:    -6.817     13.403     14.196
REMARK INTER + INTRA:          -8.530
REMARK INTER:                  -8.260
REMARK INTRA:                  -0.269
REMARK UNBOUND:                -0.318
REMARK SMILES O=c1c(O)c(-c2ccc(O)c(O)c2)oc2cc(O)cc(O)c12
REMARK SMILES IDX 5 1 3 2 2 3 1 4 22 5 20 6 19 7 17 8 16 9 15 10 14 11 6 12
REMARK SMILES IDX 7 13 8 14 9 15 13 16 11 17 10 18 12 20 4 22 21 24 18 26
REMARK H PARENT 10 19 12 21 4 23 21 25 18 27
REMARK Flexibility Score: inf
ROOT
ATOM      1  C   UNL     1     -13.563  -6.206  20.506  1.00  0.00     0.180 A 
ATOM      2  C   UNL     1     -12.569  -6.167  21.500  1.00  0.00     0.208 A 
ATOM      3  C   UNL     1     -11.220  -6.249  21.118  1.00  0.00     0.238 A 
ATOM      4  O   UNL     1     -10.334  -6.158  22.007  1.00  0.00    -0.285 OA
ATOM      5  C   UNL     1     -10.882  -6.384  19.749  1.00  0.00     0.111 A 
ATOM      6  C   UNL     1      -9.551  -6.515  19.253  1.00  0.00     0.134 A 
ATOM      7  C   UNL     1      -9.326  -6.512  17.871  1.00  0.00     0.093 A 
ATOM      8  C   UNL     1     -10.390  -6.447  16.969  1.00  0.00     0.123 A 
ATOM      9  C   UNL     1     -11.697  -6.379  17.444  1.00  0.00     0.094 A 
ATOM     10  C   UNL     1     -11.951  -6.344  18.816  1.00  0.00     0.146 A 
ATOM     11  O   UNL     1     -13.211  -6.268  19.227  1.00  0.00    -0.452 OA
ENDROOT
BRANCH   1  12
ATOM     12  C   UNL     1     -15.006  -6.152  20.833  1.00  0.00     0.025 A 
ATOM     13  C   UNL     1     -15.742  -4.999  20.517  1.00  0.00     0.016 A 
ATOM     14  C   UNL     1     -17.109  -4.933  20.797  1.00  0.00     0.051 A 
ATOM     15  C   UNL     1     -17.764  -6.021  21.382  1.00  0.00     0.157 A 
ATOM     16  C   UNL     1     -15.671  -7.253  21.402  1.00  0.00     0.062 A 
ATOM     17  C   UNL     1     -17.043  -7.189  21.683  1.00  0.00     0.158 A 
BRANCH  15  18
ATOM     18  O   UNL     1     -19.129  -5.926  21.652  1.00  0.00    -0.504 OA
ATOM     19  H   UNL     1     -19.506  -5.231  22.285  1.00  0.00     0.293 HD
ENDBRANCH  15  18
BRANCH  17  20
ATOM     20  O   UNL     1     -17.693  -8.283  22.252  1.00  0.00    -0.504 OA
ATOM     21  H   UNL     1     -18.685  -8.262  22.459  1.00  0.00     0.293 HD
ENDBRANCH  17  20
ENDBRANCH   1  12
BRANCH   2  22
ATOM     22  O   UNL     1     -12.923  -6.010  22.843  1.00  0.00    -0.502 OA
ATOM     23  H   UNL     1     -12.808  -6.748  23.527  1.00  0.00     0.293 HD
ENDBRANCH   2  22
BRANCH   6  24
ATOM     24  O   UNL     1      -8.426  -6.679  20.068  1.00  0.00    -0.507 OA
ATOM     25  H   UNL     1      -7.477  -6.503  19.779  1.00  0.00     0.293 HD
ENDBRANCH   6  24
BRANCH   8  26
ATOM     26  O   UNL     1     -10.158  -6.460  15.594  1.00  0.00    -0.508 OA
ATOM     27  H   UNL     1      -9.272  -6.163  15.204  1.00  0.00     0.293 HD
ENDBRANCH   8  26
TORSDOF 6
ENDMDL
MODEL 6
REMARK VINA RESULT:    -6.805      1.889      3.224
REMARK INTER + INTRA:          -8.515
REMARK INTER:                  -8.247
REMARK INTRA:                  -0.268
REMARK UNBOUND:                -0.318
REMARK SMILES O=c1c(O)c(-c2ccc(O)c(O)c2)oc2cc(O)cc(O)c12
REMARK SMILES IDX 5 1 3 2 2 3 1 4 22 5 20 6 19 7 17 8 16 9 15 10 14 11 6 12
REMARK SMILES IDX 7 13 8 14 9 15 13 16 11 17 10 18 12 20 4 22 21 24 18 26
REMARK H PARENT 10 19 12 21 4 23 21 25 18 27
REMARK Flexibility Score: inf
ROOT
ATOM      1  C   UNL     1     -14.917   8.233  19.415  1.00  0.00     0.180 A 
ATOM      2  C   UNL     1     -14.191   8.292  18.213  1.00  0.00     0.208 A 
ATOM      3  C   UNL     1     -12.965   8.979  18.191  1.00  0.00     0.238 A 
ATOM      4  O   UNL     1     -12.293   8.982  17.126  1.00  0.00    -0.285 OA
ATOM      5  C   UNL     1     -12.491   9.613  19.365  1.00  0.00     0.111 A 
ATOM      6  C   UNL     1     -11.284  10.369  19.446  1.00  0.00     0.134 A 
ATOM      7  C   UNL     1     -10.847  10.841  20.689  1.00  0.00     0.093 A 
ATOM      8  C   UNL     1     -11.607  10.638  21.844  1.00  0.00     0.123 A 
ATOM      9  C   UNL     1     -12.816   9.952  21.765  1.00  0.00     0.094 A 
ATOM     10  C   UNL     1     -13.261   9.438  20.545  1.00  0.00     0.146 A 
ATOM     11  O   UNL     1     -14.413   8.781  20.515  1.00  0.00    -0.452 OA
ENDROOT
BRANCH   1  12
ATOM     12  C   UNL     1     -16.227   7.550  19.510  1.00  0.00     0.025 A 
ATOM     13  C   UNL     1     -16.271   6.149  19.593  1.00  0.00     0.016 A 
ATOM     14  C   UNL     1     -17.494   5.484  19.705  1.00  0.00     0.051 A 
ATOM     15  C   UNL     1     -18.690   6.207  19.750  1.00  0.00     0.157 A 
ATOM     16  C   UNL     1     -17.429   8.277  19.578  1.00  0.00     0.062 A 
ATOM     17  C   UNL     1     -18.659   7.611  19.691  1.00  0.00     0.158 A 
BRANCH  15  18
ATOM     18  O   UNL     1     -19.896   5.517  19.860  1.00  0.00    -0.504 OA
ATOM     19  H   UNL     1     -20.682   5.884  20.383  1.00  0.00     0.293 HD
ENDBRANCH  15  18
BRANCH  17  20
ATOM     20  O   UNL     1     -19.846   8.339  19.751  1.00  0.00    -0.504 OA
ATOM     21  H   UNL     1     -19.896   9.300  19.434  1.00  0.00     0.293 HD
ENDBRANCH  17  20
ENDBRANCH   1  12
BRANCH   2  22
ATOM     22  O   UNL     1     -14.666   7.641  17.071  1.00  0.00    -0.502 OA
ATOM     23  H   UNL     1     -14.073   7.431  16.277  1.00  0.00     0.293 HD
ENDBRANCH   2  22
BRANCH   6  24
ATOM     24  O   UNL     1     -10.499  10.707  18.339  1.00  0.00    -0.507 OA
ATOM     25  H   UNL     1      -9.491  10.739  18.339  1.00  0.00     0.293 HD
ENDBRANCH   6  24
BRANCH   8  26
ATOM     26  O   UNL     1     -11.172  11.125  23.076  1.00  0.00    -0.508 OA
ATOM     27  H   UNL     1     -11.715  11.801  23.599  1.00  0.00     0.293 HD
ENDBRANCH   8  26
TORSDOF 6
ENDMDL
MODEL 7
REMARK VINA RESULT:    -6.707     10.145     12.466
REMARK INTER + INTRA:          -8.397
REMARK INTER:                  -8.269
REMARK INTRA:                  -0.128
REMARK UNBOUND:                -0.318
REMARK SMILES O=c1c(O)c(-c2ccc(O)c(O)c2)oc2cc(O)cc(O)c12
REMARK SMILES IDX 5 1 3 2 2 3 1 4 22 5 20 6 19 7 17 8 16 9 15 10 14 11 6 12
REMARK SMILES IDX 7 13 8 14 9 15 13 16 11 17 10 18 12 20 4 22 21 24 18 26
REMARK H PARENT 10 19 12 21 4 23 21 25 18 27
REMARK Flexibility Score: inf
ROOT
ATOM      1  C   UNL     1      -4.844   1.503  18.258  1.00  0.00     0.180 A 
ATOM      2  C   UNL     1      -6.195   1.590  18.636  1.00  0.00     0.208 A 
ATOM      3  C   UNL     1      -6.601   2.639  19.477  1.00  0.00     0.238 A 
ATOM      4  O   UNL     1      -7.822   2.743  19.767  1.00  0.00    -0.285 OA
ATOM      5  C   UNL     1      -5.649   3.577  19.944  1.00  0.00     0.111 A 
ATOM      6  C   UNL     1      -5.942   4.655  20.832  1.00  0.00     0.134 A 
ATOM      7  C   UNL     1      -4.949   5.598  21.124  1.00  0.00     0.093 A 
ATOM      8  C   UNL     1      -3.656   5.465  20.611  1.00  0.00     0.123 A 
ATOM      9  C   UNL     1      -3.346   4.383  19.791  1.00  0.00     0.094 A 
ATOM     10  C   UNL     1      -4.324   3.446  19.453  1.00  0.00     0.146 A 
ATOM     11  O   UNL     1      -3.988   2.436  18.659  1.00  0.00    -0.452 OA
ENDROOT
BRANCH   1  12
ATOM     12  C   UNL     1      -4.336   0.413  17.395  1.00  0.00     0.025 A 
ATOM     13  C   UNL     1      -4.799   0.305  16.074  1.00  0.00     0.016 A 
ATOM     14  C   UNL     1      -4.319  -0.703  15.235  1.00  0.00     0.051 A 
ATOM     15  C   UNL     1      -3.359  -1.609  15.697  1.00  0.00     0.157 A 
ATOM     16  C   UNL     1      -3.355  -0.486  17.851  1.00  0.00     0.062 A 
ATOM     17  C   UNL     1      -2.870  -1.498  17.010  1.00  0.00     0.158 A 
BRANCH  15  18
ATOM     18  O   UNL     1      -2.899  -2.606  14.838  1.00  0.00    -0.504 OA
ATOM     19  H   UNL     1      -3.423  -2.899  14.022  1.00  0.00     0.293 HD
ENDBRANCH  15  18
BRANCH  17  20
ATOM     20  O   UNL     1      -1.902  -2.389  17.472  1.00  0.00    -0.504 OA
ATOM     21  H   UNL     1      -2.125  -3.356  17.677  1.00  0.00     0.293 HD
ENDBRANCH  17  20
ENDBRANCH   1  12
BRANCH   2  22
ATOM     22  O   UNL     1      -7.124   0.667  18.145  1.00  0.00    -0.502 OA
ATOM     23  H   UNL     1      -7.456  -0.116  18.695  1.00  0.00     0.293 HD
ENDBRANCH   2  22
BRANCH   6  24
ATOM     24  O   UNL     1      -7.173   4.827  21.471  1.00  0.00    -0.507 OA
ATOM     25  H   UNL     1      -7.544   5.715  21.775  1.00  0.00     0.293 HD
ENDBRANCH   6  24
BRANCH   8  26
ATOM     26  O   UNL     1      -2.669   6.400  20.919  1.00  0.00    -0.508 OA
ATOM     27  H   UNL     1      -2.571   6.777  21.854  1.00  0.00     0.293 HD
ENDBRANCH   8  26
TORSDOF 6
ENDMDL
MODEL 8
REMARK VINA RESULT:    -6.682     10.300     12.129
REMARK INTER + INTRA:          -8.367
REMARK INTER:                  -8.075
REMARK INTRA:                  -0.292
REMARK UNBOUND:                -0.318
REMARK SMILES O=c1c(O)c(-c2ccc(O)c(O)c2)oc2cc(O)cc(O)c12
REMARK SMILES IDX 5 1 3 2 2 3 1 4 22 5 20 6 19 7 17 8 16 9 15 10 14 11 6 12
REMARK SMILES IDX 7 13 8 14 9 15 13 16 11 17 10 18 12 20 4 22 21 24 18 26
REMARK H PARENT 10 19 12 21 4 23 21 25 18 27
REMARK Flexibility Score: inf
ROOT
ATOM      1  C   UNL     1      -4.936   1.658  18.406  1.00  0.00     0.180 A 
ATOM      2  C   UNL     1      -4.146   0.628  18.945  1.00  0.00     0.208 A 
ATOM      3  C   UNL     1      -3.336  -0.132  18.085  1.00  0.00     0.238 A 
ATOM      4  O   UNL     1      -2.590  -1.016  18.581  1.00  0.00    -0.285 OA
ATOM      5  C   UNL     1      -3.340   0.137  16.695  1.00  0.00     0.111 A 
ATOM      6  C   UNL     1      -2.589  -0.595  15.727  1.00  0.00     0.134 A 
ATOM      7  C   UNL     1      -2.567  -0.160  14.396  1.00  0.00     0.093 A 
ATOM      8  C   UNL     1      -3.320   0.944  13.988  1.00  0.00     0.123 A 
ATOM      9  C   UNL     1      -4.101   1.629  14.914  1.00  0.00     0.094 A 
ATOM     10  C   UNL     1      -4.116   1.241  16.255  1.00  0.00     0.146 A 
ATOM     11  O   UNL     1      -4.866   1.928  17.107  1.00  0.00    -0.452 OA
ENDROOT
BRANCH   1  12
ATOM     12  C   UNL     1      -5.833   2.484  19.245  1.00  0.00     0.025 A 
ATOM     13  C   UNL     1      -5.300   3.557  19.976  1.00  0.00     0.016 A 
ATOM     14  C   UNL     1      -6.131   4.363  20.759  1.00  0.00     0.051 A 
ATOM     15  C   UNL     1      -7.507   4.119  20.811  1.00  0.00     0.157 A 
ATOM     16  C   UNL     1      -7.220   2.254  19.282  1.00  0.00     0.062 A 
ATOM     17  C   UNL     1      -8.056   3.062  20.065  1.00  0.00     0.158 A 
BRANCH  15  18
ATOM     18  O   UNL     1      -8.311   4.939  21.602  1.00  0.00    -0.504 OA
ATOM     19  H   UNL     1      -9.078   4.571  22.152  1.00  0.00     0.293 HD
ENDBRANCH  15  18
BRANCH  17  20
ATOM     20  O   UNL     1      -9.429   2.823  20.101  1.00  0.00    -0.504 OA
ATOM     21  H   UNL     1      -9.954   2.616  19.259  1.00  0.00     0.293 HD
ENDBRANCH  17  20
ENDBRANCH   1  12
BRANCH   2  22
ATOM     22  O   UNL     1      -4.140   0.394  20.323  1.00  0.00    -0.502 OA
ATOM     23  H   UNL     1      -3.816  -0.477  20.727  1.00  0.00     0.293 HD
ENDBRANCH   2  22
BRANCH   6  24
ATOM     24  O   UNL     1      -1.877  -1.765  16.012  1.00  0.00    -0.507 OA
ATOM     25  H   UNL     1      -1.119  -1.828  16.673  1.00  0.00     0.293 HD
ENDBRANCH   6  24
BRANCH   8  26
ATOM     26  O   UNL     1      -3.304   1.362  12.658  1.00  0.00    -0.508 OA
ATOM     27  H   UNL     1      -3.296   0.697  11.894  1.00  0.00     0.293 HD
ENDBRANCH   8  26
TORSDOF 6
ENDMDL
MODEL 9
REMARK VINA RESULT:    -6.662      3.821      7.989
REMARK INTER + INTRA:          -8.343
REMARK INTER:                  -8.401
REMARK INTRA:                   0.058
REMARK UNBOUND:                -0.318
REMARK SMILES O=c1c(O)c(-c2ccc(O)c(O)c2)oc2cc(O)cc(O)c12
REMARK SMILES IDX 5 1 3 2 2 3 1 4 22 5 20 6 19 7 17 8 16 9 15 10 14 11 6 12
REMARK SMILES IDX 7 13 8 14 9 15 13 16 11 17 10 18 12 20 4 22 21 24 18 26
REMARK H PARENT 10 19 12 21 4 23 21 25 18 27
REMARK Flexibility Score: inf
ROOT
ATOM      1  C   UNL     1     -10.827   9.732  16.426  1.00  0.00     0.180 A 
ATOM      2  C   UNL     1     -12.117  10.203  16.726  1.00  0.00     0.208 A 
ATOM      3  C   UNL     1     -12.736   9.783  17.915  1.00  0.00     0.238 A 
ATOM      4  O   UNL     1     -13.868  10.251  18.205  1.00  0.00    -0.285 OA
ATOM      5  C   UNL     1     -12.066   8.884  18.779  1.00  0.00     0.111 A 
ATOM      6  C   UNL     1     -12.614   8.361  19.988  1.00  0.00     0.134 A 
ATOM      7  C   UNL     1     -11.812   7.582  20.831  1.00  0.00     0.093 A 
ATOM      8  C   UNL     1     -10.501   7.254  20.475  1.00  0.00     0.123 A 
ATOM      9  C   UNL     1      -9.977   7.711  19.269  1.00  0.00     0.094 A 
ATOM     10  C   UNL     1     -10.740   8.519  18.424  1.00  0.00     0.146 A 
ATOM     11  O   UNL     1     -10.198   8.942  17.289  1.00  0.00    -0.452 OA
ENDROOT
BRANCH   1  12
ATOM     12  C   UNL     1     -10.121  10.110  15.181  1.00  0.00     0.025 A 
ATOM     13  C   UNL     1      -8.750  10.409  15.229  1.00  0.00     0.016 A 
ATOM     14  C   UNL     1      -8.058  10.749  14.063  1.00  0.00     0.051 A 
ATOM     15  C   UNL     1      -8.720  10.779  12.832  1.00  0.00     0.157 A 
ATOM     16  C   UNL     1     -10.780  10.121  13.939  1.00  0.00     0.062 A 
ATOM     17  C   UNL     1     -10.087  10.459  12.767  1.00  0.00     0.158 A 
BRANCH  15  18
ATOM     18  O   UNL     1      -8.005  11.123  11.686  1.00  0.00    -0.504 OA
ATOM     19  H   UNL     1      -7.034  10.865  11.559  1.00  0.00     0.293 HD
ENDBRANCH  15  18
BRANCH  17  20
ATOM     20  O   UNL     1     -10.749  10.473  11.541  1.00  0.00    -0.504 OA
ATOM     21  H   UNL     1     -10.266  10.696  10.679  1.00  0.00     0.293 HD
ENDBRANCH  17  20
ENDBRANCH   1  12
BRANCH   2  22
ATOM     22  O   UNL     1     -12.753  11.108  15.871  1.00  0.00    -0.502 OA
ATOM     23  H   UNL     1     -12.323  11.978  15.581  1.00  0.00     0.293 HD
ENDBRANCH   2  22
BRANCH   6  24
ATOM     24  O   UNL     1     -13.940   8.552  20.391  1.00  0.00    -0.507 OA
ATOM     25  H   UNL     1     -14.712   8.717  19.763  1.00  0.00     0.293 HD
ENDBRANCH   6  24
BRANCH   8  26
ATOM     26  O   UNL     1      -9.714   6.465  21.312  1.00  0.00    -0.508 OA
ATOM     27  H   UNL     1      -9.876   6.427  22.311  1.00  0.00     0.293 HD
ENDBRANCH   8  26
TORSDOF 6
ENDMDL
