MODEL 1
REMARK VINA RESULT:    -3.670      0.000      0.000
REMARK INTER + INTRA:          -9.314
REMARK INTER:                  -6.674
REMARK INTRA:                  -2.641
REMARK UNBOUND:                -2.641
REMARK SMILES CCCCCCCCCCCCCCCC(=O)[O-]
REMARK SMILES IDX 9 1 10 2 11 3 12 4 13 5 14 6 15 7 16 8 17 9 18 10 8 11 7 12
REMARK SMILES IDX 6 13 5 14 4 15 3 16 2 17 1 18
REMARK H PARENT
REMARK Flexibility Score: inf
ROOT
ATOM      1  C   UNL     1      -1.319  27.812  56.609  1.00  0.00     0.000 C 
ENDROOT
BRANCH   1   2
ATOM      2  C   UNL     1      -2.726  28.432  56.661  1.00  0.00     0.000 C 
BRANCH   2   3
ATOM      3  C   UNL     1      -3.645  27.876  57.768  1.00  0.00     0.000 C 
BRANCH   3   4
ATOM      4  C   UNL     1      -2.993  26.831  58.692  1.00  0.00     0.000 C 
BRANCH   4   5
ATOM      5  C   UNL     1      -3.998  25.806  59.237  1.00  0.00     0.000 C 
BRANCH   5   6
ATOM      6  C   UNL     1      -5.366  25.964  58.556  1.00  0.00     0.006 C 
BRANCH   6   7
ATOM      7  C   UNL     1      -6.013  24.611  58.232  1.00  0.00     0.053 C 
BRANCH   7   8
ATOM      8  C   UNL     1      -7.361  24.776  57.600  1.00  0.00     0.041 C 
ATOM      9  O   UNL     1      -8.040  25.814  57.818  1.00  0.00    -0.550 OA
ATOM     10  O   UNL     1      -7.854  23.799  56.744  1.00  0.00    -0.550 OA
ENDBRANCH   7   8
ENDBRANCH   6   7
ENDBRANCH   5   6
ENDBRANCH   4   5
ENDBRANCH   3   4
ENDBRANCH   2   3
ENDBRANCH   1   2
BRANCH   1  11
ATOM     11  C   UNL     1      -0.972  27.230  55.231  1.00  0.00     0.000 C 
BRANCH  11  12
ATOM     12  C   UNL     1      -0.235  25.890  55.371  1.00  0.00    -0.000 C 
BRANCH  12  13
ATOM     13  C   UNL     1      -0.943  24.922  56.331  1.00  0.00    -0.000 C 
BRANCH  13  14
ATOM     14  C   UNL     1      -1.808  23.886  55.597  1.00  0.00    -0.000 C 
BRANCH  14  15
ATOM     15  C   UNL     1      -3.271  23.967  56.056  1.00  0.00    -0.000 C 
BRANCH  15  16
ATOM     16  C   UNL     1      -4.221  24.381  54.910  1.00  0.00    -0.000 C 
BRANCH  16  17
ATOM     17  C   UNL     1      -4.464  25.898  54.832  1.00  0.00    -0.003 C 
ATOM     18  C   UNL     1      -5.943  26.262  54.725  1.00  0.00     0.004 C 
ENDBRANCH  16  17
ENDBRANCH  15  16
ENDBRANCH  14  15
ENDBRANCH  13  14
ENDBRANCH  12  13
ENDBRANCH  11  12
ENDBRANCH   1  11
TORSDOF 14
ENDMDL
MODEL 2
REMARK VINA RESULT:    -3.619      1.498      3.118
REMARK INTER + INTRA:          -9.221
REMARK INTER:                  -6.655
REMARK INTRA:                  -2.567
REMARK UNBOUND:                -2.641
REMARK SMILES CCCCCCCCCCCCCCCC(=O)[O-]
REMARK SMILES IDX 9 1 10 2 11 3 12 4 13 5 14 6 15 7 16 8 17 9 18 10 8 11 7 12
REMARK SMILES IDX 6 13 5 14 4 15 3 16 2 17 1 18
REMARK H PARENT
REMARK Flexibility Score: inf
ROOT
ATOM      1  C   UNL     1      -2.718  30.072  58.300  1.00  0.00     0.000 C 
ENDROOT
BRANCH   1   2
ATOM      2  C   UNL     1      -1.798  29.074  57.573  1.00  0.00     0.000 C 
BRANCH   2   3
ATOM      3  C   UNL     1      -1.816  27.639  58.139  1.00  0.00     0.000 C 
BRANCH   3   4
ATOM      4  C   UNL     1      -2.909  27.365  59.187  1.00  0.00     0.000 C 
BRANCH   4   5
ATOM      5  C   UNL     1      -3.519  25.962  59.060  1.00  0.00     0.000 C 
BRANCH   5   6
ATOM      6  C   UNL     1      -5.005  26.042  58.680  1.00  0.00     0.006 C 
BRANCH   6   7
ATOM      7  C   UNL     1      -5.546  24.702  58.161  1.00  0.00     0.053 C 
BRANCH   7   8
ATOM      8  C   UNL     1      -6.898  24.853  57.535  1.00  0.00     0.041 C 
ATOM      9  O   UNL     1      -7.476  25.972  57.538  1.00  0.00    -0.550 OA
ATOM     10  O   UNL     1      -7.506  23.766  56.919  1.00  0.00    -0.550 OA
ENDBRANCH   7   8
ENDBRANCH   6   7
ENDBRANCH   5   6
ENDBRANCH   4   5
ENDBRANCH   3   4
ENDBRANCH   2   3
ENDBRANCH   1   2
BRANCH   1  11
ATOM     11  C   UNL     1      -3.797  30.666  57.383  1.00  0.00     0.000 C 
BRANCH  11  12
ATOM     12  C   UNL     1      -3.652  30.134  55.950  1.00  0.00    -0.000 C 
BRANCH  12  13
ATOM     13  C   UNL     1      -4.944  29.492  55.422  1.00  0.00    -0.000 C 
BRANCH  13  14
ATOM     14  C   UNL     1      -4.980  27.971  55.635  1.00  0.00    -0.000 C 
BRANCH  14  15
ATOM     15  C   UNL     1      -3.772  27.293  54.973  1.00  0.00    -0.000 C 
BRANCH  15  16
ATOM     16  C   UNL     1      -3.835  25.754  55.078  1.00  0.00    -0.000 C 
BRANCH  16  17
ATOM     17  C   UNL     1      -2.505  25.111  55.507  1.00  0.00    -0.003 C 
ATOM     18  C   UNL     1      -2.658  23.658  55.949  1.00  0.00     0.004 C 
ENDBRANCH  16  17
ENDBRANCH  15  16
ENDBRANCH  14  15
ENDBRANCH  13  14
ENDBRANCH  12  13
ENDBRANCH  11  12
ENDBRANCH   1  11
TORSDOF 14
ENDMDL
MODEL 3
REMARK VINA RESULT:    -3.592      2.375      5.684
REMARK INTER + INTRA:          -9.172
REMARK INTER:                  -7.562
REMARK INTRA:                  -1.610
REMARK UNBOUND:                -2.641
REMARK SMILES CCCCCCCCCCCCCCCC(=O)[O-]
REMARK SMILES IDX 9 1 10 2 11 3 12 4 13 5 14 6 15 7 16 8 17 9 18 10 8 11 7 12
REMARK SMILES IDX 6 13 5 14 4 15 3 16 2 17 1 18
REMARK H PARENT
REMARK Flexibility Score: inf
ROOT
ATOM      1  C   UNL     1      -4.437  23.605  54.868  1.00  0.00     0.000 C 
ENDROOT
BRANCH   1   2
ATOM      2  C   UNL     1      -3.638  22.430  55.460  1.00  0.00     0.000 C 
BRANCH   2   3
ATOM      3  C   UNL     1      -2.107  22.536  55.304  1.00  0.00     0.000 C 
BRANCH   3   4
ATOM      4  C   UNL     1      -1.580  23.947  54.987  1.00  0.00     0.000 C 
BRANCH   4   5
ATOM      5  C   UNL     1      -1.182  24.733  56.245  1.00  0.00     0.000 C 
BRANCH   5   6
ATOM      6  C   UNL     1      -1.828  26.126  56.249  1.00  0.00     0.006 C 
BRANCH   6   7
ATOM      7  C   UNL     1      -1.853  26.752  57.650  1.00  0.00     0.053 C 
BRANCH   7   8
ATOM      8  C   UNL     1      -3.187  26.585  58.311  1.00  0.00     0.041 C 
ATOM      9  O   UNL     1      -4.215  27.102  57.801  1.00  0.00    -0.550 OA
ATOM     10  O   UNL     1      -3.299  25.829  59.472  1.00  0.00    -0.550 OA
ENDBRANCH   7   8
ENDBRANCH   6   7
ENDBRANCH   5   6
ENDBRANCH   4   5
ENDBRANCH   3   4
ENDBRANCH   2   3
ENDBRANCH   1   2
BRANCH   1  11
ATOM     11  C   UNL     1      -5.363  24.275  55.893  1.00  0.00     0.000 C 
BRANCH  11  12
ATOM     12  C   UNL     1      -5.205  23.629  57.278  1.00  0.00    -0.000 C 
BRANCH  12  13
ATOM     13  C   UNL     1      -6.337  24.013  58.243  1.00  0.00    -0.000 C 
BRANCH  13  14
ATOM     14  C   UNL     1      -7.139  25.232  57.763  1.00  0.00    -0.000 C 
BRANCH  14  15
ATOM     15  C   UNL     1      -8.061  25.757  58.873  1.00  0.00    -0.000 C 
BRANCH  15  16
ATOM     16  C   UNL     1      -7.271  26.241  60.108  1.00  0.00    -0.000 C 
BRANCH  16  17
ATOM     17  C   UNL     1      -7.913  25.840  61.447  1.00  0.00    -0.003 C 
ATOM     18  C   UNL     1      -7.024  26.140  62.651  1.00  0.00     0.004 C 
ENDBRANCH  16  17
ENDBRANCH  15  16
ENDBRANCH  14  15
ENDBRANCH  13  14
ENDBRANCH  12  13
ENDBRANCH  11  12
ENDBRANCH   1  11
TORSDOF 14
ENDMDL
MODEL 4
REMARK VINA RESULT:    -3.565      3.313      4.689
REMARK INTER + INTRA:          -9.124
REMARK INTER:                  -7.200
REMARK INTRA:                  -1.924
REMARK UNBOUND:                -2.641
REMARK SMILES CCCCCCCCCCCCCCCC(=O)[O-]
REMARK SMILES IDX 9 1 10 2 11 3 12 4 13 5 14 6 15 7 16 8 17 9 18 10 8 11 7 12
REMARK SMILES IDX 6 13 5 14 4 15 3 16 2 17 1 18
REMARK H PARENT
REMARK Flexibility Score: inf
ROOT
ATOM      1  C   UNL     1      -2.596  28.028  55.901  1.00  0.00     0.000 C 
ENDROOT
BRANCH   1   2
ATOM      2  C   UNL     1      -2.014  29.448  55.789  1.00  0.00     0.000 C 
BRANCH   2   3
ATOM      3  C   UNL     1      -2.112  30.297  57.073  1.00  0.00     0.000 C 
BRANCH   3   4
ATOM      4  C   UNL     1      -3.545  30.573  57.565  1.00  0.00     0.000 C 
BRANCH   4   5
ATOM      5  C   UNL     1      -4.415  31.267  56.508  1.00  0.00     0.000 C 
BRANCH   5   6
ATOM      6  C   UNL     1      -5.670  30.436  56.199  1.00  0.00     0.006 C 
BRANCH   6   7
ATOM      7  C   UNL     1      -6.193  30.680  54.777  1.00  0.00     0.053 C 
BRANCH   7   8
ATOM      8  C   UNL     1      -7.361  31.618  54.766  1.00  0.00     0.041 C 
ATOM      9  O   UNL     1      -8.236  31.549  55.669  1.00  0.00    -0.550 OA
ATOM     10  O   UNL     1      -7.465  32.589  53.778  1.00  0.00    -0.550 OA
ENDBRANCH   7   8
ENDBRANCH   6   7
ENDBRANCH   5   6
ENDBRANCH   4   5
ENDBRANCH   3   4
ENDBRANCH   2   3
ENDBRANCH   1   2
BRANCH   1  11
ATOM     11  C   UNL     1      -1.542  26.977  56.277  1.00  0.00     0.000 C 
BRANCH  11  12
ATOM     12  C   UNL     1      -2.024  26.114  57.453  1.00  0.00    -0.000 C 
BRANCH  12  13
ATOM     13  C   UNL     1      -2.861  26.909  58.467  1.00  0.00    -0.000 C 
BRANCH  13  14
ATOM     14  C   UNL     1      -3.851  26.025  59.241  1.00  0.00    -0.000 C 
BRANCH  14  15
ATOM     15  C   UNL     1      -5.000  25.562  58.334  1.00  0.00    -0.000 C 
BRANCH  15  16
ATOM     16  C   UNL     1      -5.774  26.748  57.719  1.00  0.00    -0.000 C 
BRANCH  16  17
ATOM     17  C   UNL     1      -5.903  26.671  56.188  1.00  0.00    -0.003 C 
ATOM     18  C   UNL     1      -6.580  25.390  55.708  1.00  0.00     0.004 C 
ENDBRANCH  16  17
ENDBRANCH  15  16
ENDBRANCH  14  15
ENDBRANCH  13  14
ENDBRANCH  12  13
ENDBRANCH  11  12
ENDBRANCH   1  11
TORSDOF 14
ENDMDL
MODEL 5
REMARK VINA RESULT:    -3.531      3.333      5.336
REMARK INTER + INTRA:          -9.062
REMARK INTER:                  -6.754
REMARK INTRA:                  -2.309
REMARK UNBOUND:                -2.641
REMARK SMILES CCCCCCCCCCCCCCCC(=O)[O-]
REMARK SMILES IDX 9 1 10 2 11 3 12 4 13 5 14 6 15 7 16 8 17 9 18 10 8 11 7 12
REMARK SMILES IDX 6 13 5 14 4 15 3 16 2 17 1 18
REMARK H PARENT
REMARK Flexibility Score: inf
ROOT
ATOM      1  C   UNL     1      -5.366  25.412  57.049  1.00  0.00     0.000 C 
ENDROOT
BRANCH   1   2
ATOM      2  C   UNL     1      -5.991  26.373  56.021  1.00  0.00     0.000 C 
BRANCH   2   3
ATOM      3  C   UNL     1      -4.980  27.173  55.175  1.00  0.00     0.000 C 
BRANCH   3   4
ATOM      4  C   UNL     1      -5.220  28.693  55.136  1.00  0.00     0.000 C 
BRANCH   4   5
ATOM      5  C   UNL     1      -5.359  29.311  56.535  1.00  0.00     0.000 C 
BRANCH   5   6
ATOM      6  C   UNL     1      -5.316  30.844  56.464  1.00  0.00     0.006 C 
BRANCH   6   7
ATOM      7  C   UNL     1      -5.752  31.375  55.091  1.00  0.00     0.053 C 
BRANCH   7   8
ATOM      8  C   UNL     1      -7.180  31.828  55.098  1.00  0.00     0.041 C 
ATOM      9  O   UNL     1      -7.885  31.684  56.132  1.00  0.00    -0.550 OA
ATOM     10  O   UNL     1      -7.723  32.439  53.975  1.00  0.00    -0.550 OA
ENDBRANCH   7   8
ENDBRANCH   6   7
ENDBRANCH   5   6
ENDBRANCH   4   5
ENDBRANCH   3   4
ENDBRANCH   2   3
ENDBRANCH   1   2
BRANCH   1  11
ATOM     11  C   UNL     1      -4.943  26.118  58.345  1.00  0.00     0.000 C 
BRANCH  11  12
ATOM     12  C   UNL     1      -3.449  25.895  58.627  1.00  0.00    -0.000 C 
BRANCH  12  13
ATOM     13  C   UNL     1      -2.656  25.528  57.364  1.00  0.00    -0.000 C 
BRANCH  13  14
ATOM     14  C   UNL     1      -1.482  26.483  57.102  1.00  0.00    -0.000 C 
BRANCH  14  15
ATOM     15  C   UNL     1      -1.612  27.760  57.945  1.00  0.00    -0.000 C 
BRANCH  15  16
ATOM     16  C   UNL     1      -1.790  29.022  57.072  1.00  0.00    -0.000 C 
BRANCH  16  17
ATOM     17  C   UNL     1      -1.493  28.786  55.582  1.00  0.00    -0.003 C 
ATOM     18  C   UNL     1      -1.716  30.029  54.723  1.00  0.00     0.004 C 
ENDBRANCH  16  17
ENDBRANCH  15  16
ENDBRANCH  14  15
ENDBRANCH  13  14
ENDBRANCH  12  13
ENDBRANCH  11  12
ENDBRANCH   1  11
TORSDOF 14
ENDMDL
MODEL 6
REMARK VINA RESULT:    -3.525      3.532      5.545
REMARK INTER + INTRA:          -9.051
REMARK INTER:                  -6.643
REMARK INTRA:                  -2.407
REMARK UNBOUND:                -2.641
REMARK SMILES CCCCCCCCCCCCCCCC(=O)[O-]
REMARK SMILES IDX 9 1 10 2 11 3 12 4 13 5 14 6 15 7 16 8 17 9 18 10 8 11 7 12
REMARK SMILES IDX 6 13 5 14 4 15 3 16 2 17 1 18
REMARK H PARENT
REMARK Flexibility Score: inf
ROOT
ATOM      1  C   UNL     1      -6.191  25.901  57.047  1.00  0.00     0.000 C 
ENDROOT
BRANCH   1   2
ATOM      2  C   UNL     1      -5.722  27.358  56.883  1.00  0.00     0.000 C 
BRANCH   2   3
ATOM      3  C   UNL     1      -5.214  27.726  55.474  1.00  0.00     0.000 C 
BRANCH   3   4
ATOM      4  C   UNL     1      -4.276  28.945  55.416  1.00  0.00     0.000 C 
BRANCH   4   5
ATOM      5  C   UNL     1      -4.504  29.929  56.572  1.00  0.00     0.000 C 
BRANCH   5   6
ATOM      6  C   UNL     1      -5.501  31.026  56.170  1.00  0.00     0.006 C 
BRANCH   6   7
ATOM      7  C   UNL     1      -4.886  32.042  55.198  1.00  0.00     0.053 C 
BRANCH   7   8
ATOM      8  C   UNL     1      -5.597  32.052  53.880  1.00  0.00     0.041 C 
ATOM      9  O   UNL     1      -6.762  31.581  53.785  1.00  0.00    -0.550 OA
ATOM     10  O   UNL     1      -4.988  32.610  52.763  1.00  0.00    -0.550 OA
ENDBRANCH   7   8
ENDBRANCH   6   7
ENDBRANCH   5   6
ENDBRANCH   4   5
ENDBRANCH   3   4
ENDBRANCH   2   3
ENDBRANCH   1   2
BRANCH   1  11
ATOM     11  C   UNL     1      -5.583  25.212  58.277  1.00  0.00     0.000 C 
BRANCH  11  12
ATOM     12  C   UNL     1      -4.822  26.221  59.150  1.00  0.00    -0.000 C 
BRANCH  12  13
ATOM     13  C   UNL     1      -3.307  25.970  59.163  1.00  0.00    -0.000 C 
BRANCH  13  14
ATOM     14  C   UNL     1      -2.496  27.207  58.749  1.00  0.00    -0.000 C 
BRANCH  14  15
ATOM     15  C   UNL     1      -1.842  27.002  57.375  1.00  0.00    -0.000 C 
BRANCH  15  16
ATOM     16  C   UNL     1      -1.857  25.522  56.936  1.00  0.00    -0.000 C 
BRANCH  16  17
ATOM     17  C   UNL     1      -2.407  25.307  55.515  1.00  0.00    -0.003 C 
ATOM     18  C   UNL     1      -3.375  24.130  55.420  1.00  0.00     0.004 C 
ENDBRANCH  16  17
ENDBRANCH  15  16
ENDBRANCH  14  15
ENDBRANCH  13  14
ENDBRANCH  12  13
ENDBRANCH  11  12
ENDBRANCH   1  11
TORSDOF 14
ENDMDL
MODEL 7
REMARK VINA RESULT:    -3.522      1.939      3.742
REMARK INTER + INTRA:          -9.044
REMARK INTER:                  -6.695
REMARK INTRA:                  -2.349
REMARK UNBOUND:                -2.641
REMARK SMILES CCCCCCCCCCCCCCCC(=O)[O-]
REMARK SMILES IDX 9 1 10 2 11 3 12 4 13 5 14 6 15 7 16 8 17 9 18 10 8 11 7 12
REMARK SMILES IDX 6 13 5 14 4 15 3 16 2 17 1 18
REMARK H PARENT
REMARK Flexibility Score: inf
ROOT
ATOM      1  C   UNL     1      -1.584  28.897  57.325  1.00  0.00     0.000 C 
ENDROOT
BRANCH   1   2
ATOM      2  C   UNL     1      -1.462  27.387  57.053  1.00  0.00     0.000 C 
BRANCH   2   3
ATOM      3  C   UNL     1      -2.525  26.511  57.746  1.00  0.00     0.000 C 
BRANCH   3   4
ATOM      4  C   UNL     1      -3.199  27.151  58.973  1.00  0.00     0.000 C 
BRANCH   4   5
ATOM      5  C   UNL     1      -4.257  26.242  59.616  1.00  0.00     0.000 C 
BRANCH   5   6
ATOM      6  C   UNL     1      -5.533  26.197  58.762  1.00  0.00     0.006 C 
BRANCH   6   7
ATOM      7  C   UNL     1      -5.910  24.766  58.357  1.00  0.00     0.053 C 
BRANCH   7   8
ATOM      8  C   UNL     1      -7.051  24.745  57.386  1.00  0.00     0.041 C 
ATOM      9  O   UNL     1      -7.259  23.726  56.676  1.00  0.00    -0.550 OA
ATOM     10  O   UNL     1      -7.904  25.838  57.290  1.00  0.00    -0.550 OA
ENDBRANCH   7   8
ENDBRANCH   6   7
ENDBRANCH   5   6
ENDBRANCH   4   5
ENDBRANCH   3   4
ENDBRANCH   2   3
ENDBRANCH   1   2
BRANCH   1  11
ATOM     11  C   UNL     1      -1.206  29.756  56.109  1.00  0.00     0.000 C 
BRANCH  11  12
ATOM     12  C   UNL     1      -1.986  31.080  56.109  1.00  0.00    -0.000 C 
BRANCH  12  13
ATOM     13  C   UNL     1      -3.325  30.978  56.854  1.00  0.00    -0.000 C 
BRANCH  13  14
ATOM     14  C   UNL     1      -4.504  31.524  56.034  1.00  0.00    -0.000 C 
BRANCH  14  15
ATOM     15  C   UNL     1      -5.630  30.485  55.929  1.00  0.00    -0.000 C 
BRANCH  15  16
ATOM     16  C   UNL     1      -5.242  29.136  56.573  1.00  0.00    -0.000 C 
BRANCH  16  17
ATOM     17  C   UNL     1      -5.244  27.959  55.584  1.00  0.00    -0.003 C 
ATOM     18  C   UNL     1      -4.137  28.054  54.537  1.00  0.00     0.004 C 
ENDBRANCH  16  17
ENDBRANCH  15  16
ENDBRANCH  14  15
ENDBRANCH  13  14
ENDBRANCH  12  13
ENDBRANCH  11  12
ENDBRANCH   1  11
TORSDOF 14
ENDMDL
MODEL 8
REMARK VINA RESULT:    -3.515      2.863      4.616
REMARK INTER + INTRA:          -9.033
REMARK INTER:                  -6.639
REMARK INTRA:                  -2.394
REMARK UNBOUND:                -2.641
REMARK SMILES CCCCCCCCCCCCCCCC(=O)[O-]
REMARK SMILES IDX 9 1 10 2 11 3 12 4 13 5 14 6 15 7 16 8 17 9 18 10 8 11 7 12
REMARK SMILES IDX 6 13 5 14 4 15 3 16 2 17 1 18
REMARK H PARENT
REMARK Flexibility Score: inf
ROOT
ATOM      1  C   UNL     1      -1.749  28.201  57.730  1.00  0.00     0.000 C 
ENDROOT
BRANCH   1   2
ATOM      2  C   UNL     1      -1.750  27.125  56.630  1.00  0.00     0.000 C 
BRANCH   2   3
ATOM      3  C   UNL     1      -2.458  27.530  55.321  1.00  0.00     0.000 C 
BRANCH   3   4
ATOM      4  C   UNL     1      -3.176  28.891  55.361  1.00  0.00     0.000 C 
BRANCH   4   5
ATOM      5  C   UNL     1      -4.703  28.758  55.446  1.00  0.00     0.000 C 
BRANCH   5   6
ATOM      6  C   UNL     1      -5.264  29.600  56.601  1.00  0.00     0.006 C 
BRANCH   6   7
ATOM      7  C   UNL     1      -5.359  31.089  56.242  1.00  0.00     0.053 C 
BRANCH   7   8
ATOM      8  C   UNL     1      -6.754  31.481  55.862  1.00  0.00     0.041 C 
ATOM      9  O   UNL     1      -6.982  32.000  54.737  1.00  0.00    -0.550 OA
ATOM     10  O   UNL     1      -7.808  31.243  56.736  1.00  0.00    -0.550 OA
ENDBRANCH   7   8
ENDBRANCH   6   7
ENDBRANCH   5   6
ENDBRANCH   4   5
ENDBRANCH   3   4
ENDBRANCH   2   3
ENDBRANCH   1   2
BRANCH   1  11
ATOM     11  C   UNL     1      -2.577  27.799  58.960  1.00  0.00     0.000 C 
BRANCH  11  12
ATOM     12  C   UNL     1      -3.039  26.338  58.855  1.00  0.00    -0.000 C 
BRANCH  12  13
ATOM     13  C   UNL     1      -4.519  26.156  59.222  1.00  0.00    -0.000 C 
BRANCH  13  14
ATOM     14  C   UNL     1      -5.215  25.085  58.369  1.00  0.00    -0.000 C 
BRANCH  14  15
ATOM     15  C   UNL     1      -5.659  25.662  57.016  1.00  0.00    -0.000 C 
BRANCH  15  16
ATOM     16  C   UNL     1      -5.001  24.931  55.825  1.00  0.00    -0.000 C 
BRANCH  16  17
ATOM     17  C   UNL     1      -4.275  23.635  56.223  1.00  0.00    -0.003 C 
ATOM     18  C   UNL     1      -2.798  23.632  55.834  1.00  0.00     0.004 C 
ENDBRANCH  16  17
ENDBRANCH  15  16
ENDBRANCH  14  15
ENDBRANCH  13  14
ENDBRANCH  12  13
ENDBRANCH  11  12
ENDBRANCH   1  11
TORSDOF 14
ENDMDL
MODEL 9
REMARK VINA RESULT:    -3.423      3.300      4.875
REMARK INTER + INTRA:          -8.865
REMARK INTER:                  -6.840
REMARK INTRA:                  -2.025
REMARK UNBOUND:                -2.641
REMARK SMILES CCCCCCCCCCCCCCCC(=O)[O-]
REMARK SMILES IDX 9 1 10 2 11 3 12 4 13 5 14 6 15 7 16 8 17 9 18 10 8 11 7 12
REMARK SMILES IDX 6 13 5 14 4 15 3 16 2 17 1 18
REMARK H PARENT
REMARK Flexibility Score: inf
ROOT
ATOM      1  C   UNL     1      -3.687  27.684  58.129  1.00  0.00     0.000 C 
ENDROOT
BRANCH   1   2
ATOM      2  C   UNL     1      -5.114  27.747  57.556  1.00  0.00     0.000 C 
BRANCH   2   3
ATOM      3  C   UNL     1      -5.233  28.415  56.170  1.00  0.00     0.000 C 
BRANCH   3   4
ATOM      4  C   UNL     1      -3.893  28.720  55.476  1.00  0.00     0.000 C 
BRANCH   4   5
ATOM      5  C   UNL     1      -3.838  30.134  54.880  1.00  0.00     0.000 C 
BRANCH   5   6
ATOM      6  C   UNL     1      -4.784  31.083  55.630  1.00  0.00     0.006 C 
BRANCH   6   7
ATOM      7  C   UNL     1      -5.400  32.141  54.705  1.00  0.00     0.053 C 
BRANCH   7   8
ATOM      8  C   UNL     1      -6.881  31.966  54.567  1.00  0.00     0.041 C 
ATOM      9  O   UNL     1      -7.512  32.585  53.670  1.00  0.00    -0.550 OA
ATOM     10  O   UNL     1      -7.561  31.093  55.409  1.00  0.00    -0.550 OA
ENDBRANCH   7   8
ENDBRANCH   6   7
ENDBRANCH   5   6
ENDBRANCH   4   5
ENDBRANCH   3   4
ENDBRANCH   2   3
ENDBRANCH   1   2
BRANCH   1  11
ATOM     11  C   UNL     1      -3.188  26.246  58.334  1.00  0.00     0.000 C 
BRANCH  11  12
ATOM     12  C   UNL     1      -2.267  25.816  57.183  1.00  0.00    -0.000 C 
BRANCH  12  13
ATOM     13  C   UNL     1      -2.806  24.598  56.416  1.00  0.00    -0.000 C 
BRANCH  13  14
ATOM     14  C   UNL     1      -4.068  24.921  55.601  1.00  0.00    -0.000 C 
BRANCH  14  15
ATOM     15  C   UNL     1      -5.175  23.892  55.871  1.00  0.00    -0.000 C 
BRANCH  15  16
ATOM     16  C   UNL     1      -5.344  23.597  57.378  1.00  0.00    -0.000 C 
BRANCH  16  17
ATOM     17  C   UNL     1      -6.547  24.313  58.014  1.00  0.00    -0.003 C 
ATOM     18  C   UNL     1      -7.530  24.864  56.984  1.00  0.00     0.004 C 
ENDBRANCH  16  17
ENDBRANCH  15  16
ENDBRANCH  14  15
ENDBRANCH  13  14
ENDBRANCH  12  13
ENDBRANCH  11  12
ENDBRANCH   1  11
TORSDOF 14
ENDMDL
