MODEL 1
REMARK VINA RESULT:    -4.752      0.000      0.000
REMARK INTER + INTRA:         -14.541
REMARK INTER:                 -10.863
REMARK INTRA:                  -3.678
REMARK UNBOUND:                -3.678
REMARK SMILES CCCCCCCCCCCCCCCCCCCCCCCC(=O)[O-]
REMARK SMILES IDX 13 1 14 2 15 3 16 4 17 5 18 6 19 7 20 8 21 9 22 10 23 11
REMARK SMILES IDX 24 12 25 13 26 14 12 15 11 16 10 17 9 18 8 19 7 20 6 21 5 22
REMARK SMILES IDX 4 23 3 24 2 25 1 26
REMARK H PARENT
REMARK Flexibility Score: inf
ROOT
ATOM      1  C   UNL     1      62.337  29.798   9.146  1.00  0.00     0.000 C 
ENDROOT
BRANCH   1   2
ATOM      2  C   UNL     1      63.805  29.411   9.400  1.00  0.00     0.000 C 
BRANCH   2   3
ATOM      3  C   UNL     1      64.738  30.631   9.467  1.00  0.00     0.000 C 
BRANCH   3   4
ATOM      4  C   UNL     1      65.168  30.977  10.903  1.00  0.00     0.000 C 
BRANCH   4   5
ATOM      5  C   UNL     1      64.505  32.261  11.431  1.00  0.00     0.000 C 
BRANCH   5   6
ATOM      6  C   UNL     1      65.525  33.363  11.776  1.00  0.00     0.000 C 
BRANCH   6   7
ATOM      7  C   UNL     1      65.335  34.031  13.154  1.00  0.00     0.000 C 
BRANCH   7   8
ATOM      8  C   UNL     1      64.547  33.202  14.186  1.00  0.00     0.000 C 
BRANCH   8   9
ATOM      9  C   UNL     1      64.023  34.000  15.396  1.00  0.00     0.000 C 
BRANCH   9  10
ATOM     10  C   UNL     1      65.131  34.724  16.194  1.00  0.00     0.006 C 
BRANCH  10  11
ATOM     11  C   UNL     1      65.481  34.049  17.532  1.00  0.00     0.053 C 
BRANCH  11  12
ATOM     12  C   UNL     1      64.725  34.647  18.681  1.00  0.00     0.041 C 
ATOM     13  O   UNL     1      63.636  34.139  19.057  1.00  0.00    -0.550 OA
ATOM     14  O   UNL     1      65.236  35.752  19.349  1.00  0.00    -0.550 OA
ENDBRANCH  11  12
ENDBRANCH  10  11
ENDBRANCH   9  10
ENDBRANCH   8   9
ENDBRANCH   7   8
ENDBRANCH   6   7
ENDBRANCH   5   6
ENDBRANCH   4   5
ENDBRANCH   3   4
ENDBRANCH   2   3
ENDBRANCH   1   2
BRANCH   1  15
ATOM     15  C   UNL     1      61.350  28.615   9.088  1.00  0.00     0.000 C 
BRANCH  15  16
ATOM     16  C   UNL     1      60.040  28.811   9.877  1.00  0.00     0.000 C 
BRANCH  16  17
ATOM     17  C   UNL     1      60.165  29.673  11.144  1.00  0.00     0.000 C 
BRANCH  17  18
ATOM     18  C   UNL     1      59.815  28.904  12.426  1.00  0.00    -0.000 C 
BRANCH  18  19
ATOM     19  C   UNL     1      61.083  28.500  13.190  1.00  0.00    -0.000 C 
BRANCH  19  20
ATOM     20  C   UNL     1      62.281  29.419  12.890  1.00  0.00    -0.000 C 
BRANCH  20  21
ATOM     21  C   UNL     1      62.767  30.220  14.117  1.00  0.00    -0.000 C 
BRANCH  21  22
ATOM     22  C   UNL     1      61.787  30.122  15.300  1.00  0.00    -0.000 C 
BRANCH  22  23
ATOM     23  C   UNL     1      61.266  31.496  15.751  1.00  0.00    -0.000 C 
BRANCH  23  24
ATOM     24  C   UNL     1      60.199  32.063  14.798  1.00  0.00    -0.000 C 
BRANCH  24  25
ATOM     25  C   UNL     1      60.704  33.281  14.009  1.00  0.00    -0.003 C 
ATOM     26  C   UNL     1      61.077  32.938  12.566  1.00  0.00     0.004 C 
ENDBRANCH  24  25
ENDBRANCH  23  24
ENDBRANCH  22  23
ENDBRANCH  21  22
ENDBRANCH  20  21
ENDBRANCH  19  20
ENDBRANCH  18  19
ENDBRANCH  17  18
ENDBRANCH  16  17
ENDBRANCH  15  16
ENDBRANCH   1  15
TORSDOF 22
ENDMDL
MODEL 2
REMARK VINA RESULT:    -4.681      1.429      5.691
REMARK INTER + INTRA:         -14.379
REMARK INTER:                 -10.576
REMARK INTRA:                  -3.803
REMARK UNBOUND:                -3.678
REMARK SMILES CCCCCCCCCCCCCCCCCCCCCCCC(=O)[O-]
REMARK SMILES IDX 13 1 14 2 15 3 16 4 17 5 18 6 19 7 20 8 21 9 22 10 23 11
REMARK SMILES IDX 24 12 25 13 26 14 12 15 11 16 10 17 9 18 8 19 7 20 6 21 5 22
REMARK SMILES IDX 4 23 3 24 2 25 1 26
REMARK H PARENT
REMARK Flexibility Score: inf
ROOT
ATOM      1  C   UNL     1      64.066  30.881  14.347  1.00  0.00     0.000 C 
ENDROOT
BRANCH   1   2
ATOM      2  C   UNL     1      64.366  29.682  13.428  1.00  0.00     0.000 C 
BRANCH   2   3
ATOM      3  C   UNL     1      63.094  29.068  12.820  1.00  0.00     0.000 C 
BRANCH   3   4
ATOM      4  C   UNL     1      61.857  29.247  13.716  1.00  0.00     0.000 C 
BRANCH   4   5
ATOM      5  C   UNL     1      60.667  29.875  12.970  1.00  0.00     0.000 C 
BRANCH   5   6
ATOM      6  C   UNL     1      61.039  31.179  12.239  1.00  0.00     0.000 C 
BRANCH   6   7
ATOM      7  C   UNL     1      60.373  32.458  12.790  1.00  0.00     0.000 C 
BRANCH   7   8
ATOM      8  C   UNL     1      61.098  33.119  13.977  1.00  0.00     0.000 C 
BRANCH   8   9
ATOM      9  C   UNL     1      60.700  32.577  15.364  1.00  0.00     0.000 C 
BRANCH   9  10
ATOM     10  C   UNL     1      61.785  32.774  16.447  1.00  0.00     0.006 C 
BRANCH  10  11
ATOM     11  C   UNL     1      62.495  34.138  16.380  1.00  0.00     0.053 C 
BRANCH  11  12
ATOM     12  C   UNL     1      62.860  34.652  17.741  1.00  0.00     0.041 C 
ATOM     13  O   UNL     1      63.878  35.377  17.894  1.00  0.00    -0.550 OA
ATOM     14  O   UNL     1      62.062  34.347  18.836  1.00  0.00    -0.550 OA
ENDBRANCH  11  12
ENDBRANCH  10  11
ENDBRANCH   9  10
ENDBRANCH   8   9
ENDBRANCH   7   8
ENDBRANCH   6   7
ENDBRANCH   5   6
ENDBRANCH   4   5
ENDBRANCH   3   4
ENDBRANCH   2   3
ENDBRANCH   1   2
BRANCH   1  15
ATOM     15  C   UNL     1      64.379  32.263  13.740  1.00  0.00     0.000 C 
BRANCH  15  16
ATOM     16  C   UNL     1      65.375  33.125  14.541  1.00  0.00     0.000 C 
BRANCH  16  17
ATOM     17  C   UNL     1      65.683  34.503  13.931  1.00  0.00     0.000 C 
BRANCH  17  18
ATOM     18  C   UNL     1      66.862  34.468  12.946  1.00  0.00    -0.000 C 
BRANCH  18  19
ATOM     19  C   UNL     1      66.375  34.626  11.500  1.00  0.00    -0.000 C 
BRANCH  19  20
ATOM     20  C   UNL     1      66.589  33.359  10.653  1.00  0.00    -0.000 C 
BRANCH  20  21
ATOM     21  C   UNL     1      65.285  32.593  10.349  1.00  0.00    -0.000 C 
BRANCH  21  22
ATOM     22  C   UNL     1      65.512  31.073  10.248  1.00  0.00    -0.000 C 
BRANCH  22  23
ATOM     23  C   UNL     1      64.952  30.476   8.949  1.00  0.00    -0.000 C 
BRANCH  23  24
ATOM     24  C   UNL     1      63.969  29.321   9.207  1.00  0.00    -0.000 C 
BRANCH  24  25
ATOM     25  C   UNL     1      62.505  29.788   9.224  1.00  0.00    -0.003 C 
ATOM     26  C   UNL     1      61.514  28.626   9.320  1.00  0.00     0.004 C 
ENDBRANCH  24  25
ENDBRANCH  23  24
ENDBRANCH  22  23
ENDBRANCH  21  22
ENDBRANCH  20  21
ENDBRANCH  19  20
ENDBRANCH  18  19
ENDBRANCH  17  18
ENDBRANCH  16  17
ENDBRANCH  15  16
ENDBRANCH   1  15
TORSDOF 22
ENDMDL
MODEL 3
REMARK VINA RESULT:    -4.584      2.826      6.679
REMARK INTER + INTRA:         -14.157
REMARK INTER:                 -10.410
REMARK INTRA:                  -3.747
REMARK UNBOUND:                -3.678
REMARK SMILES CCCCCCCCCCCCCCCCCCCCCCCC(=O)[O-]
REMARK SMILES IDX 13 1 14 2 15 3 16 4 17 5 18 6 19 7 20 8 21 9 22 10 23 11
REMARK SMILES IDX 24 12 25 13 26 14 12 15 11 16 10 17 9 18 8 19 7 20 6 21 5 22
REMARK SMILES IDX 4 23 3 24 2 25 1 26
REMARK H PARENT
REMARK Flexibility Score: inf
ROOT
ATOM      1  C   UNL     1      64.428  31.746  14.545  1.00  0.00     0.000 C 
ENDROOT
BRANCH   1   2
ATOM      2  C   UNL     1      64.288  31.181  13.120  1.00  0.00     0.000 C 
BRANCH   2   3
ATOM      3  C   UNL     1      64.092  32.280  12.062  1.00  0.00     0.000 C 
BRANCH   3   4
ATOM      4  C   UNL     1      65.263  32.369  11.069  1.00  0.00     0.000 C 
BRANCH   4   5
ATOM      5  C   UNL     1      64.866  31.960   9.640  1.00  0.00     0.000 C 
BRANCH   5   6
ATOM      6  C   UNL     1      65.457  30.601   9.221  1.00  0.00     0.000 C 
BRANCH   6   7
ATOM      7  C   UNL     1      64.424  29.487   8.945  1.00  0.00     0.000 C 
BRANCH   7   8
ATOM      8  C   UNL     1      63.387  29.258  10.061  1.00  0.00     0.000 C 
BRANCH   8   9
ATOM      9  C   UNL     1      61.999  29.873   9.793  1.00  0.00     0.000 C 
BRANCH   9  10
ATOM     10  C   UNL     1      61.221  30.240  11.077  1.00  0.00     0.006 C 
BRANCH  10  11
ATOM     11  C   UNL     1      60.075  29.271  11.413  1.00  0.00     0.053 C 
BRANCH  11  12
ATOM     12  C   UNL     1      60.317  28.531  12.694  1.00  0.00     0.041 C 
ATOM     13  O   UNL     1      59.423  27.786  13.176  1.00  0.00    -0.550 OA
ATOM     14  O   UNL     1      61.539  28.648  13.344  1.00  0.00    -0.550 OA
ENDBRANCH  11  12
ENDBRANCH  10  11
ENDBRANCH   9  10
ENDBRANCH   8   9
ENDBRANCH   7   8
ENDBRANCH   6   7
ENDBRANCH   5   6
ENDBRANCH   4   5
ENDBRANCH   3   4
ENDBRANCH   2   3
ENDBRANCH   1   2
BRANCH   1  15
ATOM     15  C   UNL     1      65.481  32.860  14.706  1.00  0.00     0.000 C 
BRANCH  15  16
ATOM     16  C   UNL     1      64.928  34.298  14.679  1.00  0.00     0.000 C 
BRANCH  16  17
ATOM     17  C   UNL     1      65.614  35.279  15.646  1.00  0.00     0.000 C 
BRANCH  17  18
ATOM     18  C   UNL     1      65.955  34.640  17.000  1.00  0.00    -0.000 C 
BRANCH  18  19
ATOM     19  C   UNL     1      64.915  35.018  18.064  1.00  0.00    -0.000 C 
BRANCH  19  20
ATOM     20  C   UNL     1      63.807  33.962  18.222  1.00  0.00    -0.000 C 
BRANCH  20  21
ATOM     21  C   UNL     1      62.431  34.430  17.703  1.00  0.00    -0.000 C 
BRANCH  21  22
ATOM     22  C   UNL     1      61.861  33.482  16.632  1.00  0.00    -0.000 C 
BRANCH  22  23
ATOM     23  C   UNL     1      61.179  34.235  15.479  1.00  0.00    -0.000 C 
BRANCH  23  24
ATOM     24  C   UNL     1      61.214  33.446  14.159  1.00  0.00    -0.000 C 
BRANCH  24  25
ATOM     25  C   UNL     1      60.808  31.976  14.342  1.00  0.00    -0.003 C 
ATOM     26  C   UNL     1      59.296  31.792  14.479  1.00  0.00     0.004 C 
ENDBRANCH  24  25
ENDBRANCH  23  24
ENDBRANCH  22  23
ENDBRANCH  21  22
ENDBRANCH  20  21
ENDBRANCH  19  20
ENDBRANCH  18  19
ENDBRANCH  17  18
ENDBRANCH  16  17
ENDBRANCH  15  16
ENDBRANCH   1  15
TORSDOF 22
ENDMDL
MODEL 4
REMARK VINA RESULT:    -4.566      1.338      2.248
REMARK INTER + INTRA:         -14.116
REMARK INTER:                 -10.829
REMARK INTRA:                  -3.287
REMARK UNBOUND:                -3.678
REMARK SMILES CCCCCCCCCCCCCCCCCCCCCCCC(=O)[O-]
REMARK SMILES IDX 13 1 14 2 15 3 16 4 17 5 18 6 19 7 20 8 21 9 22 10 23 11
REMARK SMILES IDX 24 12 25 13 26 14 12 15 11 16 10 17 9 18 8 19 7 20 6 21 5 22
REMARK SMILES IDX 4 23 3 24 2 25 1 26
REMARK H PARENT
REMARK Flexibility Score: inf
ROOT
ATOM      1  C   UNL     1      64.463  29.924  10.222  1.00  0.00     0.000 C 
ENDROOT
BRANCH   1   2
ATOM      2  C   UNL     1      64.882  31.096  11.128  1.00  0.00     0.000 C 
BRANCH   2   3
ATOM      3  C   UNL     1      65.268  32.354  10.331  1.00  0.00     0.000 C 
BRANCH   3   4
ATOM      4  C   UNL     1      66.441  33.122  10.961  1.00  0.00     0.000 C 
BRANCH   4   5
ATOM      5  C   UNL     1      66.032  34.509  11.487  1.00  0.00     0.000 C 
BRANCH   5   6
ATOM      6  C   UNL     1      66.239  34.658  13.006  1.00  0.00     0.000 C 
BRANCH   6   7
ATOM      7  C   UNL     1      65.546  33.588  13.875  1.00  0.00     0.000 C 
BRANCH   7   8
ATOM      8  C   UNL     1      65.235  34.014  15.323  1.00  0.00     0.000 C 
BRANCH   8   9
ATOM      9  C   UNL     1      63.747  33.939  15.716  1.00  0.00     0.000 C 
BRANCH   9  10
ATOM     10  C   UNL     1      63.416  34.649  17.048  1.00  0.00     0.006 C 
BRANCH  10  11
ATOM     11  C   UNL     1      62.040  34.281  17.629  1.00  0.00     0.053 C 
BRANCH  11  12
ATOM     12  C   UNL     1      62.083  34.103  19.117  1.00  0.00     0.041 C 
ATOM     13  O   UNL     1      61.023  33.885  19.761  1.00  0.00    -0.550 OA
ATOM     14  O   UNL     1      63.298  34.156  19.788  1.00  0.00    -0.550 OA
ENDBRANCH  11  12
ENDBRANCH  10  11
ENDBRANCH   9  10
ENDBRANCH   8   9
ENDBRANCH   7   8
ENDBRANCH   6   7
ENDBRANCH   5   6
ENDBRANCH   4   5
ENDBRANCH   3   4
ENDBRANCH   2   3
ENDBRANCH   1   2
BRANCH   1  15
ATOM     15  C   UNL     1      63.738  30.329   8.923  1.00  0.00     0.000 C 
BRANCH  15  16
ATOM     16  C   UNL     1      62.211  30.119   8.928  1.00  0.00     0.000 C 
BRANCH  16  17
ATOM     17  C   UNL     1      61.671  29.288  10.104  1.00  0.00     0.000 C 
BRANCH  17  18
ATOM     18  C   UNL     1      60.295  29.766  10.590  1.00  0.00    -0.000 C 
BRANCH  18  19
ATOM     19  C   UNL     1      59.758  28.856  11.704  1.00  0.00    -0.000 C 
BRANCH  19  20
ATOM     20  C   UNL     1      60.875  28.244  12.568  1.00  0.00    -0.000 C 
BRANCH  20  21
ATOM     21  C   UNL     1      61.254  29.108  13.790  1.00  0.00    -0.000 C 
BRANCH  21  22
ATOM     22  C   UNL     1      62.658  29.724  13.653  1.00  0.00    -0.000 C 
BRANCH  22  23
ATOM     23  C   UNL     1      62.686  31.217  14.014  1.00  0.00    -0.000 C 
BRANCH  23  24
ATOM     24  C   UNL     1      62.208  32.111  12.857  1.00  0.00    -0.000 C 
BRANCH  24  25
ATOM     25  C   UNL     1      60.969  32.941  13.229  1.00  0.00    -0.003 C 
ATOM     26  C   UNL     1      60.440  32.619  14.627  1.00  0.00     0.004 C 
ENDBRANCH  24  25
ENDBRANCH  23  24
ENDBRANCH  22  23
ENDBRANCH  21  22
ENDBRANCH  20  21
ENDBRANCH  19  20
ENDBRANCH  18  19
ENDBRANCH  17  18
ENDBRANCH  16  17
ENDBRANCH  15  16
ENDBRANCH   1  15
TORSDOF 22
ENDMDL
MODEL 5
REMARK VINA RESULT:    -4.500      1.203      4.492
REMARK INTER + INTRA:         -13.967
REMARK INTER:                 -10.260
REMARK INTRA:                  -3.707
REMARK UNBOUND:                -3.678
REMARK SMILES CCCCCCCCCCCCCCCCCCCCCCCC(=O)[O-]
REMARK SMILES IDX 13 1 14 2 15 3 16 4 17 5 18 6 19 7 20 8 21 9 22 10 23 11
REMARK SMILES IDX 24 12 25 13 26 14 12 15 11 16 10 17 9 18 8 19 7 20 6 21 5 22
REMARK SMILES IDX 4 23 3 24 2 25 1 26
REMARK H PARENT
REMARK Flexibility Score: inf
ROOT
ATOM      1  C   UNL     1      60.905  31.990  15.451  1.00  0.00     0.000 C 
ENDROOT
BRANCH   1   2
ATOM      2  C   UNL     1      61.689  30.675  15.615  1.00  0.00     0.000 C 
BRANCH   2   3
ATOM      3  C   UNL     1      63.125  30.768  15.072  1.00  0.00     0.000 C 
BRANCH   3   4
ATOM      4  C   UNL     1      63.428  29.705  14.003  1.00  0.00     0.000 C 
BRANCH   4   5
ATOM      5  C   UNL     1      63.863  30.317  12.660  1.00  0.00     0.000 C 
BRANCH   5   6
ATOM      6  C   UNL     1      64.892  31.451  12.824  1.00  0.00     0.000 C 
BRANCH   6   7
ATOM      7  C   UNL     1      64.329  32.880  12.676  1.00  0.00     0.000 C 
BRANCH   7   8
ATOM      8  C   UNL     1      64.867  33.909  13.690  1.00  0.00     0.000 C 
BRANCH   8   9
ATOM      9  C   UNL     1      65.788  33.326  14.780  1.00  0.00     0.000 C 
BRANCH   9  10
ATOM     10  C   UNL     1      65.260  33.532  16.218  1.00  0.00     0.006 C 
BRANCH  10  11
ATOM     11  C   UNL     1      63.875  34.197  16.287  1.00  0.00     0.053 C 
BRANCH  11  12
ATOM     12  C   UNL     1      63.416  34.400  17.700  1.00  0.00     0.041 C 
ATOM     13  O   UNL     1      62.305  34.946  17.934  1.00  0.00    -0.550 OA
ATOM     14  O   UNL     1      64.207  33.969  18.757  1.00  0.00    -0.550 OA
ENDBRANCH  11  12
ENDBRANCH  10  11
ENDBRANCH   9  10
ENDBRANCH   8   9
ENDBRANCH   7   8
ENDBRANCH   6   7
ENDBRANCH   5   6
ENDBRANCH   4   5
ENDBRANCH   3   4
ENDBRANCH   2   3
ENDBRANCH   1   2
BRANCH   1  15
ATOM     15  C   UNL     1      59.999  32.059  14.206  1.00  0.00     0.000 C 
BRANCH  15  16
ATOM     16  C   UNL     1      60.723  32.365  12.880  1.00  0.00     0.000 C 
BRANCH  16  17
ATOM     17  C   UNL     1      60.632  31.256  11.818  1.00  0.00     0.000 C 
BRANCH  17  18
ATOM     18  C   UNL     1      60.212  29.901  12.405  1.00  0.00    -0.000 C 
BRANCH  18  19
ATOM     19  C   UNL     1      60.061  28.845  11.301  1.00  0.00    -0.000 C 
BRANCH  19  20
ATOM     20  C   UNL     1      60.350  29.402   9.896  1.00  0.00    -0.000 C 
BRANCH  20  21
ATOM     21  C   UNL     1      61.539  28.714   9.192  1.00  0.00    -0.000 C 
BRANCH  21  22
ATOM     22  C   UNL     1      62.872  28.970   9.917  1.00  0.00    -0.000 C 
BRANCH  22  23
ATOM     23  C   UNL     1      64.025  29.269   8.946  1.00  0.00    -0.000 C 
BRANCH  23  24
ATOM     24  C   UNL     1      64.451  30.748   8.976  1.00  0.00    -0.000 C 
BRANCH  24  25
ATOM     25  C   UNL     1      65.971  30.918   9.120  1.00  0.00    -0.003 C 
ATOM     26  C   UNL     1      66.366  32.312   9.611  1.00  0.00     0.004 C 
ENDBRANCH  24  25
ENDBRANCH  23  24
ENDBRANCH  22  23
ENDBRANCH  21  22
ENDBRANCH  20  21
ENDBRANCH  19  20
ENDBRANCH  18  19
ENDBRANCH  17  18
ENDBRANCH  16  17
ENDBRANCH  15  16
ENDBRANCH   1  15
TORSDOF 22
ENDMDL
MODEL 6
REMARK VINA RESULT:    -4.390      2.900      6.899
REMARK INTER + INTRA:         -13.714
REMARK INTER:                 -10.372
REMARK INTRA:                  -3.342
REMARK UNBOUND:                -3.678
REMARK SMILES CCCCCCCCCCCCCCCCCCCCCCCC(=O)[O-]
REMARK SMILES IDX 13 1 14 2 15 3 16 4 17 5 18 6 19 7 20 8 21 9 22 10 23 11
REMARK SMILES IDX 24 12 25 13 26 14 12 15 11 16 10 17 9 18 8 19 7 20 6 21 5 22
REMARK SMILES IDX 4 23 3 24 2 25 1 26
REMARK H PARENT
REMARK Flexibility Score: inf
ROOT
ATOM      1  C   UNL     1      60.609  32.406  13.896  1.00  0.00     0.000 C 
ENDROOT
BRANCH   1   2
ATOM      2  C   UNL     1      61.475  32.352  12.625  1.00  0.00     0.000 C 
BRANCH   2   3
ATOM      3  C   UNL     1      62.880  31.784  12.887  1.00  0.00     0.000 C 
BRANCH   3   4
ATOM      4  C   UNL     1      63.971  32.480  12.056  1.00  0.00     0.000 C 
BRANCH   4   5
ATOM      5  C   UNL     1      64.825  31.490  11.245  1.00  0.00     0.000 C 
BRANCH   5   6
ATOM      6  C   UNL     1      64.521  31.533   9.736  1.00  0.00     0.000 C 
BRANCH   6   7
ATOM      7  C   UNL     1      64.907  30.264   8.947  1.00  0.00     0.000 C 
BRANCH   7   8
ATOM      8  C   UNL     1      63.993  29.045   9.170  1.00  0.00     0.000 C 
BRANCH   8   9
ATOM      9  C   UNL     1      62.519  29.384   9.465  1.00  0.00     0.000 C 
BRANCH   9  10
ATOM     10  C   UNL     1      62.045  28.941  10.868  1.00  0.00     0.006 C 
BRANCH  10  11
ATOM     11  C   UNL     1      60.515  28.929  11.036  1.00  0.00     0.053 C 
BRANCH  11  12
ATOM     12  C   UNL     1      60.103  28.542  12.425  1.00  0.00     0.041 C 
ATOM     13  O   UNL     1      58.920  28.180  12.658  1.00  0.00    -0.550 OA
ATOM     14  O   UNL     1      61.033  28.560  13.457  1.00  0.00    -0.550 OA
ENDBRANCH  11  12
ENDBRANCH  10  11
ENDBRANCH   9  10
ENDBRANCH   8   9
ENDBRANCH   7   8
ENDBRANCH   6   7
ENDBRANCH   5   6
ENDBRANCH   4   5
ENDBRANCH   3   4
ENDBRANCH   2   3
ENDBRANCH   1   2
BRANCH   1  15
ATOM     15  C   UNL     1      61.157  31.606  15.095  1.00  0.00     0.000 C 
BRANCH  15  16
ATOM     16  C   UNL     1      61.697  32.455  16.263  1.00  0.00     0.000 C 
BRANCH  16  17
ATOM     17  C   UNL     1      61.640  33.977  16.042  1.00  0.00     0.000 C 
BRANCH  17  18
ATOM     18  C   UNL     1      61.682  34.771  17.356  1.00  0.00    -0.000 C 
BRANCH  18  19
ATOM     19  C   UNL     1      61.892  33.838  18.556  1.00  0.00    -0.000 C 
BRANCH  19  20
ATOM     20  C   UNL     1      63.173  34.157  19.347  1.00  0.00    -0.000 C 
BRANCH  20  21
ATOM     21  C   UNL     1      64.466  33.994  18.521  1.00  0.00    -0.000 C 
BRANCH  21  22
ATOM     22  C   UNL     1      65.354  35.250  18.575  1.00  0.00    -0.000 C 
BRANCH  22  23
ATOM     23  C   UNL     1      66.025  35.558  17.228  1.00  0.00    -0.000 C 
BRANCH  23  24
ATOM     24  C   UNL     1      65.169  35.115  16.028  1.00  0.00    -0.000 C 
BRANCH  24  25
ATOM     25  C   UNL     1      65.926  34.168  15.085  1.00  0.00    -0.003 C 
ATOM     26  C   UNL     1      65.546  32.700  15.290  1.00  0.00     0.004 C 
ENDBRANCH  24  25
ENDBRANCH  23  24
ENDBRANCH  22  23
ENDBRANCH  21  22
ENDBRANCH  20  21
ENDBRANCH  19  20
ENDBRANCH  18  19
ENDBRANCH  17  18
ENDBRANCH  16  17
ENDBRANCH  15  16
ENDBRANCH   1  15
TORSDOF 22
ENDMDL
MODEL 7
REMARK VINA RESULT:    -4.385      3.527      6.998
REMARK INTER + INTRA:         -13.702
REMARK INTER:                 -10.588
REMARK INTRA:                  -3.114
REMARK UNBOUND:                -3.678
REMARK SMILES CCCCCCCCCCCCCCCCCCCCCCCC(=O)[O-]
REMARK SMILES IDX 13 1 14 2 15 3 16 4 17 5 18 6 19 7 20 8 21 9 22 10 23 11
REMARK SMILES IDX 24 12 25 13 26 14 12 15 11 16 10 17 9 18 8 19 7 20 6 21 5 22
REMARK SMILES IDX 4 23 3 24 2 25 1 26
REMARK H PARENT
REMARK Flexibility Score: inf
ROOT
ATOM      1  C   UNL     1      61.640  29.760  14.062  1.00  0.00     0.000 C 
ENDROOT
BRANCH   1   2
ATOM      2  C   UNL     1      62.702  29.264  13.064  1.00  0.00     0.000 C 
BRANCH   2   3
ATOM      3  C   UNL     1      64.119  29.745  13.417  1.00  0.00     0.000 C 
BRANCH   3   4
ATOM      4  C   UNL     1      64.121  31.017  14.280  1.00  0.00     0.000 C 
BRANCH   4   5
ATOM      5  C   UNL     1      64.795  32.211  13.581  1.00  0.00     0.000 C 
BRANCH   5   6
ATOM      6  C   UNL     1      64.163  32.540  12.216  1.00  0.00     0.000 C 
BRANCH   6   7
ATOM      7  C   UNL     1      65.096  32.374  10.998  1.00  0.00     0.000 C 
BRANCH   7   8
ATOM      8  C   UNL     1      64.491  31.617   9.801  1.00  0.00     0.000 C 
BRANCH   8   9
ATOM      9  C   UNL     1      64.872  30.125   9.716  1.00  0.00     0.000 C 
BRANCH   9  10
ATOM     10  C   UNL     1      63.701  29.204   9.307  1.00  0.00     0.006 C 
BRANCH  10  11
ATOM     11  C   UNL     1      62.425  29.958   8.894  1.00  0.00     0.053 C 
BRANCH  11  12
ATOM     12  C   UNL     1      61.182  29.272   9.374  1.00  0.00     0.041 C 
ATOM     13  O   UNL     1      61.263  28.223  10.067  1.00  0.00    -0.550 OA
ATOM     14  O   UNL     1      59.934  29.803   9.073  1.00  0.00    -0.550 OA
ENDBRANCH  11  12
ENDBRANCH  10  11
ENDBRANCH   9  10
ENDBRANCH   8   9
ENDBRANCH   7   8
ENDBRANCH   6   7
ENDBRANCH   5   6
ENDBRANCH   4   5
ENDBRANCH   3   4
ENDBRANCH   2   3
ENDBRANCH   1   2
BRANCH   1  15
ATOM     15  C   UNL     1      60.780  30.941  13.569  1.00  0.00     0.000 C 
BRANCH  15  16
ATOM     16  C   UNL     1      60.373  31.958  14.653  1.00  0.00     0.000 C 
BRANCH  16  17
ATOM     17  C   UNL     1      60.829  33.405  14.394  1.00  0.00     0.000 C 
BRANCH  17  18
ATOM     18  C   UNL     1      62.030  33.815  15.257  1.00  0.00    -0.000 C 
BRANCH  18  19
ATOM     19  C   UNL     1      61.792  33.466  16.733  1.00  0.00    -0.000 C 
BRANCH  19  20
ATOM     20  C   UNL     1      62.557  34.388  17.698  1.00  0.00    -0.000 C 
BRANCH  20  21
ATOM     21  C   UNL     1      63.923  34.856  17.154  1.00  0.00    -0.000 C 
BRANCH  21  22
ATOM     22  C   UNL     1      65.025  33.802  17.366  1.00  0.00    -0.000 C 
BRANCH  22  23
ATOM     23  C   UNL     1      66.194  34.331  18.210  1.00  0.00    -0.000 C 
BRANCH  23  24
ATOM     24  C   UNL     1      65.733  35.298  19.314  1.00  0.00    -0.000 C 
BRANCH  24  25
ATOM     25  C   UNL     1      65.660  34.624  20.693  1.00  0.00    -0.003 C 
ATOM     26  C   UNL     1      64.248  34.158  21.050  1.00  0.00     0.004 C 
ENDBRANCH  24  25
ENDBRANCH  23  24
ENDBRANCH  22  23
ENDBRANCH  21  22
ENDBRANCH  20  21
ENDBRANCH  19  20
ENDBRANCH  18  19
ENDBRANCH  17  18
ENDBRANCH  16  17
ENDBRANCH  15  16
ENDBRANCH   1  15
TORSDOF 22
ENDMDL
MODEL 8
REMARK VINA RESULT:    -4.210      2.228      6.118
REMARK INTER + INTRA:         -13.304
REMARK INTER:                 -10.707
REMARK INTRA:                  -2.597
REMARK UNBOUND:                -3.678
REMARK SMILES CCCCCCCCCCCCCCCCCCCCCCCC(=O)[O-]
REMARK SMILES IDX 13 1 14 2 15 3 16 4 17 5 18 6 19 7 20 8 21 9 22 10 23 11
REMARK SMILES IDX 24 12 25 13 26 14 12 15 11 16 10 17 9 18 8 19 7 20 6 21 5 22
REMARK SMILES IDX 4 23 3 24 2 25 1 26
REMARK H PARENT
REMARK Flexibility Score: inf
ROOT
ATOM      1  C   UNL     1      62.083  28.964  13.140  1.00  0.00     0.000 C 
ENDROOT
BRANCH   1   2
ATOM      2  C   UNL     1      60.676  28.349  13.248  1.00  0.00     0.000 C 
BRANCH   2   3
ATOM      3  C   UNL     1      59.796  28.660  12.026  1.00  0.00     0.000 C 
BRANCH   3   4
ATOM      4  C   UNL     1      60.467  29.629  11.038  1.00  0.00     0.000 C 
BRANCH   4   5
ATOM      5  C   UNL     1      60.602  29.040   9.623  1.00  0.00     0.000 C 
BRANCH   5   6
ATOM      6  C   UNL     1      61.920  29.439   8.932  1.00  0.00     0.000 C 
BRANCH   6   7
ATOM      7  C   UNL     1      63.198  29.213   9.766  1.00  0.00     0.000 C 
BRANCH   7   8
ATOM      8  C   UNL     1      64.513  29.644   9.087  1.00  0.00     0.000 C 
BRANCH   8   9
ATOM      9  C   UNL     1      65.156  30.918   9.670  1.00  0.00     0.000 C 
BRANCH   9  10
ATOM     10  C   UNL     1      64.256  31.667  10.678  1.00  0.00     0.006 C 
BRANCH  10  11
ATOM     11  C   UNL     1      64.886  31.841  12.071  1.00  0.00     0.053 C 
BRANCH  11  12
ATOM     12  C   UNL     1      65.234  33.271  12.359  1.00  0.00     0.041 C 
ATOM     13  O   UNL     1      64.914  33.792  13.460  1.00  0.00    -0.550 OA
ATOM     14  O   UNL     1      65.929  34.021  11.419  1.00  0.00    -0.550 OA
ENDBRANCH  11  12
ENDBRANCH  10  11
ENDBRANCH   9  10
ENDBRANCH   8   9
ENDBRANCH   7   8
ENDBRANCH   6   7
ENDBRANCH   5   6
ENDBRANCH   4   5
ENDBRANCH   3   4
ENDBRANCH   2   3
ENDBRANCH   1   2
BRANCH   1  15
ATOM     15  C   UNL     1      62.373  30.109  14.132  1.00  0.00     0.000 C 
BRANCH  15  16
ATOM     16  C   UNL     1      61.134  30.706  14.830  1.00  0.00     0.000 C 
BRANCH  16  17
ATOM     17  C   UNL     1      60.556  31.966  14.164  1.00  0.00     0.000 C 
BRANCH  17  18
ATOM     18  C   UNL     1      61.561  33.126  14.108  1.00  0.00    -0.000 C 
BRANCH  18  19
ATOM     19  C   UNL     1      61.658  33.835  15.466  1.00  0.00    -0.000 C 
BRANCH  19  20
ATOM     20  C   UNL     1      62.770  33.263  16.363  1.00  0.00    -0.000 C 
BRANCH  20  21
ATOM     21  C   UNL     1      63.236  34.238  17.465  1.00  0.00    -0.000 C 
BRANCH  21  22
ATOM     22  C   UNL     1      64.493  35.025  17.051  1.00  0.00    -0.000 C 
BRANCH  22  23
ATOM     23  C   UNL     1      65.346  35.451  18.255  1.00  0.00    -0.000 C 
BRANCH  23  24
ATOM     24  C   UNL     1      66.091  34.267  18.897  1.00  0.00    -0.000 C 
BRANCH  24  25
ATOM     25  C   UNL     1      65.978  34.263  20.429  1.00  0.00    -0.003 C 
ATOM     26  C   UNL     1      64.532  34.373  20.916  1.00  0.00     0.004 C 
ENDBRANCH  24  25
ENDBRANCH  23  24
ENDBRANCH  22  23
ENDBRANCH  21  22
ENDBRANCH  20  21
ENDBRANCH  19  20
ENDBRANCH  18  19
ENDBRANCH  17  18
ENDBRANCH  16  17
ENDBRANCH  15  16
ENDBRANCH   1  15
TORSDOF 22
ENDMDL
MODEL 9
REMARK VINA RESULT:    -4.152      3.501      7.369
REMARK INTER + INTRA:         -13.170
REMARK INTER:                 -10.318
REMARK INTRA:                  -2.852
REMARK UNBOUND:                -3.678
REMARK SMILES CCCCCCCCCCCCCCCCCCCCCCCC(=O)[O-]
REMARK SMILES IDX 13 1 14 2 15 3 16 4 17 5 18 6 19 7 20 8 21 9 22 10 23 11
REMARK SMILES IDX 24 12 25 13 26 14 12 15 11 16 10 17 9 18 8 19 7 20 6 21 5 22
REMARK SMILES IDX 4 23 3 24 2 25 1 26
REMARK H PARENT
REMARK Flexibility Score: inf
ROOT
ATOM      1  C   UNL     1      59.990  31.910  13.806  1.00  0.00     0.000 C 
ENDROOT
BRANCH   1   2
ATOM      2  C   UNL     1      60.602  30.613  13.247  1.00  0.00     0.000 C 
BRANCH   2   3
ATOM      3  C   UNL     1      61.821  30.136  14.053  1.00  0.00     0.000 C 
BRANCH   3   4
ATOM      4  C   UNL     1      62.758  29.228  13.240  1.00  0.00     0.000 C 
BRANCH   4   5
ATOM      5  C   UNL     1      64.174  29.811  13.091  1.00  0.00     0.000 C 
BRANCH   5   6
ATOM      6  C   UNL     1      64.170  31.310  12.738  1.00  0.00     0.000 C 
BRANCH   6   7
ATOM      7  C   UNL     1      65.095  31.717  11.572  1.00  0.00     0.000 C 
BRANCH   7   8
ATOM      8  C   UNL     1      64.493  31.547  10.163  1.00  0.00     0.000 C 
BRANCH   8   9
ATOM      9  C   UNL     1      64.792  30.194   9.489  1.00  0.00     0.000 C 
BRANCH   9  10
ATOM     10  C   UNL     1      63.542  29.309   9.285  1.00  0.00     0.006 C 
BRANCH  10  11
ATOM     11  C   UNL     1      62.232  29.955   9.769  1.00  0.00     0.053 C 
BRANCH  11  12
ATOM     12  C   UNL     1      61.056  29.039   9.607  1.00  0.00     0.041 C 
ATOM     13  O   UNL     1      59.904  29.418   9.944  1.00  0.00    -0.550 OA
ATOM     14  O   UNL     1      61.231  27.772   9.062  1.00  0.00    -0.550 OA
ENDBRANCH  11  12
ENDBRANCH  10  11
ENDBRANCH   9  10
ENDBRANCH   8   9
ENDBRANCH   7   8
ENDBRANCH   6   7
ENDBRANCH   5   6
ENDBRANCH   4   5
ENDBRANCH   3   4
ENDBRANCH   2   3
ENDBRANCH   1   2
BRANCH   1  15
ATOM     15  C   UNL     1      60.919  33.139  13.771  1.00  0.00     0.000 C 
BRANCH  15  16
ATOM     16  C   UNL     1      61.105  33.863  15.120  1.00  0.00     0.000 C 
BRANCH  16  17
ATOM     17  C   UNL     1      62.062  33.169  16.105  1.00  0.00     0.000 C 
BRANCH  17  18
ATOM     18  C   UNL     1      63.305  34.013  16.422  1.00  0.00    -0.000 C 
BRANCH  18  19
ATOM     19  C   UNL     1      64.317  33.955  15.270  1.00  0.00    -0.000 C 
BRANCH  19  20
ATOM     20  C   UNL     1      65.652  33.305  15.676  1.00  0.00    -0.000 C 
BRANCH  20  21
ATOM     21  C   UNL     1      66.770  34.326  15.976  1.00  0.00    -0.000 C 
BRANCH  21  22
ATOM     22  C   UNL     1      66.775  34.766  17.451  1.00  0.00    -0.000 C 
BRANCH  22  23
ATOM     23  C   UNL     1      66.423  33.619  18.411  1.00  0.00    -0.000 C 
BRANCH  23  24
ATOM     24  C   UNL     1      66.653  33.994  19.886  1.00  0.00    -0.000 C 
BRANCH  24  25
ATOM     25  C   UNL     1      65.578  34.950  20.424  1.00  0.00    -0.003 C 
ATOM     26  C   UNL     1      64.349  34.215  20.962  1.00  0.00     0.004 C 
ENDBRANCH  24  25
ENDBRANCH  23  24
ENDBRANCH  22  23
ENDBRANCH  21  22
ENDBRANCH  20  21
ENDBRANCH  19  20
ENDBRANCH  18  19
ENDBRANCH  17  18
ENDBRANCH  16  17
ENDBRANCH  15  16
ENDBRANCH   1  15
TORSDOF 22
ENDMDL
