MODEL 1
REMARK VINA RESULT:    -6.867      0.000      0.000
REMARK INTER + INTRA:         -13.527
REMARK INTER:                 -12.487
REMARK INTRA:                  -1.040
REMARK UNBOUND:                -1.040
REMARK SMILES CCCCCCCCCCCCCCCC(=O)[O-]
REMARK SMILES IDX 9 1 10 2 11 3 12 4 13 5 14 6 15 7 16 8 17 9 18 10 8 11 7 12
REMARK SMILES IDX 6 13 5 14 4 15 3 16 2 17 1 18
REMARK H PARENT
REMARK Flexibility Score: inf
ROOT
ATOM      1  C   UNL     1     -22.849 -22.755  31.342  1.00  0.00     0.000 C 
ENDROOT
BRANCH   1   2
ATOM      2  C   UNL     1     -22.564 -24.122  30.692  1.00  0.00     0.000 C 
BRANCH   2   3
ATOM      3  C   UNL     1     -22.813 -24.121  29.176  1.00  0.00     0.000 C 
BRANCH   3   4
ATOM      4  C   UNL     1     -23.351 -25.469  28.666  1.00  0.00     0.000 C 
BRANCH   4   5
ATOM      5  C   UNL     1     -23.937 -26.335  29.793  1.00  0.00     0.000 C 
BRANCH   5   6
ATOM      6  C   UNL     1     -25.359 -26.833  29.479  1.00  0.00     0.006 C 
BRANCH   6   7
ATOM      7  C   UNL     1     -25.472 -27.403  28.058  1.00  0.00     0.053 C 
BRANCH   7   8
ATOM      8  C   UNL     1     -26.509 -28.481  27.973  1.00  0.00     0.041 C 
ATOM      9  O   UNL     1     -26.847 -29.120  29.004  1.00  0.00    -0.550 OA
ATOM     10  O   UNL     1     -27.082 -28.798  26.748  1.00  0.00    -0.550 OA
ENDBRANCH   7   8
ENDBRANCH   6   7
ENDBRANCH   5   6
ENDBRANCH   4   5
ENDBRANCH   3   4
ENDBRANCH   2   3
ENDBRANCH   1   2
BRANCH   1  11
ATOM     11  C   UNL     1     -21.614 -21.839  31.360  1.00  0.00     0.000 C 
BRANCH  11  12
ATOM     12  C   UNL     1     -21.897 -20.456  30.748  1.00  0.00    -0.000 C 
BRANCH  12  13
ATOM     13  C   UNL     1     -22.150 -20.512  29.230  1.00  0.00    -0.000 C 
BRANCH  13  14
ATOM     14  C   UNL     1     -21.292 -19.546  28.391  1.00  0.00    -0.000 C 
BRANCH  14  15
ATOM     15  C   UNL     1     -20.080 -18.998  29.164  1.00  0.00    -0.000 C 
BRANCH  15  16
ATOM     16  C   UNL     1     -20.193 -17.492  29.450  1.00  0.00    -0.000 C 
BRANCH  16  17
ATOM     17  C   UNL     1     -19.527 -17.093  30.775  1.00  0.00    -0.003 C 
ATOM     18  C   UNL     1     -18.674 -18.232  31.326  1.00  0.00     0.004 C 
ENDBRANCH  16  17
ENDBRANCH  15  16
ENDBRANCH  14  15
ENDBRANCH  13  14
ENDBRANCH  12  13
ENDBRANCH  11  12
ENDBRANCH   1  11
TORSDOF 14
ENDMDL
MODEL 2
REMARK VINA RESULT:    -6.772      1.162      1.612
REMARK INTER + INTRA:         -13.354
REMARK INTER:                 -12.728
REMARK INTRA:                  -0.626
REMARK UNBOUND:                -1.040
REMARK SMILES CCCCCCCCCCCCCCCC(=O)[O-]
REMARK SMILES IDX 9 1 10 2 11 3 12 4 13 5 14 6 15 7 16 8 17 9 18 10 8 11 7 12
REMARK SMILES IDX 6 13 5 14 4 15 3 16 2 17 1 18
REMARK H PARENT
REMARK Flexibility Score: inf
ROOT
ATOM      1  C   UNL     1     -22.741 -22.599  31.649  1.00  0.00     0.000 C 
ENDROOT
BRANCH   1   2
ATOM      2  C   UNL     1     -22.956 -23.975  30.993  1.00  0.00     0.000 C 
BRANCH   2   3
ATOM      3  C   UNL     1     -22.702 -23.955  29.477  1.00  0.00     0.000 C 
BRANCH   3   4
ATOM      4  C   UNL     1     -23.385 -25.125  28.749  1.00  0.00     0.000 C 
BRANCH   4   5
ATOM      5  C   UNL     1     -23.856 -26.226  29.714  1.00  0.00     0.000 C 
BRANCH   5   6
ATOM      6  C   UNL     1     -25.269 -26.738  29.384  1.00  0.00     0.006 C 
BRANCH   6   7
ATOM      7  C   UNL     1     -25.328 -27.432  28.016  1.00  0.00     0.053 C 
BRANCH   7   8
ATOM      8  C   UNL     1     -26.464 -28.406  27.936  1.00  0.00     0.041 C 
ATOM      9  O   UNL     1     -27.049 -28.609  26.840  1.00  0.00    -0.550 OA
ATOM     10  O   UNL     1     -26.894 -29.068  29.078  1.00  0.00    -0.550 OA
ENDBRANCH   7   8
ENDBRANCH   6   7
ENDBRANCH   5   6
ENDBRANCH   4   5
ENDBRANCH   3   4
ENDBRANCH   2   3
ENDBRANCH   1   2
BRANCH   1  11
ATOM     11  C   UNL     1     -21.995 -21.615  30.733  1.00  0.00     0.000 C 
BRANCH  11  12
ATOM     12  C   UNL     1     -21.016 -20.716  31.507  1.00  0.00    -0.000 C 
BRANCH  12  13
ATOM     13  C   UNL     1     -20.840 -19.327  30.866  1.00  0.00    -0.000 C 
BRANCH  13  14
ATOM     14  C   UNL     1     -20.897 -19.308  29.327  1.00  0.00    -0.000 C 
BRANCH  14  15
ATOM     15  C   UNL     1     -20.501 -17.946  28.732  1.00  0.00    -0.000 C 
BRANCH  15  16
ATOM     16  C   UNL     1     -19.048 -17.562  29.052  1.00  0.00    -0.000 C 
BRANCH  16  17
ATOM     17  C   UNL     1     -18.483 -16.524  28.070  1.00  0.00    -0.003 C 
ATOM     18  C   UNL     1     -17.569 -15.534  28.785  1.00  0.00     0.004 C 
ENDBRANCH  16  17
ENDBRANCH  15  16
ENDBRANCH  14  15
ENDBRANCH  13  14
ENDBRANCH  12  13
ENDBRANCH  11  12
ENDBRANCH   1  11
TORSDOF 14
ENDMDL
MODEL 3
REMARK VINA RESULT:    -6.755      1.295      1.793
REMARK INTER + INTRA:         -13.324
REMARK INTER:                 -12.774
REMARK INTRA:                  -0.550
REMARK UNBOUND:                -1.040
REMARK SMILES CCCCCCCCCCCCCCCC(=O)[O-]
REMARK SMILES IDX 9 1 10 2 11 3 12 4 13 5 14 6 15 7 16 8 17 9 18 10 8 11 7 12
REMARK SMILES IDX 6 13 5 14 4 15 3 16 2 17 1 18
REMARK H PARENT
REMARK Flexibility Score: inf
ROOT
ATOM      1  C   UNL     1     -21.771 -21.892  31.377  1.00  0.00     0.000 C 
ENDROOT
BRANCH   1   2
ATOM      2  C   UNL     1     -22.868 -22.967  31.473  1.00  0.00     0.000 C 
BRANCH   2   3
ATOM      3  C   UNL     1     -22.506 -24.253  30.712  1.00  0.00     0.000 C 
BRANCH   3   4
ATOM      4  C   UNL     1     -23.748 -25.043  30.266  1.00  0.00     0.000 C 
BRANCH   4   5
ATOM      5  C   UNL     1     -23.625 -25.574  28.828  1.00  0.00     0.000 C 
BRANCH   5   6
ATOM      6  C   UNL     1     -24.267 -26.962  28.652  1.00  0.00     0.006 C 
BRANCH   6   7
ATOM      7  C   UNL     1     -25.799 -26.887  28.587  1.00  0.00     0.053 C 
BRANCH   7   8
ATOM      8  C   UNL     1     -26.395 -28.149  28.044  1.00  0.00     0.041 C 
ATOM      9  O   UNL     1     -26.734 -29.078  28.824  1.00  0.00    -0.550 OA
ATOM     10  O   UNL     1     -26.549 -28.311  26.673  1.00  0.00    -0.550 OA
ENDBRANCH   7   8
ENDBRANCH   6   7
ENDBRANCH   5   6
ENDBRANCH   4   5
ENDBRANCH   3   4
ENDBRANCH   2   3
ENDBRANCH   1   2
BRANCH   1  11
ATOM     11  C   UNL     1     -22.238 -20.634  30.626  1.00  0.00     0.000 C 
BRANCH  11  12
ATOM     12  C   UNL     1     -22.123 -20.783  29.098  1.00  0.00    -0.000 C 
BRANCH  12  13
ATOM     13  C   UNL     1     -21.253 -19.689  28.452  1.00  0.00    -0.000 C 
BRANCH  13  14
ATOM     14  C   UNL     1     -20.670 -18.655  29.434  1.00  0.00    -0.000 C 
BRANCH  14  15
ATOM     15  C   UNL     1     -20.066 -17.432  28.723  1.00  0.00    -0.000 C 
BRANCH  15  16
ATOM     16  C   UNL     1     -18.529 -17.462  28.698  1.00  0.00    -0.000 C 
BRANCH  16  17
ATOM     17  C   UNL     1     -17.929 -16.275  27.932  1.00  0.00    -0.003 C 
ATOM     18  C   UNL     1     -17.557 -15.141  28.882  1.00  0.00     0.004 C 
ENDBRANCH  16  17
ENDBRANCH  15  16
ENDBRANCH  14  15
ENDBRANCH  13  14
ENDBRANCH  12  13
ENDBRANCH  11  12
ENDBRANCH   1  11
TORSDOF 14
ENDMDL
MODEL 4
REMARK VINA RESULT:    -6.749      5.109      9.597
REMARK INTER + INTRA:         -13.312
REMARK INTER:                 -12.346
REMARK INTRA:                  -0.966
REMARK UNBOUND:                -1.040
REMARK SMILES CCCCCCCCCCCCCCCC(=O)[O-]
REMARK SMILES IDX 9 1 10 2 11 3 12 4 13 5 14 6 15 7 16 8 17 9 18 10 8 11 7 12
REMARK SMILES IDX 6 13 5 14 4 15 3 16 2 17 1 18
REMARK H PARENT
REMARK Flexibility Score: inf
ROOT
ATOM      1  C   UNL     1     -22.582 -22.268  31.226  1.00  0.00     0.000 C 
ENDROOT
BRANCH   1   2
ATOM      2  C   UNL     1     -21.352 -21.564  31.826  1.00  0.00     0.000 C 
BRANCH   2   3
ATOM      3  C   UNL     1     -20.993 -20.266  31.086  1.00  0.00     0.000 C 
BRANCH   3   4
ATOM      4  C   UNL     1     -21.749 -20.118  29.755  1.00  0.00     0.000 C 
BRANCH   4   5
ATOM      5  C   UNL     1     -20.938 -19.349  28.698  1.00  0.00     0.000 C 
BRANCH   5   6
ATOM      6  C   UNL     1     -20.615 -17.909  29.132  1.00  0.00     0.006 C 
BRANCH   6   7
ATOM      7  C   UNL     1     -19.109 -17.615  29.087  1.00  0.00     0.053 C 
BRANCH   7   8
ATOM      8  C   UNL     1     -18.621 -17.015  30.370  1.00  0.00     0.041 C 
ATOM      9  O   UNL     1     -18.682 -17.674  31.442  1.00  0.00    -0.550 OA
ATOM     10  O   UNL     1     -18.125 -15.718  30.387  1.00  0.00    -0.550 OA
ENDBRANCH   7   8
ENDBRANCH   6   7
ENDBRANCH   5   6
ENDBRANCH   4   5
ENDBRANCH   3   4
ENDBRANCH   2   3
ENDBRANCH   1   2
BRANCH   1  11
ATOM     11  C   UNL     1     -22.257 -23.667  30.678  1.00  0.00     0.000 C 
BRANCH  11  12
ATOM     12  C   UNL     1     -22.437 -23.760  29.153  1.00  0.00    -0.000 C 
BRANCH  12  13
ATOM     13  C   UNL     1     -23.378 -24.901  28.727  1.00  0.00    -0.000 C 
BRANCH  13  14
ATOM     14  C   UNL     1     -23.538 -26.034  29.759  1.00  0.00    -0.000 C 
BRANCH  14  15
ATOM     15  C   UNL     1     -25.008 -26.416  30.003  1.00  0.00    -0.000 C 
BRANCH  15  16
ATOM     16  C   UNL     1     -25.830 -26.459  28.705  1.00  0.00    -0.000 C 
BRANCH  16  17
ATOM     17  C   UNL     1     -25.723 -27.811  27.984  1.00  0.00    -0.003 C 
ATOM     18  C   UNL     1     -26.860 -28.743  28.393  1.00  0.00     0.004 C 
ENDBRANCH  16  17
ENDBRANCH  15  16
ENDBRANCH  14  15
ENDBRANCH  13  14
ENDBRANCH  12  13
ENDBRANCH  11  12
ENDBRANCH   1  11
TORSDOF 14
ENDMDL
MODEL 5
REMARK VINA RESULT:    -6.742      5.587      9.562
REMARK INTER + INTRA:         -13.300
REMARK INTER:                 -12.266
REMARK INTRA:                  -1.034
REMARK UNBOUND:                -1.040
REMARK SMILES CCCCCCCCCCCCCCCC(=O)[O-]
REMARK SMILES IDX 9 1 10 2 11 3 12 4 13 5 14 6 15 7 16 8 17 9 18 10 8 11 7 12
REMARK SMILES IDX 6 13 5 14 4 15 3 16 2 17 1 18
REMARK H PARENT
REMARK Flexibility Score: inf
ROOT
ATOM      1  C   UNL     1     -21.402 -21.603  31.696  1.00  0.00     0.000 C 
ENDROOT
BRANCH   1   2
ATOM      2  C   UNL     1     -21.365 -20.204  31.054  1.00  0.00     0.000 C 
BRANCH   2   3
ATOM      3  C   UNL     1     -22.075 -20.159  29.692  1.00  0.00     0.000 C 
BRANCH   3   4
ATOM      4  C   UNL     1     -21.170 -19.616  28.573  1.00  0.00     0.000 C 
BRANCH   4   5
ATOM      5  C   UNL     1     -20.601 -18.225  28.896  1.00  0.00     0.000 C 
BRANCH   5   6
ATOM      6  C   UNL     1     -19.074 -18.238  29.085  1.00  0.00     0.006 C 
BRANCH   6   7
ATOM      7  C   UNL     1     -18.395 -17.049  28.393  1.00  0.00     0.053 C 
BRANCH   7   8
ATOM      8  C   UNL     1     -18.028 -15.973  29.368  1.00  0.00     0.041 C 
ATOM      9  O   UNL     1     -18.220 -16.142  30.601  1.00  0.00    -0.550 OA
ATOM     10  O   UNL     1     -17.500 -14.772  28.913  1.00  0.00    -0.550 OA
ENDBRANCH   7   8
ENDBRANCH   6   7
ENDBRANCH   5   6
ENDBRANCH   4   5
ENDBRANCH   3   4
ENDBRANCH   2   3
ENDBRANCH   1   2
BRANCH   1  11
ATOM     11  C   UNL     1     -22.590 -22.448  31.209  1.00  0.00     0.000 C 
BRANCH  11  12
ATOM     12  C   UNL     1     -22.144 -23.731  30.487  1.00  0.00    -0.000 C 
BRANCH  12  13
ATOM     13  C   UNL     1     -22.373 -23.675  28.965  1.00  0.00    -0.000 C 
BRANCH  13  14
ATOM     14  C   UNL     1     -23.003 -24.941  28.354  1.00  0.00    -0.000 C 
BRANCH  14  15
ATOM     15  C   UNL     1     -24.299 -25.366  29.065  1.00  0.00    -0.000 C 
BRANCH  15  16
ATOM     16  C   UNL     1     -24.294 -26.851  29.463  1.00  0.00    -0.000 C 
BRANCH  16  17
ATOM     17  C   UNL     1     -25.009 -27.105  30.798  1.00  0.00    -0.003 C 
ATOM     18  C   UNL     1     -25.560 -25.807  31.381  1.00  0.00     0.004 C 
ENDBRANCH  16  17
ENDBRANCH  15  16
ENDBRANCH  14  15
ENDBRANCH  13  14
ENDBRANCH  12  13
ENDBRANCH  11  12
ENDBRANCH   1  11
TORSDOF 14
ENDMDL
MODEL 6
REMARK VINA RESULT:    -6.726      5.681      9.783
REMARK INTER + INTRA:         -13.271
REMARK INTER:                 -12.144
REMARK INTRA:                  -1.127
REMARK UNBOUND:                -1.040
REMARK SMILES CCCCCCCCCCCCCCCC(=O)[O-]
REMARK SMILES IDX 9 1 10 2 11 3 12 4 13 5 14 6 15 7 16 8 17 9 18 10 8 11 7 12
REMARK SMILES IDX 6 13 5 14 4 15 3 16 2 17 1 18
REMARK H PARENT
REMARK Flexibility Score: inf
ROOT
ATOM      1  C   UNL     1     -22.665 -21.154  29.349  1.00  0.00     0.000 C 
ENDROOT
BRANCH   1   2
ATOM      2  C   UNL     1     -21.564 -20.091  29.525  1.00  0.00     0.000 C 
BRANCH   2   3
ATOM      3  C   UNL     1     -21.053 -20.000  30.971  1.00  0.00     0.000 C 
BRANCH   3   4
ATOM      4  C   UNL     1     -20.237 -18.722  31.229  1.00  0.00     0.000 C 
BRANCH   4   5
ATOM      5  C   UNL     1     -20.373 -17.696  30.091  1.00  0.00     0.000 C 
BRANCH   5   6
ATOM      6  C   UNL     1     -19.028 -17.051  29.712  1.00  0.00     0.006 C 
BRANCH   6   7
ATOM      7  C   UNL     1     -18.794 -17.053  28.195  1.00  0.00     0.053 C 
BRANCH   7   8
ATOM      8  C   UNL     1     -17.850 -15.967  27.777  1.00  0.00     0.041 C 
ATOM      9  O   UNL     1     -17.628 -15.754  26.556  1.00  0.00    -0.550 OA
ATOM     10  O   UNL     1     -17.194 -15.209  28.738  1.00  0.00    -0.550 OA
ENDBRANCH   7   8
ENDBRANCH   6   7
ENDBRANCH   5   6
ENDBRANCH   4   5
ENDBRANCH   3   4
ENDBRANCH   2   3
ENDBRANCH   1   2
BRANCH   1  11
ATOM     11  C   UNL     1     -22.241 -22.297  28.413  1.00  0.00     0.000 C 
BRANCH  11  12
ATOM     12  C   UNL     1     -22.332 -23.677  29.088  1.00  0.00    -0.000 C 
BRANCH  12  13
ATOM     13  C   UNL     1     -22.203 -23.605  30.620  1.00  0.00    -0.000 C 
BRANCH  13  14
ATOM     14  C   UNL     1     -23.461 -24.028  31.401  1.00  0.00    -0.000 C 
BRANCH  14  15
ATOM     15  C   UNL     1     -23.789 -25.522  31.241  1.00  0.00    -0.000 C 
BRANCH  15  16
ATOM     16  C   UNL     1     -25.225 -25.762  30.747  1.00  0.00    -0.000 C 
BRANCH  16  17
ATOM     17  C   UNL     1     -25.300 -25.957  29.226  1.00  0.00    -0.003 C 
ATOM     18  C   UNL     1     -24.181 -26.871  28.734  1.00  0.00     0.004 C 
ENDBRANCH  16  17
ENDBRANCH  15  16
ENDBRANCH  14  15
ENDBRANCH  13  14
ENDBRANCH  12  13
ENDBRANCH  11  12
ENDBRANCH   1  11
TORSDOF 14
ENDMDL
MODEL 7
REMARK VINA RESULT:    -6.703      1.105      2.190
REMARK INTER + INTRA:         -13.230
REMARK INTER:                 -11.978
REMARK INTRA:                  -1.252
REMARK UNBOUND:                -1.040
REMARK SMILES CCCCCCCCCCCCCCCC(=O)[O-]
REMARK SMILES IDX 9 1 10 2 11 3 12 4 13 5 14 6 15 7 16 8 17 9 18 10 8 11 7 12
REMARK SMILES IDX 6 13 5 14 4 15 3 16 2 17 1 18
REMARK H PARENT
REMARK Flexibility Score: inf
ROOT
ATOM      1  C   UNL     1     -21.813 -23.448  28.741  1.00  0.00     0.000 C 
ENDROOT
BRANCH   1   2
ATOM      2  C   UNL     1     -23.121 -24.249  28.870  1.00  0.00     0.000 C 
BRANCH   2   3
ATOM      3  C   UNL     1     -23.102 -25.226  30.057  1.00  0.00     0.000 C 
BRANCH   3   4
ATOM      4  C   UNL     1     -24.288 -25.015  31.013  1.00  0.00     0.000 C 
BRANCH   4   5
ATOM      5  C   UNL     1     -25.414 -26.039  30.792  1.00  0.00     0.000 C 
BRANCH   5   6
ATOM      6  C   UNL     1     -24.986 -27.202  29.880  1.00  0.00     0.006 C 
BRANCH   6   7
ATOM      7  C   UNL     1     -25.669 -27.143  28.507  1.00  0.00     0.053 C 
BRANCH   7   8
ATOM      8  C   UNL     1     -26.487 -28.369  28.239  1.00  0.00     0.041 C 
ATOM      9  O   UNL     1     -26.878 -28.629  27.071  1.00  0.00    -0.550 OA
ATOM     10  O   UNL     1     -26.842 -29.209  29.286  1.00  0.00    -0.550 OA
ENDBRANCH   7   8
ENDBRANCH   6   7
ENDBRANCH   5   6
ENDBRANCH   4   5
ENDBRANCH   3   4
ENDBRANCH   2   3
ENDBRANCH   1   2
BRANCH   1  11
ATOM     11  C   UNL     1     -22.056 -21.939  28.570  1.00  0.00     0.000 C 
BRANCH  11  12
ATOM     12  C   UNL     1     -22.533 -21.268  29.870  1.00  0.00    -0.000 C 
BRANCH  12  13
ATOM     13  C   UNL     1     -21.778 -21.767  31.115  1.00  0.00    -0.000 C 
BRANCH  13  14
ATOM     14  C   UNL     1     -20.915 -20.706  31.823  1.00  0.00    -0.000 C 
BRANCH  14  15
ATOM     15  C   UNL     1     -20.928 -19.347  31.101  1.00  0.00    -0.000 C 
BRANCH  15  16
ATOM     16  C   UNL     1     -19.517 -18.768  30.907  1.00  0.00    -0.000 C 
BRANCH  16  17
ATOM     17  C   UNL     1     -19.274 -18.277  29.472  1.00  0.00    -0.003 C 
ATOM     18  C   UNL     1     -20.568 -18.278  28.665  1.00  0.00     0.004 C 
ENDBRANCH  16  17
ENDBRANCH  15  16
ENDBRANCH  14  15
ENDBRANCH  13  14
ENDBRANCH  12  13
ENDBRANCH  11  12
ENDBRANCH   1  11
TORSDOF 14
ENDMDL
MODEL 8
REMARK VINA RESULT:    -6.640      2.278      3.606
REMARK INTER + INTRA:         -13.115
REMARK INTER:                 -12.471
REMARK INTRA:                  -0.644
REMARK UNBOUND:                -1.040
REMARK SMILES CCCCCCCCCCCCCCCC(=O)[O-]
REMARK SMILES IDX 9 1 10 2 11 3 12 4 13 5 14 6 15 7 16 8 17 9 18 10 8 11 7 12
REMARK SMILES IDX 6 13 5 14 4 15 3 16 2 17 1 18
REMARK H PARENT
REMARK Flexibility Score: inf
ROOT
ATOM      1  C   UNL     1     -22.309 -20.501  29.608  1.00  0.00     0.000 C 
ENDROOT
BRANCH   1   2
ATOM      2  C   UNL     1     -21.724 -20.929  30.966  1.00  0.00     0.000 C 
BRANCH   2   3
ATOM      3  C   UNL     1     -22.133 -22.356  31.364  1.00  0.00     0.000 C 
BRANCH   3   4
ATOM      4  C   UNL     1     -22.053 -23.342  30.186  1.00  0.00     0.000 C 
BRANCH   4   5
ATOM      5  C   UNL     1     -23.029 -24.521  30.335  1.00  0.00     0.000 C 
BRANCH   5   6
ATOM      6  C   UNL     1     -23.456 -25.112  28.980  1.00  0.00     0.006 C 
BRANCH   6   7
ATOM      7  C   UNL     1     -23.725 -26.620  29.065  1.00  0.00     0.053 C 
BRANCH   7   8
ATOM      8  C   UNL     1     -25.154 -26.911  29.410  1.00  0.00     0.041 C 
ATOM      9  O   UNL     1     -26.010 -27.059  28.499  1.00  0.00    -0.550 OA
ATOM     10  O   UNL     1     -25.545 -26.991  30.741  1.00  0.00    -0.550 OA
ENDBRANCH   7   8
ENDBRANCH   6   7
ENDBRANCH   5   6
ENDBRANCH   4   5
ENDBRANCH   3   4
ENDBRANCH   2   3
ENDBRANCH   1   2
BRANCH   1  11
ATOM     11  C   UNL     1     -21.297 -19.734  28.742  1.00  0.00     0.000 C 
BRANCH  11  12
ATOM     12  C   UNL     1     -20.268 -18.959  29.583  1.00  0.00    -0.000 C 
BRANCH  12  13
ATOM     13  C   UNL     1     -19.689 -17.736  28.848  1.00  0.00    -0.000 C 
BRANCH  13  14
ATOM     14  C   UNL     1     -18.743 -16.858  29.689  1.00  0.00    -0.000 C 
BRANCH  14  15
ATOM     15  C   UNL     1     -17.919 -15.880  28.833  1.00  0.00    -0.000 C 
BRANCH  15  16
ATOM     16  C   UNL     1     -18.245 -15.987  27.335  1.00  0.00    -0.000 C 
BRANCH  16  17
ATOM     17  C   UNL     1     -17.049 -15.616  26.445  1.00  0.00    -0.003 C 
ATOM     18  C   UNL     1     -17.503 -15.280  25.028  1.00  0.00     0.004 C 
ENDBRANCH  16  17
ENDBRANCH  15  16
ENDBRANCH  14  15
ENDBRANCH  13  14
ENDBRANCH  12  13
ENDBRANCH  11  12
ENDBRANCH   1  11
TORSDOF 14
ENDMDL
MODEL 9
REMARK VINA RESULT:    -6.603      4.847      9.724
REMARK INTER + INTRA:         -13.047
REMARK INTER:                 -12.291
REMARK INTRA:                  -0.756
REMARK UNBOUND:                -1.040
REMARK SMILES CCCCCCCCCCCCCCCC(=O)[O-]
REMARK SMILES IDX 9 1 10 2 11 3 12 4 13 5 14 6 15 7 16 8 17 9 18 10 8 11 7 12
REMARK SMILES IDX 6 13 5 14 4 15 3 16 2 17 1 18
REMARK H PARENT
REMARK Flexibility Score: inf
ROOT
ATOM      1  C   UNL     1     -23.212 -24.338  30.974  1.00  0.00     0.000 C 
ENDROOT
BRANCH   1   2
ATOM      2  C   UNL     1     -23.122 -22.982  31.698  1.00  0.00     0.000 C 
BRANCH   2   3
ATOM      3  C   UNL     1     -21.897 -22.161  31.265  1.00  0.00     0.000 C 
BRANCH   3   4
ATOM      4  C   UNL     1     -22.287 -20.850  30.560  1.00  0.00     0.000 C 
BRANCH   4   5
ATOM      5  C   UNL     1     -21.620 -20.700  29.182  1.00  0.00     0.000 C 
BRANCH   5   6
ATOM      6  C   UNL     1     -21.133 -19.266  28.913  1.00  0.00     0.006 C 
BRANCH   6   7
ATOM      7  C   UNL     1     -20.517 -18.620  30.162  1.00  0.00     0.053 C 
BRANCH   7   8
ATOM      8  C   UNL     1     -19.258 -17.876  29.839  1.00  0.00     0.041 C 
ATOM      9  O   UNL     1     -18.528 -18.248  28.882  1.00  0.00    -0.550 OA
ATOM     10  O   UNL     1     -18.874 -16.789  30.614  1.00  0.00    -0.550 OA
ENDBRANCH   7   8
ENDBRANCH   6   7
ENDBRANCH   5   6
ENDBRANCH   4   5
ENDBRANCH   3   4
ENDBRANCH   2   3
ENDBRANCH   1   2
BRANCH   1  11
ATOM     11  C   UNL     1     -22.707 -24.272  29.524  1.00  0.00     0.000 C 
BRANCH  11  12
ATOM     12  C   UNL     1     -23.337 -25.354  28.630  1.00  0.00    -0.000 C 
BRANCH  12  13
ATOM     13  C   UNL     1     -24.252 -26.317  29.406  1.00  0.00    -0.000 C 
BRANCH  13  14
ATOM     14  C   UNL     1     -25.564 -26.689  28.690  1.00  0.00    -0.000 C 
BRANCH  14  15
ATOM     15  C   UNL     1     -25.970 -28.157  28.911  1.00  0.00    -0.000 C 
BRANCH  15  16
ATOM     16  C   UNL     1     -26.956 -28.663  27.846  1.00  0.00    -0.000 C 
BRANCH  16  17
ATOM     17  C   UNL     1     -26.557 -28.240  26.425  1.00  0.00    -0.003 C 
ATOM     18  C   UNL     1     -27.284 -29.079  25.378  1.00  0.00     0.004 C 
ENDBRANCH  16  17
ENDBRANCH  15  16
ENDBRANCH  14  15
ENDBRANCH  13  14
ENDBRANCH  12  13
ENDBRANCH  11  12
ENDBRANCH   1  11
TORSDOF 14
ENDMDL
