MODEL 1
REMARK VINA RESULT:    -1.365      0.000      0.000
REMARK INTER + INTRA:          -3.030
REMARK INTER:                  -2.561
REMARK INTRA:                  -0.468
REMARK UNBOUND:                -0.468
REMARK SMILES CCCCCCCCC=CCCCCCCCC(=O)[O-]
REMARK SMILES IDX 10 1 9 2 11 3 12 4 13 5 14 6 15 7 16 8 17 9 18 10 19 11
REMARK SMILES IDX 20 12 8 13 7 14 6 15 5 16 4 17 3 18 2 19 1 20
REMARK H PARENT
REMARK Flexibility Score: inf
ROOT
ATOM      1  C   UNL     1     125.801 133.243 126.104  1.00  0.00    -0.031 C 
ATOM      2  C   UNL     1     125.320 133.856 127.203  1.00  0.00    -0.031 C 
ENDROOT
BRANCH   1   3
ATOM      3  C   UNL     1     125.515 133.649 124.677  1.00  0.00     0.027 C 
BRANCH   3   4
ATOM      4  C   UNL     1     125.155 132.467 123.759  1.00  0.00     0.004 C 
BRANCH   4   5
ATOM      5  C   UNL     1     124.074 131.528 124.323  1.00  0.00     0.000 C 
BRANCH   5   6
ATOM      6  C   UNL     1     123.225 132.194 125.419  1.00  0.00     0.000 C 
BRANCH   6   7
ATOM      7  C   UNL     1     122.823 131.200 126.528  1.00  0.00     0.000 C 
BRANCH   7   8
ATOM      8  C   UNL     1     123.633 131.364 127.826  1.00  0.00     0.006 C 
BRANCH   8   9
ATOM      9  C   UNL     1     122.831 130.994 129.080  1.00  0.00     0.053 C 
BRANCH   9  10
ATOM     10  C   UNL     1     122.796 129.509 129.259  1.00  0.00     0.041 C 
ATOM     11  O   UNL     1     123.837 128.886 129.595  1.00  0.00    -0.550 OA
ATOM     12  O   UNL     1     121.600 128.820 129.105  1.00  0.00    -0.550 OA
ENDBRANCH   9  10
ENDBRANCH   8   9
ENDBRANCH   7   8
ENDBRANCH   6   7
ENDBRANCH   5   6
ENDBRANCH   4   5
ENDBRANCH   3   4
ENDBRANCH   1   3
BRANCH   2  13
ATOM     13  C   UNL     1     124.372 135.030 127.205  1.00  0.00     0.027 C 
BRANCH  13  14
ATOM     14  C   UNL     1     123.494 135.054 128.468  1.00  0.00     0.004 C 
BRANCH  14  15
ATOM     15  C   UNL     1     121.990 134.822 128.218  1.00  0.00     0.000 C 
BRANCH  15  16
ATOM     16  C   UNL     1     121.048 135.822 128.913  1.00  0.00     0.000 C 
BRANCH  16  17
ATOM     17  C   UNL     1     120.971 137.173 128.188  1.00  0.00    -0.000 C 
BRANCH  17  18
ATOM     18  C   UNL     1     120.875 136.975 126.668  1.00  0.00    -0.000 C 
BRANCH  18  19
ATOM     19  C   UNL     1     120.902 138.303 125.897  1.00  0.00    -0.003 C 
ATOM     20  C   UNL     1     121.640 138.198 124.562  1.00  0.00     0.004 C 
ENDBRANCH  18  19
ENDBRANCH  17  18
ENDBRANCH  16  17
ENDBRANCH  15  16
ENDBRANCH  14  15
ENDBRANCH  13  14
ENDBRANCH   2  13
TORSDOF 15
ENDMDL
MODEL 2
REMARK VINA RESULT:    -0.983      3.102      6.156
REMARK INTER + INTRA:          -2.313
REMARK INTER:                  -1.663
REMARK INTRA:                  -0.650
REMARK UNBOUND:                -0.468
REMARK SMILES CCCCCCCCC=CCCCCCCCC(=O)[O-]
REMARK SMILES IDX 10 1 9 2 11 3 12 4 13 5 14 6 15 7 16 8 17 9 18 10 19 11
REMARK SMILES IDX 20 12 8 13 7 14 6 15 5 16 4 17 3 18 2 19 1 20
REMARK H PARENT
REMARK Flexibility Score: inf
ROOT
ATOM      1  C   UNL     1     125.641 134.161 123.435  1.00  0.00    -0.031 C 
ATOM      2  C   UNL     1     125.570 132.830 123.245  1.00  0.00    -0.031 C 
ENDROOT
BRANCH   1   3
ATOM      3  C   UNL     1     125.555 134.863 124.770  1.00  0.00     0.027 C 
BRANCH   3   4
ATOM      4  C   UNL     1     125.780 133.929 125.974  1.00  0.00     0.004 C 
BRANCH   4   5
ATOM      5  C   UNL     1     125.320 134.508 127.324  1.00  0.00     0.000 C 
BRANCH   5   6
ATOM      6  C   UNL     1     123.826 134.871 127.334  1.00  0.00     0.000 C 
BRANCH   6   7
ATOM      7  C   UNL     1     123.294 135.103 128.764  1.00  0.00     0.000 C 
BRANCH   7   8
ATOM      8  C   UNL     1     121.759 135.176 128.846  1.00  0.00     0.006 C 
BRANCH   8   9
ATOM      9  C   UNL     1     121.104 135.486 127.495  1.00  0.00     0.053 C 
BRANCH   9  10
ATOM     10  C   UNL     1     120.965 136.964 127.308  1.00  0.00     0.041 C 
ATOM     11  O   UNL     1     120.883 137.451 126.150  1.00  0.00    -0.550 OA
ATOM     12  O   UNL     1     120.875 137.799 128.414  1.00  0.00    -0.550 OA
ENDBRANCH   9  10
ENDBRANCH   8   9
ENDBRANCH   7   8
ENDBRANCH   6   7
ENDBRANCH   5   6
ENDBRANCH   4   5
ENDBRANCH   3   4
ENDBRANCH   1   3
BRANCH   2  13
ATOM     13  C   UNL     1     125.346 131.803 124.328  1.00  0.00     0.027 C 
BRANCH  13  14
ATOM     14  C   UNL     1     123.860 131.435 124.470  1.00  0.00     0.004 C 
BRANCH  14  15
ATOM     15  C   UNL     1     123.140 132.090 125.667  1.00  0.00     0.000 C 
BRANCH  15  16
ATOM     16  C   UNL     1     122.757 131.129 126.806  1.00  0.00     0.000 C 
BRANCH  16  17
ATOM     17  C   UNL     1     123.643 131.293 128.050  1.00  0.00    -0.000 C 
BRANCH  17  18
ATOM     18  C   UNL     1     123.068 130.511 129.240  1.00  0.00    -0.000 C 
BRANCH  18  19
ATOM     19  C   UNL     1     121.781 129.754 128.882  1.00  0.00    -0.003 C 
ATOM     20  C   UNL     1     121.940 128.237 128.981  1.00  0.00     0.004 C 
ENDBRANCH  18  19
ENDBRANCH  17  18
ENDBRANCH  16  17
ENDBRANCH  15  16
ENDBRANCH  14  15
ENDBRANCH  13  14
ENDBRANCH   2  13
TORSDOF 15
ENDMDL
MODEL 3
REMARK VINA RESULT:    -0.641      2.577      4.761
REMARK INTER + INTRA:          -1.671
REMARK INTER:                  -0.540
REMARK INTRA:                  -1.132
REMARK UNBOUND:                -0.468
REMARK SMILES CCCCCCCCC=CCCCCCCCC(=O)[O-]
REMARK SMILES IDX 10 1 9 2 11 3 12 4 13 5 14 6 15 7 16 8 17 9 18 10 19 11
REMARK SMILES IDX 20 12 8 13 7 14 6 15 5 16 4 17 3 18 2 19 1 20
REMARK H PARENT
REMARK Flexibility Score: inf
ROOT
ATOM      1  C   UNL     1     124.512 134.846 127.528  1.00  0.00    -0.031 C 
ATOM      2  C   UNL     1     125.642 134.198 127.185  1.00  0.00    -0.031 C 
ENDROOT
BRANCH   1   3
ATOM      3  C   UNL     1     123.181 134.195 127.823  1.00  0.00     0.027 C 
BRANCH   3   4
ATOM      4  C   UNL     1     123.245 133.141 128.945  1.00  0.00     0.004 C 
BRANCH   4   5
ATOM      5  C   UNL     1     123.132 131.686 128.458  1.00  0.00     0.000 C 
BRANCH   5   6
ATOM      6  C   UNL     1     123.049 130.678 129.618  1.00  0.00     0.000 C 
BRANCH   6   7
ATOM      7  C   UNL     1     123.080 129.217 129.123  1.00  0.00     0.000 C 
BRANCH   7   8
ATOM      8  C   UNL     1     121.714 128.513 129.196  1.00  0.00     0.006 C 
BRANCH   8   9
ATOM      9  C   UNL     1     121.252 127.969 127.839  1.00  0.00     0.053 C 
BRANCH   9  10
ATOM     10  C   UNL     1     121.522 126.500 127.745  1.00  0.00     0.041 C 
ATOM     11  O   UNL     1     121.104 125.720 128.640  1.00  0.00    -0.550 OA
ATOM     12  O   UNL     1     122.192 125.987 126.642  1.00  0.00    -0.550 OA
ENDBRANCH   9  10
ENDBRANCH   8   9
ENDBRANCH   7   8
ENDBRANCH   6   7
ENDBRANCH   5   6
ENDBRANCH   4   5
ENDBRANCH   3   4
ENDBRANCH   1   3
BRANCH   2  13
ATOM     13  C   UNL     1     125.768 132.706 126.988  1.00  0.00     0.027 C 
BRANCH  13  14
ATOM     14  C   UNL     1     125.867 132.332 125.500  1.00  0.00     0.004 C 
BRANCH  14  15
ATOM     15  C   UNL     1     124.564 131.787 124.879  1.00  0.00     0.000 C 
BRANCH  15  16
ATOM     16  C   UNL     1     124.337 132.156 123.402  1.00  0.00     0.000 C 
BRANCH  16  17
ATOM     17  C   UNL     1     125.363 133.170 122.876  1.00  0.00    -0.000 C 
BRANCH  17  18
ATOM     18  C   UNL     1     124.815 134.602 122.968  1.00  0.00    -0.000 C 
BRANCH  18  19
ATOM     19  C   UNL     1     125.920 135.664 122.876  1.00  0.00    -0.003 C 
ATOM     20  C   UNL     1     126.497 136.037 124.242  1.00  0.00     0.004 C 
ENDBRANCH  18  19
ENDBRANCH  17  18
ENDBRANCH  16  17
ENDBRANCH  15  16
ENDBRANCH  14  15
ENDBRANCH  13  14
ENDBRANCH   2  13
TORSDOF 15
ENDMDL
MODEL 4
REMARK VINA RESULT:    -0.587      3.607      6.978
REMARK INTER + INTRA:          -1.569
REMARK INTER:                  -0.272
REMARK INTRA:                  -1.297
REMARK UNBOUND:                -0.468
REMARK SMILES CCCCCCCCC=CCCCCCCCC(=O)[O-]
REMARK SMILES IDX 10 1 9 2 11 3 12 4 13 5 14 6 15 7 16 8 17 9 18 10 19 11
REMARK SMILES IDX 20 12 8 13 7 14 6 15 5 16 4 17 3 18 2 19 1 20
REMARK H PARENT
REMARK Flexibility Score: inf
ROOT
ATOM      1  C   UNL     1     123.343 135.057 128.099  1.00  0.00    -0.031 C 
ATOM      2  C   UNL     1     122.614 134.196 128.834  1.00  0.00    -0.031 C 
ENDROOT
BRANCH   1   3
ATOM      3  C   UNL     1     124.828 134.951 127.841  1.00  0.00     0.027 C 
BRANCH   3   4
ATOM      4  C   UNL     1     125.176 134.234 126.523  1.00  0.00     0.004 C 
BRANCH   4   5
ATOM      5  C   UNL     1     125.865 132.869 126.702  1.00  0.00     0.000 C 
BRANCH   5   6
ATOM      6  C   UNL     1     125.965 132.079 125.386  1.00  0.00     0.000 C 
BRANCH   6   7
ATOM      7  C   UNL     1     124.609 131.988 124.657  1.00  0.00     0.000 C 
BRANCH   7   8
ATOM      8  C   UNL     1     124.638 132.555 123.227  1.00  0.00     0.006 C 
BRANCH   8   9
ATOM      9  C   UNL     1     125.803 133.526 122.995  1.00  0.00     0.053 C 
BRANCH   9  10
ATOM     10  C   UNL     1     125.300 134.932 122.896  1.00  0.00     0.041 C 
ATOM     11  O   UNL     1     124.063 135.162 122.876  1.00  0.00    -0.550 OA
ATOM     12  O   UNL     1     126.199 135.991 122.877  1.00  0.00    -0.550 OA
ENDBRANCH   9  10
ENDBRANCH   8   9
ENDBRANCH   7   8
ENDBRANCH   6   7
ENDBRANCH   5   6
ENDBRANCH   4   5
ENDBRANCH   3   4
ENDBRANCH   1   3
BRANCH   2  13
ATOM     13  C   UNL     1     123.158 132.997 129.572  1.00  0.00     0.027 C 
BRANCH  13  14
ATOM     14  C   UNL     1     123.292 131.771 128.652  1.00  0.00     0.004 C 
BRANCH  14  15
ATOM     15  C   UNL     1     122.827 130.438 129.274  1.00  0.00     0.000 C 
BRANCH  15  16
ATOM     16  C   UNL     1     121.586 129.807 128.617  1.00  0.00     0.000 C 
BRANCH  16  17
ATOM     17  C   UNL     1     121.240 128.428 129.197  1.00  0.00    -0.000 C 
BRANCH  17  18
ATOM     18  C   UNL     1     122.146 127.339 128.601  1.00  0.00    -0.000 C 
BRANCH  18  19
ATOM     19  C   UNL     1     121.400 126.425 127.617  1.00  0.00    -0.003 C 
ATOM     20  C   UNL     1     122.287 125.944 126.468  1.00  0.00     0.004 C 
ENDBRANCH  18  19
ENDBRANCH  17  18
ENDBRANCH  16  17
ENDBRANCH  15  16
ENDBRANCH  14  15
ENDBRANCH  13  14
ENDBRANCH   2  13
TORSDOF 15
ENDMDL
MODEL 5
REMARK VINA RESULT:    -0.083      0.943      2.145
REMARK INTER + INTRA:          -0.624
REMARK INTER:                   0.781
REMARK INTRA:                  -1.405
REMARK UNBOUND:                -0.468
REMARK SMILES CCCCCCCCC=CCCCCCCCC(=O)[O-]
REMARK SMILES IDX 10 1 9 2 11 3 12 4 13 5 14 6 15 7 16 8 17 9 18 10 19 11
REMARK SMILES IDX 20 12 8 13 7 14 6 15 5 16 4 17 3 18 2 19 1 20
REMARK H PARENT
REMARK Flexibility Score: inf
ROOT
ATOM      1  C   UNL     1     125.447 133.589 123.203  1.00  0.00    -0.031 C 
ATOM      2  C   UNL     1     125.444 134.766 123.859  1.00  0.00    -0.031 C 
ENDROOT
BRANCH   1   3
ATOM      3  C   UNL     1     125.717 132.239 123.825  1.00  0.00     0.027 C 
BRANCH   3   4
ATOM      4  C   UNL     1     124.462 131.355 123.950  1.00  0.00     0.004 C 
BRANCH   4   5
ATOM      5  C   UNL     1     123.333 131.966 124.798  1.00  0.00     0.000 C 
BRANCH   5   6
ATOM      6  C   UNL     1     123.156 131.254 126.150  1.00  0.00     0.000 C 
BRANCH   6   7
ATOM      7  C   UNL     1     124.282 131.604 127.144  1.00  0.00     0.000 C 
BRANCH   7   8
ATOM      8  C   UNL     1     123.845 131.540 128.618  1.00  0.00     0.006 C 
BRANCH   8   9
ATOM      9  C   UNL     1     122.461 130.904 128.802  1.00  0.00     0.053 C 
BRANCH   9  10
ATOM     10  C   UNL     1     122.594 129.468 129.199  1.00  0.00     0.041 C 
ATOM     11  O   UNL     1     121.610 128.689 129.100  1.00  0.00    -0.550 OA
ATOM     12  O   UNL     1     123.820 128.977 129.630  1.00  0.00    -0.550 OA
ENDBRANCH   9  10
ENDBRANCH   8   9
ENDBRANCH   7   8
ENDBRANCH   6   7
ENDBRANCH   5   6
ENDBRANCH   4   5
ENDBRANCH   3   4
ENDBRANCH   1   3
BRANCH   2  13
ATOM     13  C   UNL     1     125.757 134.952 125.324  1.00  0.00     0.027 C 
BRANCH  13  14
ATOM     14  C   UNL     1     124.545 134.630 126.213  1.00  0.00     0.004 C 
BRANCH  14  15
ATOM     15  C   UNL     1     124.789 134.792 127.728  1.00  0.00     0.000 C 
BRANCH  15  16
ATOM     16  C   UNL     1     123.613 135.392 128.520  1.00  0.00     0.000 C 
BRANCH  16  17
ATOM     17  C   UNL     1     122.244 134.931 127.999  1.00  0.00    -0.000 C 
BRANCH  17  18
ATOM     18  C   UNL     1     121.110 135.735 128.651  1.00  0.00    -0.000 C 
BRANCH  18  19
ATOM     19  C   UNL     1     120.875 137.089 127.964  1.00  0.00    -0.003 C 
ATOM     20  C   UNL     1     120.888 136.988 126.439  1.00  0.00     0.004 C 
ENDBRANCH  18  19
ENDBRANCH  17  18
ENDBRANCH  16  17
ENDBRANCH  15  16
ENDBRANCH  14  15
ENDBRANCH  13  14
ENDBRANCH   2  13
TORSDOF 15
ENDMDL
MODEL 6
REMARK VINA RESULT:     0.213      3.230      7.560
REMARK INTER + INTRA:          -0.069
REMARK INTER:                  -0.054
REMARK INTRA:                  -0.015
REMARK UNBOUND:                -0.468
REMARK SMILES CCCCCCCCC=CCCCCCCCC(=O)[O-]
REMARK SMILES IDX 10 1 9 2 11 3 12 4 13 5 14 6 15 7 16 8 17 9 18 10 19 11
REMARK SMILES IDX 20 12 8 13 7 14 6 15 5 16 4 17 3 18 2 19 1 20
REMARK H PARENT
REMARK Flexibility Score: inf
ROOT
ATOM      1  C   UNL     1     123.140 133.382 129.227  1.00  0.00    -0.031 C 
ATOM      2  C   UNL     1     123.133 132.083 129.584  1.00  0.00    -0.031 C 
ENDROOT
BRANCH   1   3
ATOM      3  C   UNL     1     123.098 133.904 127.810  1.00  0.00     0.027 C 
BRANCH   3   4
ATOM      4  C   UNL     1     124.301 134.793 127.444  1.00  0.00     0.004 C 
BRANCH   4   5
ATOM      5  C   UNL     1     125.627 134.032 127.272  1.00  0.00     0.000 C 
BRANCH   5   6
ATOM      6  C   UNL     1     125.433 132.633 126.661  1.00  0.00     0.000 C 
BRANCH   6   7
ATOM      7  C   UNL     1     126.311 132.416 125.412  1.00  0.00     0.000 C 
BRANCH   7   8
ATOM      8  C   UNL     1     126.042 133.430 124.286  1.00  0.00     0.006 C 
BRANCH   8   9
ATOM      9  C   UNL     1     125.338 132.803 123.076  1.00  0.00     0.053 C 
BRANCH   9  10
ATOM     10  C   UNL     1     124.557 131.598 123.492  1.00  0.00     0.041 C 
ATOM     11  O   UNL     1     124.696 130.508 122.876  1.00  0.00    -0.550 OA
ATOM     12  O   UNL     1     123.712 131.663 124.593  1.00  0.00    -0.550 OA
ENDBRANCH   9  10
ENDBRANCH   8   9
ENDBRANCH   7   8
ENDBRANCH   6   7
ENDBRANCH   5   6
ENDBRANCH   4   5
ENDBRANCH   3   4
ENDBRANCH   1   3
BRANCH   2  13
ATOM     13  C   UNL     1     123.130 130.914 128.628  1.00  0.00     0.027 C 
BRANCH  13  14
ATOM     14  C   UNL     1     122.843 129.587 129.349  1.00  0.00     0.004 C 
BRANCH  14  15
ATOM     15  C   UNL     1     121.526 128.896 128.939  1.00  0.00     0.000 C 
BRANCH  15  16
ATOM     16  C   UNL     1     121.579 127.358 128.896  1.00  0.00     0.000 C 
BRANCH  16  17
ATOM     17  C   UNL     1     121.427 126.794 127.476  1.00  0.00    -0.000 C 
BRANCH  17  18
ATOM     18  C   UNL     1     121.648 125.275 127.462  1.00  0.00    -0.000 C 
BRANCH  18  19
ATOM     19  C   UNL     1     121.085 124.585 128.714  1.00  0.00    -0.003 C 
ATOM     20  C   UNL     1     121.097 123.060 128.605  1.00  0.00     0.004 C 
ENDBRANCH  18  19
ENDBRANCH  17  18
ENDBRANCH  16  17
ENDBRANCH  15  16
ENDBRANCH  14  15
ENDBRANCH  13  14
ENDBRANCH   2  13
TORSDOF 15
ENDMDL
MODEL 7
REMARK VINA RESULT:     0.440      2.718      5.328
REMARK INTER + INTRA:           0.357
REMARK INTER:                   1.230
REMARK INTRA:                  -0.873
REMARK UNBOUND:                -0.468
REMARK SMILES CCCCCCCCC=CCCCCCCCC(=O)[O-]
REMARK SMILES IDX 10 1 9 2 11 3 12 4 13 5 14 6 15 7 16 8 17 9 18 10 19 11
REMARK SMILES IDX 20 12 8 13 7 14 6 15 5 16 4 17 3 18 2 19 1 20
REMARK H PARENT
REMARK Flexibility Score: inf
ROOT
ATOM      1  C   UNL     1     123.060 133.661 128.981  1.00  0.00    -0.031 C 
ATOM      2  C   UNL     1     123.526 134.723 128.295  1.00  0.00    -0.031 C 
ENDROOT
BRANCH   1   3
ATOM      3  C   UNL     1     123.125 132.223 128.522  1.00  0.00     0.027 C 
BRANCH   3   4
ATOM      4  C   UNL     1     123.122 131.205 129.678  1.00  0.00     0.004 C 
BRANCH   4   5
ATOM      5  C   UNL     1     123.125 129.733 129.231  1.00  0.00     0.000 C 
BRANCH   5   6
ATOM      6  C   UNL     1     121.709 129.190 128.972  1.00  0.00     0.000 C 
BRANCH   6   7
ATOM      7  C   UNL     1     121.659 127.648 129.022  1.00  0.00     0.000 C 
BRANCH   7   8
ATOM      8  C   UNL     1     121.276 127.000 127.681  1.00  0.00     0.006 C 
BRANCH   8   9
ATOM      9  C   UNL     1     121.399 125.472 127.701  1.00  0.00     0.053 C 
BRANCH   9  10
ATOM     10  C   UNL     1     122.291 125.004 126.594  1.00  0.00     0.041 C 
ATOM     11  O   UNL     1     122.846 125.838 125.832  1.00  0.00    -0.550 OA
ATOM     12  O   UNL     1     122.550 123.648 126.436  1.00  0.00    -0.550 OA
ENDBRANCH   9  10
ENDBRANCH   8   9
ENDBRANCH   7   8
ENDBRANCH   6   7
ENDBRANCH   5   6
ENDBRANCH   4   5
ENDBRANCH   3   4
ENDBRANCH   1   3
BRANCH   2  13
ATOM     13  C   UNL     1     124.155 134.671 126.924  1.00  0.00     0.027 C 
BRANCH  13  14
ATOM     14  C   UNL     1     125.640 134.277 126.990  1.00  0.00     0.004 C 
BRANCH  14  15
ATOM     15  C   UNL     1     125.910 132.759 126.982  1.00  0.00     0.000 C 
BRANCH  15  16
ATOM     16  C   UNL     1     125.920 132.103 125.589  1.00  0.00     0.000 C 
BRANCH  16  17
ATOM     17  C   UNL     1     124.525 132.032 124.953  1.00  0.00    -0.000 C 
BRANCH  17  18
ATOM     18  C   UNL     1     124.621 132.005 123.420  1.00  0.00    -0.000 C 
BRANCH  18  19
ATOM     19  C   UNL     1     125.651 133.006 122.876  1.00  0.00    -0.003 C 
ATOM     20  C   UNL     1     125.234 134.461 123.095  1.00  0.00     0.004 C 
ENDBRANCH  18  19
ENDBRANCH  17  18
ENDBRANCH  16  17
ENDBRANCH  15  16
ENDBRANCH  14  15
ENDBRANCH  13  14
ENDBRANCH   2  13
TORSDOF 15
ENDMDL
