MODEL 1
REMARK VINA RESULT:    -7.429      0.000      0.000
REMARK INTER + INTRA:          -9.002
REMARK INTER:                  -8.732
REMARK INTRA:                  -0.270
REMARK UNBOUND:                -0.270
REMARK SMILES O=c1cc(-c2ccc(O)c(O)c2)oc2cc(O)cc(O)c12
REMARK SMILES IDX 4 1 3 2 2 3 1 4 21 5 19 6 18 7 16 8 15 9 14 10 13 11 5 12
REMARK SMILES IDX 6 13 7 14 8 15 12 16 10 17 9 18 11 20 20 22 17 24
REMARK H PARENT 9 19 11 21 20 23 17 25
REMARK Flexibility Score: inf
ROOT
ATOM      1  C   UNL     1      12.634  -3.309  13.626  1.00  0.00     0.138 A 
ATOM      2  C   UNL     1      11.888  -4.489  13.506  1.00  0.00     0.100 A 
ATOM      3  C   UNL     1      11.439  -4.897  12.249  1.00  0.00     0.197 A 
ATOM      4  O   UNL     1      10.718  -5.926  12.180  1.00  0.00    -0.289 OA
ATOM      5  C   UNL     1      11.767  -4.133  11.104  1.00  0.00     0.107 A 
ATOM      6  C   UNL     1      11.398  -4.473   9.767  1.00  0.00     0.134 A 
ATOM      7  C   UNL     1      11.679  -3.580   8.725  1.00  0.00     0.093 A 
ATOM      8  C   UNL     1      12.369  -2.389   8.964  1.00  0.00     0.123 A 
ATOM      9  C   UNL     1      12.780  -2.073  10.257  1.00  0.00     0.094 A 
ATOM     10  C   UNL     1      12.485  -2.927  11.322  1.00  0.00     0.146 A 
ATOM     11  O   UNL     1      12.883  -2.582  12.542  1.00  0.00    -0.456 OA
ENDROOT
BRANCH   1  12
ATOM     12  C   UNL     1      13.138  -2.831  14.939  1.00  0.00     0.021 A 
ATOM     13  C   UNL     1      12.263  -2.391  15.951  1.00  0.00     0.016 A 
ATOM     14  C   UNL     1      12.765  -1.956  17.181  1.00  0.00     0.051 A 
ATOM     15  C   UNL     1      14.144  -1.960  17.423  1.00  0.00     0.157 A 
ATOM     16  C   UNL     1      14.521  -2.844  15.197  1.00  0.00     0.062 A 
ATOM     17  C   UNL     1      15.023  -2.407  16.430  1.00  0.00     0.158 A 
BRANCH  15  18
ATOM     18  O   UNL     1      14.647  -1.525  18.648  1.00  0.00    -0.504 OA
ATOM     19  H   UNL     1      14.220  -1.801  19.525  1.00  0.00     0.293 HD
ENDBRANCH  15  18
BRANCH  17  20
ATOM     20  O   UNL     1      16.395  -2.413  16.676  1.00  0.00    -0.504 OA
ATOM     21  H   UNL     1      16.957  -3.242  16.524  1.00  0.00     0.293 HD
ENDBRANCH  17  20
ENDBRANCH   1  12
BRANCH   6  22
ATOM     22  O   UNL     1      10.783  -5.676   9.409  1.00  0.00    -0.507 OA
ATOM     23  H   UNL     1      11.071  -6.265   8.642  1.00  0.00     0.293 HD
ENDBRANCH   6  22
BRANCH   8  24
ATOM     24  O   UNL     1      12.657  -1.514   7.918  1.00  0.00    -0.508 OA
ATOM     25  H   UNL     1      11.924  -1.026   7.418  1.00  0.00     0.293 HD
ENDBRANCH   8  24
TORSDOF 5
ENDMDL
MODEL 2
REMARK VINA RESULT:    -7.422      3.042      4.219
REMARK INTER + INTRA:          -8.993
REMARK INTER:                  -8.675
REMARK INTRA:                  -0.318
REMARK UNBOUND:                -0.270
REMARK SMILES O=c1cc(-c2ccc(O)c(O)c2)oc2cc(O)cc(O)c12
REMARK SMILES IDX 4 1 3 2 2 3 1 4 21 5 19 6 18 7 16 8 15 9 14 10 13 11 5 12
REMARK SMILES IDX 6 13 7 14 8 15 12 16 10 17 9 18 11 20 20 22 17 24
REMARK H PARENT 9 19 11 21 20 23 17 25
REMARK Flexibility Score: inf
ROOT
ATOM      1  C   UNL     1      12.022  -3.780  15.221  1.00  0.00     0.138 A 
ATOM      2  C   UNL     1      11.918  -4.702  14.170  1.00  0.00     0.100 A 
ATOM      3  C   UNL     1      10.712  -4.830  13.480  1.00  0.00     0.197 A 
ATOM      4  O   UNL     1      10.631  -5.709  12.584  1.00  0.00    -0.289 OA
ATOM      5  C   UNL     1       9.614  -4.007  13.825  1.00  0.00     0.107 A 
ATOM      6  C   UNL     1       8.349  -4.022  13.165  1.00  0.00     0.134 A 
ATOM      7  C   UNL     1       7.298  -3.244  13.670  1.00  0.00     0.093 A 
ATOM      8  C   UNL     1       7.486  -2.408  14.773  1.00  0.00     0.123 A 
ATOM      9  C   UNL     1       8.733  -2.347  15.392  1.00  0.00     0.094 A 
ATOM     10  C   UNL     1       9.790  -3.136  14.933  1.00  0.00     0.146 A 
ATOM     11  O   UNL     1      10.959  -3.058  15.561  1.00  0.00    -0.456 OA
ENDROOT
BRANCH   1  12
ATOM     12  C   UNL     1      13.281  -3.603  15.986  1.00  0.00     0.021 A 
ATOM     13  C   UNL     1      14.424  -4.383  15.723  1.00  0.00     0.016 A 
ATOM     14  C   UNL     1      15.600  -4.187  16.453  1.00  0.00     0.051 A 
ATOM     15  C   UNL     1      15.657  -3.206  17.451  1.00  0.00     0.157 A 
ATOM     16  C   UNL     1      13.353  -2.611  16.981  1.00  0.00     0.062 A 
ATOM     17  C   UNL     1      14.532  -2.415  17.714  1.00  0.00     0.158 A 
BRANCH  15  18
ATOM     18  O   UNL     1      16.828  -3.009  18.180  1.00  0.00    -0.504 OA
ATOM     19  H   UNL     1      17.547  -2.369  17.867  1.00  0.00     0.293 HD
ENDBRANCH  15  18
BRANCH  17  20
ATOM     20  O   UNL     1      14.594  -1.437  18.705  1.00  0.00    -0.504 OA
ATOM     21  H   UNL     1      14.844  -0.479  18.489  1.00  0.00     0.293 HD
ENDBRANCH  17  20
ENDBRANCH   1  12
BRANCH   6  22
ATOM     22  O   UNL     1       8.080  -4.755  12.006  1.00  0.00    -0.507 OA
ATOM     23  H   UNL     1       7.297  -5.379  11.887  1.00  0.00     0.293 HD
ENDBRANCH   6  22
BRANCH   8  24
ATOM     24  O   UNL     1       6.438  -1.627  15.259  1.00  0.00    -0.508 OA
ATOM     25  H   UNL     1       6.598  -0.877  15.921  1.00  0.00     0.293 HD
ENDBRANCH   8  24
TORSDOF 5
ENDMDL
MODEL 3
REMARK VINA RESULT:    -7.403      8.226     11.225
REMARK INTER + INTRA:          -8.972
REMARK INTER:                  -8.702
REMARK INTRA:                  -0.269
REMARK UNBOUND:                -0.270
REMARK SMILES O=c1cc(-c2ccc(O)c(O)c2)oc2cc(O)cc(O)c12
REMARK SMILES IDX 4 1 3 2 2 3 1 4 21 5 19 6 18 7 16 8 15 9 14 10 13 11 5 12
REMARK SMILES IDX 6 13 7 14 8 15 12 16 10 17 9 18 11 20 20 22 17 24
REMARK H PARENT 9 19 11 21 20 23 17 25
REMARK Flexibility Score: inf
ROOT
ATOM      1  C   UNL     1       4.994  -6.962   7.831  1.00  0.00     0.138 A 
ATOM      2  C   UNL     1       4.456  -5.995   6.971  1.00  0.00     0.100 A 
ATOM      3  C   UNL     1       3.274  -6.266   6.281  1.00  0.00     0.197 A 
ATOM      4  O   UNL     1       2.849  -5.404   5.469  1.00  0.00    -0.289 OA
ATOM      5  C   UNL     1       2.613  -7.501   6.477  1.00  0.00     0.107 A 
ATOM      6  C   UNL     1       1.381  -7.871   5.858  1.00  0.00     0.134 A 
ATOM      7  C   UNL     1       0.880  -9.167   6.037  1.00  0.00     0.093 A 
ATOM      8  C   UNL     1       1.535 -10.085   6.862  1.00  0.00     0.123 A 
ATOM      9  C   UNL     1       2.710  -9.716   7.514  1.00  0.00     0.094 A 
ATOM     10  C   UNL     1       3.252  -8.443   7.327  1.00  0.00     0.146 A 
ATOM     11  O   UNL     1       4.382  -8.135   7.956  1.00  0.00    -0.456 OA
ENDROOT
BRANCH   1  12
ATOM     12  C   UNL     1       6.247  -6.725   8.591  1.00  0.00     0.021 A 
ATOM     13  C   UNL     1       6.283  -5.874   9.713  1.00  0.00     0.016 A 
ATOM     14  C   UNL     1       7.475  -5.677  10.415  1.00  0.00     0.051 A 
ATOM     15  C   UNL     1       8.647  -6.330  10.016  1.00  0.00     0.157 A 
ATOM     16  C   UNL     1       7.427  -7.387   8.206  1.00  0.00     0.062 A 
ATOM     17  C   UNL     1       8.623  -7.189   8.910  1.00  0.00     0.158 A 
BRANCH  15  18
ATOM     18  O   UNL     1       9.837  -6.135  10.714  1.00  0.00    -0.504 OA
ATOM     19  H   UNL     1      10.689  -5.854  10.242  1.00  0.00     0.293 HD
ENDBRANCH  15  18
BRANCH  17  20
ATOM     20  O   UNL     1       9.790  -7.841   8.517  1.00  0.00    -0.504 OA
ATOM     21  H   UNL     1      10.119  -8.672   8.994  1.00  0.00     0.293 HD
ENDBRANCH  17  20
ENDBRANCH   1  12
BRANCH   6  22
ATOM     22  O   UNL     1       0.604  -7.004   5.084  1.00  0.00    -0.507 OA
ATOM     23  H   UNL     1      -0.326  -7.206   4.751  1.00  0.00     0.293 HD
ENDBRANCH   6  22
BRANCH   8  24
ATOM     24  O   UNL     1       1.021 -11.367   7.046  1.00  0.00    -0.508 OA
ATOM     25  H   UNL     1       0.026 -11.531   7.143  1.00  0.00     0.293 HD
ENDBRANCH   8  24
TORSDOF 5
ENDMDL
MODEL 4
REMARK VINA RESULT:    -7.396      4.524      7.675
REMARK INTER + INTRA:          -8.963
REMARK INTER:                  -8.659
REMARK INTRA:                  -0.305
REMARK UNBOUND:                -0.270
REMARK SMILES O=c1cc(-c2ccc(O)c(O)c2)oc2cc(O)cc(O)c12
REMARK SMILES IDX 4 1 3 2 2 3 1 4 21 5 19 6 18 7 16 8 15 9 14 10 13 11 5 12
REMARK SMILES IDX 6 13 7 14 8 15 12 16 10 17 9 18 11 20 20 22 17 24
REMARK H PARENT 9 19 11 21 20 23 17 25
REMARK Flexibility Score: inf
ROOT
ATOM      1  C   UNL     1      10.447  -4.629  14.993  1.00  0.00     0.138 A 
ATOM      2  C   UNL     1      11.753  -4.719  14.494  1.00  0.00     0.100 A 
ATOM      3  C   UNL     1      12.710  -5.458  15.192  1.00  0.00     0.197 A 
ATOM      4  O   UNL     1      13.889  -5.469  14.753  1.00  0.00    -0.289 OA
ATOM      5  C   UNL     1      12.345  -6.135  16.380  1.00  0.00     0.107 A 
ATOM      6  C   UNL     1      13.225  -6.950  17.153  1.00  0.00     0.134 A 
ATOM      7  C   UNL     1      12.784  -7.476  18.375  1.00  0.00     0.093 A 
ATOM      8  C   UNL     1      11.477  -7.265  18.819  1.00  0.00     0.123 A 
ATOM      9  C   UNL     1      10.594  -6.515  18.046  1.00  0.00     0.094 A 
ATOM     10  C   UNL     1      11.014  -5.950  16.840  1.00  0.00     0.146 A 
ATOM     11  O   UNL     1      10.145  -5.229  16.140  1.00  0.00    -0.456 OA
ENDROOT
BRANCH   1  12
ATOM     12  C   UNL     1       9.391  -3.858  14.289  1.00  0.00     0.021 A 
ATOM     13  C   UNL     1       9.359  -3.758  12.885  1.00  0.00     0.016 A 
ATOM     14  C   UNL     1       8.346  -3.034  12.248  1.00  0.00     0.051 A 
ATOM     15  C   UNL     1       7.347  -2.405  13.002  1.00  0.00     0.157 A 
ATOM     16  C   UNL     1       8.375  -3.234  15.036  1.00  0.00     0.062 A 
ATOM     17  C   UNL     1       7.360  -2.507  14.398  1.00  0.00     0.158 A 
BRANCH  15  18
ATOM     18  O   UNL     1       6.338  -1.682  12.370  1.00  0.00    -0.504 OA
ATOM     19  H   UNL     1       6.106  -1.834  11.395  1.00  0.00     0.293 HD
ENDBRANCH  15  18
BRANCH  17  20
ATOM     20  O   UNL     1       6.362  -1.883  15.144  1.00  0.00    -0.504 OA
ATOM     21  H   UNL     1       5.414  -2.239  15.162  1.00  0.00     0.293 HD
ENDBRANCH  17  20
ENDBRANCH   1  12
BRANCH   6  22
ATOM     22  O   UNL     1      14.522  -7.292  16.759  1.00  0.00    -0.507 OA
ATOM     23  H   UNL     1      15.356  -6.786  17.018  1.00  0.00     0.293 HD
ENDBRANCH   6  22
BRANCH   8  24
ATOM     24  O   UNL     1      11.043  -7.805  20.029  1.00  0.00    -0.508 OA
ATOM     25  H   UNL     1      11.307  -8.739  20.318  1.00  0.00     0.293 HD
ENDBRANCH   8  24
TORSDOF 5
ENDMDL
MODEL 5
REMARK VINA RESULT:    -7.356      8.108     12.354
REMARK INTER + INTRA:          -8.915
REMARK INTER:                  -8.650
REMARK INTRA:                  -0.265
REMARK UNBOUND:                -0.270
REMARK SMILES O=c1cc(-c2ccc(O)c(O)c2)oc2cc(O)cc(O)c12
REMARK SMILES IDX 4 1 3 2 2 3 1 4 21 5 19 6 18 7 16 8 15 9 14 10 13 11 5 12
REMARK SMILES IDX 6 13 7 14 8 15 12 16 10 17 9 18 11 20 20 22 17 24
REMARK H PARENT 9 19 11 21 20 23 17 25
REMARK Flexibility Score: inf
ROOT
ATOM      1  C   UNL     1       4.247  -6.523   7.411  1.00  0.00     0.138 A 
ATOM      2  C   UNL     1       5.102  -7.576   7.765  1.00  0.00     0.100 A 
ATOM      3  C   UNL     1       6.137  -7.348   8.674  1.00  0.00     0.197 A 
ATOM      4  O   UNL     1       6.926  -8.296   8.925  1.00  0.00    -0.289 OA
ATOM      5  C   UNL     1       6.295  -6.067   9.254  1.00  0.00     0.107 A 
ATOM      6  C   UNL     1       7.288  -5.730  10.221  1.00  0.00     0.134 A 
ATOM      7  C   UNL     1       7.422  -4.399  10.638  1.00  0.00     0.093 A 
ATOM      8  C   UNL     1       6.560  -3.406  10.166  1.00  0.00     0.123 A 
ATOM      9  C   UNL     1       5.553  -3.735   9.261  1.00  0.00     0.094 A 
ATOM     10  C   UNL     1       5.416  -5.047   8.802  1.00  0.00     0.146 A 
ATOM     11  O   UNL     1       4.451  -5.316   7.928  1.00  0.00    -0.456 OA
ENDROOT
BRANCH   1  12
ATOM     12  C   UNL     1       3.130  -6.711   6.450  1.00  0.00     0.021 A 
ATOM     13  C   UNL     1       3.075  -6.006   5.232  1.00  0.00     0.016 A 
ATOM     14  C   UNL     1       2.017  -6.210   4.342  1.00  0.00     0.051 A 
ATOM     15  C   UNL     1       1.002  -7.125   4.649  1.00  0.00     0.157 A 
ATOM     16  C   UNL     1       2.113  -7.637   6.743  1.00  0.00     0.062 A 
ATOM     17  C   UNL     1       1.051  -7.841   5.851  1.00  0.00     0.158 A 
BRANCH  15  18
ATOM     18  O   UNL     1      -0.055  -7.329   3.764  1.00  0.00    -0.504 OA
ATOM     19  H   UNL     1      -0.875  -6.734   3.771  1.00  0.00     0.293 HD
ENDBRANCH  15  18
BRANCH  17  20
ATOM     20  O   UNL     1       0.042  -8.754   6.151  1.00  0.00    -0.504 OA
ATOM     21  H   UNL     1      -0.704  -8.526   6.798  1.00  0.00     0.293 HD
ENDBRANCH  17  20
ENDBRANCH   1  12
BRANCH   6  22
ATOM     22  O   UNL     1       8.143  -6.660  10.820  1.00  0.00    -0.507 OA
ATOM     23  H   UNL     1       8.609  -6.528  11.705  1.00  0.00     0.293 HD
ENDBRANCH   6  22
BRANCH   8  24
ATOM     24  O   UNL     1       6.692  -2.087  10.597  1.00  0.00    -0.508 OA
ATOM     25  H   UNL     1       5.937  -1.419  10.499  1.00  0.00     0.293 HD
ENDBRANCH   8  24
TORSDOF 5
ENDMDL
MODEL 6
REMARK VINA RESULT:    -7.344      8.568     12.789
REMARK INTER + INTRA:          -8.902
REMARK INTER:                  -8.584
REMARK INTRA:                  -0.318
REMARK UNBOUND:                -0.270
REMARK SMILES O=c1cc(-c2ccc(O)c(O)c2)oc2cc(O)cc(O)c12
REMARK SMILES IDX 4 1 3 2 2 3 1 4 21 5 19 6 18 7 16 8 15 9 14 10 13 11 5 12
REMARK SMILES IDX 6 13 7 14 8 15 12 16 10 17 9 18 11 20 20 22 17 24
REMARK H PARENT 9 19 11 21 20 23 17 25
REMARK Flexibility Score: inf
ROOT
ATOM      1  C   UNL     1       3.973  -8.163   7.394  1.00  0.00     0.138 A 
ATOM      2  C   UNL     1       3.513  -6.840   7.457  1.00  0.00     0.100 A 
ATOM      3  C   UNL     1       4.384  -5.823   7.848  1.00  0.00     0.197 A 
ATOM      4  O   UNL     1       3.926  -4.656   7.955  1.00  0.00    -0.289 OA
ATOM      5  C   UNL     1       5.732  -6.130   8.150  1.00  0.00     0.107 A 
ATOM      6  C   UNL     1       6.721  -5.170   8.521  1.00  0.00     0.134 A 
ATOM      7  C   UNL     1       7.994  -5.605   8.909  1.00  0.00     0.093 A 
ATOM      8  C   UNL     1       8.332  -6.961   8.881  1.00  0.00     0.123 A 
ATOM      9  C   UNL     1       7.391  -7.901   8.469  1.00  0.00     0.094 A 
ATOM     10  C   UNL     1       6.102  -7.501   8.108  1.00  0.00     0.146 A 
ATOM     11  O   UNL     1       5.230  -8.431   7.735  1.00  0.00    -0.456 OA
ENDROOT
BRANCH   1  12
ATOM     12  C   UNL     1       3.089  -9.282   6.982  1.00  0.00     0.021 A 
ATOM     13  C   UNL     1       1.775  -9.058   6.529  1.00  0.00     0.016 A 
ATOM     14  C   UNL     1       0.968 -10.131   6.137  1.00  0.00     0.051 A 
ATOM     15  C   UNL     1       1.461 -11.440   6.185  1.00  0.00     0.157 A 
ATOM     16  C   UNL     1       3.580 -10.600   7.013  1.00  0.00     0.062 A 
ATOM     17  C   UNL     1       2.770 -11.675   6.621  1.00  0.00     0.158 A 
BRANCH  15  18
ATOM     18  O   UNL     1       0.658 -12.511   5.796  1.00  0.00    -0.504 OA
ATOM     19  H   UNL     1      -0.348 -12.490   5.914  1.00  0.00     0.293 HD
ENDBRANCH  15  18
BRANCH  17  20
ATOM     20  O   UNL     1       3.259 -12.980   6.663  1.00  0.00    -0.504 OA
ATOM     21  H   UNL     1       2.707 -13.763   6.338  1.00  0.00     0.293 HD
ENDBRANCH  17  20
ENDBRANCH   1  12
BRANCH   6  22
ATOM     22  O   UNL     1       6.514  -3.787   8.501  1.00  0.00    -0.507 OA
ATOM     23  H   UNL     1       5.609  -3.340   8.497  1.00  0.00     0.293 HD
ENDBRANCH   6  22
BRANCH   8  24
ATOM     24  O   UNL     1       9.607  -7.383   9.255  1.00  0.00    -0.508 OA
ATOM     25  H   UNL     1       9.750  -8.002  10.044  1.00  0.00     0.293 HD
ENDBRANCH   8  24
TORSDOF 5
ENDMDL
MODEL 7
REMARK VINA RESULT:    -7.340      6.409      9.315
REMARK INTER + INTRA:          -8.898
REMARK INTER:                  -8.627
REMARK INTRA:                  -0.271
REMARK UNBOUND:                -0.270
REMARK SMILES O=c1cc(-c2ccc(O)c(O)c2)oc2cc(O)cc(O)c12
REMARK SMILES IDX 4 1 3 2 2 3 1 4 21 5 19 6 18 7 16 8 15 9 14 10 13 11 5 12
REMARK SMILES IDX 6 13 7 14 8 15 12 16 10 17 9 18 11 20 20 22 17 24
REMARK H PARENT 9 19 11 21 20 23 17 25
REMARK Flexibility Score: inf
ROOT
ATOM      1  C   UNL     1       6.803  -6.327   8.597  1.00  0.00     0.138 A 
ATOM      2  C   UNL     1       5.753  -5.414   8.433  1.00  0.00     0.100 A 
ATOM      3  C   UNL     1       4.510  -5.865   7.987  1.00  0.00     0.197 A 
ATOM      4  O   UNL     1       3.605  -5.014   7.789  1.00  0.00    -0.289 OA
ATOM      5  C   UNL     1       4.311  -7.243   7.735  1.00  0.00     0.107 A 
ATOM      6  C   UNL     1       3.076  -7.822   7.316  1.00  0.00     0.134 A 
ATOM      7  C   UNL     1       3.029  -9.183   6.984  1.00  0.00     0.093 A 
ATOM      8  C   UNL     1       4.158  -9.995   7.115  1.00  0.00     0.123 A 
ATOM      9  C   UNL     1       5.355  -9.451   7.574  1.00  0.00     0.094 A 
ATOM     10  C   UNL     1       5.441  -8.091   7.880  1.00  0.00     0.146 A 
ATOM     11  O   UNL     1       6.606  -7.608   8.301  1.00  0.00    -0.456 OA
ENDROOT
BRANCH   1  12
ATOM     12  C   UNL     1       8.145  -5.901   9.070  1.00  0.00     0.021 A 
ATOM     13  C   UNL     1       8.968  -5.058   8.299  1.00  0.00     0.016 A 
ATOM     14  C   UNL     1      10.223  -4.665   8.774  1.00  0.00     0.051 A 
ATOM     15  C   UNL     1      10.672  -5.099  10.028  1.00  0.00     0.157 A 
ATOM     16  C   UNL     1       8.600  -6.321  10.333  1.00  0.00     0.062 A 
ATOM     17  C   UNL     1       9.858  -5.928  10.809  1.00  0.00     0.158 A 
BRANCH  15  18
ATOM     18  O   UNL     1      11.922  -4.710  10.503  1.00  0.00    -0.504 OA
ATOM     19  H   UNL     1      12.778  -5.005  10.048  1.00  0.00     0.293 HD
ENDBRANCH  15  18
BRANCH  17  20
ATOM     20  O   UNL     1      10.306  -6.355  12.058  1.00  0.00    -0.504 OA
ATOM     21  H   UNL     1       9.786  -7.030  12.605  1.00  0.00     0.293 HD
ENDBRANCH  17  20
ENDBRANCH   1  12
BRANCH   6  22
ATOM     22  O   UNL     1       1.871  -7.119   7.234  1.00  0.00    -0.507 OA
ATOM     23  H   UNL     1       1.031  -7.463   6.793  1.00  0.00     0.293 HD
ENDBRANCH   6  22
BRANCH   8  24
ATOM     24  O   UNL     1       4.097 -11.351   6.797  1.00  0.00    -0.508 OA
ATOM     25  H   UNL     1       3.525 -11.996   7.328  1.00  0.00     0.293 HD
ENDBRANCH   8  24
TORSDOF 5
ENDMDL
MODEL 8
REMARK VINA RESULT:    -7.277      2.487      4.699
REMARK INTER + INTRA:          -8.823
REMARK INTER:                  -8.537
REMARK INTRA:                  -0.285
REMARK UNBOUND:                -0.270
REMARK SMILES O=c1cc(-c2ccc(O)c(O)c2)oc2cc(O)cc(O)c12
REMARK SMILES IDX 4 1 3 2 2 3 1 4 21 5 19 6 18 7 16 8 15 9 14 10 13 11 5 12
REMARK SMILES IDX 6 13 7 14 8 15 12 16 10 17 9 18 11 20 20 22 17 24
REMARK H PARENT 9 19 11 21 20 23 17 25
REMARK Flexibility Score: inf
ROOT
ATOM      1  C   UNL     1      11.823  -3.377  10.124  1.00  0.00     0.138 A 
ATOM      2  C   UNL     1      12.241  -3.151   8.805  1.00  0.00     0.100 A 
ATOM      3  C   UNL     1      11.712  -3.925   7.771  1.00  0.00     0.197 A 
ATOM      4  O   UNL     1      12.153  -3.742   6.607  1.00  0.00    -0.289 OA
ATOM      5  C   UNL     1      10.736  -4.908   8.058  1.00  0.00     0.107 A 
ATOM      6  C   UNL     1      10.097  -5.728   7.080  1.00  0.00     0.134 A 
ATOM      7  C   UNL     1       9.231  -6.748   7.494  1.00  0.00     0.093 A 
ATOM      8  C   UNL     1       8.935  -6.937   8.846  1.00  0.00     0.123 A 
ATOM      9  C   UNL     1       9.512  -6.108   9.805  1.00  0.00     0.094 A 
ATOM     10  C   UNL     1      10.406  -5.104   9.425  1.00  0.00     0.146 A 
ATOM     11  O   UNL     1      10.945  -4.343  10.373  1.00  0.00    -0.456 OA
ENDROOT
BRANCH   1  12
ATOM     12  C   UNL     1      12.352  -2.582  11.261  1.00  0.00     0.021 A 
ATOM     13  C   UNL     1      12.485  -3.131  12.550  1.00  0.00     0.016 A 
ATOM     14  C   UNL     1      12.997  -2.363  13.600  1.00  0.00     0.051 A 
ATOM     15  C   UNL     1      13.390  -1.037  13.378  1.00  0.00     0.157 A 
ATOM     16  C   UNL     1      12.763  -1.253  11.045  1.00  0.00     0.062 A 
ATOM     17  C   UNL     1      13.274  -0.482  12.098  1.00  0.00     0.158 A 
BRANCH  15  18
ATOM     18  O   UNL     1      13.898  -0.268  14.423  1.00  0.00    -0.504 OA
ATOM     19  H   UNL     1      13.864   0.745  14.401  1.00  0.00     0.293 HD
ENDBRANCH  15  18
BRANCH  17  20
ATOM     20  O   UNL     1      13.670   0.837  11.880  1.00  0.00    -0.504 OA
ATOM     21  H   UNL     1      13.640   1.253  10.957  1.00  0.00     0.293 HD
ENDBRANCH  17  20
ENDBRANCH   1  12
BRANCH   6  22
ATOM     22  O   UNL     1      10.258  -5.568   5.700  1.00  0.00    -0.507 OA
ATOM     23  H   UNL     1      10.035  -6.268   5.009  1.00  0.00     0.293 HD
ENDBRANCH   6  22
BRANCH   8  24
ATOM     24  O   UNL     1       8.060  -7.946   9.247  1.00  0.00    -0.508 OA
ATOM     25  H   UNL     1       7.074  -7.765   9.394  1.00  0.00     0.293 HD
ENDBRANCH   8  24
TORSDOF 5
ENDMDL
MODEL 9
REMARK VINA RESULT:    -7.195      4.172      7.944
REMARK INTER + INTRA:          -8.727
REMARK INTER:                  -8.429
REMARK INTRA:                  -0.298
REMARK UNBOUND:                -0.270
REMARK SMILES O=c1cc(-c2ccc(O)c(O)c2)oc2cc(O)cc(O)c12
REMARK SMILES IDX 4 1 3 2 2 3 1 4 21 5 19 6 18 7 16 8 15 9 14 10 13 11 5 12
REMARK SMILES IDX 6 13 7 14 8 15 12 16 10 17 9 18 11 20 20 22 17 24
REMARK H PARENT 9 19 11 21 20 23 17 25
REMARK Flexibility Score: inf
ROOT
ATOM      1  C   UNL     1       8.894  -4.155  12.509  1.00  0.00     0.138 A 
ATOM      2  C   UNL     1      10.125  -4.675  12.087  1.00  0.00     0.100 A 
ATOM      3  C   UNL     1      11.056  -5.101  13.037  1.00  0.00     0.197 A 
ATOM      4  O   UNL     1      12.176  -5.504  12.631  1.00  0.00    -0.289 OA
ATOM      5  C   UNL     1      10.736  -5.034  14.413  1.00  0.00     0.107 A 
ATOM      6  C   UNL     1      11.590  -5.476  15.468  1.00  0.00     0.134 A 
ATOM      7  C   UNL     1      11.216  -5.252  16.799  1.00  0.00     0.093 A 
ATOM      8  C   UNL     1       9.991  -4.657  17.113  1.00  0.00     0.123 A 
ATOM      9  C   UNL     1       9.127  -4.270  16.091  1.00  0.00     0.094 A 
ATOM     10  C   UNL     1       9.488  -4.449  14.754  1.00  0.00     0.146 A 
ATOM     11  O   UNL     1       8.640  -4.052  13.809  1.00  0.00    -0.456 OA
ENDROOT
BRANCH   1  12
ATOM     12  C   UNL     1       7.868  -3.690  11.541  1.00  0.00     0.021 A 
ATOM     13  C   UNL     1       7.590  -4.400  10.357  1.00  0.00     0.016 A 
ATOM     14  C   UNL     1       6.612  -3.943   9.470  1.00  0.00     0.051 A 
ATOM     15  C   UNL     1       5.890  -2.777   9.752  1.00  0.00     0.157 A 
ATOM     16  C   UNL     1       7.127  -2.527  11.823  1.00  0.00     0.062 A 
ATOM     17  C   UNL     1       6.147  -2.069  10.932  1.00  0.00     0.158 A 
BRANCH  15  18
ATOM     18  O   UNL     1       4.915  -2.320   8.868  1.00  0.00    -0.504 OA
ATOM     19  H   UNL     1       4.534  -1.383   8.937  1.00  0.00     0.293 HD
ENDBRANCH  15  18
BRANCH  17  20
ATOM     20  O   UNL     1       5.423  -0.911  11.212  1.00  0.00    -0.504 OA
ATOM     21  H   UNL     1       5.535  -0.416  12.089  1.00  0.00     0.293 HD
ENDBRANCH  17  20
ENDBRANCH   1  12
BRANCH   6  22
ATOM     22  O   UNL     1      12.794  -6.158  15.265  1.00  0.00    -0.507 OA
ATOM     23  H   UNL     1      12.875  -7.072  14.848  1.00  0.00     0.293 HD
ENDBRANCH   6  22
BRANCH   8  24
ATOM     24  O   UNL     1       9.621  -4.452  18.441  1.00  0.00    -0.508 OA
ATOM     25  H   UNL     1       8.650  -4.357  18.712  1.00  0.00     0.293 HD
ENDBRANCH   8  24
TORSDOF 5
ENDMDL
