MODEL 1
REMARK VINA RESULT:     0.714      0.000      0.000
REMARK INTER + INTRA:           0.330
REMARK INTER:                   1.174
REMARK INTRA:                  -0.844
REMARK UNBOUND:                -0.844
REMARK SMILES C[C@H]1O[C@@H](OC[C@H]2O[C@H](Oc3c(-c4ccc(O)c(O)c4)oc4cc(O)cc(O)c4c3=O)[C@@H](O)[C@H](O)[C@@H]2O)[C@H](O)[C@H](O)[C@H]1O
REMARK SMILES IDX 7 1 36 2 34 3 32 4 9 5 8 6 6 7 5 8 4 9 1 10 2 11 42 12 3 13
REMARK SMILES IDX 40 14 38 15 43 16 41 18 39 20 37 22 35 24 10 26 11 27 12 28
REMARK SMILES IDX 30 29 21 30 29 31 31 32 22 33 27 34 23 35 26 36 24 37 13 38
REMARK SMILES IDX 20 39 14 40 18 41 15 42 16 43 19 44 17 46 28 48 25 50 33 52
REMARK H PARENT 43 17 41 19 39 21 37 23 35 25 19 45 17 47 28 49 25 51 33 53
REMARK Flexibility Score: inf
ROOT
ATOM      1  C   UNL     1     367.772 242.098 275.692  1.00  0.00     0.180 C 
ATOM      2  C   UNL     1     367.383 241.763 277.151  1.00  0.00     0.177 C 
ATOM      3  C   UNL     1     365.935 242.206 277.436  1.00  0.00     0.180 C 
ATOM      4  C   UNL     1     364.994 241.658 276.346  1.00  0.00     0.214 C 
ATOM      5  C   UNL     1     365.537 241.988 274.940  1.00  0.00     0.339 C 
ATOM      6  O   UNL     1     366.863 241.505 274.773  1.00  0.00    -0.332 OA
ENDROOT
BRANCH   1   7
ATOM      7  C   UNL     1     369.184 241.589 275.361  1.00  0.00     0.198 C 
BRANCH   7   8
ATOM      8  O   UNL     1     370.158 242.472 275.894  1.00  0.00    -0.347 OA
BRANCH   8   9
ATOM      9  C   UNL     1     371.188 242.761 274.960  1.00  0.00     0.281 C 
ATOM     10  C   UNL     1     371.454 239.884 276.115  1.00  0.00     0.041 C 
ATOM     11  C   UNL     1     372.388 240.698 275.200  1.00  0.00     0.150 C 
ATOM     12  C   UNL     1     373.546 241.412 275.941  1.00  0.00     0.174 C 
ATOM     13  O   UNL     1     371.668 241.573 274.334  1.00  0.00    -0.344 OA
ATOM     14  C   UNL     1     373.047 242.681 276.658  1.00  0.00     0.179 C 
ATOM     15  C   UNL     1     372.304 243.571 275.657  1.00  0.00     0.202 C 
BRANCH  12  16
ATOM     16  O   UNL     1     374.218 240.539 276.817  1.00  0.00    -0.388 OA
ATOM     17  H   UNL     1     373.642 240.390 277.611  1.00  0.00     0.211 HD
ENDBRANCH  12  16
BRANCH  14  18
ATOM     18  O   UNL     1     374.103 243.380 277.278  1.00  0.00    -0.387 OA
ATOM     19  H   UNL     1     374.858 242.748 277.410  1.00  0.00     0.211 HD
ENDBRANCH  14  18
BRANCH  15  20
ATOM     20  O   UNL     1     373.202 244.076 274.700  1.00  0.00    -0.385 OA
ATOM     21  H   UNL     1     372.655 244.477 273.975  1.00  0.00     0.211 HD
ENDBRANCH  15  20
ENDBRANCH   8   9
ENDBRANCH   7   8
ENDBRANCH   1   7
BRANCH   2  22
ATOM     22  O   UNL     1     368.259 242.402 278.043  1.00  0.00    -0.387 OA
ATOM     23  H   UNL     1     368.559 243.235 277.590  1.00  0.00     0.211 HD
ENDBRANCH   2  22
BRANCH   3  24
ATOM     24  O   UNL     1     365.865 243.612 277.482  1.00  0.00    -0.387 OA
ATOM     25  H   UNL     1     366.792 243.951 277.355  1.00  0.00     0.211 HD
ENDBRANCH   3  24
BRANCH   5  26
ATOM     26  O   UNL     1     365.449 243.397 274.695  1.00  0.00    -0.454 OA
BRANCH  26  27
ATOM     27  C   UNL     1     365.847 244.015 273.500  1.00  0.00     0.214 A 
ATOM     28  C   UNL     1     366.602 245.205 273.553  1.00  0.00     0.180 A 
ATOM     29  C   UNL     1     365.510 243.485 272.242  1.00  0.00     0.239 A 
ATOM     30  O   UNL     1     366.932 245.832 272.428  1.00  0.00    -0.452 OA
ATOM     31  C   UNL     1     365.888 244.175 271.071  1.00  0.00     0.111 A 
ATOM     32  O   UNL     1     364.893 242.389 272.173  1.00  0.00    -0.285 OA
ATOM     33  C   UNL     1     366.609 245.382 271.221  1.00  0.00     0.146 A 
ATOM     34  C   UNL     1     365.580 243.718 269.766  1.00  0.00     0.134 A 
ATOM     35  C   UNL     1     367.000 246.117 270.098  1.00  0.00     0.094 A 
ATOM     36  C   UNL     1     365.984 244.469 268.651  1.00  0.00     0.093 A 
ATOM     37  C   UNL     1     366.689 245.661 268.813  1.00  0.00     0.123 A 
BRANCH  28  38
ATOM     38  C   UNL     1     367.007 245.820 274.839  1.00  0.00     0.025 A 
ATOM     39  C   UNL     1     367.864 245.115 275.702  1.00  0.00     0.062 A 
ATOM     40  C   UNL     1     366.544 247.089 275.226  1.00  0.00     0.016 A 
ATOM     41  C   UNL     1     368.289 245.683 276.908  1.00  0.00     0.158 A 
ATOM     42  C   UNL     1     366.978 247.663 276.423  1.00  0.00     0.051 A 
ATOM     43  C   UNL     1     367.855 246.968 277.265  1.00  0.00     0.157 A 
BRANCH  41  44
ATOM     44  O   UNL     1     369.147 244.957 277.734  1.00  0.00    -0.504 OA
ATOM     45  H   UNL     1     369.076 244.989 278.744  1.00  0.00     0.293 HD
ENDBRANCH  41  44
BRANCH  43  46
ATOM     46  O   UNL     1     368.294 247.549 278.454  1.00  0.00    -0.504 OA
ATOM     47  H   UNL     1     368.892 248.367 278.455  1.00  0.00     0.293 HD
ENDBRANCH  43  46
ENDBRANCH  28  38
BRANCH  34  48
ATOM     48  O   UNL     1     364.879 242.527 269.572  1.00  0.00    -0.507 OA
ATOM     49  H   UNL     1     364.500 241.997 270.347  1.00  0.00     0.293 HD
ENDBRANCH  34  48
BRANCH  37  50
ATOM     50  O   UNL     1     367.080 246.391 267.690  1.00  0.00    -0.508 OA
ATOM     51  H   UNL     1     366.426 246.627 266.956  1.00  0.00     0.293 HD
ENDBRANCH  37  50
ENDBRANCH  26  27
ENDBRANCH   5  26
BRANCH   4  52
ATOM     52  O   UNL     1     364.875 240.266 276.504  1.00  0.00    -0.384 OA
ATOM     53  H   UNL     1     365.623 239.971 277.086  1.00  0.00     0.211 HD
ENDBRANCH   4  52
TORSDOF 16
ENDMDL
MODEL 2
REMARK VINA RESULT:     0.738      0.830      1.717
REMARK INTER + INTRA:           0.369
REMARK INTER:                   0.083
REMARK INTRA:                   0.286
REMARK UNBOUND:                -0.844
REMARK SMILES C[C@H]1O[C@@H](OC[C@H]2O[C@H](Oc3c(-c4ccc(O)c(O)c4)oc4cc(O)cc(O)c4c3=O)[C@@H](O)[C@H](O)[C@@H]2O)[C@H](O)[C@H](O)[C@H]1O
REMARK SMILES IDX 7 1 36 2 34 3 32 4 9 5 8 6 6 7 5 8 4 9 1 10 2 11 42 12 3 13
REMARK SMILES IDX 40 14 38 15 43 16 41 18 39 20 37 22 35 24 10 26 11 27 12 28
REMARK SMILES IDX 30 29 21 30 29 31 31 32 22 33 27 34 23 35 26 36 24 37 13 38
REMARK SMILES IDX 20 39 14 40 18 41 15 42 16 43 19 44 17 46 28 48 25 50 33 52
REMARK H PARENT 43 17 41 19 39 21 37 23 35 25 19 45 17 47 28 49 25 51 33 53
REMARK Flexibility Score: inf
ROOT
ATOM      1  C   UNL     1     367.696 242.477 275.719  1.00  0.00     0.180 C 
ATOM      2  C   UNL     1     367.233 242.124 277.152  1.00  0.00     0.177 C 
ATOM      3  C   UNL     1     365.744 242.474 277.335  1.00  0.00     0.180 C 
ATOM      4  C   UNL     1     364.915 241.863 276.190  1.00  0.00     0.214 C 
ATOM      5  C   UNL     1     365.529 242.221 274.821  1.00  0.00     0.339 C 
ATOM      6  O   UNL     1     366.891 241.823 274.746  1.00  0.00    -0.332 OA
ENDROOT
BRANCH   1   7
ATOM      7  C   UNL     1     369.157 242.058 275.487  1.00  0.00     0.198 C 
BRANCH   7   8
ATOM      8  O   UNL     1     369.776 241.744 276.724  1.00  0.00    -0.347 OA
BRANCH   8   9
ATOM      9  C   UNL     1     370.983 241.015 276.551  1.00  0.00     0.281 C 
ATOM     10  C   UNL     1     371.525 244.040 277.039  1.00  0.00     0.041 C 
ATOM     11  C   UNL     1     372.475 242.889 276.659  1.00  0.00     0.150 C 
ATOM     12  C   UNL     1     372.780 242.785 275.143  1.00  0.00     0.174 C 
ATOM     13  O   UNL     1     372.070 241.644 277.225  1.00  0.00    -0.344 OA
ATOM     14  C   UNL     1     371.603 242.141 274.384  1.00  0.00     0.179 C 
ATOM     15  C   UNL     1     371.245 240.805 275.042  1.00  0.00     0.202 C 
BRANCH  12  16
ATOM     16  O   UNL     1     373.141 244.031 274.600  1.00  0.00    -0.388 OA
ATOM     17  H   UNL     1     372.326 244.593 274.538  1.00  0.00     0.211 HD
ENDBRANCH  12  16
BRANCH  14  18
ATOM     18  O   UNL     1     371.895 241.975 273.015  1.00  0.00    -0.387 OA
ATOM     19  H   UNL     1     371.088 242.227 272.493  1.00  0.00     0.211 HD
ENDBRANCH  14  18
BRANCH  15  20
ATOM     20  O   UNL     1     372.289 239.880 274.860  1.00  0.00    -0.385 OA
ATOM     21  H   UNL     1     372.578 239.955 273.913  1.00  0.00     0.211 HD
ENDBRANCH  15  20
ENDBRANCH   8   9
ENDBRANCH   7   8
ENDBRANCH   1   7
BRANCH   2  22
ATOM     22  O   UNL     1     368.004 242.821 278.094  1.00  0.00    -0.387 OA
ATOM     23  H   UNL     1     368.946 242.762 277.783  1.00  0.00     0.211 HD
ENDBRANCH   2  22
BRANCH   3  24
ATOM     24  O   UNL     1     365.582 243.873 277.365  1.00  0.00    -0.387 OA
ATOM     25  H   UNL     1     365.442 244.167 276.424  1.00  0.00     0.211 HD
ENDBRANCH   3  24
BRANCH   5  26
ATOM     26  O   UNL     1     365.368 243.620 274.558  1.00  0.00    -0.454 OA
BRANCH  26  27
ATOM     27  C   UNL     1     365.736 244.244 273.357  1.00  0.00     0.214 A 
ATOM     28  C   UNL     1     366.422 245.475 273.397  1.00  0.00     0.180 A 
ATOM     29  C   UNL     1     365.437 243.678 272.105  1.00  0.00     0.239 A 
ATOM     30  O   UNL     1     366.722 246.105 272.265  1.00  0.00    -0.452 OA
ATOM     31  C   UNL     1     365.781 244.373 270.926  1.00  0.00     0.111 A 
ATOM     32  O   UNL     1     364.883 242.548 272.048  1.00  0.00    -0.285 OA
ATOM     33  C   UNL     1     366.431 245.622 271.063  1.00  0.00     0.146 A 
ATOM     34  C   UNL     1     365.506 243.882 269.627  1.00  0.00     0.134 A 
ATOM     35  C   UNL     1     366.786 246.362 269.932  1.00  0.00     0.094 A 
ATOM     36  C   UNL     1     365.872 244.640 268.503  1.00  0.00     0.093 A 
ATOM     37  C   UNL     1     366.508 245.873 268.652  1.00  0.00     0.123 A 
BRANCH  28  38
ATOM     38  C   UNL     1     366.785 246.130 274.676  1.00  0.00     0.025 A 
ATOM     39  C   UNL     1     367.518 245.410 275.636  1.00  0.00     0.062 A 
ATOM     40  C   UNL     1     366.401 247.451 274.962  1.00  0.00     0.016 A 
ATOM     41  C   UNL     1     367.902 246.012 276.840  1.00  0.00     0.158 A 
ATOM     42  C   UNL     1     366.796 248.057 276.157  1.00  0.00     0.051 A 
ATOM     43  C   UNL     1     367.551 247.345 277.097  1.00  0.00     0.157 A 
BRANCH  41  44
ATOM     44  O   UNL     1     368.638 245.270 277.763  1.00  0.00    -0.504 OA
ATOM     45  H   UNL     1     369.433 245.660 278.256  1.00  0.00     0.293 HD
ENDBRANCH  41  44
BRANCH  43  46
ATOM     46  O   UNL     1     367.952 247.957 278.284  1.00  0.00    -0.504 OA
ATOM     47  H   UNL     1     368.930 248.094 278.506  1.00  0.00     0.293 HD
ENDBRANCH  43  46
ENDBRANCH  28  38
BRANCH  34  48
ATOM     48  O   UNL     1     364.875 242.651 269.445  1.00  0.00    -0.507 OA
ATOM     49  H   UNL     1     364.671 242.286 268.522  1.00  0.00     0.293 HD
ENDBRANCH  34  48
BRANCH  37  50
ATOM     50  O   UNL     1     366.862 246.608 267.520  1.00  0.00    -0.508 OA
ATOM     51  H   UNL     1     366.667 246.274 266.587  1.00  0.00     0.293 HD
ENDBRANCH  37  50
ENDBRANCH  26  27
ENDBRANCH   5  26
BRANCH   4  52
ATOM     52  O   UNL     1     364.875 240.467 276.351  1.00  0.00    -0.384 OA
ATOM     53  H   UNL     1     365.613 240.086 275.807  1.00  0.00     0.211 HD
ENDBRANCH   4  52
TORSDOF 16
ENDMDL
MODEL 3
REMARK VINA RESULT:     2.539      2.153      3.284
REMARK INTER + INTRA:           3.328
REMARK INTER:                   3.556
REMARK INTRA:                  -0.228
REMARK UNBOUND:                -0.844
REMARK SMILES C[C@H]1O[C@@H](OC[C@H]2O[C@H](Oc3c(-c4ccc(O)c(O)c4)oc4cc(O)cc(O)c4c3=O)[C@@H](O)[C@H](O)[C@@H]2O)[C@H](O)[C@H](O)[C@H]1O
REMARK SMILES IDX 7 1 36 2 34 3 32 4 9 5 8 6 6 7 5 8 4 9 1 10 2 11 42 12 3 13
REMARK SMILES IDX 40 14 38 15 43 16 41 18 39 20 37 22 35 24 10 26 11 27 12 28
REMARK SMILES IDX 30 29 21 30 29 31 31 32 22 33 27 34 23 35 26 36 24 37 13 38
REMARK SMILES IDX 20 39 14 40 18 41 15 42 16 43 19 44 17 46 28 48 25 50 33 52
REMARK H PARENT 43 17 41 19 39 21 37 23 35 25 19 45 17 47 28 49 25 51 33 53
REMARK Flexibility Score: inf
ROOT
ATOM      1  C   UNL     1     367.592 244.038 274.923  1.00  0.00     0.180 C 
ATOM      2  C   UNL     1     367.009 244.453 276.294  1.00  0.00     0.177 C 
ATOM      3  C   UNL     1     365.477 244.584 276.208  1.00  0.00     0.180 C 
ATOM      4  C   UNL     1     364.875 243.313 275.578  1.00  0.00     0.214 C 
ATOM      5  C   UNL     1     365.598 242.963 274.261  1.00  0.00     0.339 C 
ATOM      6  O   UNL     1     366.998 242.831 274.460  1.00  0.00    -0.332 OA
ENDROOT
BRANCH   1   7
ATOM      7  C   UNL     1     369.112 243.819 275.007  1.00  0.00     0.198 C 
BRANCH   7   8
ATOM      8  O   UNL     1     369.404 242.431 275.027  1.00  0.00    -0.347 OA
BRANCH   8   9
ATOM      9  C   UNL     1     370.667 242.157 275.616  1.00  0.00     0.281 C 
ATOM     10  C   UNL     1     368.399 240.477 276.924  1.00  0.00     0.041 C 
ATOM     11  C   UNL     1     369.883 240.641 277.301  1.00  0.00     0.150 C 
ATOM     12  C   UNL     1     370.148 241.683 278.417  1.00  0.00     0.174 C 
ATOM     13  O   UNL     1     370.712 240.839 276.157  1.00  0.00    -0.344 OA
ATOM     14  C   UNL     1     370.068 243.120 277.865  1.00  0.00     0.179 C 
ATOM     15  C   UNL     1     370.999 243.251 276.656  1.00  0.00     0.202 C 
BRANCH  12  16
ATOM     16  O   UNL     1     369.294 241.491 279.519  1.00  0.00    -0.388 OA
ATOM     17  H   UNL     1     369.330 242.304 280.087  1.00  0.00     0.211 HD
ENDBRANCH  12  16
BRANCH  14  18
ATOM     18  O   UNL     1     370.377 244.076 278.854  1.00  0.00    -0.387 OA
ATOM     19  H   UNL     1     369.602 244.144 279.472  1.00  0.00     0.211 HD
ENDBRANCH  14  18
BRANCH  15  20
ATOM     20  O   UNL     1     372.340 243.138 277.062  1.00  0.00    -0.385 OA
ATOM     21  H   UNL     1     372.463 243.759 277.826  1.00  0.00     0.211 HD
ENDBRANCH  15  20
ENDBRANCH   8   9
ENDBRANCH   7   8
ENDBRANCH   1   7
BRANCH   2  22
ATOM     22  O   UNL     1     367.567 245.673 276.706  1.00  0.00    -0.387 OA
ATOM     23  H   UNL     1     366.969 246.385 276.357  1.00  0.00     0.211 HD
ENDBRANCH   2  22
BRANCH   3  24
ATOM     24  O   UNL     1     365.135 245.717 275.445  1.00  0.00    -0.387 OA
ATOM     25  H   UNL     1     365.966 246.255 275.339  1.00  0.00     0.211 HD
ENDBRANCH   3  24
BRANCH   5  26
ATOM     26  O   UNL     1     365.293 243.937 273.256  1.00  0.00    -0.454 OA
BRANCH  26  27
ATOM     27  C   UNL     1     365.535 243.758 271.885  1.00  0.00     0.214 A 
ATOM     28  C   UNL     1     366.014 244.841 271.119  1.00  0.00     0.180 A 
ATOM     29  C   UNL     1     365.309 242.526 271.246  1.00  0.00     0.239 A 
ATOM     30  O   UNL     1     366.188 244.701 269.808  1.00  0.00    -0.452 OA
ATOM     31  C   UNL     1     365.516 242.414 269.855  1.00  0.00     0.111 A 
ATOM     32  O   UNL     1     364.944 241.530 271.926  1.00  0.00    -0.285 OA
ATOM     33  C   UNL     1     365.959 243.564 269.160  1.00  0.00     0.146 A 
ATOM     34  C   UNL     1     365.302 241.216 269.132  1.00  0.00     0.134 A 
ATOM     35  C   UNL     1     366.170 243.518 267.780  1.00  0.00     0.094 A 
ATOM     36  C   UNL     1     365.522 241.190 267.745  1.00  0.00     0.093 A 
ATOM     37  C   UNL     1     365.953 242.332 267.071  1.00  0.00     0.123 A 
BRANCH  28  38
ATOM     38  C   UNL     1     366.288 246.168 271.720  1.00  0.00     0.025 A 
ATOM     39  C   UNL     1     365.499 246.615 272.794  1.00  0.00     0.062 A 
ATOM     40  C   UNL     1     367.310 247.000 271.232  1.00  0.00     0.016 A 
ATOM     41  C   UNL     1     365.755 247.849 273.403  1.00  0.00     0.158 A 
ATOM     42  C   UNL     1     367.575 248.225 271.847  1.00  0.00     0.051 A 
ATOM     43  C   UNL     1     366.805 248.653 272.936  1.00  0.00     0.157 A 
BRANCH  41  44
ATOM     44  O   UNL     1     364.958 248.255 274.473  1.00  0.00    -0.504 OA
ATOM     45  H   UNL     1     364.540 247.591 275.114  1.00  0.00     0.293 HD
ENDBRANCH  41  44
BRANCH  43  46
ATOM     46  O   UNL     1     367.080 249.872 273.554  1.00  0.00    -0.504 OA
ATOM     47  H   UNL     1     367.887 250.427 273.296  1.00  0.00     0.293 HD
ENDBRANCH  43  46
ENDBRANCH  28  38
BRANCH  34  48
ATOM     48  O   UNL     1     364.875 240.056 269.779  1.00  0.00    -0.507 OA
ATOM     49  H   UNL     1     364.271 240.088 270.591  1.00  0.00     0.293 HD
ENDBRANCH  34  48
BRANCH  37  50
ATOM     50  O   UNL     1     366.164 242.282 265.693  1.00  0.00    -0.508 OA
ATOM     51  H   UNL     1     367.028 241.936 265.300  1.00  0.00     0.293 HD
ENDBRANCH  37  50
ENDBRANCH  26  27
ENDBRANCH   5  26
BRANCH   4  52
ATOM     52  O   UNL     1     364.994 242.251 276.491  1.00  0.00    -0.384 OA
ATOM     53  H   UNL     1     364.246 241.623 276.312  1.00  0.00     0.211 HD
ENDBRANCH   4  52
TORSDOF 16
ENDMDL
