MODEL 1
REMARK VINA RESULT:    19.951      0.000      0.000
REMARK INTER + INTRA:          23.162
REMARK INTER:                  23.450
REMARK INTRA:                  -0.288
REMARK UNBOUND:                -0.288
REMARK SMILES O=c1c(O)c(-c2ccc(O)cc2)oc2cc(O)cc(O)c12
REMARK SMILES IDX 5 1 3 2 2 3 1 4 21 5 19 6 18 7 16 8 15 9 14 10 13 11 6 12
REMARK SMILES IDX 7 13 8 14 9 15 12 16 11 17 10 18 4 20 20 22 17 24
REMARK H PARENT 10 19 4 21 20 23 17 25
REMARK Flexibility Score: inf
ROOT
ATOM      1  C   UNL     1      -4.997  -0.544  12.788  1.00  0.00     0.180 A 
ATOM      2  C   UNL     1      -5.564  -1.189  13.901  1.00  0.00     0.208 A 
ATOM      3  C   UNL     1      -5.543  -2.591  13.959  1.00  0.00     0.238 A 
ATOM      4  O   UNL     1      -6.118  -3.162  14.921  1.00  0.00    -0.285 OA
ATOM      5  C   UNL     1      -4.907  -3.330  12.932  1.00  0.00     0.111 A 
ATOM      6  C   UNL     1      -4.787  -4.753  12.911  1.00  0.00     0.134 A 
ATOM      7  C   UNL     1      -4.229  -5.382  11.790  1.00  0.00     0.093 A 
ATOM      8  C   UNL     1      -3.731  -4.641  10.722  1.00  0.00     0.123 A 
ATOM      9  C   UNL     1      -3.793  -3.247  10.756  1.00  0.00     0.094 A 
ATOM     10  C   UNL     1      -4.377  -2.592  11.841  1.00  0.00     0.146 A 
ATOM     11  O   UNL     1      -4.436  -1.265  11.825  1.00  0.00    -0.452 OA
ENDROOT
BRANCH   1  12
ATOM     12  C   UNL     1      -4.993   0.930  12.648  1.00  0.00     0.021 A 
ATOM     13  C   UNL     1      -6.097   1.571  12.061  1.00  0.00     0.016 A 
ATOM     14  C   UNL     1      -6.125   2.963  11.939  1.00  0.00     0.047 A 
ATOM     15  C   UNL     1      -5.061   3.733  12.416  1.00  0.00     0.115 A 
ATOM     16  C   UNL     1      -3.935   1.712  13.145  1.00  0.00     0.016 A 
ATOM     17  C   UNL     1      -3.966   3.104  13.022  1.00  0.00     0.047 A 
BRANCH  15  18
ATOM     18  O   UNL     1      -5.103   5.120  12.287  1.00  0.00    -0.508 OA
ATOM     19  H   UNL     1      -4.307   5.644  11.939  1.00  0.00     0.293 HD
ENDBRANCH  15  18
ENDBRANCH   1  12
BRANCH   2  20
ATOM     20  O   UNL     1      -6.119  -0.438  14.941  1.00  0.00    -0.502 OA
ATOM     21  H   UNL     1      -6.959   0.117  14.823  1.00  0.00     0.293 HD
ENDBRANCH   2  20
BRANCH   6  22
ATOM     22  O   UNL     1      -5.171  -5.588  13.965  1.00  0.00    -0.507 OA
ATOM     23  H   UNL     1      -5.450  -6.552  13.867  1.00  0.00     0.293 HD
ENDBRANCH   6  22
BRANCH   8  24
ATOM     24  O   UNL     1      -3.167  -5.299   9.631  1.00  0.00    -0.508 OA
ATOM     25  H   UNL     1      -3.725  -5.572   8.830  1.00  0.00     0.293 HD
ENDBRANCH   8  24
TORSDOF 5
ENDMDL
