MODEL 1
REMARK VINA RESULT:    -2.918      0.000      0.000
REMARK INTER + INTRA:         -10.783
REMARK INTER:                  -6.672
REMARK INTRA:                  -4.111
REMARK UNBOUND:                -4.111
REMARK SMILES CCCCCCCCCCCCCCCCCCCCCCCC(=O)[O-]
REMARK SMILES IDX 13 1 14 2 15 3 16 4 17 5 18 6 19 7 20 8 21 9 22 10 23 11
REMARK SMILES IDX 24 12 25 13 26 14 12 15 11 16 10 17 9 18 8 19 7 20 6 21 5 22
REMARK SMILES IDX 4 23 3 24 2 25 1 26
REMARK H PARENT
REMARK Flexibility Score: inf
ROOT
ATOM      1  C   UNL     1      30.826 158.255 121.903  1.00  0.00     0.000 C 
ENDROOT
BRANCH   1   2
ATOM      2  C   UNL     1      29.387 158.346 121.361  1.00  0.00     0.000 C 
BRANCH   2   3
ATOM      3  C   UNL     1      28.557 159.450 122.040  1.00  0.00     0.000 C 
BRANCH   3   4
ATOM      4  C   UNL     1      28.927 160.864 121.553  1.00  0.00     0.000 C 
BRANCH   4   5
ATOM      5  C   UNL     1      27.884 161.962 121.850  1.00  0.00     0.000 C 
BRANCH   5   6
ATOM      6  C   UNL     1      26.448 161.463 122.095  1.00  0.00     0.000 C 
BRANCH   6   7
ATOM      7  C   UNL     1      25.488 161.816 120.947  1.00  0.00     0.000 C 
BRANCH   7   8
ATOM      8  C   UNL     1      24.879 160.573 120.274  1.00  0.00     0.000 C 
BRANCH   8   9
ATOM      9  C   UNL     1      25.106 159.243 121.020  1.00  0.00     0.000 C 
BRANCH   9  10
ATOM     10  C   UNL     1      25.027 157.982 120.141  1.00  0.00     0.006 C 
BRANCH  10  11
ATOM     11  C   UNL     1      26.396 157.328 119.909  1.00  0.00     0.053 C 
BRANCH  11  12
ATOM     12  C   UNL     1      26.343 155.869 120.241  1.00  0.00     0.041 C 
ATOM     13  O   UNL     1      26.636 155.469 121.400  1.00  0.00    -0.550 OA
ATOM     14  O   UNL     1      25.973 154.947 119.268  1.00  0.00    -0.550 OA
ENDBRANCH  11  12
ENDBRANCH  10  11
ENDBRANCH   9  10
ENDBRANCH   8   9
ENDBRANCH   7   8
ENDBRANCH   6   7
ENDBRANCH   5   6
ENDBRANCH   4   5
ENDBRANCH   3   4
ENDBRANCH   2   3
ENDBRANCH   1   2
BRANCH   1  15
ATOM     15  C   UNL     1      31.920 158.063 120.835  1.00  0.00     0.000 C 
BRANCH  15  16
ATOM     16  C   UNL     1      32.908 159.239 120.772  1.00  0.00     0.000 C 
BRANCH  16  17
ATOM     17  C   UNL     1      32.594 160.325 121.816  1.00  0.00     0.000 C 
BRANCH  17  18
ATOM     18  C   UNL     1      32.154 161.655 121.178  1.00  0.00    -0.000 C 
BRANCH  18  19
ATOM     19  C   UNL     1      33.051 162.071 120.001  1.00  0.00    -0.000 C 
BRANCH  19  20
ATOM     20  C   UNL     1      32.303 162.074 118.658  1.00  0.00    -0.000 C 
BRANCH  20  21
ATOM     21  C   UNL     1      30.834 161.628 118.787  1.00  0.00    -0.000 C 
BRANCH  21  22
ATOM     22  C   UNL     1      30.516 160.236 118.211  1.00  0.00    -0.000 C 
BRANCH  22  23
ATOM     23  C   UNL     1      29.069 160.113 117.704  1.00  0.00    -0.000 C 
BRANCH  23  24
ATOM     24  C   UNL     1      28.255 161.396 117.934  1.00  0.00    -0.000 C 
BRANCH  24  25
ATOM     25  C   UNL     1      26.802 161.267 117.453  1.00  0.00    -0.003 C 
ATOM     26  C   UNL     1      26.544 159.889 116.848  1.00  0.00     0.004 C 
ENDBRANCH  24  25
ENDBRANCH  23  24
ENDBRANCH  22  23
ENDBRANCH  21  22
ENDBRANCH  20  21
ENDBRANCH  19  20
ENDBRANCH  18  19
ENDBRANCH  17  18
ENDBRANCH  16  17
ENDBRANCH  15  16
ENDBRANCH   1  15
TORSDOF 22
ENDMDL
MODEL 2
REMARK VINA RESULT:    -1.933      6.603     10.152
REMARK INTER + INTRA:          -8.531
REMARK INTER:                  -6.646
REMARK INTRA:                  -1.884
REMARK UNBOUND:                -4.111
REMARK SMILES CCCCCCCCCCCCCCCCCCCCCCCC(=O)[O-]
REMARK SMILES IDX 13 1 14 2 15 3 16 4 17 5 18 6 19 7 20 8 21 9 22 10 23 11
REMARK SMILES IDX 24 12 25 13 26 14 12 15 11 16 10 17 9 18 8 19 7 20 6 21 5 22
REMARK SMILES IDX 4 23 3 24 2 25 1 26
REMARK H PARENT
REMARK Flexibility Score: inf
ROOT
ATOM      1  C   UNL     1      32.949 159.413 121.650  1.00  0.00     0.000 C 
ENDROOT
BRANCH   1   2
ATOM      2  C   UNL     1      33.218 160.807 121.052  1.00  0.00     0.000 C 
BRANCH   2   3
ATOM      3  C   UNL     1      34.080 161.697 121.965  1.00  0.00     0.000 C 
BRANCH   3   4
ATOM      4  C   UNL     1      35.499 161.929 121.410  1.00  0.00     0.000 C 
BRANCH   4   5
ATOM      5  C   UNL     1      36.417 160.687 121.395  1.00  0.00     0.000 C 
BRANCH   5   6
ATOM      6  C   UNL     1      37.924 160.980 121.283  1.00  0.00     0.000 C 
BRANCH   6   7
ATOM      7  C   UNL     1      38.259 161.972 120.157  1.00  0.00     0.000 C 
BRANCH   7   8
ATOM      8  C   UNL     1      39.708 161.838 119.654  1.00  0.00     0.000 C 
BRANCH   8   9
ATOM      9  C   UNL     1      39.856 161.368 118.192  1.00  0.00     0.000 C 
BRANCH   9  10
ATOM     10  C   UNL     1      41.172 161.780 117.507  1.00  0.00     0.006 C 
BRANCH  10  11
ATOM     11  C   UNL     1      42.163 160.617 117.372  1.00  0.00     0.053 C 
BRANCH  11  12
ATOM     12  C   UNL     1      42.722 160.563 115.983  1.00  0.00     0.041 C 
ATOM     13  O   UNL     1      42.919 159.453 115.419  1.00  0.00    -0.550 OA
ATOM     14  O   UNL     1      43.030 161.741 115.311  1.00  0.00    -0.550 OA
ENDBRANCH  11  12
ENDBRANCH  10  11
ENDBRANCH   9  10
ENDBRANCH   8   9
ENDBRANCH   7   8
ENDBRANCH   6   7
ENDBRANCH   5   6
ENDBRANCH   4   5
ENDBRANCH   3   4
ENDBRANCH   2   3
ENDBRANCH   1   2
BRANCH   1  15
ATOM     15  C   UNL     1      31.824 158.611 120.968  1.00  0.00     0.000 C 
BRANCH  15  16
ATOM     16  C   UNL     1      30.805 158.040 121.968  1.00  0.00     0.000 C 
BRANCH  16  17
ATOM     17  C   UNL     1      29.388 158.596 121.742  1.00  0.00     0.000 C 
BRANCH  17  18
ATOM     18  C   UNL     1      28.407 157.529 121.222  1.00  0.00    -0.000 C 
BRANCH  18  19
ATOM     19  C   UNL     1      27.249 158.135 120.414  1.00  0.00    -0.000 C 
BRANCH  19  20
ATOM     20  C   UNL     1      27.097 159.649 120.641  1.00  0.00    -0.000 C 
BRANCH  20  21
ATOM     21  C   UNL     1      26.694 160.411 119.364  1.00  0.00    -0.000 C 
BRANCH  21  22
ATOM     22  C   UNL     1      27.832 161.188 118.676  1.00  0.00    -0.000 C 
BRANCH  22  23
ATOM     23  C   UNL     1      28.642 160.322 117.696  1.00  0.00    -0.000 C 
BRANCH  23  24
ATOM     24  C   UNL     1      29.981 159.857 118.290  1.00  0.00    -0.000 C 
BRANCH  24  25
ATOM     25  C   UNL     1      31.110 160.876 118.070  1.00  0.00    -0.003 C 
ATOM     26  C   UNL     1      32.320 160.221 117.410  1.00  0.00     0.004 C 
ENDBRANCH  24  25
ENDBRANCH  23  24
ENDBRANCH  22  23
ENDBRANCH  21  22
ENDBRANCH  20  21
ENDBRANCH  19  20
ENDBRANCH  18  19
ENDBRANCH  17  18
ENDBRANCH  16  17
ENDBRANCH  15  16
ENDBRANCH   1  15
TORSDOF 22
ENDMDL
MODEL 3
REMARK VINA RESULT:    -1.820      4.106      7.442
REMARK INTER + INTRA:          -8.272
REMARK INTER:                  -5.829
REMARK INTRA:                  -2.444
REMARK UNBOUND:                -4.111
REMARK SMILES CCCCCCCCCCCCCCCCCCCCCCCC(=O)[O-]
REMARK SMILES IDX 13 1 14 2 15 3 16 4 17 5 18 6 19 7 20 8 21 9 22 10 23 11
REMARK SMILES IDX 24 12 25 13 26 14 12 15 11 16 10 17 9 18 8 19 7 20 6 21 5 22
REMARK SMILES IDX 4 23 3 24 2 25 1 26
REMARK H PARENT
REMARK Flexibility Score: inf
ROOT
ATOM      1  C   UNL     1      28.943 157.421 121.101  1.00  0.00     0.000 C 
ENDROOT
BRANCH   1   2
ATOM      2  C   UNL     1      28.751 158.919 120.793  1.00  0.00     0.000 C 
BRANCH   2   3
ATOM      3  C   UNL     1      29.064 159.825 121.997  1.00  0.00     0.000 C 
BRANCH   3   4
ATOM      4  C   UNL     1      29.469 161.253 121.584  1.00  0.00     0.000 C 
BRANCH   4   5
ATOM      5  C   UNL     1      30.889 161.688 122.006  1.00  0.00     0.000 C 
BRANCH   5   6
ATOM      6  C   UNL     1      31.884 161.909 120.852  1.00  0.00     0.000 C 
BRANCH   6   7
ATOM      7  C   UNL     1      32.273 160.602 120.140  1.00  0.00     0.000 C 
BRANCH   7   8
ATOM      8  C   UNL     1      33.488 159.910 120.783  1.00  0.00     0.000 C 
BRANCH   8   9
ATOM      9  C   UNL     1      34.339 160.801 121.710  1.00  0.00     0.000 C 
BRANCH   9  10
ATOM     10  C   UNL     1      35.826 160.413 121.800  1.00  0.00     0.006 C 
BRANCH  10  11
ATOM     11  C   UNL     1      36.763 161.627 121.767  1.00  0.00     0.053 C 
BRANCH  11  12
ATOM     12  C   UNL     1      38.088 161.252 121.176  1.00  0.00     0.041 C 
ATOM     13  O   UNL     1      39.158 161.598 121.746  1.00  0.00    -0.550 OA
ATOM     14  O   UNL     1      38.141 160.522 119.994  1.00  0.00    -0.550 OA
ENDBRANCH  11  12
ENDBRANCH  10  11
ENDBRANCH   9  10
ENDBRANCH   8   9
ENDBRANCH   7   8
ENDBRANCH   6   7
ENDBRANCH   5   6
ENDBRANCH   4   5
ENDBRANCH   3   4
ENDBRANCH   2   3
ENDBRANCH   1   2
BRANCH   1  15
ATOM     15  C   UNL     1      27.676 156.678 121.565  1.00  0.00     0.000 C 
BRANCH  15  16
ATOM     16  C   UNL     1      26.471 156.914 120.640  1.00  0.00     0.000 C 
BRANCH  16  17
ATOM     17  C   UNL     1      25.254 157.476 121.396  1.00  0.00     0.000 C 
BRANCH  17  18
ATOM     18  C   UNL     1      25.419 158.960 121.770  1.00  0.00    -0.000 C 
BRANCH  18  19
ATOM     19  C   UNL     1      24.886 159.907 120.683  1.00  0.00    -0.000 C 
BRANCH  19  20
ATOM     20  C   UNL     1      26.000 160.455 119.776  1.00  0.00    -0.000 C 
BRANCH  20  21
ATOM     21  C   UNL     1      25.472 160.989 118.431  1.00  0.00    -0.000 C 
BRANCH  21  22
ATOM     22  C   UNL     1      25.111 159.912 117.392  1.00  0.00    -0.000 C 
BRANCH  22  23
ATOM     23  C   UNL     1      26.341 159.357 116.652  1.00  0.00    -0.000 C 
BRANCH  23  24
ATOM     24  C   UNL     1      27.446 160.410 116.475  1.00  0.00    -0.000 C 
BRANCH  24  25
ATOM     25  C   UNL     1      28.654 160.158 117.390  1.00  0.00    -0.003 C 
ATOM     26  C   UNL     1      29.056 161.430 118.131  1.00  0.00     0.004 C 
ENDBRANCH  24  25
ENDBRANCH  23  24
ENDBRANCH  22  23
ENDBRANCH  21  22
ENDBRANCH  20  21
ENDBRANCH  19  20
ENDBRANCH  18  19
ENDBRANCH  17  18
ENDBRANCH  16  17
ENDBRANCH  15  16
ENDBRANCH   1  15
TORSDOF 22
ENDMDL
MODEL 4
REMARK VINA RESULT:    -1.683      2.532      5.283
REMARK INTER + INTRA:          -7.958
REMARK INTER:                  -6.093
REMARK INTRA:                  -1.865
REMARK UNBOUND:                -4.111
REMARK SMILES CCCCCCCCCCCCCCCCCCCCCCCC(=O)[O-]
REMARK SMILES IDX 13 1 14 2 15 3 16 4 17 5 18 6 19 7 20 8 21 9 22 10 23 11
REMARK SMILES IDX 24 12 25 13 26 14 12 15 11 16 10 17 9 18 8 19 7 20 6 21 5 22
REMARK SMILES IDX 4 23 3 24 2 25 1 26
REMARK H PARENT
REMARK Flexibility Score: inf
ROOT
ATOM      1  C   UNL     1      30.101 159.412 121.335  1.00  0.00     0.000 C 
ENDROOT
BRANCH   1   2
ATOM      2  C   UNL     1      29.117 158.527 122.125  1.00  0.00     0.000 C 
BRANCH   2   3
ATOM      3  C   UNL     1      28.978 157.111 121.538  1.00  0.00     0.000 C 
BRANCH   3   4
ATOM      4  C   UNL     1      27.515 156.635 121.462  1.00  0.00     0.000 C 
BRANCH   4   5
ATOM      5  C   UNL     1      26.771 156.982 120.154  1.00  0.00     0.000 C 
BRANCH   5   6
ATOM      6  C   UNL     1      25.255 157.211 120.296  1.00  0.00     0.000 C 
BRANCH   6   7
ATOM      7  C   UNL     1      24.910 158.597 120.864  1.00  0.00     0.000 C 
BRANCH   7   8
ATOM      8  C   UNL     1      26.059 159.610 120.709  1.00  0.00     0.000 C 
BRANCH   8   9
ATOM      9  C   UNL     1      25.931 160.572 119.511  1.00  0.00     0.000 C 
BRANCH   9  10
ATOM     10  C   UNL     1      25.737 159.888 118.146  1.00  0.00     0.006 C 
BRANCH  10  11
ATOM     11  C   UNL     1      26.195 160.762 116.970  1.00  0.00     0.053 C 
BRANCH  11  12
ATOM     12  C   UNL     1      26.948 159.941 115.969  1.00  0.00     0.041 C 
ATOM     13  O   UNL     1      28.012 160.383 115.456  1.00  0.00    -0.550 OA
ATOM     14  O   UNL     1      26.474 158.687 115.599  1.00  0.00    -0.550 OA
ENDBRANCH  11  12
ENDBRANCH  10  11
ENDBRANCH   9  10
ENDBRANCH   8   9
ENDBRANCH   7   8
ENDBRANCH   6   7
ENDBRANCH   5   6
ENDBRANCH   4   5
ENDBRANCH   3   4
ENDBRANCH   2   3
ENDBRANCH   1   2
BRANCH   1  15
ATOM     15  C   UNL     1      30.155 160.888 121.773  1.00  0.00     0.000 C 
BRANCH  15  16
ATOM     16  C   UNL     1      30.007 161.867 120.596  1.00  0.00     0.000 C 
BRANCH  16  17
ATOM     17  C   UNL     1      29.251 161.246 119.409  1.00  0.00     0.000 C 
BRANCH  17  18
ATOM     18  C   UNL     1      30.112 160.248 118.612  1.00  0.00    -0.000 C 
BRANCH  18  19
ATOM     19  C   UNL     1      31.414 160.876 118.088  1.00  0.00    -0.000 C 
BRANCH  19  20
ATOM     20  C   UNL     1      32.640 159.979 118.320  1.00  0.00    -0.000 C 
BRANCH  20  21
ATOM     21  C   UNL     1      33.046 159.886 119.803  1.00  0.00    -0.000 C 
BRANCH  21  22
ATOM     22  C   UNL     1      33.466 161.217 120.454  1.00  0.00    -0.000 C 
BRANCH  22  23
ATOM     23  C   UNL     1      34.391 161.026 121.668  1.00  0.00    -0.000 C 
BRANCH  23  24
ATOM     24  C   UNL     1      35.797 161.601 121.431  1.00  0.00    -0.000 C 
BRANCH  24  25
ATOM     25  C   UNL     1      36.888 160.520 121.453  1.00  0.00    -0.003 C 
ATOM     26  C   UNL     1      38.087 160.932 120.603  1.00  0.00     0.004 C 
ENDBRANCH  24  25
ENDBRANCH  23  24
ENDBRANCH  22  23
ENDBRANCH  21  22
ENDBRANCH  20  21
ENDBRANCH  19  20
ENDBRANCH  18  19
ENDBRANCH  17  18
ENDBRANCH  16  17
ENDBRANCH  15  16
ENDBRANCH   1  15
TORSDOF 22
ENDMDL
MODEL 5
REMARK VINA RESULT:    -1.617      9.023     12.910
REMARK INTER + INTRA:          -7.808
REMARK INTER:                  -6.266
REMARK INTRA:                  -1.542
REMARK UNBOUND:                -4.111
REMARK SMILES CCCCCCCCCCCCCCCCCCCCCCCC(=O)[O-]
REMARK SMILES IDX 13 1 14 2 15 3 16 4 17 5 18 6 19 7 20 8 21 9 22 10 23 11
REMARK SMILES IDX 24 12 25 13 26 14 12 15 11 16 10 17 9 18 8 19 7 20 6 21 5 22
REMARK SMILES IDX 4 23 3 24 2 25 1 26
REMARK H PARENT
REMARK Flexibility Score: inf
ROOT
ATOM      1  C   UNL     1      39.165 161.686 119.691  1.00  0.00     0.000 C 
ENDROOT
BRANCH   1   2
ATOM      2  C   UNL     1      39.533 160.983 118.370  1.00  0.00     0.000 C 
BRANCH   2   3
ATOM      3  C   UNL     1      40.954 161.320 117.885  1.00  0.00     0.000 C 
BRANCH   3   4
ATOM      4  C   UNL     1      41.725 160.083 117.384  1.00  0.00     0.000 C 
BRANCH   4   5
ATOM      5  C   UNL     1      42.007 160.046 115.867  1.00  0.00     0.000 C 
BRANCH   5   6
ATOM      6  C   UNL     1      43.438 160.432 115.450  1.00  0.00     0.000 C 
BRANCH   6   7
ATOM      7  C   UNL     1      43.761 161.911 115.716  1.00  0.00     0.000 C 
BRANCH   7   8
ATOM      8  C   UNL     1      45.124 162.112 116.403  1.00  0.00     0.000 C 
BRANCH   8   9
ATOM      9  C   UNL     1      45.097 162.065 117.944  1.00  0.00     0.000 C 
BRANCH   9  10
ATOM     10  C   UNL     1      45.122 160.651 118.552  1.00  0.00     0.006 C 
BRANCH  10  11
ATOM     11  C   UNL     1      44.742 160.634 120.039  1.00  0.00     0.053 C 
BRANCH  11  12
ATOM     12  C   UNL     1      44.751 159.232 120.567  1.00  0.00     0.041 C 
ATOM     13  O   UNL     1      44.667 159.019 121.807  1.00  0.00    -0.550 OA
ATOM     14  O   UNL     1      44.855 158.159 119.689  1.00  0.00    -0.550 OA
ENDBRANCH  11  12
ENDBRANCH  10  11
ENDBRANCH   9  10
ENDBRANCH   8   9
ENDBRANCH   7   8
ENDBRANCH   6   7
ENDBRANCH   5   6
ENDBRANCH   4   5
ENDBRANCH   3   4
ENDBRANCH   2   3
ENDBRANCH   1   2
BRANCH   1  15
ATOM     15  C   UNL     1      38.408 160.814 120.711  1.00  0.00     0.000 C 
BRANCH  15  16
ATOM     16  C   UNL     1      38.055 161.573 122.001  1.00  0.00     0.000 C 
BRANCH  16  17
ATOM     17  C   UNL     1      36.579 162.005 122.041  1.00  0.00     0.000 C 
BRANCH  17  18
ATOM     18  C   UNL     1      35.610 160.838 121.772  1.00  0.00    -0.000 C 
BRANCH  18  19
ATOM     19  C   UNL     1      34.175 161.314 121.495  1.00  0.00    -0.000 C 
BRANCH  19  20
ATOM     20  C   UNL     1      33.119 160.260 121.870  1.00  0.00    -0.000 C 
BRANCH  20  21
ATOM     21  C   UNL     1      32.256 159.821 120.672  1.00  0.00    -0.000 C 
BRANCH  21  22
ATOM     22  C   UNL     1      32.662 160.422 119.314  1.00  0.00    -0.000 C 
BRANCH  22  23
ATOM     23  C   UNL     1      31.481 161.059 118.562  1.00  0.00    -0.000 C 
BRANCH  23  24
ATOM     24  C   UNL     1      30.697 160.036 117.724  1.00  0.00    -0.000 C 
BRANCH  24  25
ATOM     25  C   UNL     1      29.200 160.367 117.639  1.00  0.00    -0.003 C 
ATOM     26  C   UNL     1      28.477 159.978 118.926  1.00  0.00     0.004 C 
ENDBRANCH  24  25
ENDBRANCH  23  24
ENDBRANCH  22  23
ENDBRANCH  21  22
ENDBRANCH  20  21
ENDBRANCH  19  20
ENDBRANCH  18  19
ENDBRANCH  17  18
ENDBRANCH  16  17
ENDBRANCH  15  16
ENDBRANCH   1  15
TORSDOF 22
ENDMDL
MODEL 6
REMARK VINA RESULT:    -1.481      3.036      5.815
REMARK INTER + INTRA:          -7.497
REMARK INTER:                  -6.419
REMARK INTRA:                  -1.078
REMARK UNBOUND:                -4.111
REMARK SMILES CCCCCCCCCCCCCCCCCCCCCCCC(=O)[O-]
REMARK SMILES IDX 13 1 14 2 15 3 16 4 17 5 18 6 19 7 20 8 21 9 22 10 23 11
REMARK SMILES IDX 24 12 25 13 26 14 12 15 11 16 10 17 9 18 8 19 7 20 6 21 5 22
REMARK SMILES IDX 4 23 3 24 2 25 1 26
REMARK H PARENT
REMARK Flexibility Score: inf
ROOT
ATOM      1  C   UNL     1      30.995 158.812 120.165  1.00  0.00     0.000 C 
ENDROOT
BRANCH   1   2
ATOM      2  C   UNL     1      30.591 158.120 121.482  1.00  0.00     0.000 C 
BRANCH   2   3
ATOM      3  C   UNL     1      29.286 157.313 121.362  1.00  0.00     0.000 C 
BRANCH   3   4
ATOM      4  C   UNL     1      28.112 157.955 122.125  1.00  0.00     0.000 C 
BRANCH   4   5
ATOM      5  C   UNL     1      26.749 157.914 121.401  1.00  0.00     0.000 C 
BRANCH   5   6
ATOM      6  C   UNL     1      26.101 156.523 121.287  1.00  0.00     0.000 C 
BRANCH   6   7
ATOM      7  C   UNL     1      26.684 155.683 120.138  1.00  0.00     0.000 C 
BRANCH   7   8
ATOM      8  C   UNL     1      25.869 155.799 118.838  1.00  0.00     0.000 C 
BRANCH   8   9
ATOM      9  C   UNL     1      25.293 157.199 118.545  1.00  0.00     0.000 C 
BRANCH   9  10
ATOM     10  C   UNL     1      25.891 157.903 117.313  1.00  0.00     0.006 C 
BRANCH  10  11
ATOM     11  C   UNL     1      26.207 159.383 117.567  1.00  0.00     0.053 C 
BRANCH  11  12
ATOM     12  C   UNL     1      27.076 159.928 116.475  1.00  0.00     0.041 C 
ATOM     13  O   UNL     1      28.007 160.734 116.746  1.00  0.00    -0.550 OA
ATOM     14  O   UNL     1      26.855 159.549 115.156  1.00  0.00    -0.550 OA
ENDBRANCH  11  12
ENDBRANCH  10  11
ENDBRANCH   9  10
ENDBRANCH   8   9
ENDBRANCH   7   8
ENDBRANCH   6   7
ENDBRANCH   5   6
ENDBRANCH   4   5
ENDBRANCH   3   4
ENDBRANCH   2   3
ENDBRANCH   1   2
BRANCH   1  15
ATOM     15  C   UNL     1      29.889 159.650 119.497  1.00  0.00     0.000 C 
BRANCH  15  16
ATOM     16  C   UNL     1      29.231 160.651 120.462  1.00  0.00     0.000 C 
BRANCH  16  17
ATOM     17  C   UNL     1      30.261 161.373 121.348  1.00  0.00     0.000 C 
BRANCH  17  18
ATOM     18  C   UNL     1      31.512 161.816 120.567  1.00  0.00    -0.000 C 
BRANCH  18  19
ATOM     19  C   UNL     1      32.716 162.086 121.483  1.00  0.00    -0.000 C 
BRANCH  19  20
ATOM     20  C   UNL     1      34.060 161.792 120.797  1.00  0.00    -0.000 C 
BRANCH  20  21
ATOM     21  C   UNL     1      34.614 160.394 121.132  1.00  0.00    -0.000 C 
BRANCH  21  22
ATOM     22  C   UNL     1      36.000 160.379 121.803  1.00  0.00    -0.000 C 
BRANCH  22  23
ATOM     23  C   UNL     1      36.559 161.790 122.055  1.00  0.00    -0.000 C 
BRANCH  23  24
ATOM     24  C   UNL     1      37.757 162.118 121.150  1.00  0.00    -0.000 C 
BRANCH  24  25
ATOM     25  C   UNL     1      38.365 160.866 120.499  1.00  0.00    -0.003 C 
ATOM     26  C   UNL     1      39.349 161.244 119.394  1.00  0.00     0.004 C 
ENDBRANCH  24  25
ENDBRANCH  23  24
ENDBRANCH  22  23
ENDBRANCH  21  22
ENDBRANCH  20  21
ENDBRANCH  19  20
ENDBRANCH  18  19
ENDBRANCH  17  18
ENDBRANCH  16  17
ENDBRANCH  15  16
ENDBRANCH   1  15
TORSDOF 22
ENDMDL
MODEL 7
REMARK VINA RESULT:    -1.334      5.433      9.010
REMARK INTER + INTRA:          -7.162
REMARK INTER:                  -5.495
REMARK INTRA:                  -1.667
REMARK UNBOUND:                -4.111
REMARK SMILES CCCCCCCCCCCCCCCCCCCCCCCC(=O)[O-]
REMARK SMILES IDX 13 1 14 2 15 3 16 4 17 5 18 6 19 7 20 8 21 9 22 10 23 11
REMARK SMILES IDX 24 12 25 13 26 14 12 15 11 16 10 17 9 18 8 19 7 20 6 21 5 22
REMARK SMILES IDX 4 23 3 24 2 25 1 26
REMARK H PARENT
REMARK Flexibility Score: inf
ROOT
ATOM      1  C   UNL     1      31.102 159.475 121.319  1.00  0.00     0.000 C 
ENDROOT
BRANCH   1   2
ATOM      2  C   UNL     1      30.889 160.539 120.225  1.00  0.00     0.000 C 
BRANCH   2   3
ATOM      3  C   UNL     1      31.451 161.919 120.610  1.00  0.00     0.000 C 
BRANCH   3   4
ATOM      4  C   UNL     1      32.992 161.961 120.607  1.00  0.00     0.000 C 
BRANCH   4   5
ATOM      5  C   UNL     1      33.656 162.044 121.998  1.00  0.00     0.000 C 
BRANCH   5   6
ATOM      6  C   UNL     1      35.016 161.333 122.125  1.00  0.00     0.000 C 
BRANCH   6   7
ATOM      7  C   UNL     1      36.125 162.012 121.304  1.00  0.00     0.000 C 
BRANCH   7   8
ATOM      8  C   UNL     1      37.147 161.011 120.737  1.00  0.00     0.000 C 
BRANCH   8   9
ATOM      9  C   UNL     1      38.592 161.538 120.624  1.00  0.00     0.000 C 
BRANCH   9  10
ATOM     10  C   UNL     1      39.443 160.873 119.526  1.00  0.00     0.006 C 
BRANCH  10  11
ATOM     11  C   UNL     1      40.193 161.890 118.655  1.00  0.00     0.053 C 
BRANCH  11  12
ATOM     12  C   UNL     1      40.636 161.255 117.372  1.00  0.00     0.041 C 
ATOM     13  O   UNL     1      40.962 161.972 116.388  1.00  0.00    -0.550 OA
ATOM     14  O   UNL     1      40.684 159.870 117.262  1.00  0.00    -0.550 OA
ENDBRANCH  11  12
ENDBRANCH  10  11
ENDBRANCH   9  10
ENDBRANCH   8   9
ENDBRANCH   7   8
ENDBRANCH   6   7
ENDBRANCH   5   6
ENDBRANCH   4   5
ENDBRANCH   3   4
ENDBRANCH   2   3
ENDBRANCH   1   2
BRANCH   1  15
ATOM     15  C   UNL     1      31.060 158.014 120.832  1.00  0.00     0.000 C 
BRANCH  15  16
ATOM     16  C   UNL     1      30.209 157.106 121.736  1.00  0.00     0.000 C 
BRANCH  16  17
ATOM     17  C   UNL     1      28.747 157.577 121.829  1.00  0.00     0.000 C 
BRANCH  17  18
ATOM     18  C   UNL     1      27.740 156.464 121.482  1.00  0.00    -0.000 C 
BRANCH  18  19
ATOM     19  C   UNL     1      26.297 156.982 121.383  1.00  0.00    -0.000 C 
BRANCH  19  20
ATOM     20  C   UNL     1      26.110 158.348 122.065  1.00  0.00    -0.000 C 
BRANCH  20  21
ATOM     21  C   UNL     1      24.959 159.171 121.456  1.00  0.00    -0.000 C 
BRANCH  21  22
ATOM     22  C   UNL     1      25.093 159.475 119.953  1.00  0.00    -0.000 C 
BRANCH  22  23
ATOM     23  C   UNL     1      26.264 160.419 119.634  1.00  0.00    -0.000 C 
BRANCH  23  24
ATOM     24  C   UNL     1      27.317 159.764 118.725  1.00  0.00    -0.000 C 
BRANCH  24  25
ATOM     25  C   UNL     1      27.692 160.647 117.525  1.00  0.00    -0.003 C 
ATOM     26  C   UNL     1      27.505 159.895 116.210  1.00  0.00     0.004 C 
ENDBRANCH  24  25
ENDBRANCH  23  24
ENDBRANCH  22  23
ENDBRANCH  21  22
ENDBRANCH  20  21
ENDBRANCH  19  20
ENDBRANCH  18  19
ENDBRANCH  17  18
ENDBRANCH  16  17
ENDBRANCH  15  16
ENDBRANCH   1  15
TORSDOF 22
ENDMDL
MODEL 8
REMARK VINA RESULT:    -1.318      2.538      6.497
REMARK INTER + INTRA:          -7.125
REMARK INTER:                  -5.448
REMARK INTRA:                  -1.677
REMARK UNBOUND:                -4.111
REMARK SMILES CCCCCCCCCCCCCCCCCCCCCCCC(=O)[O-]
REMARK SMILES IDX 13 1 14 2 15 3 16 4 17 5 18 6 19 7 20 8 21 9 22 10 23 11
REMARK SMILES IDX 24 12 25 13 26 14 12 15 11 16 10 17 9 18 8 19 7 20 6 21 5 22
REMARK SMILES IDX 4 23 3 24 2 25 1 26
REMARK H PARENT
REMARK Flexibility Score: inf
ROOT
ATOM      1  C   UNL     1      26.373 155.164 119.072  1.00  0.00     0.000 C 
ENDROOT
BRANCH   1   2
ATOM      2  C   UNL     1      25.763 155.534 120.438  1.00  0.00     0.000 C 
BRANCH   2   3
ATOM      3  C   UNL     1      26.050 156.989 120.851  1.00  0.00     0.000 C 
BRANCH   3   4
ATOM      4  C   UNL     1      26.910 157.092 122.125  1.00  0.00     0.000 C 
BRANCH   4   5
ATOM      5  C   UNL     1      28.429 156.903 121.918  1.00  0.00     0.000 C 
BRANCH   5   6
ATOM      6  C   UNL     1      29.208 158.174 121.534  1.00  0.00     0.000 C 
BRANCH   6   7
ATOM      7  C   UNL     1      30.677 157.890 121.177  1.00  0.00     0.000 C 
BRANCH   7   8
ATOM      8  C   UNL     1      31.593 159.106 121.406  1.00  0.00     0.000 C 
BRANCH   8   9
ATOM      9  C   UNL     1      32.665 159.335 120.321  1.00  0.00     0.000 C 
BRANCH   9  10
ATOM     10  C   UNL     1      33.075 160.804 120.114  1.00  0.00     0.006 C 
BRANCH  10  11
ATOM     11  C   UNL     1      32.385 161.452 118.906  1.00  0.00     0.053 C 
BRANCH  11  12
ATOM     12  C   UNL     1      32.003 160.411 117.899  1.00  0.00     0.041 C 
ATOM     13  O   UNL     1      32.893 159.763 117.285  1.00  0.00    -0.550 OA
ATOM     14  O   UNL     1      30.661 160.157 117.636  1.00  0.00    -0.550 OA
ENDBRANCH  11  12
ENDBRANCH  10  11
ENDBRANCH   9  10
ENDBRANCH   8   9
ENDBRANCH   7   8
ENDBRANCH   6   7
ENDBRANCH   5   6
ENDBRANCH   4   5
ENDBRANCH   3   4
ENDBRANCH   2   3
ENDBRANCH   1   2
BRANCH   1  15
ATOM     15  C   UNL     1      26.057 156.141 117.924  1.00  0.00     0.000 C 
BRANCH  15  16
ATOM     16  C   UNL     1      25.392 157.440 118.409  1.00  0.00     0.000 C 
BRANCH  16  17
ATOM     17  C   UNL     1      25.374 158.530 117.324  1.00  0.00     0.000 C 
BRANCH  17  18
ATOM     18  C   UNL     1      26.686 159.336 117.270  1.00  0.00    -0.000 C 
BRANCH  18  19
ATOM     19  C   UNL     1      26.475 160.828 117.572  1.00  0.00    -0.000 C 
BRANCH  19  20
ATOM     20  C   UNL     1      25.071 161.129 118.122  1.00  0.00    -0.000 C 
BRANCH  20  21
ATOM     21  C   UNL     1      25.095 161.710 119.548  1.00  0.00    -0.000 C 
BRANCH  21  22
ATOM     22  C   UNL     1      24.908 160.683 120.680  1.00  0.00    -0.000 C 
BRANCH  22  23
ATOM     23  C   UNL     1      25.527 161.140 122.012  1.00  0.00    -0.000 C 
BRANCH  23  24
ATOM     24  C   UNL     1      27.045 160.908 122.065  1.00  0.00    -0.000 C 
BRANCH  24  25
ATOM     25  C   UNL     1      27.839 162.044 121.403  1.00  0.00    -0.003 C 
ATOM     26  C   UNL     1      28.787 161.503 120.335  1.00  0.00     0.004 C 
ENDBRANCH  24  25
ENDBRANCH  23  24
ENDBRANCH  22  23
ENDBRANCH  21  22
ENDBRANCH  20  21
ENDBRANCH  19  20
ENDBRANCH  18  19
ENDBRANCH  17  18
ENDBRANCH  16  17
ENDBRANCH  15  16
ENDBRANCH   1  15
TORSDOF 22
ENDMDL
