MODEL 1
REMARK VINA RESULT:    -6.433      0.000      0.000
REMARK INTER + INTRA:          -7.865
REMARK INTER:                  -7.561
REMARK INTRA:                  -0.304
REMARK UNBOUND:                -0.304
REMARK SMILES O=c1cc(-c2ccc(O)c(O)c2)oc2cc(O)cc(O)c12
REMARK SMILES IDX 4 1 3 2 2 3 1 4 21 5 19 6 18 7 16 8 15 9 14 10 13 11 5 12
REMARK SMILES IDX 6 13 7 14 8 15 12 16 10 17 9 18 11 20 20 22 17 24
REMARK H PARENT 9 19 11 21 20 23 17 25
REMARK Flexibility Score: inf
ROOT
ATOM      1  C   UNL     1      -5.352  -3.583  -1.120  1.00  0.00     0.138 A 
ATOM      2  C   UNL     1      -4.498  -2.636  -0.537  1.00  0.00     0.100 A 
ATOM      3  C   UNL     1      -3.656  -1.873  -1.347  1.00  0.00     0.197 A 
ATOM      4  O   UNL     1      -2.949  -0.987  -0.802  1.00  0.00    -0.289 OA
ATOM      5  C   UNL     1      -3.648  -2.082  -2.747  1.00  0.00     0.107 A 
ATOM      6  C   UNL     1      -2.803  -1.393  -3.666  1.00  0.00     0.134 A 
ATOM      7  C   UNL     1      -2.965  -1.601  -5.042  1.00  0.00     0.093 A 
ATOM      8  C   UNL     1      -3.898  -2.517  -5.528  1.00  0.00     0.123 A 
ATOM      9  C   UNL     1      -4.692  -3.238  -4.635  1.00  0.00     0.094 A 
ATOM     10  C   UNL     1      -4.578  -3.027  -3.259  1.00  0.00     0.146 A 
ATOM     11  O   UNL     1      -5.363  -3.722  -2.442  1.00  0.00    -0.456 OA
ENDROOT
BRANCH   1  12
ATOM     12  C   UNL     1      -6.266  -4.422  -0.305  1.00  0.00     0.021 A 
ATOM     13  C   UNL     1      -6.809  -3.900   0.882  1.00  0.00     0.016 A 
ATOM     14  C   UNL     1      -7.679  -4.667   1.661  1.00  0.00     0.051 A 
ATOM     15  C   UNL     1      -8.029  -5.963   1.265  1.00  0.00     0.157 A 
ATOM     16  C   UNL     1      -6.632  -5.722  -0.705  1.00  0.00     0.062 A 
ATOM     17  C   UNL     1      -7.504  -6.491   0.074  1.00  0.00     0.158 A 
BRANCH  15  18
ATOM     18  O   UNL     1      -8.894  -6.726   2.047  1.00  0.00    -0.504 OA
ATOM     19  H   UNL     1      -9.022  -6.537   3.035  1.00  0.00     0.293 HD
ENDBRANCH  15  18
BRANCH  17  20
ATOM     20  O   UNL     1      -7.843  -7.774  -0.354  1.00  0.00    -0.504 OA
ATOM     21  H   UNL     1      -7.323  -8.593  -0.064  1.00  0.00     0.293 HD
ENDBRANCH  17  20
ENDBRANCH   1  12
BRANCH   6  22
ATOM     22  O   UNL     1      -1.782  -0.518  -3.285  1.00  0.00    -0.507 OA
ATOM     23  H   UNL     1      -1.831   0.121  -2.506  1.00  0.00     0.293 HD
ENDBRANCH   6  22
BRANCH   8  24
ATOM     24  O   UNL     1      -4.020  -2.709  -6.902  1.00  0.00    -0.508 OA
ATOM     25  H   UNL     1      -4.872  -3.077  -7.312  1.00  0.00     0.293 HD
ENDBRANCH   8  24
TORSDOF 5
ENDMDL
MODEL 2
REMARK VINA RESULT:    -6.423      1.459      2.910
REMARK INTER + INTRA:          -7.854
REMARK INTER:                  -7.580
REMARK INTRA:                  -0.274
REMARK UNBOUND:                -0.304
REMARK SMILES O=c1cc(-c2ccc(O)c(O)c2)oc2cc(O)cc(O)c12
REMARK SMILES IDX 4 1 3 2 2 3 1 4 21 5 19 6 18 7 16 8 15 9 14 10 13 11 5 12
REMARK SMILES IDX 6 13 7 14 8 15 12 16 10 17 9 18 11 20 20 22 17 24
REMARK H PARENT 9 19 11 21 20 23 17 25
REMARK Flexibility Score: inf
ROOT
ATOM      1  C   UNL     1      -5.365  -3.386  -1.512  1.00  0.00     0.138 A 
ATOM      2  C   UNL     1      -5.011  -3.816  -2.799  1.00  0.00     0.100 A 
ATOM      3  C   UNL     1      -3.947  -3.206  -3.463  1.00  0.00     0.197 A 
ATOM      4  O   UNL     1      -3.614  -3.656  -4.590  1.00  0.00    -0.289 OA
ATOM      5  C   UNL     1      -3.253  -2.138  -2.847  1.00  0.00     0.107 A 
ATOM      6  C   UNL     1      -2.179  -1.414  -3.446  1.00  0.00     0.134 A 
ATOM      7  C   UNL     1      -1.491  -0.452  -2.695  1.00  0.00     0.093 A 
ATOM      8  C   UNL     1      -1.877  -0.146  -1.390  1.00  0.00     0.123 A 
ATOM      9  C   UNL     1      -2.960  -0.809  -0.813  1.00  0.00     0.094 A 
ATOM     10  C   UNL     1      -3.644  -1.798  -1.524  1.00  0.00     0.146 A 
ATOM     11  O   UNL     1      -4.661  -2.417  -0.934  1.00  0.00    -0.456 OA
ENDROOT
BRANCH   1  12
ATOM     12  C   UNL     1      -6.489  -3.999  -0.761  1.00  0.00     0.021 A 
ATOM     13  C   UNL     1      -7.465  -3.172  -0.180  1.00  0.00     0.016 A 
ATOM     14  C   UNL     1      -8.537  -3.725   0.525  1.00  0.00     0.051 A 
ATOM     15  C   UNL     1      -8.658  -5.114   0.653  1.00  0.00     0.157 A 
ATOM     16  C   UNL     1      -6.624  -5.396  -0.640  1.00  0.00     0.062 A 
ATOM     17  C   UNL     1      -7.698  -5.953   0.064  1.00  0.00     0.158 A 
BRANCH  15  18
ATOM     18  O   UNL     1      -9.727  -5.663   1.359  1.00  0.00    -0.504 OA
ATOM     19  H   UNL     1     -10.330  -5.090   1.938  1.00  0.00     0.293 HD
ENDBRANCH  15  18
BRANCH  17  20
ATOM     20  O   UNL     1      -7.796  -7.340   0.164  1.00  0.00    -0.504 OA
ATOM     21  H   UNL     1      -7.953  -7.928  -0.645  1.00  0.00     0.293 HD
ENDBRANCH  17  20
ENDBRANCH   1  12
BRANCH   6  22
ATOM     22  O   UNL     1      -1.766  -1.581  -4.771  1.00  0.00    -0.507 OA
ATOM     23  H   UNL     1      -1.187  -2.338  -5.103  1.00  0.00     0.293 HD
ENDBRANCH   6  22
BRANCH   8  24
ATOM     24  O   UNL     1      -1.179   0.827  -0.678  1.00  0.00    -0.508 OA
ATOM     25  H   UNL     1      -1.570   1.748  -0.516  1.00  0.00     0.293 HD
ENDBRANCH   8  24
TORSDOF 5
ENDMDL
MODEL 3
REMARK VINA RESULT:    -6.401      8.074     13.143
REMARK INTER + INTRA:          -7.828
REMARK INTER:                  -7.521
REMARK INTRA:                  -0.307
REMARK UNBOUND:                -0.304
REMARK SMILES O=c1cc(-c2ccc(O)c(O)c2)oc2cc(O)cc(O)c12
REMARK SMILES IDX 4 1 3 2 2 3 1 4 21 5 19 6 18 7 16 8 15 9 14 10 13 11 5 12
REMARK SMILES IDX 6 13 7 14 8 15 12 16 10 17 9 18 11 20 20 22 17 24
REMARK H PARENT 9 19 11 21 20 23 17 25
REMARK Flexibility Score: inf
ROOT
ATOM      1  C   UNL     1      -2.114   3.654 -10.452  1.00  0.00     0.138 A 
ATOM      2  C   UNL     1      -1.046   2.746 -10.431  1.00  0.00     0.100 A 
ATOM      3  C   UNL     1      -0.809   1.984  -9.285  1.00  0.00     0.197 A 
ATOM      4  O   UNL     1       0.117   1.133  -9.318  1.00  0.00    -0.289 OA
ATOM      5  C   UNL     1      -1.630   2.156  -8.145  1.00  0.00     0.107 A 
ATOM      6  C   UNL     1      -1.458   1.464  -6.909  1.00  0.00     0.134 A 
ATOM      7  C   UNL     1      -2.402   1.631  -5.888  1.00  0.00     0.093 A 
ATOM      8  C   UNL     1      -3.476   2.508  -6.035  1.00  0.00     0.123 A 
ATOM      9  C   UNL     1      -3.624   3.231  -7.219  1.00  0.00     0.094 A 
ATOM     10  C   UNL     1      -2.718   3.061  -8.269  1.00  0.00     0.146 A 
ATOM     11  O   UNL     1      -2.902   3.756  -9.387  1.00  0.00    -0.456 OA
ENDROOT
BRANCH   1  12
ATOM     12  C   UNL     1      -2.409   4.490 -11.643  1.00  0.00     0.021 A 
ATOM     13  C   UNL     1      -2.059   4.020 -12.921  1.00  0.00     0.016 A 
ATOM     14  C   UNL     1      -2.334   4.785 -14.058  1.00  0.00     0.051 A 
ATOM     15  C   UNL     1      -2.971   6.025 -13.939  1.00  0.00     0.157 A 
ATOM     16  C   UNL     1      -3.061   5.734 -11.532  1.00  0.00     0.062 A 
ATOM     17  C   UNL     1      -3.338   6.500 -12.669  1.00  0.00     0.158 A 
BRANCH  15  18
ATOM     18  O   UNL     1      -3.241   6.786 -15.075  1.00  0.00    -0.504 OA
ATOM     19  H   UNL     1      -2.849   6.548 -15.979  1.00  0.00     0.293 HD
ENDBRANCH  15  18
BRANCH  17  20
ATOM     20  O   UNL     1      -3.984   7.727 -12.519  1.00  0.00    -0.504 OA
ATOM     21  H   UNL     1      -4.640   7.902 -11.768  1.00  0.00     0.293 HD
ENDBRANCH  17  20
ENDBRANCH   1  12
BRANCH   6  22
ATOM     22  O   UNL     1      -0.374   0.628  -6.626  1.00  0.00    -0.507 OA
ATOM     23  H   UNL     1      -0.246  -0.299  -7.004  1.00  0.00     0.293 HD
ENDBRANCH   6  22
BRANCH   8  24
ATOM     24  O   UNL     1      -4.387   2.660  -4.992  1.00  0.00    -0.508 OA
ATOM     25  H   UNL     1      -4.358   2.063  -4.173  1.00  0.00     0.293 HD
ENDBRANCH   8  24
TORSDOF 5
ENDMDL
MODEL 4
REMARK VINA RESULT:    -6.078     17.454     19.346
REMARK INTER + INTRA:          -7.448
REMARK INTER:                  -7.136
REMARK INTRA:                  -0.313
REMARK UNBOUND:                -0.304
REMARK SMILES O=c1cc(-c2ccc(O)c(O)c2)oc2cc(O)cc(O)c12
REMARK SMILES IDX 4 1 3 2 2 3 1 4 21 5 19 6 18 7 16 8 15 9 14 10 13 11 5 12
REMARK SMILES IDX 6 13 7 14 8 15 12 16 10 17 9 18 11 20 20 22 17 24
REMARK H PARENT 9 19 11 21 20 23 17 25
REMARK Flexibility Score: inf
ROOT
ATOM      1  C   UNL     1     -16.563   3.459 -15.225  1.00  0.00     0.138 A 
ATOM      2  C   UNL     1     -17.826   4.069 -15.271  1.00  0.00     0.100 A 
ATOM      3  C   UNL     1     -17.919   5.460 -15.329  1.00  0.00     0.197 A 
ATOM      4  O   UNL     1     -19.063   5.974 -15.433  1.00  0.00    -0.289 OA
ATOM      5  C   UNL     1     -16.742   6.245 -15.311  1.00  0.00     0.107 A 
ATOM      6  C   UNL     1     -16.718   7.671 -15.324  1.00  0.00     0.134 A 
ATOM      7  C   UNL     1     -15.490   8.340 -15.421  1.00  0.00     0.093 A 
ATOM      8  C   UNL     1     -14.286   7.636 -15.442  1.00  0.00     0.123 A 
ATOM      9  C   UNL     1     -14.296   6.242 -15.374  1.00  0.00     0.094 A 
ATOM     10  C   UNL     1     -15.505   5.546 -15.312  1.00  0.00     0.146 A 
ATOM     11  O   UNL     1     -15.473   4.218 -15.264  1.00  0.00    -0.456 OA
ENDROOT
BRANCH   1  12
ATOM     12  C   UNL     1     -16.407   1.984 -15.161  1.00  0.00     0.021 A 
ATOM     13  C   UNL     1     -17.491   1.191 -14.748  1.00  0.00     0.016 A 
ATOM     14  C   UNL     1     -17.371  -0.200 -14.688  1.00  0.00     0.051 A 
ATOM     15  C   UNL     1     -16.170  -0.822 -15.048  1.00  0.00     0.157 A 
ATOM     16  C   UNL     1     -15.205   1.351 -15.534  1.00  0.00     0.062 A 
ATOM     17  C   UNL     1     -15.083  -0.042 -15.475  1.00  0.00     0.158 A 
BRANCH  15  18
ATOM     18  O   UNL     1     -16.053  -2.210 -14.983  1.00  0.00    -0.504 OA
ATOM     19  H   UNL     1     -15.804  -2.681 -14.122  1.00  0.00     0.293 HD
ENDBRANCH  15  18
BRANCH  17  20
ATOM     20  O   UNL     1     -13.877  -0.633 -15.851  1.00  0.00    -0.504 OA
ATOM     21  H   UNL     1     -13.490  -0.524 -16.780  1.00  0.00     0.293 HD
ENDBRANCH  17  20
ENDBRANCH   1  12
BRANCH   6  22
ATOM     22  O   UNL     1     -17.857   8.474 -15.222  1.00  0.00    -0.507 OA
ATOM     23  H   UNL     1     -18.763   8.153 -14.913  1.00  0.00     0.293 HD
ENDBRANCH   6  22
BRANCH   8  24
ATOM     24  O   UNL     1     -13.083   8.335 -15.523  1.00  0.00    -0.508 OA
ATOM     25  H   UNL     1     -12.286   7.961 -16.025  1.00  0.00     0.293 HD
ENDBRANCH   8  24
TORSDOF 5
ENDMDL
MODEL 5
REMARK VINA RESULT:    -6.077     15.351     16.555
REMARK INTER + INTRA:          -7.447
REMARK INTER:                  -7.155
REMARK INTRA:                  -0.292
REMARK UNBOUND:                -0.304
REMARK SMILES O=c1cc(-c2ccc(O)c(O)c2)oc2cc(O)cc(O)c12
REMARK SMILES IDX 4 1 3 2 2 3 1 4 21 5 19 6 18 7 16 8 15 9 14 10 13 11 5 12
REMARK SMILES IDX 6 13 7 14 8 15 12 16 10 17 9 18 11 20 20 22 17 24
REMARK H PARENT 9 19 11 21 20 23 17 25
REMARK Flexibility Score: inf
ROOT
ATOM      1  C   UNL     1     -17.646   0.463 -10.955  1.00  0.00     0.138 A 
ATOM      2  C   UNL     1     -16.920   0.993 -12.032  1.00  0.00     0.100 A 
ATOM      3  C   UNL     1     -16.540   0.160 -13.085  1.00  0.00     0.197 A 
ATOM      4  O   UNL     1     -15.945   0.676 -14.066  1.00  0.00    -0.289 OA
ATOM      5  C   UNL     1     -16.863  -1.217 -13.044  1.00  0.00     0.107 A 
ATOM      6  C   UNL     1     -16.492  -2.168 -14.040  1.00  0.00     0.134 A 
ATOM      7  C   UNL     1     -16.967  -3.484 -13.950  1.00  0.00     0.093 A 
ATOM      8  C   UNL     1     -17.748  -3.896 -12.870  1.00  0.00     0.123 A 
ATOM      9  C   UNL     1     -18.071  -2.987 -11.862  1.00  0.00     0.094 A 
ATOM     10  C   UNL     1     -17.641  -1.660 -11.940  1.00  0.00     0.146 A 
ATOM     11  O   UNL     1     -17.983  -0.822 -10.968  1.00  0.00    -0.456 OA
ENDROOT
BRANCH   1  12
ATOM     12  C   UNL     1     -18.074   1.304  -9.808  1.00  0.00     0.021 A 
ATOM     13  C   UNL     1     -18.641   2.567 -10.051  1.00  0.00     0.016 A 
ATOM     14  C   UNL     1     -19.059   3.373  -8.990  1.00  0.00     0.051 A 
ATOM     15  C   UNL     1     -18.928   2.928  -7.669  1.00  0.00     0.157 A 
ATOM     16  C   UNL     1     -17.956   0.857  -8.478  1.00  0.00     0.062 A 
ATOM     17  C   UNL     1     -18.376   1.662  -7.413  1.00  0.00     0.158 A 
BRANCH  15  18
ATOM     18  O   UNL     1     -19.343   3.737  -6.612  1.00  0.00    -0.504 OA
ATOM     19  H   UNL     1     -20.312   4.017  -6.508  1.00  0.00     0.293 HD
ENDBRANCH  15  18
BRANCH  17  20
ATOM     20  O   UNL     1     -18.243   1.186  -6.109  1.00  0.00    -0.504 OA
ATOM     21  H   UNL     1     -17.978   1.789  -5.340  1.00  0.00     0.293 HD
ENDBRANCH  17  20
ENDBRANCH   1  12
BRANCH   6  22
ATOM     22  O   UNL     1     -15.647  -1.884 -15.117  1.00  0.00    -0.507 OA
ATOM     23  H   UNL     1     -14.870  -1.241 -15.085  1.00  0.00     0.293 HD
ENDBRANCH   6  22
BRANCH   8  24
ATOM     24  O   UNL     1     -18.190  -5.215 -12.806  1.00  0.00    -0.508 OA
ATOM     25  H   UNL     1     -17.692  -5.964 -13.274  1.00  0.00     0.293 HD
ENDBRANCH   8  24
TORSDOF 5
ENDMDL
MODEL 6
REMARK VINA RESULT:    -6.002     15.443     17.177
REMARK INTER + INTRA:          -7.359
REMARK INTER:                  -7.065
REMARK INTRA:                  -0.294
REMARK UNBOUND:                -0.304
REMARK SMILES O=c1cc(-c2ccc(O)c(O)c2)oc2cc(O)cc(O)c12
REMARK SMILES IDX 4 1 3 2 2 3 1 4 21 5 19 6 18 7 16 8 15 9 14 10 13 11 5 12
REMARK SMILES IDX 6 13 7 14 8 15 12 16 10 17 9 18 11 20 20 22 17 24
REMARK H PARENT 9 19 11 21 20 23 17 25
REMARK Flexibility Score: inf
ROOT
ATOM      1  C   UNL     1     -17.683   0.936 -10.557  1.00  0.00     0.138 A 
ATOM      2  C   UNL     1     -17.988   0.206  -9.399  1.00  0.00     0.100 A 
ATOM      3  C   UNL     1     -18.655   0.830  -8.344  1.00  0.00     0.197 A 
ATOM      4  O   UNL     1     -18.970   0.133  -7.345  1.00  0.00    -0.289 OA
ATOM      5  C   UNL     1     -18.992   2.201  -8.438  1.00  0.00     0.107 A 
ATOM      6  C   UNL     1     -19.635   2.952  -7.410  1.00  0.00     0.134 A 
ATOM      7  C   UNL     1     -20.023   4.275  -7.660  1.00  0.00     0.093 A 
ATOM      8  C   UNL     1     -19.737   4.891  -8.878  1.00  0.00     0.123 A 
ATOM      9  C   UNL     1     -19.059   4.184  -9.872  1.00  0.00     0.094 A 
ATOM     10  C   UNL     1     -18.690   2.852  -9.665  1.00  0.00     0.146 A 
ATOM     11  O   UNL     1     -18.059   2.208 -10.641  1.00  0.00    -0.456 OA
ENDROOT
BRANCH   1  12
ATOM     12  C   UNL     1     -16.974   0.322 -11.707  1.00  0.00     0.021 A 
ATOM     13  C   UNL     1     -16.997   0.965 -12.957  1.00  0.00     0.016 A 
ATOM     14  C   UNL     1     -16.330   0.412 -14.052  1.00  0.00     0.051 A 
ATOM     15  C   UNL     1     -15.621  -0.788 -13.917  1.00  0.00     0.157 A 
ATOM     16  C   UNL     1     -16.248  -0.878 -11.575  1.00  0.00     0.062 A 
ATOM     17  C   UNL     1     -15.578  -1.434 -12.671  1.00  0.00     0.158 A 
BRANCH  15  18
ATOM     18  O   UNL     1     -14.960  -1.339 -15.014  1.00  0.00    -0.504 OA
ATOM     19  H   UNL     1     -15.036  -2.324 -15.239  1.00  0.00     0.293 HD
ENDBRANCH  15  18
BRANCH  17  20
ATOM     20  O   UNL     1     -14.871  -2.623 -12.501  1.00  0.00    -0.504 OA
ATOM     21  H   UNL     1     -13.890  -2.636 -12.254  1.00  0.00     0.293 HD
ENDBRANCH  17  20
ENDBRANCH   1  12
BRANCH   6  22
ATOM     22  O   UNL     1     -19.893   2.460  -6.127  1.00  0.00    -0.507 OA
ATOM     23  H   UNL     1     -20.580   1.753  -5.908  1.00  0.00     0.293 HD
ENDBRANCH   6  22
BRANCH   8  24
ATOM     24  O   UNL     1     -20.125   6.213  -9.087  1.00  0.00    -0.508 OA
ATOM     25  H   UNL     1     -20.215   6.598 -10.020  1.00  0.00     0.293 HD
ENDBRANCH   8  24
TORSDOF 5
ENDMDL
MODEL 7
REMARK VINA RESULT:    -5.933     15.454     16.475
REMARK INTER + INTRA:          -7.277
REMARK INTER:                  -6.999
REMARK INTRA:                  -0.279
REMARK UNBOUND:                -0.304
REMARK SMILES O=c1cc(-c2ccc(O)c(O)c2)oc2cc(O)cc(O)c12
REMARK SMILES IDX 4 1 3 2 2 3 1 4 21 5 19 6 18 7 16 8 15 9 14 10 13 11 5 12
REMARK SMILES IDX 6 13 7 14 8 15 12 16 10 17 9 18 11 20 20 22 17 24
REMARK H PARENT 9 19 11 21 20 23 17 25
REMARK Flexibility Score: inf
ROOT
ATOM      1  C   UNL     1     -18.244  -0.381 -10.240  1.00  0.00     0.138 A 
ATOM      2  C   UNL     1     -18.785  -1.667 -10.092  1.00  0.00     0.100 A 
ATOM      3  C   UNL     1     -18.508  -2.647 -11.046  1.00  0.00     0.197 A 
ATOM      4  O   UNL     1     -18.956  -3.806 -10.853  1.00  0.00    -0.289 OA
ATOM      5  C   UNL     1     -17.709  -2.328 -12.170  1.00  0.00     0.107 A 
ATOM      6  C   UNL     1     -17.395  -3.234 -13.226  1.00  0.00     0.134 A 
ATOM      7  C   UNL     1     -16.499  -2.841 -14.229  1.00  0.00     0.093 A 
ATOM      8  C   UNL     1     -15.955  -1.557 -14.247  1.00  0.00     0.123 A 
ATOM      9  C   UNL     1     -16.299  -0.644 -13.249  1.00  0.00     0.094 A 
ATOM     10  C   UNL     1     -17.162  -1.017 -12.216  1.00  0.00     0.146 A 
ATOM     11  O   UNL     1     -17.453  -0.124 -11.276  1.00  0.00    -0.456 OA
ENDROOT
BRANCH   1  12
ATOM     12  C   UNL     1     -18.508   0.698  -9.255  1.00  0.00     0.021 A 
ATOM     13  C   UNL     1     -18.791   1.997  -9.713  1.00  0.00     0.016 A 
ATOM     14  C   UNL     1     -19.051   3.028  -8.807  1.00  0.00     0.051 A 
ATOM     15  C   UNL     1     -19.042   2.779  -7.430  1.00  0.00     0.157 A 
ATOM     16  C   UNL     1     -18.513   0.451  -7.869  1.00  0.00     0.062 A 
ATOM     17  C   UNL     1     -18.775   1.482  -6.959  1.00  0.00     0.158 A 
BRANCH  15  18
ATOM     18  O   UNL     1     -19.299   3.810  -6.528  1.00  0.00    -0.504 OA
ATOM     19  H   UNL     1     -18.810   3.875  -5.643  1.00  0.00     0.293 HD
ENDBRANCH  15  18
BRANCH  17  20
ATOM     20  O   UNL     1     -18.770   1.199  -5.594  1.00  0.00    -0.504 OA
ATOM     21  H   UNL     1     -18.447   0.312  -5.229  1.00  0.00     0.293 HD
ENDBRANCH  17  20
ENDBRANCH   1  12
BRANCH   6  22
ATOM     22  O   UNL     1     -17.948  -4.512 -13.350  1.00  0.00    -0.507 OA
ATOM     23  H   UNL     1     -17.789  -5.135 -14.128  1.00  0.00     0.293 HD
ENDBRANCH   6  22
BRANCH   8  24
ATOM     24  O   UNL     1     -15.080  -1.197 -15.269  1.00  0.00    -0.508 OA
ATOM     25  H   UNL     1     -15.362  -1.222 -16.242  1.00  0.00     0.293 HD
ENDBRANCH   8  24
TORSDOF 5
ENDMDL
MODEL 8
REMARK VINA RESULT:    -5.813     16.710     19.531
REMARK INTER + INTRA:          -7.136
REMARK INTER:                  -6.872
REMARK INTRA:                  -0.264
REMARK UNBOUND:                -0.304
REMARK SMILES O=c1cc(-c2ccc(O)c(O)c2)oc2cc(O)cc(O)c12
REMARK SMILES IDX 4 1 3 2 2 3 1 4 21 5 19 6 18 7 16 8 15 9 14 10 13 11 5 12
REMARK SMILES IDX 6 13 7 14 8 15 12 16 10 17 9 18 11 20 20 22 17 24
REMARK H PARENT 9 19 11 21 20 23 17 25
REMARK Flexibility Score: inf
ROOT
ATOM      1  C   UNL     1     -16.432   3.642 -15.079  1.00  0.00     0.138 A 
ATOM      2  C   UNL     1     -15.927   2.860 -16.127  1.00  0.00     0.100 A 
ATOM      3  C   UNL     1     -15.707   1.496 -15.927  1.00  0.00     0.197 A 
ATOM      4  O   UNL     1     -15.313   0.809 -16.905  1.00  0.00    -0.289 OA
ATOM      5  C   UNL     1     -15.965   0.920 -14.661  1.00  0.00     0.107 A 
ATOM      6  C   UNL     1     -15.740  -0.449 -14.330  1.00  0.00     0.134 A 
ATOM      7  C   UNL     1     -16.143  -0.932 -13.078  1.00  0.00     0.093 A 
ATOM      8  C   UNL     1     -16.705  -0.083 -12.125  1.00  0.00     0.123 A 
ATOM      9  C   UNL     1     -16.881   1.270 -12.418  1.00  0.00     0.094 A 
ATOM     10  C   UNL     1     -16.521   1.774 -13.670  1.00  0.00     0.146 A 
ATOM     11  O   UNL     1     -16.718   3.065 -13.916  1.00  0.00    -0.456 OA
ENDROOT
BRANCH   1  12
ATOM     12  C   UNL     1     -16.683   5.097 -15.236  1.00  0.00     0.021 A 
ATOM     13  C   UNL     1     -17.943   5.537 -15.675  1.00  0.00     0.016 A 
ATOM     14  C   UNL     1     -18.207   6.901 -15.823  1.00  0.00     0.051 A 
ATOM     15  C   UNL     1     -17.220   7.849 -15.527  1.00  0.00     0.157 A 
ATOM     16  C   UNL     1     -15.699   6.056 -14.927  1.00  0.00     0.062 A 
ATOM     17  C   UNL     1     -15.961   7.423 -15.073  1.00  0.00     0.158 A 
BRANCH  15  18
ATOM     18  O   UNL     1     -17.486   9.209 -15.679  1.00  0.00    -0.504 OA
ATOM     19  H   UNL     1     -17.004   9.908 -15.126  1.00  0.00     0.293 HD
ENDBRANCH  15  18
BRANCH  17  20
ATOM     20  O   UNL     1     -14.961   8.343 -14.758  1.00  0.00    -0.504 OA
ATOM     21  H   UNL     1     -13.981   8.092 -14.755  1.00  0.00     0.293 HD
ENDBRANCH  17  20
ENDBRANCH   1  12
BRANCH   6  22
ATOM     22  O   UNL     1     -15.108  -1.364 -15.177  1.00  0.00    -0.507 OA
ATOM     23  H   UNL     1     -15.225  -1.398 -16.179  1.00  0.00     0.293 HD
ENDBRANCH   6  22
BRANCH   8  24
ATOM     24  O   UNL     1     -17.080  -0.596 -10.885  1.00  0.00    -0.508 OA
ATOM     25  H   UNL     1     -17.606  -0.041 -10.219  1.00  0.00     0.293 HD
ENDBRANCH   8  24
TORSDOF 5
ENDMDL
MODEL 9
REMARK VINA RESULT:    -5.807     15.277     16.641
REMARK INTER + INTRA:          -7.130
REMARK INTER:                  -6.813
REMARK INTRA:                  -0.317
REMARK UNBOUND:                -0.304
REMARK SMILES O=c1cc(-c2ccc(O)c(O)c2)oc2cc(O)cc(O)c12
REMARK SMILES IDX 4 1 3 2 2 3 1 4 21 5 19 6 18 7 16 8 15 9 14 10 13 11 5 12
REMARK SMILES IDX 6 13 7 14 8 15 12 16 10 17 9 18 11 20 20 22 17 24
REMARK H PARENT 9 19 11 21 20 23 17 25
REMARK Flexibility Score: inf
ROOT
ATOM      1  C   UNL     1     -17.282   1.048 -10.950  1.00  0.00     0.138 A 
ATOM      2  C   UNL     1     -16.752  -0.249 -11.001  1.00  0.00     0.100 A 
ATOM      3  C   UNL     1     -16.194  -0.722 -12.190  1.00  0.00     0.197 A 
ATOM      4  O   UNL     1     -15.671  -1.866 -12.188  1.00  0.00    -0.289 OA
ATOM      5  C   UNL     1     -16.195   0.100 -13.342  1.00  0.00     0.107 A 
ATOM      6  C   UNL     1     -15.692  -0.290 -14.619  1.00  0.00     0.134 A 
ATOM      7  C   UNL     1     -15.640   0.649 -15.657  1.00  0.00     0.093 A 
ATOM      8  C   UNL     1     -16.129   1.944 -15.483  1.00  0.00     0.123 A 
ATOM      9  C   UNL     1     -16.673   2.320 -14.255  1.00  0.00     0.094 A 
ATOM     10  C   UNL     1     -16.708   1.417 -13.190  1.00  0.00     0.146 A 
ATOM     11  O   UNL     1     -17.220   1.818 -12.031  1.00  0.00    -0.456 OA
ENDROOT
BRANCH   1  12
ATOM     12  C   UNL     1     -17.887   1.599  -9.712  1.00  0.00     0.021 A 
ATOM     13  C   UNL     1     -17.810   0.863  -8.517  1.00  0.00     0.016 A 
ATOM     14  C   UNL     1     -18.364   1.365  -7.337  1.00  0.00     0.051 A 
ATOM     15  C   UNL     1     -18.997   2.613  -7.327  1.00  0.00     0.157 A 
ATOM     16  C   UNL     1     -18.514   2.861  -9.693  1.00  0.00     0.062 A 
ATOM     17  C   UNL     1     -19.069   3.366  -8.511  1.00  0.00     0.158 A 
BRANCH  15  18
ATOM     18  O   UNL     1     -19.552   3.109  -6.149  1.00  0.00    -0.504 OA
ATOM     19  H   UNL     1     -20.538   3.001  -5.941  1.00  0.00     0.293 HD
ENDBRANCH  15  18
BRANCH  17  20
ATOM     20  O   UNL     1     -19.683   4.618  -8.532  1.00  0.00    -0.504 OA
ATOM     21  H   UNL     1     -20.653   4.738  -8.793  1.00  0.00     0.293 HD
ENDBRANCH  17  20
ENDBRANCH   1  12
BRANCH   6  22
ATOM     22  O   UNL     1     -15.257  -1.582 -14.926  1.00  0.00    -0.507 OA
ATOM     23  H   UNL     1     -15.856  -2.391 -14.995  1.00  0.00     0.293 HD
ENDBRANCH   6  22
BRANCH   8  24
ATOM     24  O   UNL     1     -16.074   2.846 -16.543  1.00  0.00    -0.508 OA
ATOM     25  H   UNL     1     -16.914   3.274 -16.918  1.00  0.00     0.293 HD
ENDBRANCH   8  24
TORSDOF 5
ENDMDL
