MODEL 1
REMARK VINA RESULT:    23.622      0.000      0.000
REMARK INTER + INTRA:          33.119
REMARK INTER:                  33.980
REMARK INTRA:                  -0.860
REMARK UNBOUND:                -0.860
REMARK SMILES O=c1cc(-c2ccc(O)c(O)c2)oc2cc(O[C@H]3O[C@@H](CO)[C@@H](O)[C@@H](O)[C@@H]3O)cc(O)c12
REMARK SMILES IDX 17 1 16 2 4 3 3 4 13 5 2 6 14 7 1 8 32 9 15 10 30 11 29 12
REMARK SMILES IDX 5 13 6 14 7 15 8 16 12 17 10 18 9 19 11 21 31 23 18 25 27 26
REMARK SMILES IDX 19 27 25 28 20 29 23 30 28 31 26 33 21 35 22 36 24 38
REMARK H PARENT 9 20 11 22 31 24 28 32 26 34 22 37 24 39
REMARK Flexibility Score: inf
ROOT
ATOM      1  O   UNL     1     104.142 103.379 108.922  1.00  0.00    -0.462 OA
ENDROOT
BRANCH   1   2
ATOM      2  C   UNL     1     103.922 102.987 107.592  1.00  0.00     0.130 A 
ATOM      3  C   UNL     1     103.917 103.952 102.921  1.00  0.00     0.138 A 
ATOM      4  C   UNL     1     103.405 102.689 102.591  1.00  0.00     0.100 A 
ATOM      5  O   UNL     1     104.124 104.256 104.199  1.00  0.00    -0.456 OA
ATOM      6  C   UNL     1     103.153 101.762 103.603  1.00  0.00     0.197 A 
ATOM      7  C   UNL     1     103.906 103.408 105.200  1.00  0.00     0.146 A 
ATOM      8  O   UNL     1     102.640 100.659 103.282  1.00  0.00    -0.289 OA
ATOM      9  C   UNL     1     103.441 102.091 104.949  1.00  0.00     0.107 A 
ATOM     10  C   UNL     1     104.139 103.845 106.505  1.00  0.00     0.094 A 
ATOM     11  C   UNL     1     103.266 101.209 106.055  1.00  0.00     0.134 A 
ATOM     12  C   UNL     1     103.482 101.684 107.355  1.00  0.00     0.093 A 
BRANCH   3  13
ATOM     13  C   UNL     1     104.220 104.976 101.888  1.00  0.00     0.021 A 
ATOM     14  C   UNL     1     104.403 106.333 102.218  1.00  0.00     0.016 A 
ATOM     15  C   UNL     1     104.662 107.277 101.221  1.00  0.00     0.051 A 
ATOM     16  C   UNL     1     104.732 106.885  99.877  1.00  0.00     0.157 A 
ATOM     17  C   UNL     1     104.286 104.594 100.534  1.00  0.00     0.062 A 
ATOM     18  C   UNL     1     104.545 105.541  99.534  1.00  0.00     0.158 A 
BRANCH  16  19
ATOM     19  O   UNL     1     104.982 107.826  98.880  1.00  0.00    -0.504 OA
ATOM     20  H   UNL     1     104.415 107.874  98.041  1.00  0.00     0.293 HD
ENDBRANCH  16  19
BRANCH  18  21
ATOM     21  O   UNL     1     104.621 105.155  98.197  1.00  0.00    -0.504 OA
ATOM     22  H   UNL     1     104.471 104.193  97.914  1.00  0.00     0.293 HD
ENDBRANCH  18  21
ENDBRANCH   3  13
BRANCH  11  23
ATOM     23  O   UNL     1     102.915  99.862 105.932  1.00  0.00    -0.507 OA
ATOM     24  H   UNL     1     102.871  99.356 105.062  1.00  0.00     0.293 HD
ENDBRANCH  11  23
ENDBRANCH   1   2
BRANCH   1  25
ATOM     25  C   UNL     1     103.502 104.478 109.573  1.00  0.00     0.339 C 
ATOM     26  C   UNL     1     104.557 105.558 109.934  1.00  0.00     0.214 C 
ATOM     27  O   UNL     1     102.719 104.017 110.672  1.00  0.00    -0.332 OA
ATOM     28  C   UNL     1     104.149 106.284 111.213  1.00  0.00     0.180 C 
ATOM     29  C   UNL     1     103.441 103.895 111.890  1.00  0.00     0.179 C 
ATOM     30  C   UNL     1     103.993 105.274 112.374  1.00  0.00     0.177 C 
BRANCH  26  31
ATOM     31  O   UNL     1     104.666 106.491 108.887  1.00  0.00    -0.384 OA
ATOM     32  H   UNL     1     105.480 106.249 108.370  1.00  0.00     0.211 HD
ENDBRANCH  26  31
BRANCH  28  33
ATOM     33  O   UNL     1     105.107 107.265 111.527  1.00  0.00    -0.387 OA
ATOM     34  H   UNL     1     105.251 107.795 110.701  1.00  0.00     0.211 HD
ENDBRANCH  28  33
BRANCH  29  35
ATOM     35  C   UNL     1     104.465 102.738 111.836  1.00  0.00     0.191 C 
BRANCH  35  36
ATOM     36  O   UNL     1     103.809 101.506 111.994  1.00  0.00    -0.394 OA
ATOM     37  H   UNL     1     103.639 101.149 111.084  1.00  0.00     0.210 HD
ENDBRANCH  35  36
ENDBRANCH  29  35
BRANCH  30  38
ATOM     38  O   UNL     1     105.177 105.139 113.125  1.00  0.00    -0.387 OA
ATOM     39  H   UNL     1     105.496 104.203 113.031  1.00  0.00     0.211 HD
ENDBRANCH  30  38
ENDBRANCH   1  25
TORSDOF 11
ENDMDL
MODEL 2
REMARK VINA RESULT:    23.721      2.067      4.295
REMARK INTER + INTRA:          33.261
REMARK INTER:                  34.118
REMARK INTRA:                  -0.857
REMARK UNBOUND:                -0.860
REMARK SMILES O=c1cc(-c2ccc(O)c(O)c2)oc2cc(O[C@H]3O[C@@H](CO)[C@@H](O)[C@@H](O)[C@@H]3O)cc(O)c12
REMARK SMILES IDX 17 1 16 2 4 3 3 4 13 5 2 6 14 7 1 8 32 9 15 10 30 11 29 12
REMARK SMILES IDX 5 13 6 14 7 15 8 16 12 17 10 18 9 19 11 21 31 23 18 25 27 26
REMARK SMILES IDX 19 27 25 28 20 29 23 30 28 31 26 33 21 35 22 36 24 38
REMARK H PARENT 9 20 11 22 31 24 28 32 26 34 22 37 24 39
REMARK Flexibility Score: inf
ROOT
ATOM      1  O   UNL     1     103.925 105.036 108.896  1.00  0.00    -0.462 OA
ENDROOT
BRANCH   1   2
ATOM      2  C   UNL     1     104.133 105.404 107.558  1.00  0.00     0.130 A 
ATOM      3  C   UNL     1     104.094 104.357 102.905  1.00  0.00     0.138 A 
ATOM      4  C   UNL     1     104.603 105.614 102.547  1.00  0.00     0.100 A 
ATOM      5  O   UNL     1     103.898 104.076 104.189  1.00  0.00    -0.456 OA
ATOM      6  C   UNL     1     104.865 106.559 103.541  1.00  0.00     0.197 A 
ATOM      7  C   UNL     1     104.127 104.941 105.173  1.00  0.00     0.146 A 
ATOM      8  O   UNL     1     105.375 107.655 103.195  1.00  0.00    -0.289 OA
ATOM      9  C   UNL     1     104.589 106.253 104.895  1.00  0.00     0.107 A 
ATOM     10  C   UNL     1     103.906 104.527 106.488  1.00  0.00     0.094 A 
ATOM     11  C   UNL     1     104.774 107.154 105.984  1.00  0.00     0.134 A 
ATOM     12  C   UNL     1     104.571 106.703 107.294  1.00  0.00     0.093 A 
BRANCH   3  13
ATOM     13  C   UNL     1     103.781 103.316 101.892  1.00  0.00     0.021 A 
ATOM     14  C   UNL     1     103.577 101.969 102.251  1.00  0.00     0.016 A 
ATOM     15  C   UNL     1     103.309 101.007 101.273  1.00  0.00     0.051 A 
ATOM     16  C   UNL     1     103.251 101.371  99.921  1.00  0.00     0.157 A 
ATOM     17  C   UNL     1     103.728 103.669 100.530  1.00  0.00     0.062 A 
ATOM     18  C   UNL     1     103.460 102.703  99.550  1.00  0.00     0.158 A 
BRANCH  16  19
ATOM     19  O   UNL     1     102.992 100.411  98.943  1.00  0.00    -0.504 OA
ATOM     20  H   UNL     1     103.714  99.776  98.619  1.00  0.00     0.293 HD
ENDBRANCH  16  19
BRANCH  18  21
ATOM     21  O   UNL     1     103.395 103.061  98.204  1.00  0.00    -0.504 OA
ATOM     22  H   UNL     1     102.530 102.997  97.680  1.00  0.00     0.293 HD
ENDBRANCH  18  21
ENDBRANCH   3  13
BRANCH  11  23
ATOM     23  O   UNL     1     105.124 108.500 105.834  1.00  0.00    -0.507 OA
ATOM     24  H   UNL     1     105.936 108.932 106.244  1.00  0.00     0.293 HD
ENDBRANCH  11  23
ENDBRANCH   1   2
BRANCH   1  25
ATOM     25  C   UNL     1     104.536 103.921 109.548  1.00  0.00     0.339 C 
ATOM     26  C   UNL     1     103.451 102.879 109.929  1.00  0.00     0.214 C 
ATOM     27  O   UNL     1     105.349 104.362 110.633  1.00  0.00    -0.332 OA
ATOM     28  C   UNL     1     103.850 102.149 111.209  1.00  0.00     0.180 C 
ATOM     29  C   UNL     1     104.647 104.518 111.859  1.00  0.00     0.179 C 
ATOM     30  C   UNL     1     104.055 103.161 112.361  1.00  0.00     0.177 C 
BRANCH  26  31
ATOM     31  O   UNL     1     103.297 101.943 108.891  1.00  0.00    -0.384 OA
ATOM     32  H   UNL     1     103.420 101.043 109.295  1.00  0.00     0.211 HD
ENDBRANCH  26  31
BRANCH  28  33
ATOM     33  O   UNL     1     102.865 101.203 111.543  1.00  0.00    -0.387 OA
ATOM     34  H   UNL     1     103.076 100.884 112.458  1.00  0.00     0.211 HD
ENDBRANCH  28  33
BRANCH  29  35
ATOM     35  C   UNL     1     103.662 105.707 111.809  1.00  0.00     0.191 C 
BRANCH  35  36
ATOM     36  O   UNL     1     104.352 106.914 112.010  1.00  0.00    -0.394 OA
ATOM     37  H   UNL     1     104.208 107.177 112.955  1.00  0.00     0.210 HD
ENDBRANCH  35  36
ENDBRANCH  29  35
BRANCH  30  38
ATOM     38  O   UNL     1     102.886 103.341 113.125  1.00  0.00    -0.387 OA
ATOM     39  H   UNL     1     102.108 103.094 112.559  1.00  0.00     0.211 HD
ENDBRANCH  30  38
ENDBRANCH   1  25
TORSDOF 11
ENDMDL
MODEL 3
REMARK VINA RESULT:    23.836      2.783      6.279
REMARK INTER + INTRA:          33.426
REMARK INTER:                  34.277
REMARK INTRA:                  -0.851
REMARK UNBOUND:                -0.860
REMARK SMILES O=c1cc(-c2ccc(O)c(O)c2)oc2cc(O[C@H]3O[C@@H](CO)[C@@H](O)[C@@H](O)[C@@H]3O)cc(O)c12
REMARK SMILES IDX 17 1 16 2 4 3 3 4 13 5 2 6 14 7 1 8 32 9 15 10 30 11 29 12
REMARK SMILES IDX 5 13 6 14 7 15 8 16 12 17 10 18 9 19 11 21 31 23 18 25 27 26
REMARK SMILES IDX 19 27 25 28 20 29 23 30 28 31 26 33 21 35 22 36 24 38
REMARK H PARENT 9 20 11 22 31 24 28 32 26 34 22 37 24 39
REMARK Flexibility Score: inf
ROOT
ATOM      1  O   UNL     1     103.961 105.071 104.332  1.00  0.00    -0.462 OA
ENDROOT
BRANCH   1   2
ATOM      2  C   UNL     1     104.153 105.432 102.989  1.00  0.00     0.130 A 
ATOM      3  C   UNL     1     104.102 104.347  98.345  1.00  0.00     0.138 A 
ATOM      4  C   UNL     1     104.583 105.611  97.974  1.00  0.00     0.100 A 
ATOM      5  O   UNL     1     103.921 104.073  99.633  1.00  0.00    -0.456 OA
ATOM      6  C   UNL     1     104.834 106.568  98.958  1.00  0.00     0.197 A 
ATOM      7  C   UNL     1     104.139 104.950 100.608  1.00  0.00     0.146 A 
ATOM      8  O   UNL     1     105.320 107.672  98.600  1.00  0.00    -0.289 OA
ATOM      9  C   UNL     1     104.574 106.269 100.316  1.00  0.00     0.107 A 
ATOM     10  C   UNL     1     103.935 104.543 101.927  1.00  0.00     0.094 A 
ATOM     11  C   UNL     1     104.748 107.182 101.397  1.00  0.00     0.134 A 
ATOM     12  C   UNL     1     104.563 106.737 102.711  1.00  0.00     0.093 A 
BRANCH   3  13
ATOM     13  C   UNL     1     103.803 103.292  97.342  1.00  0.00     0.021 A 
ATOM     14  C   UNL     1     103.649 101.940  97.711  1.00  0.00     0.016 A 
ATOM     15  C   UNL     1     103.392 100.966  96.742  1.00  0.00     0.051 A 
ATOM     16  C   UNL     1     103.296 101.322  95.390  1.00  0.00     0.157 A 
ATOM     17  C   UNL     1     103.710 103.637  95.980  1.00  0.00     0.062 A 
ATOM     18  C   UNL     1     103.454 102.659  95.009  1.00  0.00     0.158 A 
BRANCH  16  19
ATOM     19  O   UNL     1     103.048 100.350  94.422  1.00  0.00    -0.504 OA
ATOM     20  H   UNL     1     103.113  99.360  94.635  1.00  0.00     0.293 HD
ENDBRANCH  16  19
BRANCH  18  21
ATOM     21  O   UNL     1     103.351 103.009  93.664  1.00  0.00    -0.504 OA
ATOM     22  H   UNL     1     102.487 103.366  93.274  1.00  0.00     0.293 HD
ENDBRANCH  18  21
ENDBRANCH   3  13
BRANCH  11  23
ATOM     23  O   UNL     1     105.071 108.532 101.233  1.00  0.00    -0.507 OA
ATOM     24  H   UNL     1     104.757 109.110 100.470  1.00  0.00     0.293 HD
ENDBRANCH  11  23
ENDBRANCH   1   2
BRANCH   1  25
ATOM     25  C   UNL     1     104.598 103.972 104.987  1.00  0.00     0.339 C 
ATOM     26  C   UNL     1     103.537 102.909 105.375  1.00  0.00     0.214 C 
ATOM     27  O   UNL     1     105.402 104.437 106.069  1.00  0.00    -0.332 OA
ATOM     28  C   UNL     1     103.954 102.193 106.658  1.00  0.00     0.180 C 
ATOM     29  C   UNL     1     104.699 104.582 107.296  1.00  0.00     0.179 C 
ATOM     30  C   UNL     1     104.138 103.215 107.804  1.00  0.00     0.177 C 
BRANCH  26  31
ATOM     31  O   UNL     1     103.402 101.965 104.341  1.00  0.00    -0.384 OA
ATOM     32  H   UNL     1     103.032 101.139 104.753  1.00  0.00     0.211 HD
ENDBRANCH  26  31
BRANCH  28  33
ATOM     33  O   UNL     1     102.990 101.227 106.997  1.00  0.00    -0.387 OA
ATOM     34  H   UNL     1     102.122 101.559 106.651  1.00  0.00     0.211 HD
ENDBRANCH  28  33
BRANCH  29  35
ATOM     35  C   UNL     1     103.687 105.749 107.242  1.00  0.00     0.191 C 
BRANCH  35  36
ATOM     36  O   UNL     1     104.338 106.964 107.516  1.00  0.00    -0.394 OA
ATOM     37  H   UNL     1     105.303 106.759 107.622  1.00  0.00     0.210 HD
ENDBRANCH  35  36
ENDBRANCH  29  35
BRANCH  30  38
ATOM     38  O   UNL     1     102.966 103.372 108.570  1.00  0.00    -0.387 OA
ATOM     39  H   UNL     1     103.230 103.442 109.525  1.00  0.00     0.211 HD
ENDBRANCH  30  38
ENDBRANCH   1  25
TORSDOF 11
ENDMDL
MODEL 4
REMARK VINA RESULT:    23.868      2.674      4.617
REMARK INTER + INTRA:          33.472
REMARK INTER:                  34.305
REMARK INTRA:                  -0.832
REMARK UNBOUND:                -0.860
REMARK SMILES O=c1cc(-c2ccc(O)c(O)c2)oc2cc(O[C@H]3O[C@@H](CO)[C@@H](O)[C@@H](O)[C@@H]3O)cc(O)c12
REMARK SMILES IDX 17 1 16 2 4 3 3 4 13 5 2 6 14 7 1 8 32 9 15 10 30 11 29 12
REMARK SMILES IDX 5 13 6 14 7 15 8 16 12 17 10 18 9 19 11 21 31 23 18 25 27 26
REMARK SMILES IDX 19 27 25 28 20 29 23 30 28 31 26 33 21 35 22 36 24 38
REMARK H PARENT 9 20 11 22 31 24 28 32 26 34 22 37 24 39
REMARK Flexibility Score: inf
ROOT
ATOM      1  O   UNL     1     104.196 103.369 104.260  1.00  0.00    -0.462 OA
ENDROOT
BRANCH   1   2
ATOM      2  C   UNL     1     103.969 102.981 102.931  1.00  0.00     0.130 A 
ATOM      3  C   UNL     1     103.922 103.964  98.264  1.00  0.00     0.138 A 
ATOM      4  C   UNL     1     103.418 102.699  97.932  1.00  0.00     0.100 A 
ATOM      5  O   UNL     1     104.136 104.265  99.541  1.00  0.00    -0.456 OA
ATOM      6  C   UNL     1     103.181 101.765  98.942  1.00  0.00     0.197 A 
ATOM      7  C   UNL     1     103.932 103.411 100.540  1.00  0.00     0.146 A 
ATOM      8  O   UNL     1     102.675 100.659  98.620  1.00  0.00    -0.289 OA
ATOM      9  C   UNL     1     103.476 102.091 100.287  1.00  0.00     0.107 A 
ATOM     10  C   UNL     1     104.171 103.845 101.845  1.00  0.00     0.094 A 
ATOM     11  C   UNL     1     103.318 101.204 101.391  1.00  0.00     0.134 A 
ATOM     12  C   UNL     1     103.538 101.675 102.691  1.00  0.00     0.093 A 
BRANCH   3  13
ATOM     13  C   UNL     1     104.208 104.995  97.232  1.00  0.00     0.021 A 
ATOM     14  C   UNL     1     104.356 106.356  97.564  1.00  0.00     0.016 A 
ATOM     15  C   UNL     1     104.601 107.306  96.568  1.00  0.00     0.051 A 
ATOM     16  C   UNL     1     104.691 106.915  95.225  1.00  0.00     0.157 A 
ATOM     17  C   UNL     1     104.294 104.614  95.879  1.00  0.00     0.062 A 
ATOM     18  C   UNL     1     104.539 105.568  94.881  1.00  0.00     0.158 A 
BRANCH  16  19
ATOM     19  O   UNL     1     104.926 107.862  94.229  1.00  0.00    -0.504 OA
ATOM     20  H   UNL     1     104.181 108.197  93.629  1.00  0.00     0.293 HD
ENDBRANCH  16  19
BRANCH  18  21
ATOM     21  O   UNL     1     104.635 105.183  93.545  1.00  0.00    -0.504 OA
ATOM     22  H   UNL     1     104.262 104.298  93.220  1.00  0.00     0.293 HD
ENDBRANCH  18  21
ENDBRANCH   3  13
BRANCH  11  23
ATOM     23  O   UNL     1     102.977  99.854 101.265  1.00  0.00    -0.507 OA
ATOM     24  H   UNL     1     103.624  99.116 101.037  1.00  0.00     0.293 HD
ENDBRANCH  11  23
ENDBRANCH   1   2
BRANCH   1  25
ATOM     25  C   UNL     1     103.489 104.403 104.948  1.00  0.00     0.339 C 
ATOM     26  C   UNL     1     104.494 105.461 105.475  1.00  0.00     0.214 C 
ATOM     27  O   UNL     1     102.632 103.845 105.942  1.00  0.00    -0.332 OA
ATOM     28  C   UNL     1     103.977 106.075 106.775  1.00  0.00     0.180 C 
ATOM     29  C   UNL     1     103.261 103.629 107.198  1.00  0.00     0.179 C 
ATOM     30  C   UNL     1     103.751 104.970 107.834  1.00  0.00     0.177 C 
BRANCH  26  31
ATOM     31  O   UNL     1     104.666 106.479 104.520  1.00  0.00    -0.384 OA
ATOM     32  H   UNL     1     104.072 107.229 104.789  1.00  0.00     0.211 HD
ENDBRANCH  26  31
BRANCH  28  33
ATOM     33  O   UNL     1     104.891 107.037 107.241  1.00  0.00    -0.387 OA
ATOM     34  H   UNL     1     104.412 107.906 107.240  1.00  0.00     0.211 HD
ENDBRANCH  28  33
BRANCH  29  35
ATOM     35  C   UNL     1     104.307 102.493 107.128  1.00  0.00     0.191 C 
BRANCH  35  36
ATOM     36  O   UNL     1     103.724 101.277 107.521  1.00  0.00    -0.394 OA
ATOM     37  H   UNL     1     103.960 101.136 108.474  1.00  0.00     0.210 HD
ENDBRANCH  35  36
ENDBRANCH  29  35
BRANCH  30  38
ATOM     38  O   UNL     1     104.877 104.787 108.660  1.00  0.00    -0.387 OA
ATOM     39  H   UNL     1     105.295 103.918 108.422  1.00  0.00     0.211 HD
ENDBRANCH  30  38
ENDBRANCH   1  25
TORSDOF 11
ENDMDL
MODEL 5
REMARK VINA RESULT:    24.275      1.670      9.452
REMARK INTER + INTRA:          34.058
REMARK INTER:                  35.075
REMARK INTRA:                  -1.017
REMARK UNBOUND:                -0.860
REMARK SMILES O=c1cc(-c2ccc(O)c(O)c2)oc2cc(O[C@H]3O[C@@H](CO)[C@@H](O)[C@@H](O)[C@@H]3O)cc(O)c12
REMARK SMILES IDX 17 1 16 2 4 3 3 4 13 5 2 6 14 7 1 8 32 9 15 10 30 11 29 12
REMARK SMILES IDX 5 13 6 14 7 15 8 16 12 17 10 18 9 19 11 21 31 23 18 25 27 26
REMARK SMILES IDX 19 27 25 28 20 29 23 30 28 31 26 33 21 35 22 36 24 38
REMARK H PARENT 9 20 11 22 31 24 28 32 26 34 22 37 24 39
REMARK Flexibility Score: inf
ROOT
ATOM      1  O   UNL     1     103.603 104.460 100.555  1.00  0.00    -0.462 OA
ENDROOT
BRANCH   1   2
ATOM      2  C   UNL     1     103.594 103.879 101.833  1.00  0.00     0.130 A 
ATOM      3  C   UNL     1     104.033 104.246 106.568  1.00  0.00     0.138 A 
ATOM      4  C   UNL     1     103.861 102.868 106.760  1.00  0.00     0.100 A 
ATOM      5  O   UNL     1     104.010 104.739 105.334  1.00  0.00    -0.456 OA
ATOM      6  C   UNL     1     103.637 102.042 105.657  1.00  0.00     0.197 A 
ATOM      7  C   UNL     1     103.795 103.997 104.251  1.00  0.00     0.146 A 
ATOM      8  O   UNL     1     103.545 100.803 105.855  1.00  0.00    -0.289 OA
ATOM      9  C   UNL     1     103.557 102.603 104.361  1.00  0.00     0.107 A 
ATOM     10  C   UNL     1     103.815 104.620 103.003  1.00  0.00     0.094 A 
ATOM     11  C   UNL     1     103.287 101.863 103.172  1.00  0.00     0.134 A 
ATOM     12  C   UNL     1     103.341 102.510 101.932  1.00  0.00     0.093 A 
BRANCH   3  13
ATOM     13  C   UNL     1     104.260 105.178 107.703  1.00  0.00     0.021 A 
ATOM     14  C   UNL     1     104.514 106.549 107.498  1.00  0.00     0.016 A 
ATOM     15  C   UNL     1     104.748 107.397 108.585  1.00  0.00     0.051 A 
ATOM     16  C   UNL     1     104.744 106.890 109.891  1.00  0.00     0.157 A 
ATOM     17  C   UNL     1     104.265 104.678 109.019  1.00  0.00     0.062 A 
ATOM     18  C   UNL     1     104.501 105.529 110.108  1.00  0.00     0.158 A 
BRANCH  16  19
ATOM     19  O   UNL     1     104.986 107.732 110.975  1.00  0.00    -0.504 OA
ATOM     20  H   UNL     1     104.372 108.510 111.190  1.00  0.00     0.293 HD
ENDBRANCH  16  19
BRANCH  18  21
ATOM     21  O   UNL     1     104.491 105.030 111.410  1.00  0.00    -0.504 OA
ATOM     22  H   UNL     1     105.139 104.308 111.705  1.00  0.00     0.293 HD
ENDBRANCH  18  21
ENDBRANCH   3  13
BRANCH  11  23
ATOM     23  O   UNL     1     102.936 100.510 103.157  1.00  0.00    -0.507 OA
ATOM     24  H   UNL     1     102.299 100.089 102.500  1.00  0.00     0.293 HD
ENDBRANCH  11  23
ENDBRANCH   1   2
BRANCH   1  25
ATOM     25  C   UNL     1     104.742 105.052  99.928  1.00  0.00     0.339 C 
ATOM     26  C   UNL     1     104.333 106.393  99.262  1.00  0.00     0.214 C 
ATOM     27  O   UNL     1     105.371 104.118  99.054  1.00  0.00    -0.332 OA
ATOM     28  C   UNL     1     105.180 106.641  98.016  1.00  0.00     0.180 C 
ATOM     29  C   UNL     1     104.831 104.097  97.739  1.00  0.00     0.179 C 
ATOM     30  C   UNL     1     105.017 105.470  97.018  1.00  0.00     0.177 C 
BRANCH  26  31
ATOM     31  O   UNL     1     104.519 107.455 100.166  1.00  0.00    -0.384 OA
ATOM     32  H   UNL     1     103.622 107.683 100.529  1.00  0.00     0.211 HD
ENDBRANCH  26  31
BRANCH  28  33
ATOM     33  O   UNL     1     104.808 107.860  97.424  1.00  0.00    -0.387 OA
ATOM     34  H   UNL     1     104.347 107.634  96.575  1.00  0.00     0.211 HD
ENDBRANCH  28  33
BRANCH  29  35
ATOM     35  C   UNL     1     103.402 103.509  97.716  1.00  0.00     0.191 C 
BRANCH  35  36
ATOM     36  O   UNL     1     103.409 102.204  98.236  1.00  0.00    -0.394 OA
ATOM     37  H   UNL     1     103.588 101.590  97.478  1.00  0.00     0.210 HD
ENDBRANCH  35  36
ENDBRANCH  29  35
BRANCH  30  38
ATOM     38  O   UNL     1     104.002 105.716  96.072  1.00  0.00    -0.387 OA
ATOM     39  H   UNL     1     103.142 105.808  96.560  1.00  0.00     0.211 HD
ENDBRANCH  30  38
ENDBRANCH   1  25
TORSDOF 11
ENDMDL
MODEL 6
REMARK VINA RESULT:    24.288      1.078      2.206
REMARK INTER + INTRA:          34.076
REMARK INTER:                  34.881
REMARK INTRA:                  -0.805
REMARK UNBOUND:                -0.860
REMARK SMILES O=c1cc(-c2ccc(O)c(O)c2)oc2cc(O[C@H]3O[C@@H](CO)[C@@H](O)[C@@H](O)[C@@H]3O)cc(O)c12
REMARK SMILES IDX 17 1 16 2 4 3 3 4 13 5 2 6 14 7 1 8 32 9 15 10 30 11 29 12
REMARK SMILES IDX 5 13 6 14 7 15 8 16 12 17 10 18 9 19 11 21 31 23 18 25 27 26
REMARK SMILES IDX 19 27 25 28 20 29 23 30 28 31 26 33 21 35 22 36 24 38
REMARK H PARENT 9 20 11 22 31 24 28 32 26 34 22 37 24 39
REMARK Flexibility Score: inf
ROOT
ATOM      1  O   UNL     1     104.272 104.671 108.647  1.00  0.00    -0.462 OA
ENDROOT
BRANCH   1   2
ATOM      2  C   UNL     1     104.073 104.051 107.404  1.00  0.00     0.130 A 
ATOM      3  C   UNL     1     104.007 104.221 102.637  1.00  0.00     0.138 A 
ATOM      4  C   UNL     1     103.571 102.893 102.527  1.00  0.00     0.100 A 
ATOM      5  O   UNL     1     104.197 104.745 103.844  1.00  0.00    -0.456 OA
ATOM      6  C   UNL     1     103.375 102.135 103.683  1.00  0.00     0.197 A 
ATOM      7  C   UNL     1     104.030 104.066 104.975  1.00  0.00     0.146 A 
ATOM      8  O   UNL     1     102.928 100.966 103.555  1.00  0.00    -0.289 OA
ATOM      9  C   UNL     1     103.644 102.700 104.951  1.00  0.00     0.107 A 
ATOM     10  C   UNL     1     104.238 104.727 106.186  1.00  0.00     0.094 A 
ATOM     11  C   UNL     1     103.524 102.007 106.191  1.00  0.00     0.134 A 
ATOM     12  C   UNL     1     103.711 102.703 107.391  1.00  0.00     0.093 A 
BRANCH   3  13
ATOM     13  C   UNL     1     104.247 105.074 101.444  1.00  0.00     0.021 A 
ATOM     14  C   UNL     1     104.492 106.457 101.558  1.00  0.00     0.016 A 
ATOM     15  C   UNL     1     104.691 107.237 100.415  1.00  0.00     0.051 A 
ATOM     16  C   UNL     1     104.637 106.654  99.142  1.00  0.00     0.157 A 
ATOM     17  C   UNL     1     104.188 104.499 100.160  1.00  0.00     0.062 A 
ATOM     18  C   UNL     1     104.387 105.284  99.015  1.00  0.00     0.158 A 
BRANCH  16  19
ATOM     19  O   UNL     1     104.826 107.433  98.002  1.00  0.00    -0.504 OA
ATOM     20  H   UNL     1     104.365 107.212  97.125  1.00  0.00     0.293 HD
ENDBRANCH  16  19
BRANCH  18  21
ATOM     21  O   UNL     1     104.340 104.707  97.747  1.00  0.00    -0.504 OA
ATOM     22  H   UNL     1     104.187 103.713  97.623  1.00  0.00     0.293 HD
ENDBRANCH  18  21
ENDBRANCH   3  13
BRANCH  11  23
ATOM     23  O   UNL     1     103.253 100.639 106.298  1.00  0.00    -0.507 OA
ATOM     24  H   UNL     1     102.522 100.240 106.864  1.00  0.00     0.293 HD
ENDBRANCH  11  23
ENDBRANCH   1   2
BRANCH   1  25
ATOM     25  C   UNL     1     104.775 104.026 109.818  1.00  0.00     0.339 C 
ATOM     26  C   UNL     1     103.608 103.742 110.801  1.00  0.00     0.214 C 
ATOM     27  O   UNL     1     105.856 104.772 110.373  1.00  0.00    -0.332 OA
ATOM     28  C   UNL     1     104.106 103.813 112.242  1.00  0.00     0.180 C 
ATOM     29  C   UNL     1     105.454 105.793 111.276  1.00  0.00     0.179 C 
ATOM     30  C   UNL     1     104.725 105.202 112.526  1.00  0.00     0.177 C 
BRANCH  26  31
ATOM     31  O   UNL     1     103.076 102.463 110.558  1.00  0.00    -0.384 OA
ATOM     32  H   UNL     1     103.319 102.223 109.624  1.00  0.00     0.211 HD
ENDBRANCH  26  31
BRANCH  28  33
ATOM     33  O   UNL     1     103.044 103.547 113.125  1.00  0.00    -0.387 OA
ATOM     34  H   UNL     1     102.369 104.260 112.979  1.00  0.00     0.211 HD
ENDBRANCH  28  33
BRANCH  29  35
ATOM     35  C   UNL     1     104.724 106.946 110.551  1.00  0.00     0.191 C 
BRANCH  35  36
ATOM     36  O   UNL     1     104.908 108.149 111.252  1.00  0.00    -0.394 OA
ATOM     37  H   UNL     1     104.240 108.794 110.903  1.00  0.00     0.210 HD
ENDBRANCH  35  36
ENDBRANCH  29  35
BRANCH  30  38
ATOM     38  O   UNL     1     103.787 106.101 113.069  1.00  0.00    -0.387 OA
ATOM     39  H   UNL     1     103.215 105.600 113.708  1.00  0.00     0.211 HD
ENDBRANCH  30  38
ENDBRANCH   1  25
TORSDOF 11
ENDMDL
MODEL 7
REMARK VINA RESULT:    24.311      2.381     10.271
REMARK INTER + INTRA:          34.110
REMARK INTER:                  35.108
REMARK INTRA:                  -0.998
REMARK UNBOUND:                -0.860
REMARK SMILES O=c1cc(-c2ccc(O)c(O)c2)oc2cc(O[C@H]3O[C@@H](CO)[C@@H](O)[C@@H](O)[C@@H]3O)cc(O)c12
REMARK SMILES IDX 17 1 16 2 4 3 3 4 13 5 2 6 14 7 1 8 32 9 15 10 30 11 29 12
REMARK SMILES IDX 5 13 6 14 7 15 8 16 12 17 10 18 9 19 11 21 31 23 18 25 27 26
REMARK SMILES IDX 19 27 25 28 20 29 23 30 28 31 26 33 21 35 22 36 24 38
REMARK H PARENT 9 20 11 22 31 24 28 32 26 34 22 37 24 39
REMARK Flexibility Score: inf
ROOT
ATOM      1  O   UNL     1     104.391 103.761 100.589  1.00  0.00    -0.462 OA
ENDROOT
BRANCH   1   2
ATOM      2  C   UNL     1     104.411 104.357 101.860  1.00  0.00     0.130 A 
ATOM      3  C   UNL     1     103.978 104.053 106.600  1.00  0.00     0.138 A 
ATOM      4  C   UNL     1     104.169 105.430 106.775  1.00  0.00     0.100 A 
ATOM      5  O   UNL     1     103.992 103.545 105.372  1.00  0.00    -0.456 OA
ATOM      6  C   UNL     1     104.402 106.240 105.662  1.00  0.00     0.197 A 
ATOM      7  C   UNL     1     104.214 104.271 104.280  1.00  0.00     0.146 A 
ATOM      8  O   UNL     1     104.511 107.480 105.845  1.00  0.00    -0.289 OA
ATOM      9  C   UNL     1     104.472 105.663 104.372  1.00  0.00     0.107 A 
ATOM     10  C   UNL     1     104.183 103.633 103.039  1.00  0.00     0.094 A 
ATOM     11  C   UNL     1     104.748 106.384 103.174  1.00  0.00     0.134 A 
ATOM     12  C   UNL     1     104.683 105.724 101.942  1.00  0.00     0.093 A 
BRANCH   3  13
ATOM     13  C   UNL     1     103.741 103.137 107.747  1.00  0.00     0.021 A 
ATOM     14  C   UNL     1     103.465 101.768 107.559  1.00  0.00     0.016 A 
ATOM     15  C   UNL     1     103.223 100.937 108.656  1.00  0.00     0.051 A 
ATOM     16  C   UNL     1     103.240 101.459 109.957  1.00  0.00     0.157 A 
ATOM     17  C   UNL     1     103.749 103.653 109.057  1.00  0.00     0.062 A 
ATOM     18  C   UNL     1     103.505 102.818 110.157  1.00  0.00     0.158 A 
BRANCH  16  19
ATOM     19  O   UNL     1     102.989 100.634 111.051  1.00  0.00    -0.504 OA
ATOM     20  H   UNL     1     103.742 100.270 111.625  1.00  0.00     0.293 HD
ENDBRANCH  16  19
BRANCH  18  21
ATOM     21  O   UNL     1     103.527 103.332 111.452  1.00  0.00    -0.504 OA
ATOM     22  H   UNL     1     104.301 103.895 111.786  1.00  0.00     0.293 HD
ENDBRANCH  18  21
ENDBRANCH   3  13
BRANCH  11  23
ATOM     23  O   UNL     1     105.118 107.732 103.142  1.00  0.00    -0.507 OA
ATOM     24  H   UNL     1     104.521 108.486 102.843  1.00  0.00     0.293 HD
ENDBRANCH  11  23
ENDBRANCH   1   2
BRANCH   1  25
ATOM     25  C   UNL     1     103.240 103.186  99.967  1.00  0.00     0.339 C 
ATOM     26  C   UNL     1     103.622 101.832  99.313  1.00  0.00     0.214 C 
ATOM     27  O   UNL     1     102.630 104.126  99.085  1.00  0.00    -0.332 OA
ATOM     28  C   UNL     1     102.770 101.591  98.068  1.00  0.00     0.180 C 
ATOM     29  C   UNL     1     103.170 104.125  97.771  1.00  0.00     0.179 C 
ATOM     30  C   UNL     1     102.957 102.750  97.061  1.00  0.00     0.177 C 
BRANCH  26  31
ATOM     31  O   UNL     1     103.415 100.782 100.225  1.00  0.00    -0.384 OA
ATOM     32  H   UNL     1     104.075 100.904 100.958  1.00  0.00     0.211 HD
ENDBRANCH  26  31
BRANCH  28  33
ATOM     33  O   UNL     1     103.117 100.359  97.487  1.00  0.00    -0.387 OA
ATOM     34  H   UNL     1     103.026 100.473  96.506  1.00  0.00     0.211 HD
ENDBRANCH  28  33
BRANCH  29  35
ATOM     35  C   UNL     1     104.611 104.684  97.742  1.00  0.00     0.191 C 
BRANCH  35  36
ATOM     36  O   UNL     1     104.624 106.005  98.218  1.00  0.00    -0.394 OA
ATOM     37  H   UNL     1     105.152 106.541  97.571  1.00  0.00     0.210 HD
ENDBRANCH  35  36
ENDBRANCH  29  35
BRANCH  30  38
ATOM     38  O   UNL     1     103.966 102.476  96.117  1.00  0.00    -0.387 OA
ATOM     39  H   UNL     1     103.685 101.684  95.587  1.00  0.00     0.211 HD
ENDBRANCH  30  38
ENDBRANCH   1  25
TORSDOF 11
ENDMDL
MODEL 8
REMARK VINA RESULT:    24.358      2.700      5.014
REMARK INTER + INTRA:          34.177
REMARK INTER:                  35.094
REMARK INTRA:                  -0.916
REMARK UNBOUND:                -0.860
REMARK SMILES O=c1cc(-c2ccc(O)c(O)c2)oc2cc(O[C@H]3O[C@@H](CO)[C@@H](O)[C@@H](O)[C@@H]3O)cc(O)c12
REMARK SMILES IDX 17 1 16 2 4 3 3 4 13 5 2 6 14 7 1 8 32 9 15 10 30 11 29 12
REMARK SMILES IDX 5 13 6 14 7 15 8 16 12 17 10 18 9 19 11 21 31 23 18 25 27 26
REMARK SMILES IDX 19 27 25 28 20 29 23 30 28 31 26 33 21 35 22 36 24 38
REMARK H PARENT 9 20 11 22 31 24 28 32 26 34 22 37 24 39
REMARK Flexibility Score: inf
ROOT
ATOM      1  O   UNL     1     104.100 104.627 104.262  1.00  0.00    -0.462 OA
ENDROOT
BRANCH   1   2
ATOM      2  C   UNL     1     103.961 104.028 103.001  1.00  0.00     0.130 A 
ATOM      3  C   UNL     1     104.032 104.301  98.239  1.00  0.00     0.138 A 
ATOM      4  C   UNL     1     103.647 102.961  98.088  1.00  0.00     0.100 A 
ATOM      5  O   UNL     1     104.167 104.804  99.462  1.00  0.00    -0.456 OA
ATOM      6  C   UNL     1     103.443 102.171  99.221  1.00  0.00     0.197 A 
ATOM      7  C   UNL     1     103.990 104.094 100.572  1.00  0.00     0.146 A 
ATOM      8  O   UNL     1     103.042 100.990  99.054  1.00  0.00    -0.289 OA
ATOM      9  C   UNL     1     103.654 102.717 100.509  1.00  0.00     0.107 A 
ATOM     10  C   UNL     1     104.139 104.735 101.803  1.00  0.00     0.094 A 
ATOM     11  C   UNL     1     103.521 101.992 101.729  1.00  0.00     0.134 A 
ATOM     12  C   UNL     1     103.648 102.668 102.949  1.00  0.00     0.093 A 
BRANCH   3  13
ATOM     13  C   UNL     1     104.277 105.187  97.073  1.00  0.00     0.021 A 
ATOM     14  C   UNL     1     104.467 106.575  97.222  1.00  0.00     0.016 A 
ATOM     15  C   UNL     1     104.672 107.388  96.103  1.00  0.00     0.051 A 
ATOM     16  C   UNL     1     104.680 106.831  94.817  1.00  0.00     0.157 A 
ATOM     17  C   UNL     1     104.280 104.639  95.775  1.00  0.00     0.062 A 
ATOM     18  C   UNL     1     104.485 105.455  94.654  1.00  0.00     0.158 A 
BRANCH  16  19
ATOM     19  O   UNL     1     104.875 107.641  93.699  1.00  0.00    -0.504 OA
ATOM     20  H   UNL     1     104.797 108.650  93.756  1.00  0.00     0.293 HD
ENDBRANCH  16  19
BRANCH  18  21
ATOM     21  O   UNL     1     104.499 104.905  93.373  1.00  0.00    -0.504 OA
ATOM     22  H   UNL     1     103.925 104.105  93.134  1.00  0.00     0.293 HD
ENDBRANCH  18  21
ENDBRANCH   3  13
BRANCH  11  23
ATOM     23  O   UNL     1     103.296 100.614 101.799  1.00  0.00    -0.507 OA
ATOM     24  H   UNL     1     102.401 100.185 101.968  1.00  0.00     0.293 HD
ENDBRANCH  11  23
ENDBRANCH   1   2
BRANCH   1  25
ATOM     25  C   UNL     1     104.705 104.013 105.403  1.00  0.00     0.339 C 
ATOM     26  C   UNL     1     103.624 103.735 106.481  1.00  0.00     0.214 C 
ATOM     27  O   UNL     1     105.815 104.787 105.854  1.00  0.00    -0.332 OA
ATOM     28  C   UNL     1     104.234 103.845 107.877  1.00  0.00     0.180 C 
ATOM     29  C   UNL     1     105.470 105.822 106.765  1.00  0.00     0.179 C 
ATOM     30  C   UNL     1     104.852 105.248 108.081  1.00  0.00     0.177 C 
BRANCH  26  31
ATOM     31  O   UNL     1     103.094 102.444 106.308  1.00  0.00    -0.384 OA
ATOM     32  H   UNL     1     102.104 102.535 106.326  1.00  0.00     0.211 HD
ENDBRANCH  26  31
BRANCH  28  33
ATOM     33  O   UNL     1     103.249 103.584 108.846  1.00  0.00    -0.387 OA
ATOM     34  H   UNL     1     103.316 104.309 109.520  1.00  0.00     0.211 HD
ENDBRANCH  28  33
BRANCH  29  35
ATOM     35  C   UNL     1     104.668 106.949 106.077  1.00  0.00     0.191 C 
BRANCH  35  36
ATOM     36  O   UNL     1     105.026 108.194 106.616  1.00  0.00    -0.394 OA
ATOM     37  H   UNL     1     105.057 108.086 107.602  1.00  0.00     0.210 HD
ENDBRANCH  35  36
ENDBRANCH  29  35
BRANCH  30  38
ATOM     38  O   UNL     1     103.946 106.146 108.678  1.00  0.00    -0.387 OA
ATOM     39  H   UNL     1     103.026 105.808 108.518  1.00  0.00     0.211 HD
ENDBRANCH  30  38
ENDBRANCH   1  25
TORSDOF 11
ENDMDL
MODEL 9
REMARK VINA RESULT:    24.417      2.932      5.766
REMARK INTER + INTRA:          34.262
REMARK INTER:                  35.184
REMARK INTRA:                  -0.923
REMARK UNBOUND:                -0.860
REMARK SMILES O=c1cc(-c2ccc(O)c(O)c2)oc2cc(O[C@H]3O[C@@H](CO)[C@@H](O)[C@@H](O)[C@@H]3O)cc(O)c12
REMARK SMILES IDX 17 1 16 2 4 3 3 4 13 5 2 6 14 7 1 8 32 9 15 10 30 11 29 12
REMARK SMILES IDX 5 13 6 14 7 15 8 16 12 17 10 18 9 19 11 21 31 23 18 25 27 26
REMARK SMILES IDX 19 27 25 28 20 29 23 30 28 31 26 33 21 35 22 36 24 38
REMARK H PARENT 9 20 11 22 31 24 28 32 26 34 22 37 24 39
REMARK Flexibility Score: inf
ROOT
ATOM      1  O   UNL     1     103.939 103.739 104.297  1.00  0.00    -0.462 OA
ENDROOT
BRANCH   1   2
ATOM      2  C   UNL     1     104.068 104.328 103.030  1.00  0.00     0.130 A 
ATOM      3  C   UNL     1     103.978 104.014  98.271  1.00  0.00     0.138 A 
ATOM      4  C   UNL     1     104.353 105.354  98.107  1.00  0.00     0.100 A 
ATOM      5  O   UNL     1     103.851 103.520  99.499  1.00  0.00    -0.456 OA
ATOM      6  C   UNL     1     104.556 106.156  99.232  1.00  0.00     0.197 A 
ATOM      7  C   UNL     1     104.028 104.241 100.602  1.00  0.00     0.146 A 
ATOM      8  O   UNL     1     104.949 107.338  99.053  1.00  0.00    -0.289 OA
ATOM      9  C   UNL     1     104.355 105.620 100.525  1.00  0.00     0.107 A 
ATOM     10  C   UNL     1     103.890 103.609 101.839  1.00  0.00     0.094 A 
ATOM     11  C   UNL     1     104.489 106.355 101.739  1.00  0.00     0.134 A 
ATOM     12  C   UNL     1     104.372 105.689 102.965  1.00  0.00     0.093 A 
BRANCH   3  13
ATOM     13  C   UNL     1     103.733 103.116  97.113  1.00  0.00     0.021 A 
ATOM     14  C   UNL     1     103.516 101.733  97.279  1.00  0.00     0.016 A 
ATOM     15  C   UNL     1     103.313 100.909  96.168  1.00  0.00     0.051 A 
ATOM     16  C   UNL     1     103.333 101.448  94.875  1.00  0.00     0.157 A 
ATOM     17  C   UNL     1     103.757 103.645  95.809  1.00  0.00     0.062 A 
ATOM     18  C   UNL     1     103.554 102.818  94.696  1.00  0.00     0.158 A 
BRANCH  16  19
ATOM     19  O   UNL     1     103.139 100.627  93.766  1.00  0.00    -0.504 OA
ATOM     20  H   UNL     1     102.307 100.701  93.189  1.00  0.00     0.293 HD
ENDBRANCH  16  19
BRANCH  18  21
ATOM     21  O   UNL     1     103.567 103.351  93.408  1.00  0.00    -0.504 OA
ATOM     22  H   UNL     1     102.713 103.641  92.946  1.00  0.00     0.293 HD
ENDBRANCH  18  21
ENDBRANCH   3  13
BRANCH  11  23
ATOM     23  O   UNL     1     104.705 107.735 101.795  1.00  0.00    -0.507 OA
ATOM     24  H   UNL     1     104.917 108.318 101.001  1.00  0.00     0.293 HD
ENDBRANCH  11  23
ENDBRANCH   1   2
BRANCH   1  25
ATOM     25  C   UNL     1     103.321 104.352 105.431  1.00  0.00     0.339 C 
ATOM     26  C   UNL     1     104.390 104.634 106.520  1.00  0.00     0.214 C 
ATOM     27  O   UNL     1     102.209 103.576 105.871  1.00  0.00    -0.332 OA
ATOM     28  C   UNL     1     103.767 104.524 107.909  1.00  0.00     0.180 C 
ATOM     29  C   UNL     1     102.547 102.543 106.787  1.00  0.00     0.179 C 
ATOM     30  C   UNL     1     103.150 103.119 108.108  1.00  0.00     0.177 C 
BRANCH  26  31
ATOM     31  O   UNL     1     104.919 105.926 106.351  1.00  0.00    -0.384 OA
ATOM     32  H   UNL     1     105.508 105.894 105.551  1.00  0.00     0.211 HD
ENDBRANCH  26  31
BRANCH  28  33
ATOM     33  O   UNL     1     104.741 104.788 108.888  1.00  0.00    -0.387 OA
ATOM     34  H   UNL     1     104.251 104.995 109.726  1.00  0.00     0.211 HD
ENDBRANCH  28  33
BRANCH  29  35
ATOM     35  C   UNL     1     103.360 101.418 106.108  1.00  0.00     0.191 C 
BRANCH  35  36
ATOM     36  O   UNL     1     102.976 100.168 106.621  1.00  0.00    -0.394 OA
ATOM     37  H   UNL     1     103.804  99.706 106.911  1.00  0.00     0.210 HD
ENDBRANCH  35  36
ENDBRANCH  29  35
BRANCH  30  38
ATOM     38  O   UNL     1     104.053 102.224 108.716  1.00  0.00    -0.387 OA
ATOM     39  H   UNL     1     103.619 101.332 108.760  1.00  0.00     0.211 HD
ENDBRANCH  30  38
ENDBRANCH   1  25
TORSDOF 11
ENDMDL
