MODEL 1
REMARK VINA RESULT:     1.512      0.000      0.000
REMARK INTER + INTRA:           1.837
REMARK INTER:                   1.778
REMARK INTRA:                   0.059
REMARK UNBOUND:                 0.059
REMARK SMILES O=c1c(O)c(-c2ccc(O)cc2)oc2cc(O)cc(O)c12
REMARK SMILES IDX 5 1 3 2 2 3 1 4 21 5 19 6 18 7 16 8 15 9 14 10 13 11 6 12
REMARK SMILES IDX 7 13 8 14 9 15 12 16 11 17 10 18 4 20 20 22 17 24
REMARK H PARENT 10 19 4 21 20 23 17 25
REMARK Flexibility Score: inf
ROOT
ATOM      1  C   UNL     1      11.965  22.075   0.036  1.00  0.00     0.180 A 
ATOM      2  C   UNL     1      12.797  23.063  -0.518  1.00  0.00     0.208 A 
ATOM      3  C   UNL     1      12.773  23.273  -1.906  1.00  0.00     0.238 A 
ATOM      4  O   UNL     1      13.560  24.121  -2.403  1.00  0.00    -0.285 OA
ATOM      5  C   UNL     1      11.907  22.504  -2.720  1.00  0.00     0.111 A 
ATOM      6  C   UNL     1      11.772  22.660  -4.133  1.00  0.00     0.134 A 
ATOM      7  C   UNL     1      10.981  21.758  -4.854  1.00  0.00     0.093 A 
ATOM      8  C   UNL     1      10.271  20.747  -4.209  1.00  0.00     0.123 A 
ATOM      9  C   UNL     1      10.349  20.621  -2.821  1.00  0.00     0.094 A 
ATOM     10  C   UNL     1      11.157  21.485  -2.078  1.00  0.00     0.146 A 
ATOM     11  O   UNL     1      11.212  21.325  -0.760  1.00  0.00    -0.452 OA
ENDROOT
BRANCH   1  12
ATOM     12  C   UNL     1      11.915  21.812   1.493  1.00  0.00     0.021 A 
ATOM     13  C   UNL     1      11.823  22.864   2.424  1.00  0.00     0.016 A 
ATOM     14  C   UNL     1      11.753  22.590   3.794  1.00  0.00     0.047 A 
ATOM     15  C   UNL     1      11.761  21.264   4.249  1.00  0.00     0.115 A 
ATOM     16  C   UNL     1      11.900  20.487   1.957  1.00  0.00     0.016 A 
ATOM     17  C   UNL     1      11.831  20.216   3.328  1.00  0.00     0.047 A 
BRANCH  15  18
ATOM     18  O   UNL     1      11.693  20.981   5.611  1.00  0.00    -0.508 OA
ATOM     19  H   UNL     1      10.906  20.483   6.010  1.00  0.00     0.293 HD
ENDBRANCH  15  18
ENDBRANCH   1  12
BRANCH   2  20
ATOM     20  O   UNL     1      13.660  23.796   0.302  1.00  0.00    -0.502 OA
ATOM     21  H   UNL     1      14.094  24.660  -0.000  1.00  0.00     0.293 HD
ENDBRANCH   2  20
BRANCH   6  22
ATOM     22  O   UNL     1      12.365  23.693  -4.864  1.00  0.00    -0.507 OA
ATOM     23  H   UNL     1      13.181  24.210  -4.572  1.00  0.00     0.293 HD
ENDBRANCH   6  22
BRANCH   8  24
ATOM     24  O   UNL     1       9.482  19.875  -4.957  1.00  0.00    -0.508 OA
ATOM     25  H   UNL     1       8.482  19.805  -4.808  1.00  0.00     0.293 HD
ENDBRANCH   8  24
TORSDOF 5
ENDMDL
MODEL 2
REMARK VINA RESULT:     4.205      1.342      2.865
REMARK INTER + INTRA:           5.002
REMARK INTER:                   4.652
REMARK INTRA:                   0.350
REMARK UNBOUND:                 0.059
REMARK SMILES O=c1c(O)c(-c2ccc(O)cc2)oc2cc(O)cc(O)c12
REMARK SMILES IDX 5 1 3 2 2 3 1 4 21 5 19 6 18 7 16 8 15 9 14 10 13 11 6 12
REMARK SMILES IDX 7 13 8 14 9 15 12 16 11 17 10 18 4 20 20 22 17 24
REMARK H PARENT 10 19 4 21 20 23 17 25
REMARK Flexibility Score: inf
ROOT
ATOM      1  C   UNL     1      11.623  22.110  -0.026  1.00  0.00     0.180 A 
ATOM      2  C   UNL     1      11.127  20.995  -0.724  1.00  0.00     0.208 A 
ATOM      3  C   UNL     1      11.067  21.042  -2.126  1.00  0.00     0.238 A 
ATOM      4  O   UNL     1      10.570  20.062  -2.743  1.00  0.00    -0.285 OA
ATOM      5  C   UNL     1      11.517  22.195  -2.813  1.00  0.00     0.111 A 
ATOM      6  C   UNL     1      11.539  22.335  -4.233  1.00  0.00     0.134 A 
ATOM      7  C   UNL     1      11.883  23.568  -4.800  1.00  0.00     0.093 A 
ATOM      8  C   UNL     1      12.269  24.645  -4.002  1.00  0.00     0.123 A 
ATOM      9  C   UNL     1      12.308  24.501  -2.614  1.00  0.00     0.094 A 
ATOM     10  C   UNL     1      11.936  23.294  -2.018  1.00  0.00     0.146 A 
ATOM     11  O   UNL     1      11.977  23.201  -0.694  1.00  0.00    -0.452 OA
ENDROOT
BRANCH   1  12
ATOM     12  C   UNL     1      11.742  22.126   1.451  1.00  0.00     0.021 A 
ATOM     13  C   UNL     1      11.595  23.318   2.184  1.00  0.00     0.016 A 
ATOM     14  C   UNL     1      11.687  23.304   3.580  1.00  0.00     0.047 A 
ATOM     15  C   UNL     1      11.913  22.099   4.259  1.00  0.00     0.115 A 
ATOM     16  C   UNL     1      11.947  20.921   2.141  1.00  0.00     0.016 A 
ATOM     17  C   UNL     1      12.040  20.909   3.537  1.00  0.00     0.047 A 
BRANCH  15  18
ATOM     18  O   UNL     1      12.009  22.075   5.648  1.00  0.00    -0.508 OA
ATOM     19  H   UNL     1      12.407  22.849   6.166  1.00  0.00     0.293 HD
ENDBRANCH  15  18
ENDBRANCH   1  12
BRANCH   2  20
ATOM     20  O   UNL     1      10.667  19.875  -0.025  1.00  0.00    -0.502 OA
ATOM     21  H   UNL     1      10.912  18.929  -0.291  1.00  0.00     0.293 HD
ENDBRANCH   2  20
BRANCH   6  22
ATOM     22  O   UNL     1      11.260  21.295  -5.124  1.00  0.00    -0.507 OA
ATOM     23  H   UNL     1      10.507  20.633  -5.018  1.00  0.00     0.293 HD
ENDBRANCH   6  22
BRANCH   8  24
ATOM     24  O   UNL     1      12.620  25.853  -4.601  1.00  0.00    -0.508 OA
ATOM     25  H   UNL     1      13.541  26.002  -4.994  1.00  0.00     0.293 HD
ENDBRANCH   8  24
TORSDOF 5
ENDMDL
