MODEL 1
REMARK VINA RESULT:    -4.891      0.000      0.000
REMARK INTER + INTRA:         -10.161
REMARK INTER:                  -8.894
REMARK INTRA:                  -1.267
REMARK UNBOUND:                -1.267
REMARK SMILES CCCCCCCCCCCCCCCC(=O)[O-]
REMARK SMILES IDX 9 1 10 2 11 3 12 4 13 5 14 6 15 7 16 8 17 9 18 10 8 11 7 12
REMARK SMILES IDX 6 13 5 14 4 15 3 16 2 17 1 18
REMARK H PARENT
REMARK Flexibility Score: inf
ROOT
ATOM      1  C   UNL     1       0.866  -2.098   9.464  1.00  0.00     0.000 C 
ENDROOT
BRANCH   1   2
ATOM      2  C   UNL     1       0.689  -3.523  10.011  1.00  0.00     0.000 C 
BRANCH   2   3
ATOM      3  C   UNL     1      -0.200  -4.360   9.084  1.00  0.00     0.000 C 
BRANCH   3   4
ATOM      4  C   UNL     1       0.599  -4.886   7.883  1.00  0.00     0.000 C 
BRANCH   4   5
ATOM      5  C   UNL     1      -0.164  -5.950   7.073  1.00  0.00     0.000 C 
BRANCH   5   6
ATOM      6  C   UNL     1      -1.247  -6.716   7.859  1.00  0.00     0.006 C 
BRANCH   6   7
ATOM      7  C   UNL     1      -1.336  -8.214   7.529  1.00  0.00     0.053 C 
BRANCH   7   8
ATOM      8  C   UNL     1      -2.538  -8.856   8.150  1.00  0.00     0.041 C 
ATOM      9  O   UNL     1      -3.056  -8.361   9.185  1.00  0.00    -0.550 OA
ATOM     10  O   UNL     1      -3.065 -10.021   7.606  1.00  0.00    -0.550 OA
ENDBRANCH   7   8
ENDBRANCH   6   7
ENDBRANCH   5   6
ENDBRANCH   4   5
ENDBRANCH   3   4
ENDBRANCH   2   3
ENDBRANCH   1   2
BRANCH   1  11
ATOM     11  C   UNL     1      -0.392  -1.233   9.640  1.00  0.00     0.000 C 
BRANCH  11  12
ATOM     12  C   UNL     1      -0.389   0.006   8.729  1.00  0.00    -0.000 C 
BRANCH  12  13
ATOM     13  C   UNL     1      -1.542  -0.008   7.710  1.00  0.00    -0.000 C 
BRANCH  13  14
ATOM     14  C   UNL     1      -1.091   0.390   6.297  1.00  0.00    -0.000 C 
BRANCH  14  15
ATOM     15  C   UNL     1      -1.497  -0.679   5.271  1.00  0.00    -0.000 C 
BRANCH  15  16
ATOM     16  C   UNL     1      -1.295  -2.114   5.788  1.00  0.00    -0.000 C 
BRANCH  16  17
ATOM     17  C   UNL     1      -1.595  -3.220   4.760  1.00  0.00    -0.003 C 
ATOM     18  C   UNL     1      -1.385  -2.768   3.316  1.00  0.00     0.004 C 
ENDBRANCH  16  17
ENDBRANCH  15  16
ENDBRANCH  14  15
ENDBRANCH  13  14
ENDBRANCH  12  13
ENDBRANCH  11  12
ENDBRANCH   1  11
TORSDOF 14
ENDMDL
MODEL 2
REMARK VINA RESULT:    -4.785      2.913      6.212
REMARK INTER + INTRA:          -9.969
REMARK INTER:                  -9.002
REMARK INTRA:                  -0.967
REMARK UNBOUND:                -1.267
REMARK SMILES CCCCCCCCCCCCCCCC(=O)[O-]
REMARK SMILES IDX 9 1 10 2 11 3 12 4 13 5 14 6 15 7 16 8 17 9 18 10 8 11 7 12
REMARK SMILES IDX 6 13 5 14 4 15 3 16 2 17 1 18
REMARK H PARENT
REMARK Flexibility Score: inf
ROOT
ATOM      1  C   UNL     1       0.466  -2.565   9.994  1.00  0.00     0.000 C 
ENDROOT
BRANCH   1   2
ATOM      2  C   UNL     1       1.206  -1.220  10.059  1.00  0.00     0.000 C 
BRANCH   2   3
ATOM      3  C   UNL     1       0.314  -0.079   9.554  1.00  0.00     0.000 C 
BRANCH   3   4
ATOM      4  C   UNL     1      -0.889  -0.626   8.772  1.00  0.00     0.000 C 
BRANCH   4   5
ATOM      5  C   UNL     1      -1.381   0.336   7.676  1.00  0.00     0.000 C 
BRANCH   5   6
ATOM      6  C   UNL     1      -1.165  -0.155   6.230  1.00  0.00     0.006 C 
BRANCH   6   7
ATOM      7  C   UNL     1      -1.317  -1.672   6.042  1.00  0.00     0.053 C 
BRANCH   7   8
ATOM      8  C   UNL     1      -1.510  -2.044   4.604  1.00  0.00     0.041 C 
ATOM      9  O   UNL     1      -1.507  -3.254   4.257  1.00  0.00    -0.550 OA
ATOM     10  O   UNL     1      -1.657  -1.052   3.642  1.00  0.00    -0.550 OA
ENDBRANCH   7   8
ENDBRANCH   6   7
ENDBRANCH   5   6
ENDBRANCH   4   5
ENDBRANCH   3   4
ENDBRANCH   2   3
ENDBRANCH   1   2
BRANCH   1  11
ATOM     11  C   UNL     1       1.422  -3.765   9.900  1.00  0.00     0.000 C 
BRANCH  11  12
ATOM     12  C   UNL     1       1.363  -4.461   8.528  1.00  0.00    -0.000 C 
BRANCH  12  13
ATOM     13  C   UNL     1       0.300  -5.571   8.476  1.00  0.00    -0.000 C 
BRANCH  13  14
ATOM     14  C   UNL     1      -0.110  -5.935   7.041  1.00  0.00    -0.000 C 
BRANCH  14  15
ATOM     15  C   UNL     1      -0.736  -7.336   6.988  1.00  0.00    -0.000 C 
BRANCH  15  16
ATOM     16  C   UNL     1      -1.914  -7.505   7.964  1.00  0.00    -0.000 C 
BRANCH  16  17
ATOM     17  C   UNL     1      -2.317  -8.963   8.245  1.00  0.00    -0.003 C 
ATOM     18  C   UNL     1      -1.551  -9.972   7.389  1.00  0.00     0.004 C 
ENDBRANCH  16  17
ENDBRANCH  15  16
ENDBRANCH  14  15
ENDBRANCH  13  14
ENDBRANCH  12  13
ENDBRANCH  11  12
ENDBRANCH   1  11
TORSDOF 14
ENDMDL
MODEL 3
REMARK VINA RESULT:    -4.501      1.210      3.859
REMARK INTER + INTRA:          -9.452
REMARK INTER:                  -7.628
REMARK INTRA:                  -1.824
REMARK UNBOUND:                -1.267
REMARK SMILES CCCCCCCCCCCCCCCC(=O)[O-]
REMARK SMILES IDX 9 1 10 2 11 3 12 4 13 5 14 6 15 7 16 8 17 9 18 10 8 11 7 12
REMARK SMILES IDX 6 13 5 14 4 15 3 16 2 17 1 18
REMARK H PARENT
REMARK Flexibility Score: inf
ROOT
ATOM      1  C   UNL     1      -1.299  -0.390   5.975  1.00  0.00     0.000 C 
ENDROOT
BRANCH   1   2
ATOM      2  C   UNL     1      -1.135  -1.892   6.255  1.00  0.00     0.000 C 
BRANCH   2   3
ATOM      3  C   UNL     1      -1.514  -2.724   5.024  1.00  0.00     0.000 C 
BRANCH   3   4
ATOM      4  C   UNL     1      -1.285  -4.221   5.280  1.00  0.00     0.000 C 
BRANCH   4   5
ATOM      5  C   UNL     1      -0.611  -4.501   6.636  1.00  0.00     0.000 C 
BRANCH   5   6
ATOM      6  C   UNL     1      -0.166  -5.962   6.855  1.00  0.00     0.006 C 
BRANCH   6   7
ATOM      7  C   UNL     1      -0.752  -6.627   8.109  1.00  0.00     0.053 C 
BRANCH   7   8
ATOM      8  C   UNL     1      -1.834  -7.607   7.772  1.00  0.00     0.041 C 
ATOM      9  O   UNL     1      -3.041  -7.255   7.814  1.00  0.00    -0.550 OA
ATOM     10  O   UNL     1      -1.509  -8.918   7.447  1.00  0.00    -0.550 OA
ENDBRANCH   7   8
ENDBRANCH   6   7
ENDBRANCH   5   6
ENDBRANCH   4   5
ENDBRANCH   3   4
ENDBRANCH   2   3
ENDBRANCH   1   2
BRANCH   1  11
ATOM     11  C   UNL     1      -1.076   0.476   7.225  1.00  0.00     0.000 C 
BRANCH  11  12
ATOM     12  C   UNL     1      -1.365  -0.287   8.531  1.00  0.00    -0.000 C 
BRANCH  12  13
ATOM     13  C   UNL     1      -0.272  -0.075   9.592  1.00  0.00    -0.000 C 
BRANCH  13  14
ATOM     14  C   UNL     1       0.669  -1.283   9.725  1.00  0.00    -0.000 C 
BRANCH  14  15
ATOM     15  C   UNL     1      -0.126  -2.597   9.748  1.00  0.00    -0.000 C 
BRANCH  15  16
ATOM     16  C   UNL     1       0.737  -3.814  10.125  1.00  0.00    -0.000 C 
BRANCH  16  17
ATOM     17  C   UNL     1       2.077  -3.913   9.375  1.00  0.00    -0.003 C 
ATOM     18  C   UNL     1       2.650  -5.330   9.357  1.00  0.00     0.004 C 
ENDBRANCH  16  17
ENDBRANCH  15  16
ENDBRANCH  14  15
ENDBRANCH  13  14
ENDBRANCH  12  13
ENDBRANCH  11  12
ENDBRANCH   1  11
TORSDOF 14
ENDMDL
MODEL 4
REMARK VINA RESULT:    -4.467      4.008      7.297
REMARK INTER + INTRA:          -9.389
REMARK INTER:                  -8.132
REMARK INTRA:                  -1.258
REMARK UNBOUND:                -1.267
REMARK SMILES CCCCCCCCCCCCCCCC(=O)[O-]
REMARK SMILES IDX 9 1 10 2 11 3 12 4 13 5 14 6 15 7 16 8 17 9 18 10 8 11 7 12
REMARK SMILES IDX 6 13 5 14 4 15 3 16 2 17 1 18
REMARK H PARENT
REMARK Flexibility Score: inf
ROOT
ATOM      1  C   UNL     1      -1.463  -1.835   5.076  1.00  0.00     0.000 C 
ENDROOT
BRANCH   1   2
ATOM      2  C   UNL     1      -1.103  -1.532   6.538  1.00  0.00     0.000 C 
BRANCH   2   3
ATOM      3  C   UNL     1      -1.236  -0.032   6.835  1.00  0.00     0.000 C 
BRANCH   3   4
ATOM      4  C   UNL     1      -1.014   0.254   8.328  1.00  0.00     0.000 C 
BRANCH   4   5
ATOM      5  C   UNL     1      -0.476  -0.966   9.099  1.00  0.00     0.000 C 
BRANCH   5   6
ATOM      6  C   UNL     1       0.682  -0.663  10.073  1.00  0.00     0.006 C 
BRANCH   6   7
ATOM      7  C   UNL     1       1.381   0.683   9.835  1.00  0.00     0.053 C 
BRANCH   7   8
ATOM      8  C   UNL     1       2.872   0.563   9.912  1.00  0.00     0.041 C 
ATOM      9  O   UNL     1       3.413  -0.571   9.980  1.00  0.00    -0.550 OA
ATOM     10  O   UNL     1       3.662   1.706   9.945  1.00  0.00    -0.550 OA
ENDBRANCH   7   8
ENDBRANCH   6   7
ENDBRANCH   5   6
ENDBRANCH   4   5
ENDBRANCH   3   4
ENDBRANCH   2   3
ENDBRANCH   1   2
BRANCH   1  11
ATOM     11  C   UNL     1      -1.461  -3.340   4.763  1.00  0.00     0.000 C 
BRANCH  11  12
ATOM     12  C   UNL     1      -1.516  -4.207   6.034  1.00  0.00    -0.000 C 
BRANCH  12  13
ATOM     13  C   UNL     1      -0.309  -5.152   6.156  1.00  0.00    -0.000 C 
BRANCH  13  14
ATOM     14  C   UNL     1      -0.558  -6.311   7.133  1.00  0.00    -0.000 C 
BRANCH  14  15
ATOM     15  C   UNL     1      -0.479  -5.826   8.589  1.00  0.00    -0.000 C 
BRANCH  15  16
ATOM     16  C   UNL     1       0.604  -4.755   8.807  1.00  0.00    -0.000 C 
BRANCH  16  17
ATOM     17  C   UNL     1       1.904  -5.271   9.450  1.00  0.00    -0.003 C 
ATOM     18  C   UNL     1       3.079  -5.314   8.474  1.00  0.00     0.004 C 
ENDBRANCH  16  17
ENDBRANCH  15  16
ENDBRANCH  14  15
ENDBRANCH  13  14
ENDBRANCH  12  13
ENDBRANCH  11  12
ENDBRANCH   1  11
TORSDOF 14
ENDMDL
MODEL 5
REMARK VINA RESULT:    -4.300      1.469      2.921
REMARK INTER + INTRA:          -9.086
REMARK INTER:                  -8.462
REMARK INTRA:                  -0.624
REMARK UNBOUND:                -1.267
REMARK SMILES CCCCCCCCCCCCCCCC(=O)[O-]
REMARK SMILES IDX 9 1 10 2 11 3 12 4 13 5 14 6 15 7 16 8 17 9 18 10 8 11 7 12
REMARK SMILES IDX 6 13 5 14 4 15 3 16 2 17 1 18
REMARK H PARENT
REMARK Flexibility Score: inf
ROOT
ATOM      1  C   UNL     1       0.682  -4.930   9.033  1.00  0.00     0.000 C 
ENDROOT
BRANCH   1   2
ATOM      2  C   UNL     1       0.597  -5.062   7.504  1.00  0.00     0.000 C 
BRANCH   2   3
ATOM      3  C   UNL     1      -0.066  -6.386   7.104  1.00  0.00     0.000 C 
BRANCH   3   4
ATOM      4  C   UNL     1      -1.306  -6.662   7.967  1.00  0.00     0.000 C 
BRANCH   4   5
ATOM      5  C   UNL     1      -1.910  -8.057   7.722  1.00  0.00     0.000 C 
BRANCH   5   6
ATOM      6  C   UNL     1      -3.006  -8.480   8.722  1.00  0.00     0.006 C 
BRANCH   6   7
ATOM      7  C   UNL     1      -4.037  -9.469   8.158  1.00  0.00     0.053 C 
BRANCH   7   8
ATOM      8  C   UNL     1      -5.263  -8.774   7.651  1.00  0.00     0.041 C 
ATOM      9  O   UNL     1      -6.258  -9.444   7.268  1.00  0.00    -0.550 OA
ATOM     10  O   UNL     1      -5.294  -7.387   7.568  1.00  0.00    -0.550 OA
ENDBRANCH   7   8
ENDBRANCH   6   7
ENDBRANCH   5   6
ENDBRANCH   4   5
ENDBRANCH   3   4
ENDBRANCH   2   3
ENDBRANCH   1   2
BRANCH   1  11
ATOM     11  C   UNL     1       1.622  -3.799   9.480  1.00  0.00     0.000 C 
BRANCH  11  12
ATOM     12  C   UNL     1       0.859  -2.559   9.979  1.00  0.00    -0.000 C 
BRANCH  12  13
ATOM     13  C   UNL     1      -0.022  -1.930   8.887  1.00  0.00    -0.000 C 
BRANCH  13  14
ATOM     14  C   UNL     1      -0.446  -0.492   9.221  1.00  0.00    -0.000 C 
BRANCH  14  15
ATOM     15  C   UNL     1      -1.102   0.182   8.006  1.00  0.00    -0.000 C 
BRANCH  15  16
ATOM     16  C   UNL     1      -1.259  -0.768   6.805  1.00  0.00    -0.000 C 
BRANCH  16  17
ATOM     17  C   UNL     1      -1.191  -0.085   5.428  1.00  0.00    -0.003 C 
ATOM     18  C   UNL     1      -1.434  -1.050   4.268  1.00  0.00     0.004 C 
ENDBRANCH  16  17
ENDBRANCH  15  16
ENDBRANCH  14  15
ENDBRANCH  13  14
ENDBRANCH  12  13
ENDBRANCH  11  12
ENDBRANCH   1  11
TORSDOF 14
ENDMDL
MODEL 6
REMARK VINA RESULT:    -4.219      1.883      3.998
REMARK INTER + INTRA:          -8.938
REMARK INTER:                  -8.273
REMARK INTRA:                  -0.665
REMARK UNBOUND:                -1.267
REMARK SMILES CCCCCCCCCCCCCCCC(=O)[O-]
REMARK SMILES IDX 9 1 10 2 11 3 12 4 13 5 14 6 15 7 16 8 17 9 18 10 8 11 7 12
REMARK SMILES IDX 6 13 5 14 4 15 3 16 2 17 1 18
REMARK H PARENT
REMARK Flexibility Score: inf
ROOT
ATOM      1  C   UNL     1       0.114  -5.393   7.621  1.00  0.00     0.000 C 
ENDROOT
BRANCH   1   2
ATOM      2  C   UNL     1      -0.298  -6.707   6.942  1.00  0.00     0.000 C 
BRANCH   2   3
ATOM      3  C   UNL     1      -1.454  -7.376   7.698  1.00  0.00     0.000 C 
BRANCH   3   4
ATOM      4  C   UNL     1      -1.535  -8.873   7.364  1.00  0.00     0.000 C 
BRANCH   4   5
ATOM      5  C   UNL     1      -2.421  -9.660   8.347  1.00  0.00     0.000 C 
BRANCH   5   6
ATOM      6  C   UNL     1      -3.530  -8.834   9.031  1.00  0.00     0.006 C 
BRANCH   6   7
ATOM      7  C   UNL     1      -4.955  -9.164   8.560  1.00  0.00     0.053 C 
BRANCH   7   8
ATOM      8  C   UNL     1      -5.698  -7.941   8.120  1.00  0.00     0.041 C 
ATOM      9  O   UNL     1      -5.162  -7.126   7.325  1.00  0.00    -0.550 OA
ATOM     10  O   UNL     1      -6.970  -7.683   8.617  1.00  0.00    -0.550 OA
ENDBRANCH   7   8
ENDBRANCH   6   7
ENDBRANCH   5   6
ENDBRANCH   4   5
ENDBRANCH   3   4
ENDBRANCH   2   3
ENDBRANCH   1   2
BRANCH   1  11
ATOM     11  C   UNL     1      -0.579  -4.165   7.010  1.00  0.00     0.000 C 
BRANCH  11  12
ATOM     12  C   UNL     1      -0.825  -4.317   5.498  1.00  0.00    -0.000 C 
BRANCH  12  13
ATOM     13  C   UNL     1      -1.967  -3.420   4.992  1.00  0.00    -0.000 C 
BRANCH  13  14
ATOM     14  C   UNL     1      -1.485  -2.335   4.018  1.00  0.00    -0.000 C 
BRANCH  14  15
ATOM     15  C   UNL     1      -1.531  -0.948   4.676  1.00  0.00    -0.000 C 
BRANCH  15  16
ATOM     16  C   UNL     1      -1.194  -0.985   6.177  1.00  0.00    -0.000 C 
BRANCH  16  17
ATOM     17  C   UNL     1      -1.246   0.381   6.884  1.00  0.00    -0.003 C 
ATOM     18  C   UNL     1      -1.960   0.330   8.234  1.00  0.00     0.004 C 
ENDBRANCH  16  17
ENDBRANCH  15  16
ENDBRANCH  14  15
ENDBRANCH  13  14
ENDBRANCH  12  13
ENDBRANCH  11  12
ENDBRANCH   1  11
TORSDOF 14
ENDMDL
MODEL 7
REMARK VINA RESULT:    -4.188      3.935      7.263
REMARK INTER + INTRA:          -8.883
REMARK INTER:                  -7.994
REMARK INTRA:                  -0.888
REMARK UNBOUND:                -1.267
REMARK SMILES CCCCCCCCCCCCCCCC(=O)[O-]
REMARK SMILES IDX 9 1 10 2 11 3 12 4 13 5 14 6 15 7 16 8 17 9 18 10 8 11 7 12
REMARK SMILES IDX 6 13 5 14 4 15 3 16 2 17 1 18
REMARK H PARENT
REMARK Flexibility Score: inf
ROOT
ATOM      1  C   UNL     1      -1.489  -1.813   5.044  1.00  0.00     0.000 C 
ENDROOT
BRANCH   1   2
ATOM      2  C   UNL     1      -1.065  -1.377   6.455  1.00  0.00     0.000 C 
BRANCH   2   3
ATOM      3  C   UNL     1      -1.370   0.110   6.683  1.00  0.00     0.000 C 
BRANCH   3   4
ATOM      4  C   UNL     1      -1.472   0.425   8.183  1.00  0.00     0.000 C 
BRANCH   4   5
ATOM      5  C   UNL     1      -0.580  -0.482   9.049  1.00  0.00     0.000 C 
BRANCH   5   6
ATOM      6  C   UNL     1       0.645   0.214   9.677  1.00  0.00     0.006 C 
BRANCH   6   7
ATOM      7  C   UNL     1       1.762  -0.740  10.124  1.00  0.00     0.053 C 
BRANCH   7   8
ATOM      8  C   UNL     1       3.123  -0.166   9.876  1.00  0.00     0.041 C 
ATOM      9  O   UNL     1       3.245   0.997   9.411  1.00  0.00    -0.550 OA
ATOM     10  O   UNL     1       4.257  -0.930  10.125  1.00  0.00    -0.550 OA
ENDBRANCH   7   8
ENDBRANCH   6   7
ENDBRANCH   5   6
ENDBRANCH   4   5
ENDBRANCH   3   4
ENDBRANCH   2   3
ENDBRANCH   1   2
BRANCH   1  11
ATOM     11  C   UNL     1      -1.505  -3.341   4.875  1.00  0.00     0.000 C 
BRANCH  11  12
ATOM     12  C   UNL     1      -1.303  -4.085   6.207  1.00  0.00    -0.000 C 
BRANCH  12  13
ATOM     13  C   UNL     1      -0.339  -5.276   6.077  1.00  0.00    -0.000 C 
BRANCH  13  14
ATOM     14  C   UNL     1       0.417  -5.575   7.381  1.00  0.00    -0.000 C 
BRANCH  14  15
ATOM     15  C   UNL     1      -0.417  -6.477   8.303  1.00  0.00    -0.000 C 
BRANCH  15  16
ATOM     16  C   UNL     1      -1.277  -7.493   7.531  1.00  0.00    -0.000 C 
BRANCH  16  17
ATOM     17  C   UNL     1      -2.674  -7.742   8.126  1.00  0.00    -0.003 C 
ATOM     18  C   UNL     1      -2.918  -9.206   8.492  1.00  0.00     0.004 C 
ENDBRANCH  16  17
ENDBRANCH  15  16
ENDBRANCH  14  15
ENDBRANCH  13  14
ENDBRANCH  12  13
ENDBRANCH  11  12
ENDBRANCH   1  11
TORSDOF 14
ENDMDL
MODEL 8
REMARK VINA RESULT:    -4.131      5.478      7.585
REMARK INTER + INTRA:          -8.778
REMARK INTER:                  -7.985
REMARK INTRA:                  -0.793
REMARK UNBOUND:                -1.267
REMARK SMILES CCCCCCCCCCCCCCCC(=O)[O-]
REMARK SMILES IDX 9 1 10 2 11 3 12 4 13 5 14 6 15 7 16 8 17 9 18 10 8 11 7 12
REMARK SMILES IDX 6 13 5 14 4 15 3 16 2 17 1 18
REMARK H PARENT
REMARK Flexibility Score: inf
ROOT
ATOM      1  C   UNL     1       2.445  -4.966   8.533  1.00  0.00     0.000 C 
ENDROOT
BRANCH   1   2
ATOM      2  C   UNL     1       3.429  -4.270   9.486  1.00  0.00     0.000 C 
BRANCH   2   3
ATOM      3  C   UNL     1       2.892  -2.901   9.923  1.00  0.00     0.000 C 
BRANCH   3   4
ATOM      4  C   UNL     1       4.039  -1.900  10.125  1.00  0.00     0.000 C 
BRANCH   4   5
ATOM      5  C   UNL     1       3.720  -0.501   9.566  1.00  0.00     0.000 C 
BRANCH   5   6
ATOM      6  C   UNL     1       4.952   0.371   9.246  1.00  0.00     0.006 C 
BRANCH   6   7
ATOM      7  C   UNL     1       5.675   0.000   7.942  1.00  0.00     0.053 C 
BRANCH   7   8
ATOM      8  C   UNL     1       7.153   0.218   8.038  1.00  0.00     0.041 C 
ATOM      9  O   UNL     1       7.626   0.969   8.931  1.00  0.00    -0.550 OA
ATOM     10  O   UNL     1       8.007  -0.381   7.119  1.00  0.00    -0.550 OA
ENDBRANCH   7   8
ENDBRANCH   6   7
ENDBRANCH   5   6
ENDBRANCH   4   5
ENDBRANCH   3   4
ENDBRANCH   2   3
ENDBRANCH   1   2
BRANCH   1  11
ATOM     11  C   UNL     1       1.244  -5.585   9.267  1.00  0.00     0.000 C 
BRANCH  11  12
ATOM     12  C   UNL     1      -0.078  -5.393   8.502  1.00  0.00    -0.000 C 
BRANCH  12  13
ATOM     13  C   UNL     1       0.050  -5.736   7.008  1.00  0.00    -0.000 C 
BRANCH  13  14
ATOM     14  C   UNL     1      -0.855  -4.869   6.120  1.00  0.00    -0.000 C 
BRANCH  14  15
ATOM     15  C   UNL     1      -0.764  -3.389   6.523  1.00  0.00    -0.000 C 
BRANCH  15  16
ATOM     16  C   UNL     1      -1.439  -2.449   5.509  1.00  0.00    -0.000 C 
BRANCH  16  17
ATOM     17  C   UNL     1      -1.484  -2.979   4.065  1.00  0.00    -0.003 C 
ATOM     18  C   UNL     1      -1.500  -1.865   3.019  1.00  0.00     0.004 C 
ENDBRANCH  16  17
ENDBRANCH  15  16
ENDBRANCH  14  15
ENDBRANCH  13  14
ENDBRANCH  12  13
ENDBRANCH  11  12
ENDBRANCH   1  11
TORSDOF 14
ENDMDL
MODEL 9
REMARK VINA RESULT:    -4.110      2.983      5.119
REMARK INTER + INTRA:          -8.742
REMARK INTER:                  -7.624
REMARK INTRA:                  -1.117
REMARK UNBOUND:                -1.267
REMARK SMILES CCCCCCCCCCCCCCCC(=O)[O-]
REMARK SMILES IDX 9 1 10 2 11 3 12 4 13 5 14 6 15 7 16 8 17 9 18 10 8 11 7 12
REMARK SMILES IDX 6 13 5 14 4 15 3 16 2 17 1 18
REMARK H PARENT
REMARK Flexibility Score: inf
ROOT
ATOM      1  C   UNL     1      -2.327  -7.271   9.639  1.00  0.00     0.000 C 
ENDROOT
BRANCH   1   2
ATOM      2  C   UNL     1      -2.504  -8.795   9.726  1.00  0.00     0.000 C 
BRANCH   2   3
ATOM      3  C   UNL     1      -2.487  -9.429   8.329  1.00  0.00     0.000 C 
BRANCH   3   4
ATOM      4  C   UNL     1      -3.832 -10.100   8.014  1.00  0.00     0.000 C 
BRANCH   4   5
ATOM      5  C   UNL     1      -5.038  -9.311   8.556  1.00  0.00     0.000 C 
BRANCH   5   6
ATOM      6  C   UNL     1      -5.598  -8.237   7.601  1.00  0.00     0.006 C 
BRANCH   6   7
ATOM      7  C   UNL     1      -5.650  -6.821   8.194  1.00  0.00     0.053 C 
BRANCH   7   8
ATOM      8  C   UNL     1      -7.052  -6.388   8.495  1.00  0.00     0.041 C 
ATOM      9  O   UNL     1      -7.876  -7.206   8.981  1.00  0.00    -0.550 OA
ATOM     10  O   UNL     1      -7.459  -5.092   8.204  1.00  0.00    -0.550 OA
ENDBRANCH   7   8
ENDBRANCH   6   7
ENDBRANCH   5   6
ENDBRANCH   4   5
ENDBRANCH   3   4
ENDBRANCH   2   3
ENDBRANCH   1   2
BRANCH   1  11
ATOM     11  C   UNL     1      -1.439  -6.843   8.460  1.00  0.00     0.000 C 
BRANCH  11  12
ATOM     12  C   UNL     1      -0.342  -5.847   8.879  1.00  0.00    -0.000 C 
BRANCH  12  13
ATOM     13  C   UNL     1       0.381  -5.224   7.673  1.00  0.00    -0.000 C 
BRANCH  13  14
ATOM     14  C   UNL     1      -0.531  -5.072   6.446  1.00  0.00    -0.000 C 
BRANCH  14  15
ATOM     15  C   UNL     1      -0.796  -3.591   6.140  1.00  0.00    -0.000 C 
BRANCH  15  16
ATOM     16  C   UNL     1      -1.868  -3.384   5.056  1.00  0.00    -0.000 C 
BRANCH  16  17
ATOM     17  C   UNL     1      -1.505  -2.350   3.976  1.00  0.00    -0.003 C 
ATOM     18  C   UNL     1      -1.244  -2.980   2.608  1.00  0.00     0.004 C 
ENDBRANCH  16  17
ENDBRANCH  15  16
ENDBRANCH  14  15
ENDBRANCH  13  14
ENDBRANCH  12  13
ENDBRANCH  11  12
ENDBRANCH   1  11
TORSDOF 14
ENDMDL
