MODEL 1
REMARK VINA RESULT:    -3.719      0.000      0.000
REMARK INTER + INTRA:         -12.084
REMARK INTER:                  -8.066
REMARK INTRA:                  -4.018
REMARK UNBOUND:                -4.018
REMARK SMILES CCCCCCCCCCCCCCCCCCCCCC(=O)[O-]
REMARK SMILES IDX 12 1 11 2 10 3 9 4 8 5 7 6 6 7 5 8 4 9 3 10 2 11 1 12 13 13
REMARK SMILES IDX 14 14 15 15 16 16 17 17 18 18 19 19 20 20 21 21 22 22 23 23
REMARK SMILES IDX 24 24
REMARK H PARENT
REMARK Flexibility Score: inf
ROOT
ATOM      1  C   UNL     1       3.621   0.173 400.907  1.00  0.00     0.000 C 
ENDROOT
BRANCH   1   2
ATOM      2  C   UNL     1       3.930  -0.751 399.719  1.00  0.00     0.000 C 
BRANCH   2   3
ATOM      3  C   UNL     1       3.560  -2.221 399.989  1.00  0.00     0.000 C 
BRANCH   3   4
ATOM      4  C   UNL     1       3.786  -2.697 401.435  1.00  0.00    -0.000 C 
BRANCH   4   5
ATOM      5  C   UNL     1       3.901  -4.228 401.550  1.00  0.00    -0.000 C 
BRANCH   5   6
ATOM      6  C   UNL     1       5.350  -4.697 401.760  1.00  0.00    -0.000 C 
BRANCH   6   7
ATOM      7  C   UNL     1       6.336  -3.525 401.915  1.00  0.00    -0.000 C 
BRANCH   7   8
ATOM      8  C   UNL     1       7.335  -3.439 400.749  1.00  0.00    -0.000 C 
BRANCH   8   9
ATOM      9  C   UNL     1       7.311  -2.068 400.053  1.00  0.00    -0.000 C 
BRANCH   9  10
ATOM     10  C   UNL     1       7.908  -0.944 400.921  1.00  0.00    -0.000 C 
BRANCH  10  11
ATOM     11  C   UNL     1       7.346   0.461 400.640  1.00  0.00    -0.003 C 
ATOM     12  C   UNL     1       7.221   0.769 399.149  1.00  0.00     0.004 C 
ENDBRANCH  10  11
ENDBRANCH   9  10
ENDBRANCH   8   9
ENDBRANCH   7   8
ENDBRANCH   6   7
ENDBRANCH   5   6
ENDBRANCH   4   5
ENDBRANCH   3   4
ENDBRANCH   2   3
ENDBRANCH   1   2
BRANCH   1  13
ATOM     13  C   UNL     1       3.788   1.647 400.513  1.00  0.00     0.000 C 
BRANCH  13  14
ATOM     14  C   UNL     1       4.087   2.514 401.746  1.00  0.00     0.000 C 
BRANCH  14  15
ATOM     15  C   UNL     1       4.256   1.681 403.026  1.00  0.00     0.000 C 
BRANCH  15  16
ATOM     16  C   UNL     1       5.555   2.016 403.778  1.00  0.00     0.000 C 
BRANCH  16  17
ATOM     17  C   UNL     1       6.306   0.760 404.258  1.00  0.00     0.000 C 
BRANCH  17  18
ATOM     18  C   UNL     1       5.688  -0.581 403.810  1.00  0.00     0.000 C 
BRANCH  18  19
ATOM     19  C   UNL     1       5.023  -1.400 404.930  1.00  0.00     0.000 C 
BRANCH  19  20
ATOM     20  C   UNL     1       3.492  -1.469 404.791  1.00  0.00     0.006 C 
BRANCH  20  21
ATOM     21  C   UNL     1       2.918  -2.766 405.375  1.00  0.00     0.053 C 
BRANCH  21  22
ATOM     22  C   UNL     1       3.401  -3.006 406.773  1.00  0.00     0.041 C 
ATOM     23  O   UNL     1       4.084  -4.029 407.041  1.00  0.00    -0.550 OA
ATOM     24  O   UNL     1       3.065  -2.119 407.789  1.00  0.00    -0.550 OA
ENDBRANCH  21  22
ENDBRANCH  20  21
ENDBRANCH  19  20
ENDBRANCH  18  19
ENDBRANCH  17  18
ENDBRANCH  16  17
ENDBRANCH  15  16
ENDBRANCH  14  15
ENDBRANCH  13  14
ENDBRANCH   1  13
TORSDOF 20
ENDMDL
MODEL 2
REMARK VINA RESULT:    -3.606      2.420      5.742
REMARK INTER + INTRA:         -11.841
REMARK INTER:                  -8.458
REMARK INTRA:                  -3.382
REMARK UNBOUND:                -4.018
REMARK SMILES CCCCCCCCCCCCCCCCCCCCCC(=O)[O-]
REMARK SMILES IDX 12 1 11 2 10 3 9 4 8 5 7 6 6 7 5 8 4 9 3 10 2 11 1 12 13 13
REMARK SMILES IDX 14 14 15 15 16 16 17 17 18 18 19 19 20 20 21 21 22 22 23 23
REMARK SMILES IDX 24 24
REMARK H PARENT
REMARK Flexibility Score: inf
ROOT
ATOM      1  C   UNL     1       5.480   1.089 400.335  1.00  0.00     0.000 C 
ENDROOT
BRANCH   1   2
ATOM      2  C   UNL     1       4.100   1.664 400.689  1.00  0.00     0.000 C 
BRANCH   2   3
ATOM      3  C   UNL     1       4.068   2.344 402.070  1.00  0.00     0.000 C 
BRANCH   3   4
ATOM      4  C   UNL     1       3.979   1.384 403.270  1.00  0.00    -0.000 C 
BRANCH   4   5
ATOM      5  C   UNL     1       5.350   1.083 403.900  1.00  0.00    -0.000 C 
BRANCH   5   6
ATOM      6  C   UNL     1       5.405  -0.307 404.557  1.00  0.00    -0.000 C 
BRANCH   6   7
ATOM      7  C   UNL     1       4.539  -1.345 403.821  1.00  0.00    -0.000 C 
BRANCH   7   8
ATOM      8  C   UNL     1       3.227  -1.649 404.563  1.00  0.00    -0.000 C 
BRANCH   8   9
ATOM      9  C   UNL     1       3.038  -3.151 404.836  1.00  0.00    -0.000 C 
BRANCH   9  10
ATOM     10  C   UNL     1       4.100  -3.725 405.792  1.00  0.00    -0.000 C 
BRANCH  10  11
ATOM     11  C   UNL     1       5.037  -4.774 405.167  1.00  0.00    -0.003 C 
ATOM     12  C   UNL     1       6.512  -4.380 405.242  1.00  0.00     0.004 C 
ENDBRANCH  10  11
ENDBRANCH   9  10
ENDBRANCH   8   9
ENDBRANCH   7   8
ENDBRANCH   6   7
ENDBRANCH   5   6
ENDBRANCH   4   5
ENDBRANCH   3   4
ENDBRANCH   2   3
ENDBRANCH   1   2
BRANCH   1  13
ATOM     13  C   UNL     1       5.408  -0.430 400.138  1.00  0.00     0.000 C 
BRANCH  13  14
ATOM     14  C   UNL     1       3.952  -0.920 400.170  1.00  0.00     0.000 C 
BRANCH  14  15
ATOM     15  C   UNL     1       3.829  -2.421 399.862  1.00  0.00     0.000 C 
BRANCH  15  16
ATOM     16  C   UNL     1       3.187  -3.208 401.017  1.00  0.00     0.000 C 
BRANCH  16  17
ATOM     17  C   UNL     1       4.097  -4.327 401.554  1.00  0.00     0.000 C 
BRANCH  17  18
ATOM     18  C   UNL     1       5.610  -4.036 401.468  1.00  0.00     0.000 C 
BRANCH  18  19
ATOM     19  C   UNL     1       6.483  -5.234 401.055  1.00  0.00     0.000 C 
BRANCH  19  20
ATOM     20  C   UNL     1       6.416  -6.397 402.061  1.00  0.00     0.006 C 
BRANCH  20  21
ATOM     21  C   UNL     1       5.815  -7.663 401.437  1.00  0.00     0.053 C 
BRANCH  21  22
ATOM     22  C   UNL     1       4.669  -8.190 402.248  1.00  0.00     0.041 C 
ATOM     23  O   UNL     1       3.672  -8.703 401.677  1.00  0.00    -0.550 OA
ATOM     24  O   UNL     1       4.687  -8.080 403.633  1.00  0.00    -0.550 OA
ENDBRANCH  21  22
ENDBRANCH  20  21
ENDBRANCH  19  20
ENDBRANCH  18  19
ENDBRANCH  17  18
ENDBRANCH  16  17
ENDBRANCH  15  16
ENDBRANCH  14  15
ENDBRANCH  13  14
ENDBRANCH   1  13
TORSDOF 20
ENDMDL
MODEL 3
REMARK VINA RESULT:    -3.592      2.466      4.914
REMARK INTER + INTRA:         -11.810
REMARK INTER:                  -8.139
REMARK INTRA:                  -3.671
REMARK UNBOUND:                -4.018
REMARK SMILES CCCCCCCCCCCCCCCCCCCCCC(=O)[O-]
REMARK SMILES IDX 12 1 11 2 10 3 9 4 8 5 7 6 6 7 5 8 4 9 3 10 2 11 1 12 13 13
REMARK SMILES IDX 14 14 15 15 16 16 17 17 18 18 19 19 20 20 21 21 22 22 23 23
REMARK SMILES IDX 24 24
REMARK H PARENT
REMARK Flexibility Score: inf
ROOT
ATOM      1  C   UNL     1       5.724   1.375 404.210  1.00  0.00     0.000 C 
ENDROOT
BRANCH   1   2
ATOM      2  C   UNL     1       5.288   2.358 403.113  1.00  0.00     0.000 C 
BRANCH   2   3
ATOM      3  C   UNL     1       3.956   1.963 402.448  1.00  0.00     0.000 C 
BRANCH   3   4
ATOM      4  C   UNL     1       3.912   2.134 400.920  1.00  0.00    -0.000 C 
BRANCH   4   5
ATOM      5  C   UNL     1       3.513   0.843 400.183  1.00  0.00    -0.000 C 
BRANCH   5   6
ATOM      6  C   UNL     1       3.681  -0.412 401.057  1.00  0.00    -0.000 C 
BRANCH   6   7
ATOM      7  C   UNL     1       4.141  -1.639 400.248  1.00  0.00    -0.000 C 
BRANCH   7   8
ATOM      8  C   UNL     1       5.400  -2.294 400.838  1.00  0.00    -0.000 C 
BRANCH   8   9
ATOM      9  C   UNL     1       6.698  -1.693 400.271  1.00  0.00    -0.000 C 
BRANCH   9  10
ATOM     10  C   UNL     1       7.298  -0.600 401.176  1.00  0.00    -0.000 C 
BRANCH  10  11
ATOM     11  C   UNL     1       7.426   0.787 400.521  1.00  0.00    -0.003 C 
ATOM     12  C   UNL     1       7.141   0.768 399.020  1.00  0.00     0.004 C 
ENDBRANCH  10  11
ENDBRANCH   9  10
ENDBRANCH   8   9
ENDBRANCH   7   8
ENDBRANCH   6   7
ENDBRANCH   5   6
ENDBRANCH   4   5
ENDBRANCH   3   4
ENDBRANCH   2   3
ENDBRANCH   1   2
BRANCH   1  13
ATOM     13  C   UNL     1       4.784   0.164 404.268  1.00  0.00     0.000 C 
BRANCH  13  14
ATOM     14  C   UNL     1       5.581  -1.147 404.348  1.00  0.00     0.000 C 
BRANCH  14  15
ATOM     15  C   UNL     1       4.752  -2.306 404.923  1.00  0.00     0.000 C 
BRANCH  15  16
ATOM     16  C   UNL     1       3.423  -2.506 404.175  1.00  0.00     0.000 C 
BRANCH  16  17
ATOM     17  C   UNL     1       3.162  -3.979 403.810  1.00  0.00     0.000 C 
BRANCH  17  18
ATOM     18  C   UNL     1       4.391  -4.752 403.289  1.00  0.00     0.000 C 
BRANCH  18  19
ATOM     19  C   UNL     1       4.189  -5.470 401.943  1.00  0.00     0.000 C 
BRANCH  19  20
ATOM     20  C   UNL     1       3.615  -6.889 402.103  1.00  0.00     0.006 C 
BRANCH  20  21
ATOM     21  C   UNL     1       4.465  -7.939 401.377  1.00  0.00     0.053 C 
BRANCH  21  22
ATOM     22  C   UNL     1       5.843  -8.036 401.958  1.00  0.00     0.041 C 
ATOM     23  O   UNL     1       6.013  -8.521 403.107  1.00  0.00    -0.550 OA
ATOM     24  O   UNL     1       6.935  -7.557 401.245  1.00  0.00    -0.550 OA
ENDBRANCH  21  22
ENDBRANCH  20  21
ENDBRANCH  19  20
ENDBRANCH  18  19
ENDBRANCH  17  18
ENDBRANCH  16  17
ENDBRANCH  15  16
ENDBRANCH  14  15
ENDBRANCH  13  14
ENDBRANCH   1  13
TORSDOF 20
ENDMDL
MODEL 4
REMARK VINA RESULT:    -3.524      2.147      4.832
REMARK INTER + INTRA:         -11.662
REMARK INTER:                  -7.988
REMARK INTRA:                  -3.674
REMARK UNBOUND:                -4.018
REMARK SMILES CCCCCCCCCCCCCCCCCCCCCC(=O)[O-]
REMARK SMILES IDX 12 1 11 2 10 3 9 4 8 5 7 6 6 7 5 8 4 9 3 10 2 11 1 12 13 13
REMARK SMILES IDX 14 14 15 15 16 16 17 17 18 18 19 19 20 20 21 21 22 22 23 23
REMARK SMILES IDX 24 24
REMARK H PARENT
REMARK Flexibility Score: inf
ROOT
ATOM      1  C   UNL     1       7.222  -0.366 401.497  1.00  0.00     0.000 C 
ENDROOT
BRANCH   1   2
ATOM      2  C   UNL     1       7.530   0.738 400.474  1.00  0.00     0.000 C 
BRANCH   2   3
ATOM      3  C   UNL     1       6.920   0.460 399.088  1.00  0.00     0.000 C 
BRANCH   3   4
ATOM      4  C   UNL     1       7.698   1.053 397.900  1.00  0.00    -0.000 C 
BRANCH   4   5
ATOM      5  C   UNL     1       9.203   1.200 398.182  1.00  0.00    -0.000 C 
BRANCH   5   6
ATOM      6  C   UNL     1       9.964  -0.128 398.035  1.00  0.00    -0.000 C 
BRANCH   6   7
ATOM      7  C   UNL     1       9.584  -0.889 396.752  1.00  0.00    -0.000 C 
BRANCH   7   8
ATOM      8  C   UNL     1       9.337  -2.386 397.006  1.00  0.00    -0.000 C 
BRANCH   8   9
ATOM      9  C   UNL     1       9.039  -2.691 398.483  1.00  0.00    -0.000 C 
BRANCH   9  10
ATOM     10  C   UNL     1       8.042  -3.851 398.666  1.00  0.00    -0.000 C 
BRANCH  10  11
ATOM     11  C   UNL     1       7.034  -3.665 399.814  1.00  0.00    -0.003 C 
ATOM     12  C   UNL     1       7.261  -4.635 400.973  1.00  0.00     0.004 C 
ENDBRANCH  10  11
ENDBRANCH   9  10
ENDBRANCH   8   9
ENDBRANCH   7   8
ENDBRANCH   6   7
ENDBRANCH   5   6
ENDBRANCH   4   5
ENDBRANCH   3   4
ENDBRANCH   2   3
ENDBRANCH   1   2
BRANCH   1  13
ATOM     13  C   UNL     1       6.824   0.236 402.851  1.00  0.00     0.000 C 
BRANCH  13  14
ATOM     14  C   UNL     1       6.419   1.711 402.699  1.00  0.00     0.000 C 
BRANCH  14  15
ATOM     15  C   UNL     1       4.899   1.917 402.792  1.00  0.00     0.000 C 
BRANCH  15  16
ATOM     16  C   UNL     1       4.337   2.695 401.590  1.00  0.00     0.000 C 
BRANCH  16  17
ATOM     17  C   UNL     1       3.640   1.783 400.564  1.00  0.00     0.000 C 
BRANCH  17  18
ATOM     18  C   UNL     1       3.571   0.292 400.956  1.00  0.00     0.000 C 
BRANCH  18  19
ATOM     19  C   UNL     1       3.626  -0.697 399.778  1.00  0.00     0.000 C 
BRANCH  19  20
ATOM     20  C   UNL     1       3.876  -2.147 400.226  1.00  0.00     0.006 C 
BRANCH  20  21
ATOM     21  C   UNL     1       4.113  -2.250 401.738  1.00  0.00     0.053 C 
BRANCH  21  22
ATOM     22  C   UNL     1       3.583  -3.536 402.297  1.00  0.00     0.041 C 
ATOM     23  O   UNL     1       2.969  -3.544 403.395  1.00  0.00    -0.550 OA
ATOM     24  O   UNL     1       3.801  -4.731 401.622  1.00  0.00    -0.550 OA
ENDBRANCH  21  22
ENDBRANCH  20  21
ENDBRANCH  19  20
ENDBRANCH  18  19
ENDBRANCH  17  18
ENDBRANCH  16  17
ENDBRANCH  15  16
ENDBRANCH  14  15
ENDBRANCH  13  14
ENDBRANCH   1  13
TORSDOF 20
ENDMDL
MODEL 5
REMARK VINA RESULT:    -3.476      1.503      4.530
REMARK INTER + INTRA:         -11.557
REMARK INTER:                  -7.607
REMARK INTRA:                  -3.951
REMARK UNBOUND:                -4.018
REMARK SMILES CCCCCCCCCCCCCCCCCCCCCC(=O)[O-]
REMARK SMILES IDX 12 1 11 2 10 3 9 4 8 5 7 6 6 7 5 8 4 9 3 10 2 11 1 12 13 13
REMARK SMILES IDX 14 14 15 15 16 16 17 17 18 18 19 19 20 20 21 21 22 22 23 23
REMARK SMILES IDX 24 24
REMARK H PARENT
REMARK Flexibility Score: inf
ROOT
ATOM      1  C   UNL     1       3.773  -2.115 400.140  1.00  0.00     0.000 C 
ENDROOT
BRANCH   1   2
ATOM      2  C   UNL     1       4.854  -1.213 400.755  1.00  0.00     0.000 C 
BRANCH   2   3
ATOM      3  C   UNL     1       5.188   0.008 399.878  1.00  0.00     0.000 C 
BRANCH   3   4
ATOM      4  C   UNL     1       4.911   1.375 400.527  1.00  0.00    -0.000 C 
BRANCH   4   5
ATOM      5  C   UNL     1       3.708   1.351 401.485  1.00  0.00    -0.000 C 
BRANCH   5   6
ATOM      6  C   UNL     1       4.078   1.795 402.910  1.00  0.00    -0.000 C 
BRANCH   6   7
ATOM      7  C   UNL     1       5.421   2.546 402.966  1.00  0.00    -0.000 C 
BRANCH   7   8
ATOM      8  C   UNL     1       6.259   2.161 404.197  1.00  0.00    -0.000 C 
BRANCH   8   9
ATOM      9  C   UNL     1       7.716   1.826 403.836  1.00  0.00    -0.000 C 
BRANCH   9  10
ATOM     10  C   UNL     1       7.885   0.397 403.288  1.00  0.00    -0.000 C 
BRANCH  10  11
ATOM     11  C   UNL     1       8.294   0.314 401.807  1.00  0.00    -0.003 C 
ATOM     12  C   UNL     1       8.570  -1.115 401.341  1.00  0.00     0.004 C 
ENDBRANCH  10  11
ENDBRANCH   9  10
ENDBRANCH   8   9
ENDBRANCH   7   8
ENDBRANCH   6   7
ENDBRANCH   5   6
ENDBRANCH   4   5
ENDBRANCH   3   4
ENDBRANCH   2   3
ENDBRANCH   1   2
BRANCH   1  13
ATOM     13  C   UNL     1       3.384  -3.242 401.105  1.00  0.00     0.000 C 
BRANCH  13  14
ATOM     14  C   UNL     1       4.515  -4.274 401.229  1.00  0.00     0.000 C 
BRANCH  14  15
ATOM     15  C   UNL     1       4.106  -5.499 402.062  1.00  0.00     0.000 C 
BRANCH  15  16
ATOM     16  C   UNL     1       4.453  -5.339 403.552  1.00  0.00     0.000 C 
BRANCH  16  17
ATOM     17  C   UNL     1       5.943  -5.030 403.786  1.00  0.00     0.000 C 
BRANCH  17  18
ATOM     18  C   UNL     1       6.222  -3.812 404.692  1.00  0.00     0.000 C 
BRANCH  18  19
ATOM     19  C   UNL     1       6.018  -2.440 404.024  1.00  0.00     0.000 C 
BRANCH  19  20
ATOM     20  C   UNL     1       5.080  -1.520 404.825  1.00  0.00     0.006 C 
BRANCH  20  21
ATOM     21  C   UNL     1       3.635  -1.584 404.314  1.00  0.00     0.053 C 
BRANCH  21  22
ATOM     22  C   UNL     1       2.786  -2.481 405.162  1.00  0.00     0.041 C 
ATOM     23  O   UNL     1       1.842  -3.133 404.645  1.00  0.00    -0.550 OA
ATOM     24  O   UNL     1       3.013  -2.567 406.530  1.00  0.00    -0.550 OA
ENDBRANCH  21  22
ENDBRANCH  20  21
ENDBRANCH  19  20
ENDBRANCH  18  19
ENDBRANCH  17  18
ENDBRANCH  16  17
ENDBRANCH  15  16
ENDBRANCH  14  15
ENDBRANCH  13  14
ENDBRANCH   1  13
TORSDOF 20
ENDMDL
MODEL 6
REMARK VINA RESULT:    -3.470      2.448      4.027
REMARK INTER + INTRA:         -11.545
REMARK INTER:                  -8.432
REMARK INTRA:                  -3.113
REMARK UNBOUND:                -4.018
REMARK SMILES CCCCCCCCCCCCCCCCCCCCCC(=O)[O-]
REMARK SMILES IDX 12 1 11 2 10 3 9 4 8 5 7 6 6 7 5 8 4 9 3 10 2 11 1 12 13 13
REMARK SMILES IDX 14 14 15 15 16 16 17 17 18 18 19 19 20 20 21 21 22 22 23 23
REMARK SMILES IDX 24 24
REMARK H PARENT
REMARK Flexibility Score: inf
ROOT
ATOM      1  C   UNL     1       3.620   1.341 402.770  1.00  0.00     0.000 C 
ENDROOT
BRANCH   1   2
ATOM      2  C   UNL     1       4.180   1.458 401.344  1.00  0.00     0.000 C 
BRANCH   2   3
ATOM      3  C   UNL     1       3.309   0.742 400.296  1.00  0.00     0.000 C 
BRANCH   3   4
ATOM      4  C   UNL     1       3.882  -0.584 399.765  1.00  0.00    -0.000 C 
BRANCH   4   5
ATOM      5  C   UNL     1       3.884  -1.702 400.823  1.00  0.00    -0.000 C 
BRANCH   5   6
ATOM      6  C   UNL     1       5.283  -2.297 401.050  1.00  0.00    -0.000 C 
BRANCH   6   7
ATOM      7  C   UNL     1       6.384  -1.529 400.295  1.00  0.00    -0.000 C 
BRANCH   7   8
ATOM      8  C   UNL     1       7.249  -0.669 401.231  1.00  0.00    -0.000 C 
BRANCH   8   9
ATOM      9  C   UNL     1       7.638   0.679 400.602  1.00  0.00    -0.000 C 
BRANCH   9  10
ATOM     10  C   UNL     1       7.042   0.878 399.195  1.00  0.00    -0.000 C 
BRANCH  10  11
ATOM     11  C   UNL     1       8.051   1.318 398.120  1.00  0.00    -0.003 C 
ATOM     12  C   UNL     1       7.960   0.491 396.839  1.00  0.00     0.004 C 
ENDBRANCH  10  11
ENDBRANCH   9  10
ENDBRANCH   8   9
ENDBRANCH   7   8
ENDBRANCH   6   7
ENDBRANCH   5   6
ENDBRANCH   4   5
ENDBRANCH   3   4
ENDBRANCH   2   3
ENDBRANCH   1   2
BRANCH   1  13
ATOM     13  C   UNL     1       4.724   0.960 403.764  1.00  0.00     0.000 C 
BRANCH  13  14
ATOM     14  C   UNL     1       4.619  -0.521 404.161  1.00  0.00     0.000 C 
BRANCH  14  15
ATOM     15  C   UNL     1       5.771  -0.969 405.075  1.00  0.00     0.000 C 
BRANCH  15  16
ATOM     16  C   UNL     1       5.320  -1.990 406.132  1.00  0.00     0.000 C 
BRANCH  16  17
ATOM     17  C   UNL     1       3.826  -2.342 406.021  1.00  0.00     0.000 C 
BRANCH  17  18
ATOM     18  C   UNL     1       3.525  -3.749 405.465  1.00  0.00     0.000 C 
BRANCH  18  19
ATOM     19  C   UNL     1       3.677  -3.896 403.940  1.00  0.00     0.000 C 
BRANCH  19  20
ATOM     20  C   UNL     1       4.310  -5.237 403.529  1.00  0.00     0.006 C 
BRANCH  20  21
ATOM     21  C   UNL     1       4.041  -5.574 402.057  1.00  0.00     0.053 C 
BRANCH  21  22
ATOM     22  C   UNL     1       4.420  -6.988 401.734  1.00  0.00     0.041 C 
ATOM     23  O   UNL     1       3.573  -7.912 401.845  1.00  0.00    -0.550 OA
ATOM     24  O   UNL     1       5.719  -7.289 401.347  1.00  0.00    -0.550 OA
ENDBRANCH  21  22
ENDBRANCH  20  21
ENDBRANCH  19  20
ENDBRANCH  18  19
ENDBRANCH  17  18
ENDBRANCH  16  17
ENDBRANCH  15  16
ENDBRANCH  14  15
ENDBRANCH  13  14
ENDBRANCH   1  13
TORSDOF 20
ENDMDL
MODEL 7
REMARK VINA RESULT:    -3.465      3.770      5.659
REMARK INTER + INTRA:         -11.534
REMARK INTER:                  -7.963
REMARK INTRA:                  -3.571
REMARK UNBOUND:                -4.018
REMARK SMILES CCCCCCCCCCCCCCCCCCCCCC(=O)[O-]
REMARK SMILES IDX 12 1 11 2 10 3 9 4 8 5 7 6 6 7 5 8 4 9 3 10 2 11 1 12 13 13
REMARK SMILES IDX 14 14 15 15 16 16 17 17 18 18 19 19 20 20 21 21 22 22 23 23
REMARK SMILES IDX 24 24
REMARK H PARENT
REMARK Flexibility Score: inf
ROOT
ATOM      1  C   UNL     1       5.000   1.909 401.742  1.00  0.00     0.000 C 
ENDROOT
BRANCH   1   2
ATOM      2  C   UNL     1       3.740   2.105 400.885  1.00  0.00     0.000 C 
BRANCH   2   3
ATOM      3  C   UNL     1       3.309   0.824 400.149  1.00  0.00     0.000 C 
BRANCH   3   4
ATOM      4  C   UNL     1       3.884  -0.484 400.721  1.00  0.00    -0.000 C 
BRANCH   4   5
ATOM      5  C   UNL     1       3.716  -1.680 399.767  1.00  0.00    -0.000 C 
BRANCH   5   6
ATOM      6  C   UNL     1       3.369  -2.982 400.508  1.00  0.00    -0.000 C 
BRANCH   6   7
ATOM      7  C   UNL     1       3.689  -2.911 402.013  1.00  0.00    -0.000 C 
BRANCH   7   8
ATOM      8  C   UNL     1       4.106  -4.273 402.591  1.00  0.00    -0.000 C 
BRANCH   8   9
ATOM      9  C   UNL     1       5.460  -4.216 403.317  1.00  0.00    -0.000 C 
BRANCH   9  10
ATOM     10  C   UNL     1       6.558  -5.026 402.603  1.00  0.00    -0.000 C 
BRANCH  10  11
ATOM     11  C   UNL     1       6.356  -5.197 401.087  1.00  0.00    -0.003 C 
ATOM     12  C   UNL     1       7.163  -4.197 400.260  1.00  0.00     0.004 C 
ENDBRANCH  10  11
ENDBRANCH   9  10
ENDBRANCH   8   9
ENDBRANCH   7   8
ENDBRANCH   6   7
ENDBRANCH   5   6
ENDBRANCH   4   5
ENDBRANCH   3   4
ENDBRANCH   2   3
ENDBRANCH   1   2
BRANCH   1  13
ATOM     13  C   UNL     1       4.837   2.573 403.116  1.00  0.00     0.000 C 
BRANCH  13  14
ATOM     14  C   UNL     1       4.876   1.527 404.240  1.00  0.00     0.000 C 
BRANCH  14  15
ATOM     15  C   UNL     1       5.016   0.093 403.706  1.00  0.00     0.000 C 
BRANCH  15  16
ATOM     16  C   UNL     1       6.440  -0.462 403.876  1.00  0.00     0.000 C 
BRANCH  16  17
ATOM     17  C   UNL     1       7.023  -1.017 402.564  1.00  0.00     0.000 C 
BRANCH  17  18
ATOM     18  C   UNL     1       8.174  -0.188 401.958  1.00  0.00     0.000 C 
BRANCH  18  19
ATOM     19  C   UNL     1       8.545  -0.546 400.508  1.00  0.00     0.000 C 
BRANCH  19  20
ATOM     20  C   UNL     1       7.333  -0.534 399.561  1.00  0.00     0.006 C 
BRANCH  20  21
ATOM     21  C   UNL     1       7.073   0.859 398.974  1.00  0.00     0.053 C 
BRANCH  21  22
ATOM     22  C   UNL     1       7.856   1.086 397.717  1.00  0.00     0.041 C 
ATOM     23  O   UNL     1       8.228   0.108 397.017  1.00  0.00    -0.550 OA
ATOM     24  O   UNL     1       8.207   2.376 397.338  1.00  0.00    -0.550 OA
ENDBRANCH  21  22
ENDBRANCH  20  21
ENDBRANCH  19  20
ENDBRANCH  18  19
ENDBRANCH  17  18
ENDBRANCH  16  17
ENDBRANCH  15  16
ENDBRANCH  14  15
ENDBRANCH  13  14
ENDBRANCH   1  13
TORSDOF 20
ENDMDL
MODEL 8
REMARK VINA RESULT:    -3.461      2.365      5.538
REMARK INTER + INTRA:         -11.526
REMARK INTER:                  -8.117
REMARK INTRA:                  -3.409
REMARK UNBOUND:                -4.018
REMARK SMILES CCCCCCCCCCCCCCCCCCCCCC(=O)[O-]
REMARK SMILES IDX 12 1 11 2 10 3 9 4 8 5 7 6 6 7 5 8 4 9 3 10 2 11 1 12 13 13
REMARK SMILES IDX 14 14 15 15 16 16 17 17 18 18 19 19 20 20 21 21 22 22 23 23
REMARK SMILES IDX 24 24
REMARK H PARENT
REMARK Flexibility Score: inf
ROOT
ATOM      1  C   UNL     1       5.524   0.909 403.697  1.00  0.00     0.000 C 
ENDROOT
BRANCH   1   2
ATOM      2  C   UNL     1       5.947   1.761 402.491  1.00  0.00     0.000 C 
BRANCH   2   3
ATOM      3  C   UNL     1       4.764   2.149 401.585  1.00  0.00     0.000 C 
BRANCH   3   4
ATOM      4  C   UNL     1       3.626   1.116 401.517  1.00  0.00    -0.000 C 
BRANCH   4   5
ATOM      5  C   UNL     1       3.648   0.283 400.223  1.00  0.00    -0.000 C 
BRANCH   5   6
ATOM      6  C   UNL     1       4.379  -1.059 400.397  1.00  0.00    -0.000 C 
BRANCH   6   7
ATOM      7  C   UNL     1       3.566  -2.249 399.856  1.00  0.00    -0.000 C 
BRANCH   7   8
ATOM      8  C   UNL     1       3.253  -3.291 400.943  1.00  0.00    -0.000 C 
BRANCH   8   9
ATOM      9  C   UNL     1       3.754  -2.862 402.332  1.00  0.00    -0.000 C 
BRANCH   9  10
ATOM     10  C   UNL     1       3.365  -3.855 403.443  1.00  0.00    -0.000 C 
BRANCH  10  11
ATOM     11  C   UNL     1       2.605  -3.237 404.630  1.00  0.00    -0.003 C 
ATOM     12  C   UNL     1       3.154  -1.873 405.047  1.00  0.00     0.004 C 
ENDBRANCH  10  11
ENDBRANCH   9  10
ENDBRANCH   8   9
ENDBRANCH   7   8
ENDBRANCH   6   7
ENDBRANCH   5   6
ENDBRANCH   4   5
ENDBRANCH   3   4
ENDBRANCH   2   3
ENDBRANCH   1   2
BRANCH   1  13
ATOM     13  C   UNL     1       6.189  -0.473 403.653  1.00  0.00     0.000 C 
BRANCH  13  14
ATOM     14  C   UNL     1       7.209  -0.556 402.507  1.00  0.00     0.000 C 
BRANCH  14  15
ATOM     15  C   UNL     1       7.539  -2.005 402.117  1.00  0.00     0.000 C 
BRANCH  15  16
ATOM     16  C   UNL     1       8.049  -2.123 400.670  1.00  0.00     0.000 C 
BRANCH  16  17
ATOM     17  C   UNL     1       7.348  -3.243 399.882  1.00  0.00     0.000 C 
BRANCH  17  18
ATOM     18  C   UNL     1       6.659  -4.320 400.747  1.00  0.00     0.000 C 
BRANCH  18  19
ATOM     19  C   UNL     1       7.467  -5.614 400.946  1.00  0.00     0.000 C 
BRANCH  19  20
ATOM     20  C   UNL     1       6.678  -6.702 401.696  1.00  0.00     0.006 C 
BRANCH  20  21
ATOM     21  C   UNL     1       5.162  -6.506 401.565  1.00  0.00     0.053 C 
BRANCH  21  22
ATOM     22  C   UNL     1       4.405  -7.716 402.024  1.00  0.00     0.041 C 
ATOM     23  O   UNL     1       3.602  -8.294 401.246  1.00  0.00    -0.550 OA
ATOM     24  O   UNL     1       4.559  -8.183 403.324  1.00  0.00    -0.550 OA
ENDBRANCH  21  22
ENDBRANCH  20  21
ENDBRANCH  19  20
ENDBRANCH  18  19
ENDBRANCH  17  18
ENDBRANCH  16  17
ENDBRANCH  15  16
ENDBRANCH  14  15
ENDBRANCH  13  14
ENDBRANCH   1  13
TORSDOF 20
ENDMDL
MODEL 9
REMARK VINA RESULT:    -3.449      3.634      6.789
REMARK INTER + INTRA:         -11.499
REMARK INTER:                  -7.789
REMARK INTRA:                  -3.710
REMARK UNBOUND:                -4.018
REMARK SMILES CCCCCCCCCCCCCCCCCCCCCC(=O)[O-]
REMARK SMILES IDX 12 1 11 2 10 3 9 4 8 5 7 6 6 7 5 8 4 9 3 10 2 11 1 12 13 13
REMARK SMILES IDX 14 14 15 15 16 16 17 17 18 18 19 19 20 20 21 21 22 22 23 23
REMARK SMILES IDX 24 24
REMARK H PARENT
REMARK Flexibility Score: inf
ROOT
ATOM      1  C   UNL     1       3.468  -2.957 401.566  1.00  0.00     0.000 C 
ENDROOT
BRANCH   1   2
ATOM      2  C   UNL     1       3.604  -2.393 400.144  1.00  0.00     0.000 C 
BRANCH   2   3
ATOM      3  C   UNL     1       4.386  -1.068 400.096  1.00  0.00     0.000 C 
BRANCH   3   4
ATOM      4  C   UNL     1       3.571   0.187 400.456  1.00  0.00    -0.000 C 
BRANCH   4   5
ATOM      5  C   UNL     1       4.417   1.472 400.459  1.00  0.00    -0.000 C 
BRANCH   5   6
ATOM      6  C   UNL     1       4.048   2.420 401.612  1.00  0.00    -0.000 C 
BRANCH   6   7
ATOM      7  C   UNL     1       5.007   2.297 402.810  1.00  0.00    -0.000 C 
BRANCH   7   8
ATOM      8  C   UNL     1       4.419   1.450 403.950  1.00  0.00    -0.000 C 
BRANCH   8   9
ATOM      9  C   UNL     1       5.062   0.055 404.040  1.00  0.00    -0.000 C 
BRANCH   9  10
ATOM     10  C   UNL     1       4.043  -1.055 404.358  1.00  0.00    -0.000 C 
BRANCH  10  11
ATOM     11  C   UNL     1       4.516  -2.093 405.392  1.00  0.00    -0.003 C 
ATOM     12  C   UNL     1       6.023  -2.048 405.639  1.00  0.00     0.004 C 
ENDBRANCH  10  11
ENDBRANCH   9  10
ENDBRANCH   8   9
ENDBRANCH   7   8
ENDBRANCH   6   7
ENDBRANCH   5   6
ENDBRANCH   4   5
ENDBRANCH   3   4
ENDBRANCH   2   3
ENDBRANCH   1   2
BRANCH   1  13
ATOM     13  C   UNL     1       3.848  -4.443 401.606  1.00  0.00     0.000 C 
BRANCH  13  14
ATOM     14  C   UNL     1       5.254  -4.636 402.196  1.00  0.00     0.000 C 
BRANCH  14  15
ATOM     15  C   UNL     1       6.333  -4.777 401.112  1.00  0.00     0.000 C 
BRANCH  15  16
ATOM     16  C   UNL     1       7.161  -3.492 400.935  1.00  0.00     0.000 C 
BRANCH  16  17
ATOM     17  C   UNL     1       7.050  -2.542 402.140  1.00  0.00     0.000 C 
BRANCH  17  18
ATOM     18  C   UNL     1       8.076  -1.390 402.162  1.00  0.00     0.000 C 
BRANCH  18  19
ATOM     19  C   UNL     1       7.619  -0.094 401.469  1.00  0.00     0.000 C 
BRANCH  19  20
ATOM     20  C   UNL     1       8.536   0.316 400.304  1.00  0.00     0.006 C 
BRANCH  20  21
ATOM     21  C   UNL     1       7.741   0.657 399.037  1.00  0.00     0.053 C 
BRANCH  21  22
ATOM     22  C   UNL     1       8.534   1.518 398.100  1.00  0.00     0.041 C 
ATOM     23  O   UNL     1       7.967   2.090 397.134  1.00  0.00    -0.550 OA
ATOM     24  O   UNL     1       9.905   1.657 398.273  1.00  0.00    -0.550 OA
ENDBRANCH  21  22
ENDBRANCH  20  21
ENDBRANCH  19  20
ENDBRANCH  18  19
ENDBRANCH  17  18
ENDBRANCH  16  17
ENDBRANCH  15  16
ENDBRANCH  14  15
ENDBRANCH  13  14
ENDBRANCH   1  13
TORSDOF 20
ENDMDL
