MODEL 1
REMARK VINA RESULT:    -3.716      0.000      0.000
REMARK INTER + INTRA:          -9.509
REMARK INTER:                  -6.758
REMARK INTRA:                  -2.751
REMARK UNBOUND:                -2.751
REMARK SMILES CCCCCCCCCCCCCCCC(=O)[O-]
REMARK SMILES IDX 9 1 10 2 11 3 12 4 13 5 14 6 15 7 16 8 17 9 18 10 8 11 7 12
REMARK SMILES IDX 6 13 5 14 4 15 3 16 2 17 1 18
REMARK H PARENT
REMARK Flexibility Score: inf
ROOT
ATOM      1  C   UNL     1     172.525 174.528 150.846  1.00  0.00     0.000 C 
ENDROOT
BRANCH   1   2
ATOM      2  C   UNL     1     172.937 173.281 150.045  1.00  0.00     0.000 C 
BRANCH   2   3
ATOM      3  C   UNL     1     174.453 173.004 150.010  1.00  0.00     0.000 C 
BRANCH   3   4
ATOM      4  C   UNL     1     174.814 171.507 150.112  1.00  0.00     0.000 C 
BRANCH   4   5
ATOM      5  C   UNL     1     173.584 170.630 150.406  1.00  0.00     0.000 C 
BRANCH   5   6
ATOM      6  C   UNL     1     173.857 169.573 151.488  1.00  0.00     0.006 C 
BRANCH   6   7
ATOM      7  C   UNL     1     175.355 169.341 151.720  1.00  0.00     0.053 C 
BRANCH   7   8
ATOM      8  C   UNL     1     175.570 168.493 152.935  1.00  0.00     0.041 C 
ATOM      9  O   UNL     1     175.334 167.257 152.894  1.00  0.00    -0.550 OA
ATOM     10  O   UNL     1     176.080 169.059 154.096  1.00  0.00    -0.550 OA
ENDBRANCH   7   8
ENDBRANCH   6   7
ENDBRANCH   5   6
ENDBRANCH   4   5
ENDBRANCH   3   4
ENDBRANCH   2   3
ENDBRANCH   1   2
BRANCH   1  11
ATOM     11  C   UNL     1     171.459 174.227 151.909  1.00  0.00     0.000 C 
BRANCH  11  12
ATOM     12  C   UNL     1     170.944 172.789 151.774  1.00  0.00    -0.000 C 
BRANCH  12  13
ATOM     13  C   UNL     1     171.278 171.966 153.027  1.00  0.00    -0.000 C 
BRANCH  13  14
ATOM     14  C   UNL     1     172.360 172.625 153.898  1.00  0.00    -0.000 C 
BRANCH  14  15
ATOM     15  C   UNL     1     173.512 171.662 154.237  1.00  0.00    -0.000 C 
BRANCH  15  16
ATOM     16  C   UNL     1     174.893 172.322 154.094  1.00  0.00    -0.000 C 
BRANCH  16  17
ATOM     17  C   UNL     1     174.816 173.857 154.058  1.00  0.00    -0.003 C 
ATOM     18  C   UNL     1     175.698 174.426 152.950  1.00  0.00     0.004 C 
ENDBRANCH  16  17
ENDBRANCH  15  16
ENDBRANCH  14  15
ENDBRANCH  13  14
ENDBRANCH  12  13
ENDBRANCH  11  12
ENDBRANCH   1  11
TORSDOF 14
ENDMDL
MODEL 2
REMARK VINA RESULT:    -3.683      1.216      3.754
REMARK INTER + INTRA:          -9.448
REMARK INTER:                  -7.058
REMARK INTRA:                  -2.390
REMARK UNBOUND:                -2.751
REMARK SMILES CCCCCCCCCCCCCCCC(=O)[O-]
REMARK SMILES IDX 9 1 10 2 11 3 12 4 13 5 14 6 15 7 16 8 17 9 18 10 8 11 7 12
REMARK SMILES IDX 6 13 5 14 4 15 3 16 2 17 1 18
REMARK H PARENT
REMARK Flexibility Score: inf
ROOT
ATOM      1  C   UNL     1     174.379 174.192 151.978  1.00  0.00     0.000 C 
ENDROOT
BRANCH   1   2
ATOM      2  C   UNL     1     175.316 174.117 153.196  1.00  0.00     0.000 C 
BRANCH   2   3
ATOM      3  C   UNL     1     175.253 172.793 153.982  1.00  0.00     0.000 C 
BRANCH   3   4
ATOM      4  C   UNL     1     173.945 172.003 153.766  1.00  0.00     0.000 C 
BRANCH   4   5
ATOM      5  C   UNL     1     173.823 170.807 154.727  1.00  0.00     0.000 C 
BRANCH   5   6
ATOM      6  C   UNL     1     173.497 169.493 153.998  1.00  0.00     0.006 C 
BRANCH   6   7
ATOM      7  C   UNL     1     174.499 168.378 154.321  1.00  0.00     0.053 C 
BRANCH   7   8
ATOM      8  C   UNL     1     175.280 168.008 153.098  1.00  0.00     0.041 C 
ATOM      9  O   UNL     1     175.185 166.850 152.612  1.00  0.00    -0.550 OA
ATOM     10  O   UNL     1     176.072 168.957 152.466  1.00  0.00    -0.550 OA
ENDBRANCH   7   8
ENDBRANCH   6   7
ENDBRANCH   5   6
ENDBRANCH   4   5
ENDBRANCH   3   4
ENDBRANCH   2   3
ENDBRANCH   1   2
BRANCH   1  11
ATOM     11  C   UNL     1     175.128 174.070 150.643  1.00  0.00     0.000 C 
BRANCH  11  12
ATOM     12  C   UNL     1     174.499 172.984 149.761  1.00  0.00    -0.000 C 
BRANCH  12  13
ATOM     13  C   UNL     1     174.935 171.585 150.221  1.00  0.00    -0.000 C 
BRANCH  13  14
ATOM     14  C   UNL     1     173.752 170.614 150.368  1.00  0.00    -0.000 C 
BRANCH  14  15
ATOM     15  C   UNL     1     172.429 171.215 149.861  1.00  0.00    -0.000 C 
BRANCH  15  16
ATOM     16  C   UNL     1     171.418 171.453 150.994  1.00  0.00    -0.000 C 
BRANCH  16  17
ATOM     17  C   UNL     1     170.963 172.918 151.084  1.00  0.00    -0.003 C 
ATOM     18  C   UNL     1     170.760 173.343 152.536  1.00  0.00     0.004 C 
ENDBRANCH  16  17
ENDBRANCH  15  16
ENDBRANCH  14  15
ENDBRANCH  13  14
ENDBRANCH  12  13
ENDBRANCH  11  12
ENDBRANCH   1  11
TORSDOF 14
ENDMDL
MODEL 3
REMARK VINA RESULT:    -3.678      2.612      3.873
REMARK INTER + INTRA:          -9.439
REMARK INTER:                  -7.416
REMARK INTRA:                  -2.023
REMARK UNBOUND:                -2.751
REMARK SMILES CCCCCCCCCCCCCCCC(=O)[O-]
REMARK SMILES IDX 9 1 10 2 11 3 12 4 13 5 14 6 15 7 16 8 17 9 18 10 8 11 7 12
REMARK SMILES IDX 6 13 5 14 4 15 3 16 2 17 1 18
REMARK H PARENT
REMARK Flexibility Score: inf
ROOT
ATOM      1  C   UNL     1     173.132 172.564 150.346  1.00  0.00     0.000 C 
ENDROOT
BRANCH   1   2
ATOM      2  C   UNL     1     173.534 171.088 150.188  1.00  0.00     0.000 C 
BRANCH   2   3
ATOM      3  C   UNL     1     175.026 170.792 150.438  1.00  0.00     0.000 C 
BRANCH   3   4
ATOM      4  C   UNL     1     175.466 169.383 149.985  1.00  0.00     0.000 C 
BRANCH   4   5
ATOM      5  C   UNL     1     174.585 168.276 150.592  1.00  0.00     0.000 C 
BRANCH   5   6
ATOM      6  C   UNL     1     174.265 167.158 149.587  1.00  0.00     0.006 C 
BRANCH   6   7
ATOM      7  C   UNL     1     173.285 167.610 148.497  1.00  0.00     0.053 C 
BRANCH   7   8
ATOM      8  C   UNL     1     171.884 167.238 148.868  1.00  0.00     0.041 C 
ATOM      9  O   UNL     1     170.909 167.819 148.323  1.00  0.00    -0.550 OA
ATOM     10  O   UNL     1     171.655 166.214 149.777  1.00  0.00    -0.550 OA
ENDBRANCH   7   8
ENDBRANCH   6   7
ENDBRANCH   5   6
ENDBRANCH   4   5
ENDBRANCH   3   4
ENDBRANCH   2   3
ENDBRANCH   1   2
BRANCH   1  11
ATOM     11  C   UNL     1     174.123 173.526 149.674  1.00  0.00     0.000 C 
BRANCH  11  12
ATOM     12  C   UNL     1     174.970 174.258 150.722  1.00  0.00    -0.000 C 
BRANCH  12  13
ATOM     13  C   UNL     1     174.377 174.079 152.128  1.00  0.00    -0.000 C 
BRANCH  13  14
ATOM     14  C   UNL     1     175.453 173.838 153.199  1.00  0.00    -0.000 C 
BRANCH  14  15
ATOM     15  C   UNL     1     175.118 172.647 154.114  1.00  0.00    -0.000 C 
BRANCH  15  16
ATOM     16  C   UNL     1     173.681 172.139 153.918  1.00  0.00    -0.000 C 
BRANCH  16  17
ATOM     17  C   UNL     1     173.589 170.605 153.918  1.00  0.00    -0.003 C 
ATOM     18  C   UNL     1     174.969 169.972 154.065  1.00  0.00     0.004 C 
ENDBRANCH  16  17
ENDBRANCH  15  16
ENDBRANCH  14  15
ENDBRANCH  13  14
ENDBRANCH  12  13
ENDBRANCH  11  12
ENDBRANCH   1  11
TORSDOF 14
ENDMDL
MODEL 4
REMARK VINA RESULT:    -3.601      1.948      3.291
REMARK INTER + INTRA:          -9.300
REMARK INTER:                  -7.481
REMARK INTRA:                  -1.819
REMARK UNBOUND:                -2.751
REMARK SMILES CCCCCCCCCCCCCCCC(=O)[O-]
REMARK SMILES IDX 9 1 10 2 11 3 12 4 13 5 14 6 15 7 16 8 17 9 18 10 8 11 7 12
REMARK SMILES IDX 6 13 5 14 4 15 3 16 2 17 1 18
REMARK H PARENT
REMARK Flexibility Score: inf
ROOT
ATOM      1  C   UNL     1     173.642 171.957 150.247  1.00  0.00     0.000 C 
ENDROOT
BRANCH   1   2
ATOM      2  C   UNL     1     174.847 171.004 150.168  1.00  0.00     0.000 C 
BRANCH   2   3
ATOM      3  C   UNL     1     174.511 169.516 150.382  1.00  0.00     0.000 C 
BRANCH   3   4
ATOM      4  C   UNL     1     175.312 168.560 149.472  1.00  0.00     0.000 C 
BRANCH   4   5
ATOM      5  C   UNL     1     174.484 167.336 149.042  1.00  0.00     0.000 C 
BRANCH   5   6
ATOM      6  C   UNL     1     173.713 166.703 150.210  1.00  0.00     0.006 C 
BRANCH   6   7
ATOM      7  C   UNL     1     174.514 165.600 150.914  1.00  0.00     0.053 C 
BRANCH   7   8
ATOM      8  C   UNL     1     174.654 165.906 152.372  1.00  0.00     0.041 C 
ATOM      9  O   UNL     1     174.127 165.152 153.232  1.00  0.00    -0.550 OA
ATOM     10  O   UNL     1     175.411 166.996 152.783  1.00  0.00    -0.550 OA
ENDBRANCH   7   8
ENDBRANCH   6   7
ENDBRANCH   5   6
ENDBRANCH   4   5
ENDBRANCH   3   4
ENDBRANCH   2   3
ENDBRANCH   1   2
BRANCH   1  11
ATOM     11  C   UNL     1     173.953 173.356 149.695  1.00  0.00     0.000 C 
BRANCH  11  12
ATOM     12  C   UNL     1     175.031 174.048 150.539  1.00  0.00    -0.000 C 
BRANCH  12  13
ATOM     13  C   UNL     1     174.538 174.283 151.974  1.00  0.00    -0.000 C 
BRANCH  13  14
ATOM     14  C   UNL     1     175.632 174.035 153.025  1.00  0.00    -0.000 C 
BRANCH  14  15
ATOM     15  C   UNL     1     175.267 172.902 154.001  1.00  0.00    -0.000 C 
BRANCH  15  16
ATOM     16  C   UNL     1     173.772 172.545 153.956  1.00  0.00    -0.000 C 
BRANCH  16  17
ATOM     17  C   UNL     1     173.526 171.029 153.913  1.00  0.00    -0.003 C 
ATOM     18  C   UNL     1     174.838 170.256 154.013  1.00  0.00     0.004 C 
ENDBRANCH  16  17
ENDBRANCH  15  16
ENDBRANCH  14  15
ENDBRANCH  13  14
ENDBRANCH  12  13
ENDBRANCH  11  12
ENDBRANCH   1  11
TORSDOF 14
ENDMDL
MODEL 5
REMARK VINA RESULT:    -3.596      2.317      5.197
REMARK INTER + INTRA:          -9.290
REMARK INTER:                  -7.098
REMARK INTRA:                  -2.192
REMARK UNBOUND:                -2.751
REMARK SMILES CCCCCCCCCCCCCCCC(=O)[O-]
REMARK SMILES IDX 9 1 10 2 11 3 12 4 13 5 14 6 15 7 16 8 17 9 18 10 8 11 7 12
REMARK SMILES IDX 6 13 5 14 4 15 3 16 2 17 1 18
REMARK H PARENT
REMARK Flexibility Score: inf
ROOT
ATOM      1  C   UNL     1     173.541 170.931 150.369  1.00  0.00     0.000 C 
ENDROOT
BRANCH   1   2
ATOM      2  C   UNL     1     173.183 172.426 150.316  1.00  0.00     0.000 C 
BRANCH   2   3
ATOM      3  C   UNL     1     174.253 173.326 149.669  1.00  0.00     0.000 C 
BRANCH   3   4
ATOM      4  C   UNL     1     175.036 174.189 150.681  1.00  0.00     0.000 C 
BRANCH   4   5
ATOM      5  C   UNL     1     174.398 174.166 152.081  1.00  0.00     0.000 C 
BRANCH   5   6
ATOM      6  C   UNL     1     175.358 173.642 153.161  1.00  0.00     0.006 C 
BRANCH   6   7
ATOM      7  C   UNL     1     174.885 172.318 153.775  1.00  0.00     0.053 C 
BRANCH   7   8
ATOM      8  C   UNL     1     174.565 172.502 155.226  1.00  0.00     0.041 C 
ATOM      9  O   UNL     1     175.041 171.714 156.085  1.00  0.00    -0.550 OA
ATOM     10  O   UNL     1     173.783 173.574 155.635  1.00  0.00    -0.550 OA
ENDBRANCH   7   8
ENDBRANCH   6   7
ENDBRANCH   5   6
ENDBRANCH   4   5
ENDBRANCH   3   4
ENDBRANCH   2   3
ENDBRANCH   1   2
BRANCH   1  11
ATOM     11  C   UNL     1     175.056 170.679 150.313  1.00  0.00     0.000 C 
BRANCH  11  12
ATOM     12  C   UNL     1     175.453 169.527 151.245  1.00  0.00    -0.000 C 
BRANCH  12  13
ATOM     13  C   UNL     1     174.254 169.064 152.086  1.00  0.00    -0.000 C 
BRANCH  13  14
ATOM     14  C   UNL     1     174.255 167.548 152.337  1.00  0.00    -0.000 C 
BRANCH  14  15
ATOM     15  C   UNL     1     174.145 166.734 151.035  1.00  0.00    -0.000 C 
BRANCH  15  16
ATOM     16  C   UNL     1     172.854 167.038 150.258  1.00  0.00    -0.000 C 
BRANCH  16  17
ATOM     17  C   UNL     1     173.124 167.537 148.830  1.00  0.00    -0.003 C 
ATOM     18  C   UNL     1     174.599 167.391 148.467  1.00  0.00     0.004 C 
ENDBRANCH  16  17
ENDBRANCH  15  16
ENDBRANCH  14  15
ENDBRANCH  13  14
ENDBRANCH  12  13
ENDBRANCH  11  12
ENDBRANCH   1  11
TORSDOF 14
ENDMDL
MODEL 6
REMARK VINA RESULT:    -3.548      1.946      4.858
REMARK INTER + INTRA:          -9.203
REMARK INTER:                  -7.414
REMARK INTRA:                  -1.789
REMARK UNBOUND:                -2.751
REMARK SMILES CCCCCCCCCCCCCCCC(=O)[O-]
REMARK SMILES IDX 9 1 10 2 11 3 12 4 13 5 14 6 15 7 16 8 17 9 18 10 8 11 7 12
REMARK SMILES IDX 6 13 5 14 4 15 3 16 2 17 1 18
REMARK H PARENT
REMARK Flexibility Score: inf
ROOT
ATOM      1  C   UNL     1     173.515 173.009 149.923  1.00  0.00     0.000 C 
ENDROOT
BRANCH   1   2
ATOM      2  C   UNL     1     174.497 173.864 150.742  1.00  0.00     0.000 C 
BRANCH   2   3
ATOM      3  C   UNL     1     174.077 174.112 152.204  1.00  0.00     0.000 C 
BRANCH   3   4
ATOM      4  C   UNL     1     175.266 174.231 153.182  1.00  0.00     0.000 C 
BRANCH   4   5
ATOM      5  C   UNL     1     175.571 172.899 153.890  1.00  0.00     0.000 C 
BRANCH   5   6
ATOM      6  C   UNL     1     174.430 171.879 153.750  1.00  0.00     0.006 C 
BRANCH   6   7
ATOM      7  C   UNL     1     174.213 171.060 155.028  1.00  0.00     0.053 C 
BRANCH   7   8
ATOM      8  C   UNL     1     175.353 170.114 155.241  1.00  0.00     0.041 C 
ATOM      9  O   UNL     1     175.852 169.494 154.266  1.00  0.00    -0.550 OA
ATOM     10  O   UNL     1     175.898 169.956 156.509  1.00  0.00    -0.550 OA
ENDBRANCH   7   8
ENDBRANCH   6   7
ENDBRANCH   5   6
ENDBRANCH   4   5
ENDBRANCH   3   4
ENDBRANCH   2   3
ENDBRANCH   1   2
BRANCH   1  11
ATOM     11  C   UNL     1     173.740 171.501 150.111  1.00  0.00     0.000 C 
BRANCH  11  12
ATOM     12  C   UNL     1     175.237 171.168 150.114  1.00  0.00    -0.000 C 
BRANCH  12  13
ATOM     13  C   UNL     1     175.498 169.823 150.808  1.00  0.00    -0.000 C 
BRANCH  13  14
ATOM     14  C   UNL     1     174.207 169.030 151.069  1.00  0.00    -0.000 C 
BRANCH  14  15
ATOM     15  C   UNL     1     174.383 167.520 150.827  1.00  0.00    -0.000 C 
BRANCH  15  16
ATOM     16  C   UNL     1     174.455 167.168 149.332  1.00  0.00    -0.000 C 
BRANCH  16  17
ATOM     17  C   UNL     1     173.214 167.631 148.553  1.00  0.00    -0.003 C 
ATOM     18  C   UNL     1     171.939 167.038 149.145  1.00  0.00     0.004 C 
ENDBRANCH  16  17
ENDBRANCH  15  16
ENDBRANCH  14  15
ENDBRANCH  13  14
ENDBRANCH  12  13
ENDBRANCH  11  12
ENDBRANCH   1  11
TORSDOF 14
ENDMDL
MODEL 7
REMARK VINA RESULT:    -3.545      1.846      3.973
REMARK INTER + INTRA:          -9.198
REMARK INTER:                  -6.914
REMARK INTRA:                  -2.284
REMARK UNBOUND:                -2.751
REMARK SMILES CCCCCCCCCCCCCCCC(=O)[O-]
REMARK SMILES IDX 9 1 10 2 11 3 12 4 13 5 14 6 15 7 16 8 17 9 18 10 8 11 7 12
REMARK SMILES IDX 6 13 5 14 4 15 3 16 2 17 1 18
REMARK H PARENT
REMARK Flexibility Score: inf
ROOT
ATOM      1  C   UNL     1     173.926 170.866 153.409  1.00  0.00     0.000 C 
ENDROOT
BRANCH   1   2
ATOM      2  C   UNL     1     174.593 169.783 152.545  1.00  0.00     0.000 C 
BRANCH   2   3
ATOM      3  C   UNL     1     175.241 170.298 151.246  1.00  0.00     0.000 C 
BRANCH   3   4
ATOM      4  C   UNL     1     174.871 169.472 149.995  1.00  0.00     0.000 C 
BRANCH   4   5
ATOM      5  C   UNL     1     173.589 168.647 150.202  1.00  0.00     0.000 C 
BRANCH   5   6
ATOM      6  C   UNL     1     173.622 167.305 149.455  1.00  0.00     0.006 C 
BRANCH   6   7
ATOM      7  C   UNL     1     174.619 166.314 150.070  1.00  0.00     0.053 C 
BRANCH   7   8
ATOM      8  C   UNL     1     174.285 166.065 151.508  1.00  0.00     0.041 C 
ATOM      9  O   UNL     1     175.133 166.310 152.407  1.00  0.00    -0.550 OA
ATOM     10  O   UNL     1     173.021 165.611 151.860  1.00  0.00    -0.550 OA
ENDBRANCH   7   8
ENDBRANCH   6   7
ENDBRANCH   5   6
ENDBRANCH   4   5
ENDBRANCH   3   4
ENDBRANCH   2   3
ENDBRANCH   1   2
BRANCH   1  11
ATOM     11  C   UNL     1     174.912 171.559 154.362  1.00  0.00     0.000 C 
BRANCH  11  12
ATOM     12  C   UNL     1     174.778 173.084 154.273  1.00  0.00    -0.000 C 
BRANCH  12  13
ATOM     13  C   UNL     1     175.489 173.625 153.024  1.00  0.00    -0.000 C 
BRANCH  13  14
ATOM     14  C   UNL     1     174.515 174.245 152.009  1.00  0.00    -0.000 C 
BRANCH  14  15
ATOM     15  C   UNL     1     174.903 173.934 150.553  1.00  0.00    -0.000 C 
BRANCH  15  16
ATOM     16  C   UNL     1     173.762 173.267 149.768  1.00  0.00    -0.000 C 
BRANCH  16  17
ATOM     17  C   UNL     1     172.437 173.253 150.546  1.00  0.00    -0.003 C 
ATOM     18  C   UNL     1     171.830 171.853 150.572  1.00  0.00     0.004 C 
ENDBRANCH  16  17
ENDBRANCH  15  16
ENDBRANCH  14  15
ENDBRANCH  13  14
ENDBRANCH  12  13
ENDBRANCH  11  12
ENDBRANCH   1  11
TORSDOF 14
ENDMDL
MODEL 8
REMARK VINA RESULT:    -3.535      2.526      5.296
REMARK INTER + INTRA:          -9.179
REMARK INTER:                  -7.078
REMARK INTRA:                  -2.101
REMARK UNBOUND:                -2.751
REMARK SMILES CCCCCCCCCCCCCCCC(=O)[O-]
REMARK SMILES IDX 9 1 10 2 11 3 12 4 13 5 14 6 15 7 16 8 17 9 18 10 8 11 7 12
REMARK SMILES IDX 6 13 5 14 4 15 3 16 2 17 1 18
REMARK H PARENT
REMARK Flexibility Score: inf
ROOT
ATOM      1  C   UNL     1     174.000 168.675 149.785  1.00  0.00     0.000 C 
ENDROOT
BRANCH   1   2
ATOM      2  C   UNL     1     175.293 169.462 150.058  1.00  0.00     0.000 C 
BRANCH   2   3
ATOM      3  C   UNL     1     175.085 170.947 150.416  1.00  0.00     0.000 C 
BRANCH   3   4
ATOM      4  C   UNL     1     173.644 171.447 150.180  1.00  0.00     0.000 C 
BRANCH   4   5
ATOM      5  C   UNL     1     173.597 172.948 149.843  1.00  0.00     0.000 C 
BRANCH   5   6
ATOM      6  C   UNL     1     174.560 173.778 150.707  1.00  0.00     0.006 C 
BRANCH   6   7
ATOM      7  C   UNL     1     173.967 174.126 152.078  1.00  0.00     0.053 C 
BRANCH   7   8
ATOM      8  C   UNL     1     174.983 173.907 153.156  1.00  0.00     0.041 C 
ATOM      9  O   UNL     1     175.316 174.855 153.914  1.00  0.00    -0.550 OA
ATOM     10  O   UNL     1     175.522 172.643 153.356  1.00  0.00    -0.550 OA
ENDBRANCH   7   8
ENDBRANCH   6   7
ENDBRANCH   5   6
ENDBRANCH   4   5
ENDBRANCH   3   4
ENDBRANCH   2   3
ENDBRANCH   1   2
BRANCH   1  11
ATOM     11  C   UNL     1     174.263 167.303 149.146  1.00  0.00     0.000 C 
BRANCH  11  12
ATOM     12  C   UNL     1     174.564 166.249 150.219  1.00  0.00    -0.000 C 
BRANCH  12  13
ATOM     13  C   UNL     1     173.695 166.473 151.466  1.00  0.00    -0.000 C 
BRANCH  13  14
ATOM     14  C   UNL     1     174.518 166.501 152.764  1.00  0.00    -0.000 C 
BRANCH  14  15
ATOM     15  C   UNL     1     173.950 167.486 153.801  1.00  0.00    -0.000 C 
BRANCH  15  16
ATOM     16  C   UNL     1     174.419 168.930 153.562  1.00  0.00    -0.000 C 
BRANCH  16  17
ATOM     17  C   UNL     1     173.272 169.949 153.653  1.00  0.00    -0.003 C 
ATOM     18  C   UNL     1     172.041 169.461 152.893  1.00  0.00     0.004 C 
ENDBRANCH  16  17
ENDBRANCH  15  16
ENDBRANCH  14  15
ENDBRANCH  13  14
ENDBRANCH  12  13
ENDBRANCH  11  12
ENDBRANCH   1  11
TORSDOF 14
ENDMDL
MODEL 9
REMARK VINA RESULT:    -3.507      1.185      2.786
REMARK INTER + INTRA:          -9.129
REMARK INTER:                  -6.488
REMARK INTRA:                  -2.641
REMARK UNBOUND:                -2.751
REMARK SMILES CCCCCCCCCCCCCCCC(=O)[O-]
REMARK SMILES IDX 9 1 10 2 11 3 12 4 13 5 14 6 15 7 16 8 17 9 18 10 8 11 7 12
REMARK SMILES IDX 6 13 5 14 4 15 3 16 2 17 1 18
REMARK H PARENT
REMARK Flexibility Score: inf
ROOT
ATOM      1  C   UNL     1     173.807 174.261 151.233  1.00  0.00     0.000 C 
ENDROOT
BRANCH   1   2
ATOM      2  C   UNL     1     173.756 173.382 149.972  1.00  0.00     0.000 C 
BRANCH   2   3
ATOM      3  C   UNL     1     172.708 172.253 150.011  1.00  0.00     0.000 C 
BRANCH   3   4
ATOM      4  C   UNL     1     173.321 170.836 150.044  1.00  0.00     0.000 C 
BRANCH   4   5
ATOM      5  C   UNL     1     174.831 170.863 150.342  1.00  0.00     0.000 C 
BRANCH   5   6
ATOM      6  C   UNL     1     175.413 169.459 150.570  1.00  0.00     0.006 C 
BRANCH   6   7
ATOM      7  C   UNL     1     175.355 169.030 152.042  1.00  0.00     0.053 C 
BRANCH   7   8
ATOM      8  C   UNL     1     174.584 167.755 152.184  1.00  0.00     0.041 C 
ATOM      9  O   UNL     1     173.350 167.730 151.935  1.00  0.00    -0.550 OA
ATOM     10  O   UNL     1     175.238 166.583 152.540  1.00  0.00    -0.550 OA
ENDBRANCH   7   8
ENDBRANCH   6   7
ENDBRANCH   5   6
ENDBRANCH   4   5
ENDBRANCH   3   4
ENDBRANCH   2   3
ENDBRANCH   1   2
BRANCH   1  11
ATOM     11  C   UNL     1     175.180 174.232 151.922  1.00  0.00     0.000 C 
BRANCH  11  12
ATOM     12  C   UNL     1     175.034 173.925 153.418  1.00  0.00    -0.000 C 
BRANCH  12  13
ATOM     13  C   UNL     1     174.973 172.409 153.663  1.00  0.00    -0.000 C 
BRANCH  13  14
ATOM     14  C   UNL     1     173.705 171.981 154.418  1.00  0.00    -0.000 C 
BRANCH  14  15
ATOM     15  C   UNL     1     172.733 171.182 153.533  1.00  0.00    -0.000 C 
BRANCH  15  16
ATOM     16  C   UNL     1     171.275 171.643 153.694  1.00  0.00    -0.000 C 
BRANCH  16  17
ATOM     17  C   UNL     1     171.134 173.173 153.694  1.00  0.00    -0.003 C 
ATOM     18  C   UNL     1     170.404 173.659 152.445  1.00  0.00     0.004 C 
ENDBRANCH  16  17
ENDBRANCH  15  16
ENDBRANCH  14  15
ENDBRANCH  13  14
ENDBRANCH  12  13
ENDBRANCH  11  12
ENDBRANCH   1  11
TORSDOF 14
ENDMDL
