MODEL 1
REMARK VINA RESULT:    50.903      0.000      0.000
REMARK INTER + INTRA:          56.354
REMARK INTER:                  55.366
REMARK INTRA:                   0.988
REMARK UNBOUND:                 0.988
REMARK SMILES C[C@H]1[C@@H](C)CC[C@]2(C(=O)[O-])CC[C@@]3(C)C(=CC[C@H]4[C@@]5(C)CC[C@H](O)C(C)(C)[C@@H]5CC[C@@]43C)[C@@H]12
REMARK SMILES IDX 7 1 6 2 11 3 33 4 5 5 12 6 15 7 2 8 3 9 13 10 16 11 1 12
REMARK SMILES IDX 4 13 14 14 31 15 17 16 18 17 30 18 32 19 19 20 29 21 28 22
REMARK SMILES IDX 21 23 20 24 25 25 22 26 23 27 26 28 27 29 8 30 9 31 10 32
REMARK SMILES IDX 24 33
REMARK H PARENT 24 34
REMARK Flexibility Score: inf
ROOT
ATOM      1  C   UNL     1       6.322  14.437  20.494  1.00  0.00     0.017 C 
ATOM      2  C   UNL     1       7.103  15.149  21.654  1.00  0.00     0.014 C 
ATOM      3  C   UNL     1       7.277  13.471  19.707  1.00  0.00     0.014 C 
ATOM      4  C   UNL     1       5.768  15.494  19.482  1.00  0.00     0.030 C 
ATOM      5  C   UNL     1       7.652  16.525  21.262  1.00  0.00     0.004 C 
ATOM      6  C   UNL     1       7.010  13.335  18.179  1.00  0.00     0.013 C 
ATOM      7  C   UNL     1       4.938  14.834  18.373  1.00  0.00    -0.063 C 
ATOM      8  C   UNL     1       5.292  16.822  20.157  1.00  0.00    -0.003 C 
ATOM      9  C   UNL     1       6.516  17.515  20.872  1.00  0.00    -0.011 C 
ATOM     10  C   UNL     1       5.523  13.560  17.712  1.00  0.00    -0.006 C 
ATOM     11  C   UNL     1       3.873  15.471  17.815  1.00  0.00    -0.027 C 
ATOM     12  C   UNL     1       4.054  16.639  21.060  1.00  0.00     0.008 C 
ATOM     13  C   UNL     1       6.134  18.409  22.067  1.00  0.00     0.008 C 
ATOM     14  C   UNL     1       4.700  12.330  18.226  1.00  0.00     0.017 C 
ATOM     15  C   UNL     1       5.436  13.757  16.116  1.00  0.00    -0.020 C 
ATOM     16  C   UNL     1       3.348  15.208  16.417  1.00  0.00     0.032 C 
ATOM     17  C   UNL     1       3.916  13.933  15.741  1.00  0.00     0.006 C 
ATOM     18  C   UNL     1       5.981  12.526  15.330  1.00  0.00     0.008 C 
ATOM     19  C   UNL     1       6.278  15.028  15.705  1.00  0.00     0.012 C 
ATOM     20  C   UNL     1       3.507  13.645  14.205  1.00  0.00    -0.025 C 
ATOM     21  C   UNL     1       5.910  12.671  13.796  1.00  0.00     0.005 C 
ATOM     22  C   UNL     1       4.776  13.600  13.272  1.00  0.00     0.003 C 
ATOM     23  C   UNL     1       2.547  14.745  13.654  1.00  0.00     0.010 C 
ATOM     24  C   UNL     1       2.747  12.281  14.176  1.00  0.00     0.012 C 
ATOM     25  C   UNL     1       4.512  13.496  11.711  1.00  0.00    -0.006 C 
ATOM     26  C   UNL     1       2.220  14.605  12.161  1.00  0.00     0.033 C 
ATOM     27  C   UNL     1       3.494  14.609  11.297  1.00  0.00     0.120 C 
ATOM     28  C   UNL     1       5.843  13.792  10.964  1.00  0.00     0.014 C 
ATOM     29  C   UNL     1       4.013  12.097  11.227  1.00  0.00     0.014 C 
ENDROOT
BRANCH   1  30
ATOM     30  C   UNL     1       5.229  13.600  21.164  1.00  0.00     0.048 C 
ATOM     31  O   UNL     1       4.246  14.178  21.702  1.00  0.00    -0.550 OA
ATOM     32  O   UNL     1       5.284  12.213  21.212  1.00  0.00    -0.550 OA
ENDBRANCH   1  30
BRANCH  27  33
ATOM     33  O   UNL     1       3.141  14.470   9.942  1.00  0.00    -0.393 OA
ATOM     34  H   UNL     1       3.987  14.457   9.422  1.00  0.00     0.210 HD
ENDBRANCH  27  33
TORSDOF 2
ENDMDL
