MODEL 1
REMARK VINA RESULT:    -4.502      0.000      0.000
REMARK INTER + INTRA:         -11.050
REMARK INTER:                  -8.713
REMARK INTRA:                  -2.337
REMARK UNBOUND:                -2.337
REMARK SMILES CCCCCCCCCCCCCCCCCC(=O)[O-]
REMARK SMILES IDX 10 1 11 2 12 3 13 4 14 5 15 6 16 7 17 8 18 9 19 10 20 11
REMARK SMILES IDX 9 12 8 13 7 14 6 15 5 16 4 17 3 18 2 19 1 20
REMARK H PARENT
REMARK Flexibility Score: inf
ROOT
ATOM      1  C   UNL     1      43.968  63.789  12.256  1.00  0.00     0.000 C 
ENDROOT
BRANCH   1   2
ATOM      2  C   UNL     1      42.467  63.496  12.080  1.00  0.00     0.000 C 
BRANCH   2   3
ATOM      3  C   UNL     1      41.973  63.784  10.653  1.00  0.00     0.000 C 
BRANCH   3   4
ATOM      4  C   UNL     1      42.818  64.853   9.937  1.00  0.00     0.000 C 
BRANCH   4   5
ATOM      5  C   UNL     1      42.058  65.539   8.790  1.00  0.00     0.000 C 
BRANCH   5   6
ATOM      6  C   UNL     1      42.991  66.313   7.844  1.00  0.00     0.000 C 
BRANCH   6   7
ATOM      7  C   UNL     1      42.555  66.214   6.373  1.00  0.00     0.006 C 
BRANCH   7   8
ATOM      8  C   UNL     1      43.621  65.565   5.482  1.00  0.00     0.053 C 
BRANCH   8   9
ATOM      9  C   UNL     1      43.338  65.846   4.040  1.00  0.00     0.041 C 
ATOM     10  O   UNL     1      43.134  67.027   3.653  1.00  0.00    -0.550 OA
ATOM     11  O   UNL     1      43.350  64.810   3.114  1.00  0.00    -0.550 OA
ENDBRANCH   8   9
ENDBRANCH   7   8
ENDBRANCH   6   7
ENDBRANCH   5   6
ENDBRANCH   4   5
ENDBRANCH   3   4
ENDBRANCH   2   3
ENDBRANCH   1   2
BRANCH   1  12
ATOM     12  C   UNL     1      44.733  62.607  12.874  1.00  0.00     0.000 C 
BRANCH  12  13
ATOM     13  C   UNL     1      43.793  61.504  13.397  1.00  0.00    -0.000 C 
BRANCH  13  14
ATOM     14  C   UNL     1      44.044  60.146  12.720  1.00  0.00    -0.000 C 
BRANCH  14  15
ATOM     15  C   UNL     1      43.654  60.147  11.231  1.00  0.00    -0.000 C 
BRANCH  15  16
ATOM     16  C   UNL     1      44.872  60.053  10.295  1.00  0.00    -0.000 C 
BRANCH  16  17
ATOM     17  C   UNL     1      44.851  61.020   9.095  1.00  0.00    -0.000 C 
BRANCH  17  18
ATOM     18  C   UNL     1      43.468  61.231   8.447  1.00  0.00    -0.000 C 
BRANCH  18  19
ATOM     19  C   UNL     1      43.421  62.322   7.364  1.00  0.00    -0.003 C 
ATOM     20  C   UNL     1      42.097  62.348   6.602  1.00  0.00     0.004 C 
ENDBRANCH  18  19
ENDBRANCH  17  18
ENDBRANCH  16  17
ENDBRANCH  15  16
ENDBRANCH  14  15
ENDBRANCH  13  14
ENDBRANCH  12  13
ENDBRANCH   1  12
TORSDOF 16
ENDMDL
MODEL 2
REMARK VINA RESULT:    -4.486      3.283      6.255
REMARK INTER + INTRA:         -11.020
REMARK INTER:                  -8.175
REMARK INTRA:                  -2.844
REMARK UNBOUND:                -2.337
REMARK SMILES CCCCCCCCCCCCCCCCCC(=O)[O-]
REMARK SMILES IDX 10 1 11 2 12 3 13 4 14 5 15 6 16 7 17 8 18 9 19 10 20 11
REMARK SMILES IDX 9 12 8 13 7 14 6 15 5 16 4 17 3 18 2 19 1 20
REMARK H PARENT
REMARK Flexibility Score: inf
ROOT
ATOM      1  C   UNL     1      43.678  61.716   8.037  1.00  0.00     0.000 C 
ENDROOT
BRANCH   1   2
ATOM      2  C   UNL     1      44.446  60.681   8.878  1.00  0.00     0.000 C 
BRANCH   2   3
ATOM      3  C   UNL     1      44.050  60.716  10.363  1.00  0.00     0.000 C 
BRANCH   3   4
ATOM      4  C   UNL     1      45.196  61.202  11.270  1.00  0.00     0.000 C 
BRANCH   4   5
ATOM      5  C   UNL     1      44.689  61.961  12.508  1.00  0.00     0.000 C 
BRANCH   5   6
ATOM      6  C   UNL     1      44.368  63.434  12.207  1.00  0.00     0.000 C 
BRANCH   6   7
ATOM      7  C   UNL     1      42.865  63.743  12.305  1.00  0.00     0.006 C 
BRANCH   7   8
ATOM      8  C   UNL     1      42.069  62.607  12.958  1.00  0.00     0.053 C 
BRANCH   8   9
ATOM      9  C   UNL     1      40.840  62.305  12.160  1.00  0.00     0.041 C 
ATOM     10  O   UNL     1      39.930  63.168  12.047  1.00  0.00    -0.550 OA
ATOM     11  O   UNL     1      40.722  61.089  11.498  1.00  0.00    -0.550 OA
ENDBRANCH   8   9
ENDBRANCH   7   8
ENDBRANCH   6   7
ENDBRANCH   5   6
ENDBRANCH   4   5
ENDBRANCH   3   4
ENDBRANCH   2   3
ENDBRANCH   1   2
BRANCH   1  12
ATOM     12  C   UNL     1      42.792  62.634   8.895  1.00  0.00     0.000 C 
BRANCH  12  13
ATOM     13  C   UNL     1      41.336  62.684   8.396  1.00  0.00    -0.000 C 
BRANCH  13  14
ATOM     14  C   UNL     1      40.659  64.034   8.685  1.00  0.00    -0.000 C 
BRANCH  14  15
ATOM     15  C   UNL     1      41.670  65.135   9.050  1.00  0.00    -0.000 C 
BRANCH  15  16
ATOM     16  C   UNL     1      41.607  66.342   8.097  1.00  0.00    -0.000 C 
BRANCH  16  17
ATOM     17  C   UNL     1      42.933  66.689   7.391  1.00  0.00    -0.000 C 
BRANCH  17  18
ATOM     18  C   UNL     1      43.612  65.514   6.657  1.00  0.00    -0.000 C 
BRANCH  18  19
ATOM     19  C   UNL     1      43.045  65.211   5.260  1.00  0.00    -0.003 C 
ATOM     20  C   UNL     1      42.569  63.766   5.112  1.00  0.00     0.004 C 
ENDBRANCH  18  19
ENDBRANCH  17  18
ENDBRANCH  16  17
ENDBRANCH  15  16
ENDBRANCH  14  15
ENDBRANCH  13  14
ENDBRANCH  12  13
ENDBRANCH   1  12
TORSDOF 16
ENDMDL
MODEL 3
REMARK VINA RESULT:    -4.478      2.086      4.013
REMARK INTER + INTRA:         -11.002
REMARK INTER:                  -8.232
REMARK INTRA:                  -2.770
REMARK UNBOUND:                -2.337
REMARK SMILES CCCCCCCCCCCCCCCCCC(=O)[O-]
REMARK SMILES IDX 10 1 11 2 12 3 13 4 14 5 15 6 16 7 17 8 18 9 19 10 20 11
REMARK SMILES IDX 9 12 8 13 7 14 6 15 5 16 4 17 3 18 2 19 1 20
REMARK H PARENT
REMARK Flexibility Score: inf
ROOT
ATOM      1  C   UNL     1      44.588  60.452  12.331  1.00  0.00     0.000 C 
ENDROOT
BRANCH   1   2
ATOM      2  C   UNL     1      45.170  60.770  10.943  1.00  0.00     0.000 C 
BRANCH   2   3
ATOM      3  C   UNL     1      44.250  60.314   9.798  1.00  0.00     0.000 C 
BRANCH   3   4
ATOM      4  C   UNL     1      44.442  61.145   8.517  1.00  0.00     0.000 C 
BRANCH   4   5
ATOM      5  C   UNL     1      43.107  61.578   7.886  1.00  0.00     0.000 C 
BRANCH   5   6
ATOM      6  C   UNL     1      43.283  62.691   6.840  1.00  0.00     0.000 C 
BRANCH   6   7
ATOM      7  C   UNL     1      42.438  63.936   7.155  1.00  0.00     0.006 C 
BRANCH   7   8
ATOM      8  C   UNL     1      43.117  65.239   6.713  1.00  0.00     0.053 C 
BRANCH   8   9
ATOM      9  C   UNL     1      42.922  66.304   7.744  1.00  0.00     0.041 C 
ATOM     10  O   UNL     1      43.916  66.910   8.225  1.00  0.00    -0.550 OA
ATOM     11  O   UNL     1      41.640  66.665   8.137  1.00  0.00    -0.550 OA
ENDBRANCH   8   9
ENDBRANCH   7   8
ENDBRANCH   6   7
ENDBRANCH   5   6
ENDBRANCH   4   5
ENDBRANCH   3   4
ENDBRANCH   2   3
ENDBRANCH   1   2
BRANCH   1  12
ATOM     12  C   UNL     1      44.500  61.694  13.234  1.00  0.00     0.000 C 
BRANCH  12  13
ATOM     13  C   UNL     1      44.651  63.009  12.446  1.00  0.00    -0.000 C 
BRANCH  13  14
ATOM     14  C   UNL     1      43.322  63.772  12.314  1.00  0.00    -0.000 C 
BRANCH  14  15
ATOM     15  C   UNL     1      42.837  63.865  10.857  1.00  0.00    -0.000 C 
BRANCH  15  16
ATOM     16  C   UNL     1      41.422  63.292  10.662  1.00  0.00    -0.000 C 
BRANCH  16  17
ATOM     17  C   UNL     1      40.951  62.321  11.763  1.00  0.00    -0.000 C 
BRANCH  17  18
ATOM     18  C   UNL     1      40.198  61.074  11.259  1.00  0.00    -0.000 C 
BRANCH  18  19
ATOM     19  C   UNL     1      41.000  59.763  11.326  1.00  0.00    -0.003 C 
ATOM     20  C   UNL     1      40.919  58.949  10.036  1.00  0.00     0.004 C 
ENDBRANCH  18  19
ENDBRANCH  17  18
ENDBRANCH  16  17
ENDBRANCH  15  16
ENDBRANCH  14  15
ENDBRANCH  13  14
ENDBRANCH  12  13
ENDBRANCH   1  12
TORSDOF 16
ENDMDL
MODEL 4
REMARK VINA RESULT:    -4.469      1.703      3.751
REMARK INTER + INTRA:         -10.987
REMARK INTER:                  -8.381
REMARK INTRA:                  -2.605
REMARK UNBOUND:                -2.337
REMARK SMILES CCCCCCCCCCCCCCCCCC(=O)[O-]
REMARK SMILES IDX 10 1 11 2 12 3 13 4 14 5 15 6 16 7 17 8 18 9 19 10 20 11
REMARK SMILES IDX 9 12 8 13 7 14 6 15 5 16 4 17 3 18 2 19 1 20
REMARK H PARENT
REMARK Flexibility Score: inf
ROOT
ATOM      1  C   UNL     1      44.136  61.495   8.340  1.00  0.00     0.000 C 
ENDROOT
BRANCH   1   2
ATOM      2  C   UNL     1      42.721  61.305   7.766  1.00  0.00     0.000 C 
BRANCH   2   3
ATOM      3  C   UNL     1      42.298  62.460   6.844  1.00  0.00     0.000 C 
BRANCH   3   4
ATOM      4  C   UNL     1      43.375  63.555   6.733  1.00  0.00     0.000 C 
BRANCH   4   5
ATOM      5  C   UNL     1      43.088  64.555   5.600  1.00  0.00     0.000 C 
BRANCH   5   6
ATOM      6  C   UNL     1      43.364  66.010   6.015  1.00  0.00     0.000 C 
BRANCH   6   7
ATOM      7  C   UNL     1      43.122  66.254   7.513  1.00  0.00     0.006 C 
BRANCH   7   8
ATOM      8  C   UNL     1      41.656  66.575   7.832  1.00  0.00     0.053 C 
BRANCH   8   9
ATOM      9  C   UNL     1      41.154  67.662   6.936  1.00  0.00     0.041 C 
ATOM     10  O   UNL     1      40.187  67.447   6.158  1.00  0.00    -0.550 OA
ATOM     11  O   UNL     1      41.719  68.930   6.997  1.00  0.00    -0.550 OA
ENDBRANCH   8   9
ENDBRANCH   7   8
ENDBRANCH   6   7
ENDBRANCH   5   6
ENDBRANCH   4   5
ENDBRANCH   3   4
ENDBRANCH   2   3
ENDBRANCH   1   2
BRANCH   1  12
ATOM     12  C   UNL     1      44.591  60.303   9.198  1.00  0.00     0.000 C 
BRANCH  12  13
ATOM     13  C   UNL     1      45.194  60.742  10.546  1.00  0.00    -0.000 C 
BRANCH  13  14
ATOM     14  C   UNL     1      44.265  60.439  11.734  1.00  0.00    -0.000 C 
BRANCH  14  15
ATOM     15  C   UNL     1      44.437  61.440  12.889  1.00  0.00    -0.000 C 
BRANCH  15  16
ATOM     16  C   UNL     1      44.683  62.879  12.400  1.00  0.00    -0.000 C 
BRANCH  16  17
ATOM     17  C   UNL     1      43.414  63.738  12.233  1.00  0.00    -0.000 C 
BRANCH  17  18
ATOM     18  C   UNL     1      43.068  64.122  10.781  1.00  0.00    -0.000 C 
BRANCH  18  19
ATOM     19  C   UNL     1      41.672  63.678  10.310  1.00  0.00    -0.003 C 
ATOM     20  C   UNL     1      41.218  62.366  10.949  1.00  0.00     0.004 C 
ENDBRANCH  18  19
ENDBRANCH  17  18
ENDBRANCH  16  17
ENDBRANCH  15  16
ENDBRANCH  14  15
ENDBRANCH  13  14
ENDBRANCH  12  13
ENDBRANCH   1  12
TORSDOF 16
ENDMDL
MODEL 5
REMARK VINA RESULT:    -4.436      3.414      5.749
REMARK INTER + INTRA:         -10.921
REMARK INTER:                  -8.297
REMARK INTRA:                  -2.624
REMARK UNBOUND:                -2.337
REMARK SMILES CCCCCCCCCCCCCCCCCC(=O)[O-]
REMARK SMILES IDX 10 1 11 2 12 3 13 4 14 5 15 6 16 7 17 8 18 9 19 10 20 11
REMARK SMILES IDX 9 12 8 13 7 14 6 15 5 16 4 17 3 18 2 19 1 20
REMARK H PARENT
REMARK Flexibility Score: inf
ROOT
ATOM      1  C   UNL     1      45.399  60.756  10.714  1.00  0.00     0.000 C 
ENDROOT
BRANCH   1   2
ATOM      2  C   UNL     1      44.308  60.437  11.752  1.00  0.00     0.000 C 
BRANCH   2   3
ATOM      3  C   UNL     1      44.313  61.420  12.934  1.00  0.00     0.000 C 
BRANCH   3   4
ATOM      4  C   UNL     1      44.653  62.859  12.507  1.00  0.00     0.000 C 
BRANCH   4   5
ATOM      5  C   UNL     1      43.400  63.724  12.292  1.00  0.00     0.000 C 
BRANCH   5   6
ATOM      6  C   UNL     1      42.945  63.749  10.823  1.00  0.00     0.000 C 
BRANCH   6   7
ATOM      7  C   UNL     1      41.439  63.481  10.667  1.00  0.00     0.006 C 
BRANCH   7   8
ATOM      8  C   UNL     1      40.984  62.213  11.398  1.00  0.00     0.053 C 
BRANCH   8   9
ATOM      9  C   UNL     1      39.538  62.313  11.768  1.00  0.00     0.041 C 
ATOM     10  O   UNL     1      39.199  62.812  12.873  1.00  0.00    -0.550 OA
ATOM     11  O   UNL     1      38.561  61.903  10.869  1.00  0.00    -0.550 OA
ENDBRANCH   8   9
ENDBRANCH   7   8
ENDBRANCH   6   7
ENDBRANCH   5   6
ENDBRANCH   4   5
ENDBRANCH   3   4
ENDBRANCH   2   3
ENDBRANCH   1   2
BRANCH   1  12
ATOM     12  C   UNL     1      44.866  60.738   9.272  1.00  0.00     0.000 C 
BRANCH  12  13
ATOM     13  C   UNL     1      43.388  60.312   9.194  1.00  0.00    -0.000 C 
BRANCH  13  14
ATOM     14  C   UNL     1      42.624  61.037   8.073  1.00  0.00    -0.000 C 
BRANCH  14  15
ATOM     15  C   UNL     1      43.389  62.257   7.530  1.00  0.00    -0.000 C 
BRANCH  15  16
ATOM     16  C   UNL     1      42.466  63.288   6.857  1.00  0.00    -0.000 C 
BRANCH  16  17
ATOM     17  C   UNL     1      43.082  64.031   5.654  1.00  0.00    -0.000 C 
BRANCH  17  18
ATOM     18  C   UNL     1      43.337  65.536   5.874  1.00  0.00    -0.000 C 
BRANCH  18  19
ATOM     19  C   UNL     1      42.662  66.130   7.122  1.00  0.00    -0.003 C 
ATOM     20  C   UNL     1      43.661  66.742   8.103  1.00  0.00     0.004 C 
ENDBRANCH  18  19
ENDBRANCH  17  18
ENDBRANCH  16  17
ENDBRANCH  15  16
ENDBRANCH  14  15
ENDBRANCH  13  14
ENDBRANCH  12  13
ENDBRANCH   1  12
TORSDOF 16
ENDMDL
MODEL 6
REMARK VINA RESULT:    -4.423      1.329      3.437
REMARK INTER + INTRA:         -10.896
REMARK INTER:                  -8.329
REMARK INTRA:                  -2.567
REMARK UNBOUND:                -2.337
REMARK SMILES CCCCCCCCCCCCCCCCCC(=O)[O-]
REMARK SMILES IDX 10 1 11 2 12 3 13 4 14 5 15 6 16 7 17 8 18 9 19 10 20 11
REMARK SMILES IDX 9 12 8 13 7 14 6 15 5 16 4 17 3 18 2 19 1 20
REMARK H PARENT
REMARK Flexibility Score: inf
ROOT
ATOM      1  C   UNL     1      44.588  60.807   8.943  1.00  0.00     0.000 C 
ENDROOT
BRANCH   1   2
ATOM      2  C   UNL     1      43.260  61.557   8.736  1.00  0.00     0.000 C 
BRANCH   2   3
ATOM      3  C   UNL     1      43.127  62.145   7.322  1.00  0.00     0.000 C 
BRANCH   3   4
ATOM      4  C   UNL     1      42.755  63.639   7.333  1.00  0.00     0.000 C 
BRANCH   4   5
ATOM      5  C   UNL     1      41.859  64.017   8.525  1.00  0.00     0.000 C 
BRANCH   5   6
ATOM      6  C   UNL     1      41.658  65.536   8.653  1.00  0.00     0.000 C 
BRANCH   6   7
ATOM      7  C   UNL     1      42.837  66.338   8.078  1.00  0.00     0.006 C 
BRANCH   7   8
ATOM      8  C   UNL     1      42.381  67.503   7.189  1.00  0.00     0.053 C 
BRANCH   8   9
ATOM      9  C   UNL     1      41.740  66.986   5.940  1.00  0.00     0.041 C 
ATOM     10  O   UNL     1      40.509  67.163   5.740  1.00  0.00    -0.550 OA
ATOM     11  O   UNL     1      42.511  66.354   4.973  1.00  0.00    -0.550 OA
ENDBRANCH   8   9
ENDBRANCH   7   8
ENDBRANCH   6   7
ENDBRANCH   5   6
ENDBRANCH   4   5
ENDBRANCH   3   4
ENDBRANCH   2   3
ENDBRANCH   1   2
BRANCH   1  12
ATOM     12  C   UNL     1      44.640  60.056  10.283  1.00  0.00     0.000 C 
BRANCH  12  13
ATOM     13  C   UNL     1      43.244  59.845  10.897  1.00  0.00    -0.000 C 
BRANCH  13  14
ATOM     14  C   UNL     1      43.260  59.905  12.434  1.00  0.00    -0.000 C 
BRANCH  14  15
ATOM     15  C   UNL     1      44.590  60.442  12.990  1.00  0.00    -0.000 C 
BRANCH  15  16
ATOM     16  C   UNL     1      44.459  61.853  13.592  1.00  0.00    -0.000 C 
BRANCH  16  17
ATOM     17  C   UNL     1      44.760  63.010  12.619  1.00  0.00    -0.000 C 
BRANCH  17  18
ATOM     18  C   UNL     1      43.537  63.566  11.863  1.00  0.00    -0.000 C 
BRANCH  18  19
ATOM     19  C   UNL     1      42.216  63.523  12.650  1.00  0.00    -0.003 C 
ATOM     20  C   UNL     1      41.087  62.835  11.882  1.00  0.00     0.004 C 
ENDBRANCH  18  19
ENDBRANCH  17  18
ENDBRANCH  16  17
ENDBRANCH  15  16
ENDBRANCH  14  15
ENDBRANCH  13  14
ENDBRANCH  12  13
ENDBRANCH   1  12
TORSDOF 16
ENDMDL
MODEL 7
REMARK VINA RESULT:    -4.415      3.056      6.514
REMARK INTER + INTRA:         -10.881
REMARK INTER:                  -8.558
REMARK INTRA:                  -2.323
REMARK UNBOUND:                -2.337
REMARK SMILES CCCCCCCCCCCCCCCCCC(=O)[O-]
REMARK SMILES IDX 10 1 11 2 12 3 13 4 14 5 15 6 16 7 17 8 18 9 19 10 20 11
REMARK SMILES IDX 9 12 8 13 7 14 6 15 5 16 4 17 3 18 2 19 1 20
REMARK H PARENT
REMARK Flexibility Score: inf
ROOT
ATOM      1  C   UNL     1      43.262  61.030   8.489  1.00  0.00     0.000 C 
ENDROOT
BRANCH   1   2
ATOM      2  C   UNL     1      44.751  60.743   8.753  1.00  0.00     0.000 C 
BRANCH   2   3
ATOM      3  C   UNL     1      44.989  60.060  10.111  1.00  0.00     0.000 C 
BRANCH   3   4
ATOM      4  C   UNL     1      43.779  60.182  11.055  1.00  0.00     0.000 C 
BRANCH   4   5
ATOM      5  C   UNL     1      44.138  60.850  12.393  1.00  0.00     0.000 C 
BRANCH   5   6
ATOM      6  C   UNL     1      45.072  62.058  12.218  1.00  0.00     0.000 C 
BRANCH   6   7
ATOM      7  C   UNL     1      44.381  63.392  12.546  1.00  0.00     0.006 C 
BRANCH   7   8
ATOM      8  C   UNL     1      43.433  63.856  11.433  1.00  0.00     0.053 C 
BRANCH   8   9
ATOM      9  C   UNL     1      42.018  63.519  11.779  1.00  0.00     0.041 C 
ATOM     10  O   UNL     1      41.223  63.126  10.885  1.00  0.00    -0.550 OA
ATOM     11  O   UNL     1      41.589  63.589  13.099  1.00  0.00    -0.550 OA
ENDBRANCH   8   9
ENDBRANCH   7   8
ENDBRANCH   6   7
ENDBRANCH   5   6
ENDBRANCH   4   5
ENDBRANCH   3   4
ENDBRANCH   2   3
ENDBRANCH   1   2
BRANCH   1  12
ATOM     12  C   UNL     1      43.016  62.463   7.989  1.00  0.00     0.000 C 
BRANCH  12  13
ATOM     13  C   UNL     1      42.047  62.513   6.793  1.00  0.00    -0.000 C 
BRANCH  13  14
ATOM     14  C   UNL     1      42.554  63.423   5.661  1.00  0.00    -0.000 C 
BRANCH  14  15
ATOM     15  C   UNL     1      43.652  64.393   6.130  1.00  0.00    -0.000 C 
BRANCH  15  16
ATOM     16  C   UNL     1      43.308  65.866   5.847  1.00  0.00    -0.000 C 
BRANCH  16  17
ATOM     17  C   UNL     1      43.147  66.753   7.097  1.00  0.00    -0.000 C 
BRANCH  17  18
ATOM     18  C   UNL     1      42.793  65.999   8.395  1.00  0.00    -0.000 C 
BRANCH  18  19
ATOM     19  C   UNL     1      41.286  65.833   8.656  1.00  0.00    -0.003 C 
ATOM     20  C   UNL     1      40.441  66.898   7.958  1.00  0.00     0.004 C 
ENDBRANCH  18  19
ENDBRANCH  17  18
ENDBRANCH  16  17
ENDBRANCH  15  16
ENDBRANCH  14  15
ENDBRANCH  13  14
ENDBRANCH  12  13
ENDBRANCH   1  12
TORSDOF 16
ENDMDL
MODEL 8
REMARK VINA RESULT:    -4.393      1.465      2.894
REMARK INTER + INTRA:         -10.839
REMARK INTER:                  -8.377
REMARK INTRA:                  -2.462
REMARK UNBOUND:                -2.337
REMARK SMILES CCCCCCCCCCCCCCCCCC(=O)[O-]
REMARK SMILES IDX 10 1 11 2 12 3 13 4 14 5 15 6 16 7 17 8 18 9 19 10 20 11
REMARK SMILES IDX 9 12 8 13 7 14 6 15 5 16 4 17 3 18 2 19 1 20
REMARK H PARENT
REMARK Flexibility Score: inf
ROOT
ATOM      1  C   UNL     1      41.854  63.417  11.269  1.00  0.00     0.000 C 
ENDROOT
BRANCH   1   2
ATOM      2  C   UNL     1      42.532  64.224  10.147  1.00  0.00     0.000 C 
BRANCH   2   3
ATOM      3  C   UNL     1      41.674  64.300   8.873  1.00  0.00     0.000 C 
BRANCH   3   4
ATOM      4  C   UNL     1      41.744  63.011   8.034  1.00  0.00     0.000 C 
BRANCH   4   5
ATOM      5  C   UNL     1      42.050  63.285   6.552  1.00  0.00     0.000 C 
BRANCH   5   6
ATOM      6  C   UNL     1      43.492  63.768   6.327  1.00  0.00     0.000 C 
BRANCH   6   7
ATOM      7  C   UNL     1      43.554  65.151   5.657  1.00  0.00     0.006 C 
BRANCH   7   8
ATOM      8  C   UNL     1      42.170  65.789   5.488  1.00  0.00     0.053 C 
BRANCH   8   9
ATOM      9  C   UNL     1      42.162  67.175   6.049  1.00  0.00     0.041 C 
ATOM     10  O   UNL     1      42.370  67.363   7.277  1.00  0.00    -0.550 OA
ATOM     11  O   UNL     1      41.978  68.265   5.208  1.00  0.00    -0.550 OA
ENDBRANCH   8   9
ENDBRANCH   7   8
ENDBRANCH   6   7
ENDBRANCH   5   6
ENDBRANCH   4   5
ENDBRANCH   3   4
ENDBRANCH   2   3
ENDBRANCH   1   2
BRANCH   1  12
ATOM     12  C   UNL     1      42.678  63.401  12.566  1.00  0.00     0.000 C 
BRANCH  12  13
ATOM     13  C   UNL     1      44.194  63.477  12.304  1.00  0.00    -0.000 C 
BRANCH  13  14
ATOM     14  C   UNL     1      44.991  62.480  13.163  1.00  0.00    -0.000 C 
BRANCH  14  15
ATOM     15  C   UNL     1      44.095  61.410  13.810  1.00  0.00    -0.000 C 
BRANCH  15  16
ATOM     16  C   UNL     1      44.157  60.058  13.077  1.00  0.00    -0.000 C 
BRANCH  16  17
ATOM     17  C   UNL     1      42.919  59.720  12.222  1.00  0.00    -0.000 C 
BRANCH  17  18
ATOM     18  C   UNL     1      43.082  59.963  10.708  1.00  0.00    -0.000 C 
BRANCH  18  19
ATOM     19  C   UNL     1      44.522  60.253  10.251  1.00  0.00    -0.003 C 
ATOM     20  C   UNL     1      44.590  60.874   8.857  1.00  0.00     0.004 C 
ENDBRANCH  18  19
ENDBRANCH  17  18
ENDBRANCH  16  17
ENDBRANCH  15  16
ENDBRANCH  14  15
ENDBRANCH  13  14
ENDBRANCH  12  13
ENDBRANCH   1  12
TORSDOF 16
ENDMDL
MODEL 9
REMARK VINA RESULT:    -4.327      1.901      4.638
REMARK INTER + INTRA:         -10.711
REMARK INTER:                  -7.500
REMARK INTRA:                  -3.212
REMARK UNBOUND:                -2.337
REMARK SMILES CCCCCCCCCCCCCCCCCC(=O)[O-]
REMARK SMILES IDX 10 1 11 2 12 3 13 4 14 5 15 6 16 7 17 8 18 9 19 10 20 11
REMARK SMILES IDX 9 12 8 13 7 14 6 15 5 16 4 17 3 18 2 19 1 20
REMARK H PARENT
REMARK Flexibility Score: inf
ROOT
ATOM      1  C   UNL     1      41.395  60.205  11.257  1.00  0.00     0.000 C 
ENDROOT
BRANCH   1   2
ATOM      2  C   UNL     1      42.463  59.187  10.821  1.00  0.00     0.000 C 
BRANCH   2   3
ATOM      3  C   UNL     1      43.093  59.537   9.462  1.00  0.00     0.000 C 
BRANCH   3   4
ATOM      4  C   UNL     1      43.937  60.823   9.514  1.00  0.00     0.000 C 
BRANCH   4   5
ATOM      5  C   UNL     1      43.882  61.621   8.200  1.00  0.00     0.000 C 
BRANCH   5   6
ATOM      6  C   UNL     1      42.525  61.492   7.488  1.00  0.00     0.000 C 
BRANCH   6   7
ATOM      7  C   UNL     1      42.272  62.632   6.488  1.00  0.00     0.006 C 
BRANCH   7   8
ATOM      8  C   UNL     1      43.382  63.690   6.504  1.00  0.00     0.053 C 
BRANCH   8   9
ATOM      9  C   UNL     1      42.799  65.056   6.686  1.00  0.00     0.041 C 
ATOM     10  O   UNL     1      43.533  66.075   6.600  1.00  0.00    -0.550 OA
ATOM     11  O   UNL     1      41.434  65.206   6.899  1.00  0.00    -0.550 OA
ENDBRANCH   8   9
ENDBRANCH   7   8
ENDBRANCH   6   7
ENDBRANCH   5   6
ENDBRANCH   4   5
ENDBRANCH   3   4
ENDBRANCH   2   3
ENDBRANCH   1   2
BRANCH   1  12
ATOM     12  C   UNL     1      40.276  60.371  10.216  1.00  0.00     0.000 C 
BRANCH  12  13
ATOM     13  C   UNL     1      39.850  61.840  10.036  1.00  0.00    -0.000 C 
BRANCH  13  14
ATOM     14  C   UNL     1      40.638  62.798  10.945  1.00  0.00    -0.000 C 
BRANCH  14  15
ATOM     15  C   UNL     1      41.485  63.806  10.149  1.00  0.00    -0.000 C 
BRANCH  15  16
ATOM     16  C   UNL     1      42.813  64.151  10.846  1.00  0.00    -0.000 C 
BRANCH  16  17
ATOM     17  C   UNL     1      43.085  63.382  12.154  1.00  0.00    -0.000 C 
BRANCH  17  18
ATOM     18  C   UNL     1      44.562  63.335  12.592  1.00  0.00    -0.000 C 
BRANCH  18  19
ATOM     19  C   UNL     1      44.978  62.050  13.329  1.00  0.00    -0.003 C 
ATOM     20  C   UNL     1      43.785  61.183  13.732  1.00  0.00     0.004 C 
ENDBRANCH  18  19
ENDBRANCH  17  18
ENDBRANCH  16  17
ENDBRANCH  15  16
ENDBRANCH  14  15
ENDBRANCH  13  14
ENDBRANCH  12  13
ENDBRANCH   1  12
TORSDOF 16
ENDMDL
