MODEL 1
REMARK VINA RESULT:    -2.340      0.000      0.000
REMARK INTER + INTRA:          -6.328
REMARK INTER:                  -5.076
REMARK INTRA:                  -1.252
REMARK UNBOUND:                -1.252
REMARK SMILES CCCCCCCCCCCCCCCCCCCCCC(=O)[O-]
REMARK SMILES IDX 12 1 11 2 10 3 9 4 8 5 7 6 6 7 5 8 4 9 3 10 2 11 1 12 13 13
REMARK SMILES IDX 14 14 15 15 16 16 17 17 18 18 19 19 20 20 21 21 22 22 23 23
REMARK SMILES IDX 24 24
REMARK H PARENT
REMARK Flexibility Score: inf
ROOT
ATOM      1  C   UNL     1     -16.912 -11.181   3.183  1.00  0.00     0.000 C 
ENDROOT
BRANCH   1   2
ATOM      2  C   UNL     1     -17.548 -12.581   3.171  1.00  0.00     0.000 C 
BRANCH   2   3
ATOM      3  C   UNL     1     -18.238 -12.910   1.836  1.00  0.00     0.000 C 
BRANCH   3   4
ATOM      4  C   UNL     1     -19.778 -12.825   1.858  1.00  0.00    -0.000 C 
BRANCH   4   5
ATOM      5  C   UNL     1     -20.435 -12.457   0.515  1.00  0.00    -0.000 C 
BRANCH   5   6
ATOM      6  C   UNL     1     -21.812 -11.791   0.685  1.00  0.00    -0.000 C 
BRANCH   6   7
ATOM      7  C   UNL     1     -22.970 -12.714   0.273  1.00  0.00    -0.000 C 
BRANCH   7   8
ATOM      8  C   UNL     1     -23.892 -13.071   1.447  1.00  0.00    -0.000 C 
BRANCH   8   9
ATOM      9  C   UNL     1     -25.319 -12.566   1.196  1.00  0.00    -0.000 C 
BRANCH   9  10
ATOM     10  C   UNL     1     -25.742 -11.554   2.269  1.00  0.00    -0.000 C 
BRANCH  10  11
ATOM     11  C   UNL     1     -24.689 -11.459   3.378  1.00  0.00    -0.003 C 
ATOM     12  C   UNL     1     -25.335 -11.145   4.724  1.00  0.00     0.004 C 
ENDBRANCH  10  11
ENDBRANCH   9  10
ENDBRANCH   8   9
ENDBRANCH   7   8
ENDBRANCH   6   7
ENDBRANCH   5   6
ENDBRANCH   4   5
ENDBRANCH   3   4
ENDBRANCH   2   3
ENDBRANCH   1   2
BRANCH   1  13
ATOM     13  C   UNL     1     -15.824 -11.016   2.111  1.00  0.00     0.000 C 
BRANCH  13  14
ATOM     14  C   UNL     1     -15.331 -12.366   1.558  1.00  0.00     0.000 C 
BRANCH  14  15
ATOM     15  C   UNL     1     -14.824 -12.256   0.111  1.00  0.00     0.000 C 
BRANCH  15  16
ATOM     16  C   UNL     1     -13.337 -12.628  -0.019  1.00  0.00     0.000 C 
BRANCH  16  17
ATOM     17  C   UNL     1     -12.403 -11.552   0.559  1.00  0.00     0.000 C 
BRANCH  17  18
ATOM     18  C   UNL     1     -11.544 -12.014   1.754  1.00  0.00     0.000 C 
BRANCH  18  19
ATOM     19  C   UNL     1     -12.219 -11.798   3.126  1.00  0.00     0.000 C 
BRANCH  19  20
ATOM     20  C   UNL     1     -12.607 -13.125   3.797  1.00  0.00     0.006 C 
BRANCH  20  21
ATOM     21  C   UNL     1     -13.509 -12.888   5.011  1.00  0.00     0.053 C 
BRANCH  21  22
ATOM     22  C   UNL     1     -12.702 -12.914   6.270  1.00  0.00     0.041 C 
ATOM     23  O   UNL     1     -13.266 -12.762   7.383  1.00  0.00    -0.550 OA
ATOM     24  O   UNL     1     -11.323 -13.056   6.211  1.00  0.00    -0.550 OA
ENDBRANCH  21  22
ENDBRANCH  20  21
ENDBRANCH  19  20
ENDBRANCH  18  19
ENDBRANCH  17  18
ENDBRANCH  16  17
ENDBRANCH  15  16
ENDBRANCH  14  15
ENDBRANCH  13  14
ENDBRANCH   1  13
TORSDOF 20
ENDMDL
MODEL 2
REMARK VINA RESULT:    -2.030      4.480     10.751
REMARK INTER + INTRA:          -5.655
REMARK INTER:                  -4.075
REMARK INTRA:                  -1.580
REMARK UNBOUND:                -1.252
REMARK SMILES CCCCCCCCCCCCCCCCCCCCCC(=O)[O-]
REMARK SMILES IDX 12 1 11 2 10 3 9 4 8 5 7 6 6 7 5 8 4 9 3 10 2 11 1 12 13 13
REMARK SMILES IDX 14 14 15 15 16 16 17 17 18 18 19 19 20 20 21 21 22 22 23 23
REMARK SMILES IDX 24 24
REMARK H PARENT
REMARK Flexibility Score: inf
ROOT
ATOM      1  C   UNL     1     -17.704 -12.199   2.548  1.00  0.00     0.000 C 
ENDROOT
BRANCH   1   2
ATOM      2  C   UNL     1     -16.626 -13.123   3.141  1.00  0.00     0.000 C 
BRANCH   2   3
ATOM      3  C   UNL     1     -15.298 -12.394   3.407  1.00  0.00     0.000 C 
BRANCH   3   4
ATOM      4  C   UNL     1     -14.714 -11.637   2.196  1.00  0.00    -0.000 C 
BRANCH   4   5
ATOM      5  C   UNL     1     -13.858 -10.405   2.541  1.00  0.00    -0.000 C 
BRANCH   5   6
ATOM      6  C   UNL     1     -12.384 -10.757   2.809  1.00  0.00    -0.000 C 
BRANCH   6   7
ATOM      7  C   UNL     1     -12.037 -12.197   2.401  1.00  0.00    -0.000 C 
BRANCH   7   8
ATOM      8  C   UNL     1     -11.619 -13.069   3.594  1.00  0.00    -0.000 C 
BRANCH   8   9
ATOM      9  C   UNL     1     -11.655 -12.264   4.900  1.00  0.00    -0.000 C 
BRANCH   9  10
ATOM     10  C   UNL     1     -11.099 -13.086   6.070  1.00  0.00    -0.000 C 
BRANCH  10  11
ATOM     11  C   UNL     1     -12.036 -13.019   7.281  1.00  0.00    -0.003 C 
ATOM     12  C   UNL     1     -13.440 -12.589   6.867  1.00  0.00     0.004 C 
ENDBRANCH  10  11
ENDBRANCH   9  10
ENDBRANCH   8   9
ENDBRANCH   7   8
ENDBRANCH   6   7
ENDBRANCH   5   6
ENDBRANCH   4   5
ENDBRANCH   3   4
ENDBRANCH   2   3
ENDBRANCH   1   2
BRANCH   1  13
ATOM     13  C   UNL     1     -18.227 -12.694   1.192  1.00  0.00     0.000 C 
BRANCH  13  14
ATOM     14  C   UNL     1     -19.739 -12.985   1.213  1.00  0.00     0.000 C 
BRANCH  14  15
ATOM     15  C   UNL     1     -20.532 -11.906   1.970  1.00  0.00     0.000 C 
BRANCH  15  16
ATOM     16  C   UNL     1     -21.851 -11.546   1.265  1.00  0.00     0.000 C 
BRANCH  16  17
ATOM     17  C   UNL     1     -22.288 -12.609   0.243  1.00  0.00     0.000 C 
BRANCH  17  18
ATOM     18  C   UNL     1     -23.800 -12.634  -0.060  1.00  0.00     0.000 C 
BRANCH  18  19
ATOM     19  C   UNL     1     -24.687 -12.711   1.201  1.00  0.00     0.000 C 
BRANCH  19  20
ATOM     20  C   UNL     1     -25.683 -11.544   1.283  1.00  0.00     0.006 C 
BRANCH  20  21
ATOM     21  C   UNL     1     -25.293 -10.415   0.326  1.00  0.00     0.053 C 
BRANCH  21  22
ATOM     22  C   UNL     1     -25.325  -9.099   1.034  1.00  0.00     0.041 C 
ATOM     23  O   UNL     1     -24.643  -8.134   0.604  1.00  0.00    -0.550 OA
ATOM     24  O   UNL     1     -26.068  -8.951   2.197  1.00  0.00    -0.550 OA
ENDBRANCH  21  22
ENDBRANCH  20  21
ENDBRANCH  19  20
ENDBRANCH  18  19
ENDBRANCH  17  18
ENDBRANCH  16  17
ENDBRANCH  15  16
ENDBRANCH  14  15
ENDBRANCH  13  14
ENDBRANCH   1  13
TORSDOF 20
ENDMDL
MODEL 3
REMARK VINA RESULT:    -2.019      4.764     11.752
REMARK INTER + INTRA:          -5.631
REMARK INTER:                  -4.953
REMARK INTRA:                  -0.678
REMARK UNBOUND:                -1.252
REMARK SMILES CCCCCCCCCCCCCCCCCCCCCC(=O)[O-]
REMARK SMILES IDX 12 1 11 2 10 3 9 4 8 5 7 6 6 7 5 8 4 9 3 10 2 11 1 12 13 13
REMARK SMILES IDX 14 14 15 15 16 16 17 17 18 18 19 19 20 20 21 21 22 22 23 23
REMARK SMILES IDX 24 24
REMARK H PARENT
REMARK Flexibility Score: inf
ROOT
ATOM      1  C   UNL     1     -15.054 -10.508   2.558  1.00  0.00     0.000 C 
ENDROOT
BRANCH   1   2
ATOM      2  C   UNL     1     -13.811 -11.326   2.167  1.00  0.00     0.000 C 
BRANCH   2   3
ATOM      3  C   UNL     1     -13.282 -12.195   3.321  1.00  0.00     0.000 C 
BRANCH   3   4
ATOM      4  C   UNL     1     -11.783 -12.548   3.239  1.00  0.00    -0.000 C 
BRANCH   4   5
ATOM      5  C   UNL     1     -11.312 -13.108   1.884  1.00  0.00    -0.000 C 
BRANCH   5   6
ATOM      6  C   UNL     1     -11.055 -12.008   0.839  1.00  0.00    -0.000 C 
BRANCH   6   7
ATOM      7  C   UNL     1      -9.912 -12.365  -0.125  1.00  0.00    -0.000 C 
BRANCH   7   8
ATOM      8  C   UNL     1      -8.770 -13.125   0.564  1.00  0.00    -0.000 C 
BRANCH   8   9
ATOM      9  C   UNL     1      -7.421 -12.797  -0.089  1.00  0.00    -0.000 C 
BRANCH   9  10
ATOM     10  C   UNL     1      -6.572 -11.899   0.821  1.00  0.00    -0.000 C 
BRANCH  10  11
ATOM     11  C   UNL     1      -5.946 -10.748   0.027  1.00  0.00    -0.003 C 
ATOM     12  C   UNL     1      -6.113  -9.420   0.759  1.00  0.00     0.004 C 
ENDBRANCH  10  11
ENDBRANCH   9  10
ENDBRANCH   8   9
ENDBRANCH   7   8
ENDBRANCH   6   7
ENDBRANCH   5   6
ENDBRANCH   4   5
ENDBRANCH   3   4
ENDBRANCH   2   3
ENDBRANCH   1   2
BRANCH   1  13
ATOM     13  C   UNL     1     -16.325 -11.367   2.643  1.00  0.00     0.000 C 
BRANCH  13  14
ATOM     14  C   UNL     1     -16.400 -12.420   1.522  1.00  0.00     0.000 C 
BRANCH  14  15
ATOM     15  C   UNL     1     -17.803 -13.036   1.392  1.00  0.00     0.000 C 
BRANCH  15  16
ATOM     16  C   UNL     1     -18.779 -12.117   0.638  1.00  0.00     0.000 C 
BRANCH  16  17
ATOM     17  C   UNL     1     -20.250 -12.392   0.994  1.00  0.00     0.000 C 
BRANCH  17  18
ATOM     18  C   UNL     1     -21.274 -11.879  -0.039  1.00  0.00     0.000 C 
BRANCH  18  19
ATOM     19  C   UNL     1     -22.559 -11.300   0.592  1.00  0.00     0.000 C 
BRANCH  19  20
ATOM     20  C   UNL     1     -22.823 -11.867   1.996  1.00  0.00     0.006 C 
BRANCH  20  21
ATOM     21  C   UNL     1     -24.082 -11.252   2.613  1.00  0.00     0.053 C 
BRANCH  21  22
ATOM     22  C   UNL     1     -25.302 -11.735   1.896  1.00  0.00     0.041 C 
ATOM     23  O   UNL     1     -25.610 -12.953   1.926  1.00  0.00    -0.550 OA
ATOM     24  O   UNL     1     -26.070 -10.848   1.154  1.00  0.00    -0.550 OA
ENDBRANCH  21  22
ENDBRANCH  20  21
ENDBRANCH  19  20
ENDBRANCH  18  19
ENDBRANCH  17  18
ENDBRANCH  16  17
ENDBRANCH  15  16
ENDBRANCH  14  15
ENDBRANCH  13  14
ENDBRANCH   1  13
TORSDOF 20
ENDMDL
MODEL 4
REMARK VINA RESULT:    -1.677      2.880      3.883
REMARK INTER + INTRA:          -4.890
REMARK INTER:                  -3.811
REMARK INTRA:                  -1.079
REMARK UNBOUND:                -1.252
REMARK SMILES CCCCCCCCCCCCCCCCCCCCCC(=O)[O-]
REMARK SMILES IDX 12 1 11 2 10 3 9 4 8 5 7 6 6 7 5 8 4 9 3 10 2 11 1 12 13 13
REMARK SMILES IDX 14 14 15 15 16 16 17 17 18 18 19 19 20 20 21 21 22 22 23 23
REMARK SMILES IDX 24 24
REMARK H PARENT
REMARK Flexibility Score: inf
ROOT
ATOM      1  C   UNL     1     -16.139 -10.308   3.375  1.00  0.00     0.000 C 
ENDROOT
BRANCH   1   2
ATOM      2  C   UNL     1     -16.637 -11.756   3.523  1.00  0.00     0.000 C 
BRANCH   2   3
ATOM      3  C   UNL     1     -17.342 -12.276   2.259  1.00  0.00     0.000 C 
BRANCH   3   4
ATOM      4  C   UNL     1     -18.692 -12.981   2.507  1.00  0.00    -0.000 C 
BRANCH   4   5
ATOM      5  C   UNL     1     -19.689 -12.923   1.336  1.00  0.00    -0.000 C 
BRANCH   5   6
ATOM      6  C   UNL     1     -21.144 -12.726   1.797  1.00  0.00    -0.000 C 
BRANCH   6   7
ATOM      7  C   UNL     1     -21.256 -12.496   3.313  1.00  0.00    -0.000 C 
BRANCH   7   8
ATOM      8  C   UNL     1     -22.459 -11.620   3.693  1.00  0.00    -0.000 C 
BRANCH   8   9
ATOM      9  C   UNL     1     -23.471 -11.551   2.543  1.00  0.00    -0.000 C 
BRANCH   9  10
ATOM     10  C   UNL     1     -23.935 -10.108   2.304  1.00  0.00    -0.000 C 
BRANCH  10  11
ATOM     11  C   UNL     1     -25.262 -10.078   1.538  1.00  0.00    -0.003 C 
ATOM     12  C   UNL     1     -25.835  -8.665   1.485  1.00  0.00     0.004 C 
ENDBRANCH  10  11
ENDBRANCH   9  10
ENDBRANCH   8   9
ENDBRANCH   7   8
ENDBRANCH   6   7
ENDBRANCH   5   6
ENDBRANCH   4   5
ENDBRANCH   3   4
ENDBRANCH   2   3
ENDBRANCH   1   2
BRANCH   1  13
ATOM     13  C   UNL     1     -15.041 -10.165   2.311  1.00  0.00     0.000 C 
BRANCH  13  14
ATOM     14  C   UNL     1     -13.881 -11.155   2.524  1.00  0.00     0.000 C 
BRANCH  14  15
ATOM     15  C   UNL     1     -13.881 -12.289   1.486  1.00  0.00     0.000 C 
BRANCH  15  16
ATOM     16  C   UNL     1     -12.547 -13.054   1.454  1.00  0.00     0.000 C 
BRANCH  16  17
ATOM     17  C   UNL     1     -11.783 -12.864   0.133  1.00  0.00     0.000 C 
BRANCH  17  18
ATOM     18  C   UNL     1     -11.254 -11.436  -0.110  1.00  0.00     0.000 C 
BRANCH  18  19
ATOM     19  C   UNL     1      -9.717 -11.318  -0.026  1.00  0.00     0.000 C 
BRANCH  19  20
ATOM     20  C   UNL     1      -9.023 -12.686  -0.124  1.00  0.00     0.006 C 
BRANCH  20  21
ATOM     21  C   UNL     1      -8.451 -13.115   1.229  1.00  0.00     0.053 C 
BRANCH  21  22
ATOM     22  C   UNL     1      -6.974 -12.882   1.266  1.00  0.00     0.041 C 
ATOM     23  O   UNL     1      -6.408 -12.593   2.351  1.00  0.00    -0.550 OA
ATOM     24  O   UNL     1      -6.231 -12.935   0.095  1.00  0.00    -0.550 OA
ENDBRANCH  21  22
ENDBRANCH  20  21
ENDBRANCH  19  20
ENDBRANCH  18  19
ENDBRANCH  17  18
ENDBRANCH  16  17
ENDBRANCH  15  16
ENDBRANCH  14  15
ENDBRANCH  13  14
ENDBRANCH   1  13
TORSDOF 20
ENDMDL
MODEL 5
REMARK VINA RESULT:    -1.435      1.385      2.596
REMARK INTER + INTRA:          -4.364
REMARK INTER:                  -3.975
REMARK INTRA:                  -0.388
REMARK UNBOUND:                -1.252
REMARK SMILES CCCCCCCCCCCCCCCCCCCCCC(=O)[O-]
REMARK SMILES IDX 12 1 11 2 10 3 9 4 8 5 7 6 6 7 5 8 4 9 3 10 2 11 1 12 13 13
REMARK SMILES IDX 14 14 15 15 16 16 17 17 18 18 19 19 20 20 21 21 22 22 23 23
REMARK SMILES IDX 24 24
REMARK H PARENT
REMARK Flexibility Score: inf
ROOT
ATOM      1  C   UNL     1     -20.034 -12.140   2.433  1.00  0.00     0.000 C 
ENDROOT
BRANCH   1   2
ATOM      2  C   UNL     1     -21.110 -13.112   1.921  1.00  0.00     0.000 C 
BRANCH   2   3
ATOM      3  C   UNL     1     -21.294 -13.048   0.395  1.00  0.00     0.000 C 
BRANCH   3   4
ATOM      4  C   UNL     1     -22.752 -12.885  -0.081  1.00  0.00    -0.000 C 
BRANCH   4   5
ATOM      5  C   UNL     1     -23.272 -11.437  -0.124  1.00  0.00    -0.000 C 
BRANCH   5   6
ATOM      6  C   UNL     1     -23.326 -10.779   1.266  1.00  0.00    -0.000 C 
BRANCH   6   7
ATOM      7  C   UNL     1     -24.754 -10.706   1.830  1.00  0.00    -0.000 C 
BRANCH   7   8
ATOM      8  C   UNL     1     -25.638 -11.872   1.362  1.00  0.00    -0.000 C 
BRANCH   8   9
ATOM      9  C   UNL     1     -25.755 -12.944   2.453  1.00  0.00    -0.000 C 
BRANCH   9  10
ATOM     10  C   UNL     1     -24.487 -12.992   3.316  1.00  0.00    -0.000 C 
BRANCH  10  11
ATOM     11  C   UNL     1     -24.651 -12.139   4.578  1.00  0.00    -0.003 C 
ATOM     12  C   UNL     1     -26.124 -11.903   4.896  1.00  0.00     0.004 C 
ENDBRANCH  10  11
ENDBRANCH   9  10
ENDBRANCH   8   9
ENDBRANCH   7   8
ENDBRANCH   6   7
ENDBRANCH   5   6
ENDBRANCH   4   5
ENDBRANCH   3   4
ENDBRANCH   2   3
ENDBRANCH   1   2
BRANCH   1  13
ATOM     13  C   UNL     1     -18.641 -12.783   2.503  1.00  0.00     0.000 C 
BRANCH  13  14
ATOM     14  C   UNL     1     -18.014 -12.985   1.111  1.00  0.00     0.000 C 
BRANCH  14  15
ATOM     15  C   UNL     1     -16.698 -12.207   0.943  1.00  0.00     0.000 C 
BRANCH  15  16
ATOM     16  C   UNL     1     -15.584 -12.736   1.862  1.00  0.00     0.000 C 
BRANCH  16  17
ATOM     17  C   UNL     1     -15.538 -12.012   3.218  1.00  0.00     0.000 C 
BRANCH  17  18
ATOM     18  C   UNL     1     -14.205 -11.300   3.528  1.00  0.00     0.000 C 
BRANCH  18  19
ATOM     19  C   UNL     1     -12.993 -11.891   2.776  1.00  0.00     0.000 C 
BRANCH  19  20
ATOM     20  C   UNL     1     -12.073 -12.702   3.702  1.00  0.00     0.006 C 
BRANCH  20  21
ATOM     21  C   UNL     1     -12.720 -12.920   5.072  1.00  0.00     0.053 C 
BRANCH  21  22
ATOM     22  C   UNL     1     -11.694 -12.811   6.154  1.00  0.00     0.041 C 
ATOM     23  O   UNL     1     -10.474 -12.726   5.861  1.00  0.00    -0.550 OA
ATOM     24  O   UNL     1     -12.079 -12.852   7.487  1.00  0.00    -0.550 OA
ENDBRANCH  21  22
ENDBRANCH  20  21
ENDBRANCH  19  20
ENDBRANCH  18  19
ENDBRANCH  17  18
ENDBRANCH  16  17
ENDBRANCH  15  16
ENDBRANCH  14  15
ENDBRANCH  13  14
ENDBRANCH   1  13
TORSDOF 20
ENDMDL
MODEL 6
REMARK VINA RESULT:    -1.386     11.700     14.490
REMARK INTER + INTRA:          -4.259
REMARK INTER:                  -3.198
REMARK INTRA:                  -1.061
REMARK UNBOUND:                -1.252
REMARK SMILES CCCCCCCCCCCCCCCCCCCCCC(=O)[O-]
REMARK SMILES IDX 12 1 11 2 10 3 9 4 8 5 7 6 6 7 5 8 4 9 3 10 2 11 1 12 13 13
REMARK SMILES IDX 14 14 15 15 16 16 17 17 18 18 19 19 20 20 21 21 22 22 23 23
REMARK SMILES IDX 24 24
REMARK H PARENT
REMARK Flexibility Score: inf
ROOT
ATOM      1  C   UNL     1     -22.173  -1.472   0.822  1.00  0.00     0.000 C 
ENDROOT
BRANCH   1   2
ATOM      2  C   UNL     1     -22.273  -0.139   0.061  1.00  0.00     0.000 C 
BRANCH   2   3
ATOM      3  C   UNL     1     -23.725   0.334  -0.125  1.00  0.00     0.000 C 
BRANCH   3   4
ATOM      4  C   UNL     1     -23.977   1.818   0.213  1.00  0.00    -0.000 C 
BRANCH   4   5
ATOM      5  C   UNL     1     -24.386   2.100   1.670  1.00  0.00    -0.000 C 
BRANCH   5   6
ATOM      6  C   UNL     1     -23.189   2.442   2.573  1.00  0.00    -0.000 C 
BRANCH   6   7
ATOM      7  C   UNL     1     -23.394   3.747   3.359  1.00  0.00    -0.000 C 
BRANCH   7   8
ATOM      8  C   UNL     1     -24.749   4.408   3.068  1.00  0.00    -0.000 C 
BRANCH   8   9
ATOM      9  C   UNL     1     -24.587   5.919   2.854  1.00  0.00    -0.000 C 
BRANCH   9  10
ATOM     10  C   UNL     1     -23.975   6.217   1.480  1.00  0.00    -0.000 C 
BRANCH  10  11
ATOM     11  C   UNL     1     -22.570   6.813   1.624  1.00  0.00    -0.003 C 
ATOM     12  C   UNL     1     -21.691   6.445   0.432  1.00  0.00     0.004 C 
ENDBRANCH  10  11
ENDBRANCH   9  10
ENDBRANCH   8   9
ENDBRANCH   7   8
ENDBRANCH   6   7
ENDBRANCH   5   6
ENDBRANCH   4   5
ENDBRANCH   3   4
ENDBRANCH   2   3
ENDBRANCH   1   2
BRANCH   1  13
ATOM     13  C   UNL     1     -22.332  -2.692  -0.099  1.00  0.00     0.000 C 
BRANCH  13  14
ATOM     14  C   UNL     1     -22.658  -3.980   0.680  1.00  0.00     0.000 C 
BRANCH  14  15
ATOM     15  C   UNL     1     -23.567  -4.931  -0.116  1.00  0.00     0.000 C 
BRANCH  15  16
ATOM     16  C   UNL     1     -23.359  -6.404   0.276  1.00  0.00     0.000 C 
BRANCH  16  17
ATOM     17  C   UNL     1     -24.544  -7.298  -0.125  1.00  0.00     0.000 C 
BRANCH  17  18
ATOM     18  C   UNL     1     -25.439  -7.752   1.046  1.00  0.00     0.000 C 
BRANCH  18  19
ATOM     19  C   UNL     1     -25.682  -9.276   1.091  1.00  0.00     0.000 C 
BRANCH  19  20
ATOM     20  C   UNL     1     -25.543  -9.845   2.511  1.00  0.00     0.006 C 
BRANCH  20  21
ATOM     21  C   UNL     1     -25.545 -11.376   2.498  1.00  0.00     0.053 C 
BRANCH  21  22
ATOM     22  C   UNL     1     -25.135 -11.908   3.834  1.00  0.00     0.041 C 
ATOM     23  O   UNL     1     -25.923 -12.632   4.493  1.00  0.00    -0.550 OA
ATOM     24  O   UNL     1     -23.904 -11.564   4.373  1.00  0.00    -0.550 OA
ENDBRANCH  21  22
ENDBRANCH  20  21
ENDBRANCH  19  20
ENDBRANCH  18  19
ENDBRANCH  17  18
ENDBRANCH  16  17
ENDBRANCH  15  16
ENDBRANCH  14  15
ENDBRANCH  13  14
ENDBRANCH   1  13
TORSDOF 20
ENDMDL
MODEL 7
REMARK VINA RESULT:    -1.332     11.566     14.261
REMARK INTER + INTRA:          -4.142
REMARK INTER:                  -3.063
REMARK INTRA:                  -1.079
REMARK UNBOUND:                -1.252
REMARK SMILES CCCCCCCCCCCCCCCCCCCCCC(=O)[O-]
REMARK SMILES IDX 12 1 11 2 10 3 9 4 8 5 7 6 6 7 5 8 4 9 3 10 2 11 1 12 13 13
REMARK SMILES IDX 14 14 15 15 16 16 17 17 18 18 19 19 20 20 21 21 22 22 23 23
REMARK SMILES IDX 24 24
REMARK H PARENT
REMARK Flexibility Score: inf
ROOT
ATOM      1  C   UNL     1     -22.711  -2.181   0.122  1.00  0.00     0.000 C 
ENDROOT
BRANCH   1   2
ATOM      2  C   UNL     1     -22.316  -3.647  -0.124  1.00  0.00     0.000 C 
BRANCH   2   3
ATOM      3  C   UNL     1     -23.181  -4.639   0.672  1.00  0.00     0.000 C 
BRANCH   3   4
ATOM      4  C   UNL     1     -23.619  -5.896  -0.108  1.00  0.00    -0.000 C 
BRANCH   4   5
ATOM      5  C   UNL     1     -24.810  -6.662   0.496  1.00  0.00    -0.000 C 
BRANCH   5   6
ATOM      6  C   UNL     1     -25.001  -8.057  -0.124  1.00  0.00    -0.000 C 
BRANCH   6   7
ATOM      7  C   UNL     1     -24.282  -9.160   0.669  1.00  0.00    -0.000 C 
BRANCH   7   8
ATOM      8  C   UNL     1     -24.741 -10.571   0.274  1.00  0.00    -0.000 C 
BRANCH   8   9
ATOM      9  C   UNL     1     -25.002 -11.430   1.518  1.00  0.00    -0.000 C 
BRANCH   9  10
ATOM     10  C   UNL     1     -23.819 -12.367   1.799  1.00  0.00    -0.000 C 
BRANCH  10  11
ATOM     11  C   UNL     1     -23.067 -11.936   3.062  1.00  0.00    -0.003 C 
ATOM     12  C   UNL     1     -24.019 -11.334   4.091  1.00  0.00     0.004 C 
ENDBRANCH  10  11
ENDBRANCH   9  10
ENDBRANCH   8   9
ENDBRANCH   7   8
ENDBRANCH   6   7
ENDBRANCH   5   6
ENDBRANCH   4   5
ENDBRANCH   3   4
ENDBRANCH   2   3
ENDBRANCH   1   2
BRANCH   1  13
ATOM     13  C   UNL     1     -21.856  -1.511   1.207  1.00  0.00     0.000 C 
BRANCH  13  14
ATOM     14  C   UNL     1     -21.438  -0.078   0.828  1.00  0.00     0.000 C 
BRANCH  14  15
ATOM     15  C   UNL     1     -22.617   0.754   0.297  1.00  0.00     0.000 C 
BRANCH  15  16
ATOM     16  C   UNL     1     -23.597   1.160   1.412  1.00  0.00     0.000 C 
BRANCH  16  17
ATOM     17  C   UNL     1     -24.986   1.541   0.873  1.00  0.00     0.000 C 
BRANCH  17  18
ATOM     18  C   UNL     1     -25.814   2.453   1.801  1.00  0.00     0.000 C 
BRANCH  18  19
ATOM     19  C   UNL     1     -25.285   2.513   3.250  1.00  0.00     0.000 C 
BRANCH  19  20
ATOM     20  C   UNL     1     -24.745   3.904   3.615  1.00  0.00     0.006 C 
BRANCH  20  21
ATOM     21  C   UNL     1     -24.900   4.881   2.447  1.00  0.00     0.053 C 
BRANCH  21  22
ATOM     22  C   UNL     1     -23.782   5.875   2.450  1.00  0.00     0.041 C 
ATOM     23  O   UNL     1     -22.796   5.717   1.686  1.00  0.00    -0.550 OA
ATOM     24  O   UNL     1     -23.806   6.948   3.330  1.00  0.00    -0.550 OA
ENDBRANCH  21  22
ENDBRANCH  20  21
ENDBRANCH  19  20
ENDBRANCH  18  19
ENDBRANCH  17  18
ENDBRANCH  16  17
ENDBRANCH  15  16
ENDBRANCH  14  15
ENDBRANCH  13  14
ENDBRANCH   1  13
TORSDOF 20
ENDMDL
