MODEL 1
REMARK VINA RESULT:    -6.241      0.000      0.000
REMARK INTER + INTRA:         -16.025
REMARK INTER:                 -14.268
REMARK INTRA:                  -1.757
REMARK UNBOUND:                -1.757
REMARK SMILES CCCCCCCCCCCCCCCCCCCCCCCC(=O)[O-]
REMARK SMILES IDX 13 1 14 2 15 3 16 4 17 5 18 6 19 7 20 8 21 9 22 10 23 11
REMARK SMILES IDX 24 12 25 13 26 14 12 15 11 16 10 17 9 18 8 19 7 20 6 21 5 22
REMARK SMILES IDX 4 23 3 24 2 25 1 26
REMARK H PARENT
REMARK Flexibility Score: inf
ROOT
ATOM      1  C   UNL     1      -9.614  11.666   3.269  1.00  0.00     0.000 C 
ENDROOT
BRANCH   1   2
ATOM      2  C   UNL     1      -9.038  12.898   3.992  1.00  0.00     0.000 C 
BRANCH   2   3
ATOM      3  C   UNL     1      -7.514  13.038   3.817  1.00  0.00     0.000 C 
BRANCH   3   4
ATOM      4  C   UNL     1      -6.884  12.099   2.773  1.00  0.00     0.000 C 
BRANCH   4   5
ATOM      5  C   UNL     1      -5.383  11.808   2.965  1.00  0.00     0.000 C 
BRANCH   5   6
ATOM      6  C   UNL     1      -5.083  10.684   3.980  1.00  0.00     0.000 C 
BRANCH   6   7
ATOM      7  C   UNL     1      -4.724   9.349   3.305  1.00  0.00     0.000 C 
BRANCH   7   8
ATOM      8  C   UNL     1      -4.146   8.322   4.292  1.00  0.00     0.000 C 
BRANCH   8   9
ATOM      9  C   UNL     1      -5.226   7.662   5.161  1.00  0.00     0.000 C 
BRANCH   9  10
ATOM     10  C   UNL     1      -5.013   7.998   6.644  1.00  0.00     0.006 C 
BRANCH  10  11
ATOM     11  C   UNL     1      -3.586   8.488   6.934  1.00  0.00     0.053 C 
BRANCH  11  12
ATOM     12  C   UNL     1      -3.582   9.800   7.657  1.00  0.00     0.041 C 
ATOM     13  O   UNL     1      -4.101   9.895   8.801  1.00  0.00    -0.550 OA
ATOM     14  O   UNL     1      -2.983  10.912   7.078  1.00  0.00    -0.550 OA
ENDBRANCH  11  12
ENDBRANCH  10  11
ENDBRANCH   9  10
ENDBRANCH   8   9
ENDBRANCH   7   8
ENDBRANCH   6   7
ENDBRANCH   5   6
ENDBRANCH   4   5
ENDBRANCH   3   4
ENDBRANCH   2   3
ENDBRANCH   1   2
BRANCH   1  15
ATOM     15  C   UNL     1     -11.005  11.278   3.795  1.00  0.00     0.000 C 
BRANCH  15  16
ATOM     16  C   UNL     1     -11.129  11.448   5.320  1.00  0.00     0.000 C 
BRANCH  16  17
ATOM     17  C   UNL     1     -12.279  10.621   5.917  1.00  0.00     0.000 C 
BRANCH  17  18
ATOM     18  C   UNL     1     -12.069  10.306   7.408  1.00  0.00    -0.000 C 
BRANCH  18  19
ATOM     19  C   UNL     1     -13.019  11.101   8.320  1.00  0.00    -0.000 C 
BRANCH  19  20
ATOM     20  C   UNL     1     -12.518  12.527   8.603  1.00  0.00    -0.000 C 
BRANCH  20  21
ATOM     21  C   UNL     1     -11.057  12.557   9.083  1.00  0.00    -0.000 C 
BRANCH  21  22
ATOM     22  C   UNL     1     -10.541  13.987   9.315  1.00  0.00    -0.000 C 
BRANCH  22  23
ATOM     23  C   UNL     1      -9.207  14.261   8.595  1.00  0.00    -0.000 C 
BRANCH  23  24
ATOM     24  C   UNL     1      -8.100  14.856   9.485  1.00  0.00    -0.000 C 
BRANCH  24  25
ATOM     25  C   UNL     1      -7.621  13.901  10.599  1.00  0.00    -0.003 C 
ATOM     26  C   UNL     1      -7.486  14.604  11.948  1.00  0.00     0.004 C 
ENDBRANCH  24  25
ENDBRANCH  23  24
ENDBRANCH  22  23
ENDBRANCH  21  22
ENDBRANCH  20  21
ENDBRANCH  19  20
ENDBRANCH  18  19
ENDBRANCH  17  18
ENDBRANCH  16  17
ENDBRANCH  15  16
ENDBRANCH   1  15
TORSDOF 22
ENDMDL
MODEL 2
REMARK VINA RESULT:    -6.150      2.639      7.733
REMARK INTER + INTRA:         -15.817
REMARK INTER:                 -13.806
REMARK INTRA:                  -2.011
REMARK UNBOUND:                -1.757
REMARK SMILES CCCCCCCCCCCCCCCCCCCCCCCC(=O)[O-]
REMARK SMILES IDX 13 1 14 2 15 3 16 4 17 5 18 6 19 7 20 8 21 9 22 10 23 11
REMARK SMILES IDX 24 12 25 13 26 14 12 15 11 16 10 17 9 18 8 19 7 20 6 21 5 22
REMARK SMILES IDX 4 23 3 24 2 25 1 26
REMARK H PARENT
REMARK Flexibility Score: inf
ROOT
ATOM      1  C   UNL     1      -9.872  12.494   2.948  1.00  0.00     0.000 C 
ENDROOT
BRANCH   1   2
ATOM      2  C   UNL     1     -10.896  11.513   3.546  1.00  0.00     0.000 C 
BRANCH   2   3
ATOM      3  C   UNL     1     -10.919  11.535   5.086  1.00  0.00     0.000 C 
BRANCH   3   4
ATOM      4  C   UNL     1     -12.243  11.083   5.729  1.00  0.00     0.000 C 
BRANCH   4   5
ATOM      5  C   UNL     1     -12.110  10.030   6.847  1.00  0.00     0.000 C 
BRANCH   5   6
ATOM      6  C   UNL     1     -12.643  10.497   8.218  1.00  0.00     0.000 C 
BRANCH   6   7
ATOM      7  C   UNL     1     -13.256  11.908   8.173  1.00  0.00     0.000 C 
BRANCH   7   8
ATOM      8  C   UNL     1     -12.353  12.969   8.821  1.00  0.00     0.000 C 
BRANCH   8   9
ATOM      9  C   UNL     1     -10.908  12.483   9.009  1.00  0.00     0.000 C 
BRANCH   9  10
ATOM     10  C   UNL     1      -9.909  13.606   8.695  1.00  0.00     0.006 C 
BRANCH  10  11
ATOM     11  C   UNL     1      -9.377  14.285   9.966  1.00  0.00     0.053 C 
BRANCH  11  12
ATOM     12  C   UNL     1      -9.654  15.758   9.970  1.00  0.00     0.041 C 
ATOM     13  O   UNL     1     -10.695  16.208   9.422  1.00  0.00    -0.550 OA
ATOM     14  O   UNL     1      -8.776  16.630  10.601  1.00  0.00    -0.550 OA
ENDBRANCH  11  12
ENDBRANCH  10  11
ENDBRANCH   9  10
ENDBRANCH   8   9
ENDBRANCH   7   8
ENDBRANCH   6   7
ENDBRANCH   5   6
ENDBRANCH   4   5
ENDBRANCH   3   4
ENDBRANCH   2   3
ENDBRANCH   1   2
BRANCH   1  15
ATOM     15  C   UNL     1      -9.166  13.332   4.026  1.00  0.00     0.000 C 
BRANCH  15  16
ATOM     16  C   UNL     1      -7.632  13.259   3.921  1.00  0.00     0.000 C 
BRANCH  16  17
ATOM     17  C   UNL     1      -7.131  13.379   2.473  1.00  0.00     0.000 C 
BRANCH  17  18
ATOM     18  C   UNL     1      -6.076  12.316   2.121  1.00  0.00    -0.000 C 
BRANCH  18  19
ATOM     19  C   UNL     1      -6.703  10.968   1.730  1.00  0.00    -0.000 C 
BRANCH  19  20
ATOM     20  C   UNL     1      -6.837  10.005   2.923  1.00  0.00    -0.000 C 
BRANCH  20  21
ATOM     21  C   UNL     1      -5.800   8.870   2.885  1.00  0.00    -0.000 C 
BRANCH  21  22
ATOM     22  C   UNL     1      -4.585   9.150   3.786  1.00  0.00    -0.000 C 
BRANCH  22  23
ATOM     23  C   UNL     1      -4.731   8.535   5.190  1.00  0.00    -0.000 C 
BRANCH  23  24
ATOM     24  C   UNL     1      -4.247   9.431   6.344  1.00  0.00    -0.000 C 
BRANCH  24  25
ATOM     25  C   UNL     1      -4.359   8.767   7.733  1.00  0.00    -0.003 C 
ATOM     26  C   UNL     1      -5.367   7.619   7.748  1.00  0.00     0.004 C 
ENDBRANCH  24  25
ENDBRANCH  23  24
ENDBRANCH  22  23
ENDBRANCH  21  22
ENDBRANCH  20  21
ENDBRANCH  19  20
ENDBRANCH  18  19
ENDBRANCH  17  18
ENDBRANCH  16  17
ENDBRANCH  15  16
ENDBRANCH   1  15
TORSDOF 22
ENDMDL
MODEL 3
REMARK VINA RESULT:    -6.145      2.149      7.488
REMARK INTER + INTRA:         -15.805
REMARK INTER:                 -14.112
REMARK INTRA:                  -1.693
REMARK UNBOUND:                -1.757
REMARK SMILES CCCCCCCCCCCCCCCCCCCCCCCC(=O)[O-]
REMARK SMILES IDX 13 1 14 2 15 3 16 4 17 5 18 6 19 7 20 8 21 9 22 10 23 11
REMARK SMILES IDX 24 12 25 13 26 14 12 15 11 16 10 17 9 18 8 19 7 20 6 21 5 22
REMARK SMILES IDX 4 23 3 24 2 25 1 26
REMARK H PARENT
REMARK Flexibility Score: inf
ROOT
ATOM      1  C   UNL     1      -8.382  13.188   3.875  1.00  0.00     0.000 C 
ENDROOT
BRANCH   1   2
ATOM      2  C   UNL     1      -9.800  13.118   3.279  1.00  0.00     0.000 C 
BRANCH   2   3
ATOM      3  C   UNL     1     -10.175  11.708   2.786  1.00  0.00     0.000 C 
BRANCH   3   4
ATOM      4  C   UNL     1     -11.138  10.928   3.699  1.00  0.00     0.000 C 
BRANCH   4   5
ATOM      5  C   UNL     1     -11.222  11.430   5.154  1.00  0.00     0.000 C 
BRANCH   5   6
ATOM      6  C   UNL     1     -11.972  10.475   6.107  1.00  0.00     0.000 C 
BRANCH   6   7
ATOM      7  C   UNL     1     -11.916  10.930   7.576  1.00  0.00     0.000 C 
BRANCH   7   8
ATOM      8  C   UNL     1     -10.912  12.070   7.806  1.00  0.00     0.000 C 
BRANCH   8   9
ATOM      9  C   UNL     1     -10.761  12.438   9.289  1.00  0.00     0.000 C 
BRANCH   9  10
ATOM     10  C   UNL     1     -10.470  13.936   9.454  1.00  0.00     0.006 C 
BRANCH  10  11
ATOM     11  C   UNL     1      -9.098  14.330   8.887  1.00  0.00     0.053 C 
BRANCH  11  12
ATOM     12  C   UNL     1      -8.140  14.727   9.969  1.00  0.00     0.041 C 
ATOM     13  O   UNL     1      -7.382  13.867  10.491  1.00  0.00    -0.550 OA
ATOM     14  O   UNL     1      -8.065  16.051  10.381  1.00  0.00    -0.550 OA
ENDBRANCH  11  12
ENDBRANCH  10  11
ENDBRANCH   9  10
ENDBRANCH   8   9
ENDBRANCH   7   8
ENDBRANCH   6   7
ENDBRANCH   5   6
ENDBRANCH   4   5
ENDBRANCH   3   4
ENDBRANCH   2   3
ENDBRANCH   1   2
BRANCH   1  15
ATOM     15  C   UNL     1      -7.366  13.798   2.894  1.00  0.00     0.000 C 
BRANCH  15  16
ATOM     16  C   UNL     1      -6.406  12.747   2.309  1.00  0.00     0.000 C 
BRANCH  16  17
ATOM     17  C   UNL     1      -6.496  11.394   3.033  1.00  0.00     0.000 C 
BRANCH  17  18
ATOM     18  C   UNL     1      -5.234  11.076   3.854  1.00  0.00    -0.000 C 
BRANCH  18  19
ATOM     19  C   UNL     1      -4.672   9.677   3.555  1.00  0.00    -0.000 C 
BRANCH  19  20
ATOM     20  C   UNL     1      -4.719   8.742   4.777  1.00  0.00    -0.000 C 
BRANCH  20  21
ATOM     21  C   UNL     1      -4.220   9.423   6.062  1.00  0.00    -0.000 C 
BRANCH  21  22
ATOM     22  C   UNL     1      -4.355   8.520   7.300  1.00  0.00    -0.000 C 
BRANCH  22  23
ATOM     23  C   UNL     1      -3.474   7.260   7.215  1.00  0.00    -0.000 C 
BRANCH  23  24
ATOM     24  C   UNL     1      -4.229   5.928   7.371  1.00  0.00    -0.000 C 
BRANCH  24  25
ATOM     25  C   UNL     1      -5.745   6.041   7.103  1.00  0.00    -0.003 C 
ATOM     26  C   UNL     1      -6.580   5.679   8.329  1.00  0.00     0.004 C 
ENDBRANCH  24  25
ENDBRANCH  23  24
ENDBRANCH  22  23
ENDBRANCH  21  22
ENDBRANCH  20  21
ENDBRANCH  19  20
ENDBRANCH  18  19
ENDBRANCH  17  18
ENDBRANCH  16  17
ENDBRANCH  15  16
ENDBRANCH   1  15
TORSDOF 22
ENDMDL
MODEL 4
REMARK VINA RESULT:    -6.071      1.722      7.182
REMARK INTER + INTRA:         -15.636
REMARK INTER:                 -13.921
REMARK INTRA:                  -1.715
REMARK UNBOUND:                -1.757
REMARK SMILES CCCCCCCCCCCCCCCCCCCCCCCC(=O)[O-]
REMARK SMILES IDX 13 1 14 2 15 3 16 4 17 5 18 6 19 7 20 8 21 9 22 10 23 11
REMARK SMILES IDX 24 12 25 13 26 14 12 15 11 16 10 17 9 18 8 19 7 20 6 21 5 22
REMARK SMILES IDX 4 23 3 24 2 25 1 26
REMARK H PARENT
REMARK Flexibility Score: inf
ROOT
ATOM      1  C   UNL     1     -10.778  11.821   4.717  1.00  0.00     0.000 C 
ENDROOT
BRANCH   1   2
ATOM      2  C   UNL     1     -11.639  10.771   5.443  1.00  0.00     0.000 C 
BRANCH   2   3
ATOM      3  C   UNL     1     -11.962  11.162   6.898  1.00  0.00     0.000 C 
BRANCH   3   4
ATOM      4  C   UNL     1     -10.905  12.041   7.590  1.00  0.00     0.000 C 
BRANCH   4   5
ATOM      5  C   UNL     1     -11.294  12.567   8.986  1.00  0.00     0.000 C 
BRANCH   5   6
ATOM      6  C   UNL     1     -10.434  13.753   9.474  1.00  0.00     0.000 C 
BRANCH   6   7
ATOM      7  C   UNL     1      -9.324  14.136   8.480  1.00  0.00     0.000 C 
BRANCH   7   8
ATOM      8  C   UNL     1      -8.012  14.528   9.177  1.00  0.00     0.000 C 
BRANCH   8   9
ATOM      9  C   UNL     1      -8.202  14.832  10.670  1.00  0.00     0.000 C 
BRANCH   9  10
ATOM     10  C   UNL     1      -7.227  14.009  11.524  1.00  0.00     0.006 C 
BRANCH  10  11
ATOM     11  C   UNL     1      -7.789  12.624  11.880  1.00  0.00     0.053 C 
BRANCH  11  12
ATOM     12  C   UNL     1      -6.752  11.745  12.509  1.00  0.00     0.041 C 
ATOM     13  O   UNL     1      -6.399  10.676  11.943  1.00  0.00    -0.550 OA
ATOM     14  O   UNL     1      -6.155  12.119  13.706  1.00  0.00    -0.550 OA
ENDBRANCH  11  12
ENDBRANCH  10  11
ENDBRANCH   9  10
ENDBRANCH   8   9
ENDBRANCH   7   8
ENDBRANCH   6   7
ENDBRANCH   5   6
ENDBRANCH   4   5
ENDBRANCH   3   4
ENDBRANCH   2   3
ENDBRANCH   1   2
BRANCH   1  15
ATOM     15  C   UNL     1     -10.701  11.567   3.202  1.00  0.00     0.000 C 
BRANCH  15  16
ATOM     16  C   UNL     1      -9.260  11.632   2.665  1.00  0.00     0.000 C 
BRANCH  16  17
ATOM     17  C   UNL     1      -8.314  12.405   3.598  1.00  0.00     0.000 C 
BRANCH  17  18
ATOM     18  C   UNL     1      -6.837  12.268   3.190  1.00  0.00    -0.000 C 
BRANCH  18  19
ATOM     19  C   UNL     1      -6.368  10.804   3.155  1.00  0.00    -0.000 C 
BRANCH  19  20
ATOM     20  C   UNL     1      -4.945  10.621   3.710  1.00  0.00    -0.000 C 
BRANCH  20  21
ATOM     21  C   UNL     1      -4.357   9.237   3.389  1.00  0.00    -0.000 C 
BRANCH  21  22
ATOM     22  C   UNL     1      -4.810   8.157   4.386  1.00  0.00    -0.000 C 
BRANCH  22  23
ATOM     23  C   UNL     1      -4.063   8.239   5.731  1.00  0.00    -0.000 C 
BRANCH  23  24
ATOM     24  C   UNL     1      -4.969   8.253   6.976  1.00  0.00    -0.000 C 
BRANCH  24  25
ATOM     25  C   UNL     1      -4.315   8.911   8.209  1.00  0.00    -0.003 C 
ATOM     26  C   UNL     1      -3.770  10.305   7.903  1.00  0.00     0.004 C 
ENDBRANCH  24  25
ENDBRANCH  23  24
ENDBRANCH  22  23
ENDBRANCH  21  22
ENDBRANCH  20  21
ENDBRANCH  19  20
ENDBRANCH  18  19
ENDBRANCH  17  18
ENDBRANCH  16  17
ENDBRANCH  15  16
ENDBRANCH   1  15
TORSDOF 22
ENDMDL
MODEL 5
REMARK VINA RESULT:    -6.051      1.244      2.825
REMARK INTER + INTRA:         -15.590
REMARK INTER:                 -13.829
REMARK INTRA:                  -1.762
REMARK UNBOUND:                -1.757
REMARK SMILES CCCCCCCCCCCCCCCCCCCCCCCC(=O)[O-]
REMARK SMILES IDX 13 1 14 2 15 3 16 4 17 5 18 6 19 7 20 8 21 9 22 10 23 11
REMARK SMILES IDX 24 12 25 13 26 14 12 15 11 16 10 17 9 18 8 19 7 20 6 21 5 22
REMARK SMILES IDX 4 23 3 24 2 25 1 26
REMARK H PARENT
REMARK Flexibility Score: inf
ROOT
ATOM      1  C   UNL     1     -11.252  11.535   5.305  1.00  0.00     0.000 C 
ENDROOT
BRANCH   1   2
ATOM      2  C   UNL     1     -10.786  11.159   3.886  1.00  0.00     0.000 C 
BRANCH   2   3
ATOM      3  C   UNL     1      -9.842  12.207   3.267  1.00  0.00     0.000 C 
BRANCH   3   4
ATOM      4  C   UNL     1      -9.107  13.105   4.278  1.00  0.00     0.000 C 
BRANCH   4   5
ATOM      5  C   UNL     1      -7.612  13.345   3.985  1.00  0.00     0.000 C 
BRANCH   5   6
ATOM      6  C   UNL     1      -7.187  12.986   2.545  1.00  0.00     0.000 C 
BRANCH   6   7
ATOM      7  C   UNL     1      -6.028  11.975   2.498  1.00  0.00     0.000 C 
BRANCH   7   8
ATOM      8  C   UNL     1      -6.506  10.535   2.253  1.00  0.00     0.000 C 
BRANCH   8   9
ATOM      9  C   UNL     1      -6.083   9.572   3.371  1.00  0.00     0.000 C 
BRANCH   9  10
ATOM     10  C   UNL     1      -4.816  10.075   4.076  1.00  0.00     0.006 C 
BRANCH  10  11
ATOM     11  C   UNL     1      -4.002   8.932   4.701  1.00  0.00     0.053 C 
BRANCH  11  12
ATOM     12  C   UNL     1      -4.162   8.882   6.190  1.00  0.00     0.041 C 
ATOM     13  O   UNL     1      -3.399   9.555   6.932  1.00  0.00    -0.550 OA
ATOM     14  O   UNL     1      -5.170   8.112   6.756  1.00  0.00    -0.550 OA
ENDBRANCH  11  12
ENDBRANCH  10  11
ENDBRANCH   9  10
ENDBRANCH   8   9
ENDBRANCH   7   8
ENDBRANCH   6   7
ENDBRANCH   5   6
ENDBRANCH   4   5
ENDBRANCH   3   4
ENDBRANCH   2   3
ENDBRANCH   1   2
BRANCH   1  15
ATOM     15  C   UNL     1     -11.996  10.382   6.000  1.00  0.00     0.000 C 
BRANCH  15  16
ATOM     16  C   UNL     1     -12.039  10.545   7.530  1.00  0.00     0.000 C 
BRANCH  16  17
ATOM     17  C   UNL     1     -13.132  11.524   7.991  1.00  0.00     0.000 C 
BRANCH  17  18
ATOM     18  C   UNL     1     -12.568  12.698   8.810  1.00  0.00    -0.000 C 
BRANCH  18  19
ATOM     19  C   UNL     1     -11.031  12.710   8.844  1.00  0.00    -0.000 C 
BRANCH  19  20
ATOM     20  C   UNL     1     -10.459  13.995   9.467  1.00  0.00    -0.000 C 
BRANCH  20  21
ATOM     21  C   UNL     1      -8.962  14.181   9.172  1.00  0.00    -0.000 C 
BRANCH  21  22
ATOM     22  C   UNL     1      -8.309  15.243  10.072  1.00  0.00    -0.000 C 
BRANCH  22  23
ATOM     23  C   UNL     1      -7.448  14.628  11.191  1.00  0.00    -0.000 C 
BRANCH  23  24
ATOM     24  C   UNL     1      -7.782  13.165  11.536  1.00  0.00    -0.000 C 
BRANCH  24  25
ATOM     25  C   UNL     1      -6.885  12.570  12.642  1.00  0.00    -0.003 C 
ATOM     26  C   UNL     1      -6.439  11.144  12.323  1.00  0.00     0.004 C 
ENDBRANCH  24  25
ENDBRANCH  23  24
ENDBRANCH  22  23
ENDBRANCH  21  22
ENDBRANCH  20  21
ENDBRANCH  19  20
ENDBRANCH  18  19
ENDBRANCH  17  18
ENDBRANCH  16  17
ENDBRANCH  15  16
ENDBRANCH   1  15
TORSDOF 22
ENDMDL
MODEL 6
REMARK VINA RESULT:    -6.051      1.998      3.018
REMARK INTER + INTRA:         -15.589
REMARK INTER:                 -13.909
REMARK INTRA:                  -1.680
REMARK UNBOUND:                -1.757
REMARK SMILES CCCCCCCCCCCCCCCCCCCCCCCC(=O)[O-]
REMARK SMILES IDX 13 1 14 2 15 3 16 4 17 5 18 6 19 7 20 8 21 9 22 10 23 11
REMARK SMILES IDX 24 12 25 13 26 14 12 15 11 16 10 17 9 18 8 19 7 20 6 21 5 22
REMARK SMILES IDX 4 23 3 24 2 25 1 26
REMARK H PARENT
REMARK Flexibility Score: inf
ROOT
ATOM      1  C   UNL     1      -7.808  13.416   4.097  1.00  0.00     0.000 C 
ENDROOT
BRANCH   1   2
ATOM      2  C   UNL     1      -7.404  13.010   2.668  1.00  0.00     0.000 C 
BRANCH   2   3
ATOM      3  C   UNL     1      -6.345  11.891   2.638  1.00  0.00     0.000 C 
BRANCH   3   4
ATOM      4  C   UNL     1      -6.755  10.622   1.870  1.00  0.00     0.000 C 
BRANCH   4   5
ATOM      5  C   UNL     1      -6.476   9.291   2.596  1.00  0.00     0.000 C 
BRANCH   5   6
ATOM      6  C   UNL     1      -5.150   9.269   3.384  1.00  0.00     0.000 C 
BRANCH   6   7
ATOM      7  C   UNL     1      -4.790   7.868   3.912  1.00  0.00     0.000 C 
BRANCH   7   8
ATOM      8  C   UNL     1      -5.481   7.540   5.245  1.00  0.00     0.000 C 
BRANCH   8   9
ATOM      9  C   UNL     1      -4.829   8.249   6.440  1.00  0.00     0.000 C 
BRANCH   9  10
ATOM     10  C   UNL     1      -5.366   7.689   7.766  1.00  0.00     0.006 C 
BRANCH  10  11
ATOM     11  C   UNL     1      -5.231   6.162   7.851  1.00  0.00     0.053 C 
BRANCH  11  12
ATOM     12  C   UNL     1      -6.557   5.495   8.057  1.00  0.00     0.041 C 
ATOM     13  O   UNL     1      -7.005   4.695   7.193  1.00  0.00    -0.550 OA
ATOM     14  O   UNL     1      -7.286   5.737   9.215  1.00  0.00    -0.550 OA
ENDBRANCH  11  12
ENDBRANCH  10  11
ENDBRANCH   9  10
ENDBRANCH   8   9
ENDBRANCH   7   8
ENDBRANCH   6   7
ENDBRANCH   5   6
ENDBRANCH   4   5
ENDBRANCH   3   4
ENDBRANCH   2   3
ENDBRANCH   1   2
BRANCH   1  15
ATOM     15  C   UNL     1      -9.311  13.224   4.356  1.00  0.00     0.000 C 
BRANCH  15  16
ATOM     16  C   UNL     1      -9.997  12.388   3.261  1.00  0.00     0.000 C 
BRANCH  16  17
ATOM     17  C   UNL     1     -10.870  11.261   3.836  1.00  0.00     0.000 C 
BRANCH  17  18
ATOM     18  C   UNL     1     -11.172  11.449   5.333  1.00  0.00    -0.000 C 
BRANCH  18  19
ATOM     19  C   UNL     1     -12.011  10.301   5.916  1.00  0.00    -0.000 C 
BRANCH  19  20
ATOM     20  C   UNL     1     -12.343  10.501   7.405  1.00  0.00    -0.000 C 
BRANCH  20  21
ATOM     21  C   UNL     1     -13.113  11.806   7.668  1.00  0.00    -0.000 C 
BRANCH  21  22
ATOM     22  C   UNL     1     -12.484  12.647   8.792  1.00  0.00    -0.000 C 
BRANCH  22  23
ATOM     23  C   UNL     1     -10.949  12.539   8.827  1.00  0.00    -0.000 C 
BRANCH  23  24
ATOM     24  C   UNL     1     -10.257  13.466   9.843  1.00  0.00    -0.000 C 
BRANCH  24  25
ATOM     25  C   UNL     1      -9.036  14.215   9.268  1.00  0.00    -0.003 C 
ATOM     26  C   UNL     1      -8.671  15.449  10.090  1.00  0.00     0.004 C 
ENDBRANCH  24  25
ENDBRANCH  23  24
ENDBRANCH  22  23
ENDBRANCH  21  22
ENDBRANCH  20  21
ENDBRANCH  19  20
ENDBRANCH  18  19
ENDBRANCH  17  18
ENDBRANCH  16  17
ENDBRANCH  15  16
ENDBRANCH   1  15
TORSDOF 22
ENDMDL
MODEL 7
REMARK VINA RESULT:    -6.015      2.370      7.162
REMARK INTER + INTRA:         -15.508
REMARK INTER:                 -13.190
REMARK INTRA:                  -2.318
REMARK UNBOUND:                -1.757
REMARK SMILES CCCCCCCCCCCCCCCCCCCCCCCC(=O)[O-]
REMARK SMILES IDX 13 1 14 2 15 3 16 4 17 5 18 6 19 7 20 8 21 9 22 10 23 11
REMARK SMILES IDX 24 12 25 13 26 14 12 15 11 16 10 17 9 18 8 19 7 20 6 21 5 22
REMARK SMILES IDX 4 23 3 24 2 25 1 26
REMARK H PARENT
REMARK Flexibility Score: inf
ROOT
ATOM      1  C   UNL     1     -12.569  12.328   8.558  1.00  0.00     0.000 C 
ENDROOT
BRANCH   1   2
ATOM      2  C   UNL     1     -11.095  12.248   8.993  1.00  0.00     0.000 C 
BRANCH   2   3
ATOM      3  C   UNL     1     -10.502  13.621   9.361  1.00  0.00     0.000 C 
BRANCH   3   4
ATOM      4  C   UNL     1      -9.361  14.108   8.450  1.00  0.00     0.000 C 
BRANCH   4   5
ATOM      5  C   UNL     1      -8.056  14.496   9.173  1.00  0.00     0.000 C 
BRANCH   5   6
ATOM      6  C   UNL     1      -8.273  15.161  10.550  1.00  0.00     0.000 C 
BRANCH   6   7
ATOM      7  C   UNL     1      -7.266  14.682  11.611  1.00  0.00     0.000 C 
BRANCH   7   8
ATOM      8  C   UNL     1      -7.339  13.167  11.856  1.00  0.00     0.000 C 
BRANCH   8   9
ATOM      9  C   UNL     1      -8.603  12.749  12.621  1.00  0.00     0.000 C 
BRANCH   9  10
ATOM     10  C   UNL     1      -9.024  11.322  12.243  1.00  0.00     0.006 C 
BRANCH  10  11
ATOM     11  C   UNL     1      -8.848  10.334  13.406  1.00  0.00     0.053 C 
BRANCH  11  12
ATOM     12  C   UNL     1      -7.408   9.985  13.629  1.00  0.00     0.041 C 
ATOM     13  O   UNL     1      -6.751   9.401  12.727  1.00  0.00    -0.550 OA
ATOM     14  O   UNL     1      -6.785  10.328  14.822  1.00  0.00    -0.550 OA
ENDBRANCH  11  12
ENDBRANCH  10  11
ENDBRANCH   9  10
ENDBRANCH   8   9
ENDBRANCH   7   8
ENDBRANCH   6   7
ENDBRANCH   5   6
ENDBRANCH   4   5
ENDBRANCH   3   4
ENDBRANCH   2   3
ENDBRANCH   1   2
BRANCH   1  15
ATOM     15  C   UNL     1     -12.911  11.305   7.462  1.00  0.00     0.000 C 
BRANCH  15  16
ATOM     16  C   UNL     1     -11.667  10.823   6.694  1.00  0.00     0.000 C 
BRANCH  16  17
ATOM     17  C   UNL     1     -11.208  11.825   5.622  1.00  0.00     0.000 C 
BRANCH  17  18
ATOM     18  C   UNL     1     -10.860  11.146   4.287  1.00  0.00    -0.000 C 
BRANCH  18  19
ATOM     19  C   UNL     1      -9.815  11.932   3.478  1.00  0.00    -0.000 C 
BRANCH  19  20
ATOM     20  C   UNL     1      -9.220  13.113   4.264  1.00  0.00    -0.000 C 
BRANCH  20  21
ATOM     21  C   UNL     1      -7.704  13.261   4.053  1.00  0.00    -0.000 C 
BRANCH  21  22
ATOM     22  C   UNL     1      -7.328  13.439   2.572  1.00  0.00    -0.000 C 
BRANCH  22  23
ATOM     23  C   UNL     1      -6.202  12.488   2.126  1.00  0.00    -0.000 C 
BRANCH  23  24
ATOM     24  C   UNL     1      -6.663  11.070   1.745  1.00  0.00    -0.000 C 
BRANCH  24  25
ATOM     25  C   UNL     1      -6.405  10.019   2.845  1.00  0.00    -0.003 C 
ATOM     26  C   UNL     1      -5.149  10.326   3.658  1.00  0.00     0.004 C 
ENDBRANCH  24  25
ENDBRANCH  23  24
ENDBRANCH  22  23
ENDBRANCH  21  22
ENDBRANCH  20  21
ENDBRANCH  19  20
ENDBRANCH  18  19
ENDBRANCH  17  18
ENDBRANCH  16  17
ENDBRANCH  15  16
ENDBRANCH   1  15
TORSDOF 22
ENDMDL
MODEL 8
REMARK VINA RESULT:    -5.951      3.894      5.820
REMARK INTER + INTRA:         -15.362
REMARK INTER:                 -12.994
REMARK INTRA:                  -2.368
REMARK UNBOUND:                -1.757
REMARK SMILES CCCCCCCCCCCCCCCCCCCCCCCC(=O)[O-]
REMARK SMILES IDX 13 1 14 2 15 3 16 4 17 5 18 6 19 7 20 8 21 9 22 10 23 11
REMARK SMILES IDX 24 12 25 13 26 14 12 15 11 16 10 17 9 18 8 19 7 20 6 21 5 22
REMARK SMILES IDX 4 23 3 24 2 25 1 26
REMARK H PARENT
REMARK Flexibility Score: inf
ROOT
ATOM      1  C   UNL     1     -10.884  11.858   5.781  1.00  0.00     0.000 C 
ENDROOT
BRANCH   1   2
ATOM      2  C   UNL     1     -10.987  11.475   4.294  1.00  0.00     0.000 C 
BRANCH   2   3
ATOM      3  C   UNL     1      -9.848  12.067   3.441  1.00  0.00     0.000 C 
BRANCH   3   4
ATOM      4  C   UNL     1      -9.160  13.308   4.038  1.00  0.00     0.000 C 
BRANCH   4   5
ATOM      5  C   UNL     1      -7.619  13.279   4.027  1.00  0.00     0.000 C 
BRANCH   5   6
ATOM      6  C   UNL     1      -7.015  12.232   3.066  1.00  0.00     0.000 C 
BRANCH   6   7
ATOM      7  C   UNL     1      -6.296  12.868   1.863  1.00  0.00     0.000 C 
BRANCH   7   8
ATOM      8  C   UNL     1      -7.264  13.566   0.894  1.00  0.00     0.000 C 
BRANCH   8   9
ATOM      9  C   UNL     1      -7.131  15.095   0.923  1.00  0.00     0.000 C 
BRANCH   9  10
ATOM     10  C   UNL     1      -6.583  15.621  -0.412  1.00  0.00     0.006 C 
BRANCH  10  11
ATOM     11  C   UNL     1      -5.133  16.115  -0.293  1.00  0.00     0.053 C 
BRANCH  11  12
ATOM     12  C   UNL     1      -4.179  15.225  -1.030  1.00  0.00     0.041 C 
ATOM     13  O   UNL     1      -3.115  15.698  -1.511  1.00  0.00    -0.550 OA
ATOM     14  O   UNL     1      -4.451  13.870  -1.162  1.00  0.00    -0.550 OA
ENDBRANCH  11  12
ENDBRANCH  10  11
ENDBRANCH   9  10
ENDBRANCH   8   9
ENDBRANCH   7   8
ENDBRANCH   6   7
ENDBRANCH   5   6
ENDBRANCH   4   5
ENDBRANCH   3   4
ENDBRANCH   2   3
ENDBRANCH   1   2
BRANCH   1  15
ATOM     15  C   UNL     1     -11.629  10.868   6.692  1.00  0.00     0.000 C 
BRANCH  15  16
ATOM     16  C   UNL     1     -12.092  11.513   8.011  1.00  0.00     0.000 C 
BRANCH  16  17
ATOM     17  C   UNL     1     -10.965  12.275   8.725  1.00  0.00     0.000 C 
BRANCH  17  18
ATOM     18  C   UNL     1     -11.433  13.624   9.299  1.00  0.00    -0.000 C 
BRANCH  18  19
ATOM     19  C   UNL     1     -10.354  14.714   9.200  1.00  0.00    -0.000 C 
BRANCH  19  20
ATOM     20  C   UNL     1      -9.064  14.217   8.526  1.00  0.00    -0.000 C 
BRANCH  20  21
ATOM     21  C   UNL     1      -7.803  14.555   9.338  1.00  0.00    -0.000 C 
BRANCH  21  22
ATOM     22  C   UNL     1      -8.113  15.395  10.589  1.00  0.00    -0.000 C 
BRANCH  22  23
ATOM     23  C   UNL     1      -7.762  14.664  11.898  1.00  0.00    -0.000 C 
BRANCH  23  24
ATOM     24  C   UNL     1      -7.382  13.182  11.732  1.00  0.00    -0.000 C 
BRANCH  24  25
ATOM     25  C   UNL     1      -8.127  12.239  12.701  1.00  0.00    -0.003 C 
ATOM     26  C   UNL     1      -9.303  11.531  12.031  1.00  0.00     0.004 C 
ENDBRANCH  24  25
ENDBRANCH  23  24
ENDBRANCH  22  23
ENDBRANCH  21  22
ENDBRANCH  20  21
ENDBRANCH  19  20
ENDBRANCH  18  19
ENDBRANCH  17  18
ENDBRANCH  16  17
ENDBRANCH  15  16
ENDBRANCH   1  15
TORSDOF 22
ENDMDL
MODEL 9
REMARK VINA RESULT:    -5.909      4.158      7.956
REMARK INTER + INTRA:         -15.265
REMARK INTER:                 -13.340
REMARK INTRA:                  -1.925
REMARK UNBOUND:                -1.757
REMARK SMILES CCCCCCCCCCCCCCCCCCCCCCCC(=O)[O-]
REMARK SMILES IDX 13 1 14 2 15 3 16 4 17 5 18 6 19 7 20 8 21 9 22 10 23 11
REMARK SMILES IDX 24 12 25 13 26 14 12 15 11 16 10 17 9 18 8 19 7 20 6 21 5 22
REMARK SMILES IDX 4 23 3 24 2 25 1 26
REMARK H PARENT
REMARK Flexibility Score: inf
ROOT
ATOM      1  C   UNL     1      -6.655  11.616   2.949  1.00  0.00     0.000 C 
ENDROOT
BRANCH   1   2
ATOM      2  C   UNL     1      -7.062  12.945   3.611  1.00  0.00     0.000 C 
BRANCH   2   3
ATOM      3  C   UNL     1      -8.511  13.357   3.288  1.00  0.00     0.000 C 
BRANCH   3   4
ATOM      4  C   UNL     1      -9.587  12.738   4.197  1.00  0.00     0.000 C 
BRANCH   4   5
ATOM      5  C   UNL     1     -10.486  11.678   3.532  1.00  0.00     0.000 C 
BRANCH   5   6
ATOM      6  C   UNL     1     -11.275  10.803   4.530  1.00  0.00     0.000 C 
BRANCH   6   7
ATOM      7  C   UNL     1     -11.456  11.478   5.902  1.00  0.00     0.000 C 
BRANCH   7   8
ATOM      8  C   UNL     1     -12.708  10.985   6.644  1.00  0.00     0.000 C 
BRANCH   8   9
ATOM      9  C   UNL     1     -12.420  10.603   8.103  1.00  0.00     0.000 C 
BRANCH   9  10
ATOM     10  C   UNL     1     -12.735   9.121   8.353  1.00  0.00     0.006 C 
BRANCH  10  11
ATOM     11  C   UNL     1     -13.598   8.512   7.237  1.00  0.00     0.053 C 
BRANCH  11  12
ATOM     12  C   UNL     1     -14.282   7.256   7.684  1.00  0.00     0.041 C 
ATOM     13  O   UNL     1     -14.828   7.200   8.818  1.00  0.00    -0.550 OA
ATOM     14  O   UNL     1     -14.340   6.156   6.837  1.00  0.00    -0.550 OA
ENDBRANCH  11  12
ENDBRANCH  10  11
ENDBRANCH   9  10
ENDBRANCH   8   9
ENDBRANCH   7   8
ENDBRANCH   6   7
ENDBRANCH   5   6
ENDBRANCH   4   5
ENDBRANCH   3   4
ENDBRANCH   2   3
ENDBRANCH   1   2
BRANCH   1  15
ATOM     15  C   UNL     1      -5.280  11.122   3.428  1.00  0.00     0.000 C 
BRANCH  15  16
ATOM     16  C   UNL     1      -5.140   9.591   3.345  1.00  0.00     0.000 C 
BRANCH  16  17
ATOM     17  C   UNL     1      -6.428   8.904   2.862  1.00  0.00     0.000 C 
BRANCH  17  18
ATOM     18  C   UNL     1      -6.172   7.498   2.293  1.00  0.00    -0.000 C 
BRANCH  18  19
ATOM     19  C   UNL     1      -5.118   6.718   3.097  1.00  0.00    -0.000 C 
BRANCH  19  20
ATOM     20  C   UNL     1      -5.742   5.793   4.156  1.00  0.00    -0.000 C 
BRANCH  20  21
ATOM     21  C   UNL     1      -5.072   5.933   5.533  1.00  0.00    -0.000 C 
BRANCH  21  22
ATOM     22  C   UNL     1      -5.671   7.079   6.367  1.00  0.00    -0.000 C 
BRANCH  22  23
ATOM     23  C   UNL     1      -4.652   8.196   6.660  1.00  0.00    -0.000 C 
BRANCH  23  24
ATOM     24  C   UNL     1      -4.585   8.644   8.131  1.00  0.00    -0.000 C 
BRANCH  24  25
ATOM     25  C   UNL     1      -3.964  10.043   8.325  1.00  0.00    -0.003 C 
ATOM     26  C   UNL     1      -3.610  10.711   6.998  1.00  0.00     0.004 C 
ENDBRANCH  24  25
ENDBRANCH  23  24
ENDBRANCH  22  23
ENDBRANCH  21  22
ENDBRANCH  20  21
ENDBRANCH  19  20
ENDBRANCH  18  19
ENDBRANCH  17  18
ENDBRANCH  16  17
ENDBRANCH  15  16
ENDBRANCH   1  15
TORSDOF 22
ENDMDL
