MODEL 1
REMARK VINA RESULT:    12.481      0.000      0.000
REMARK INTER + INTRA:          22.629
REMARK INTER:                  23.425
REMARK INTRA:                  -0.796
REMARK UNBOUND:                -0.796
REMARK SMILES CCCCCCCCC=CCCCCCCCC(=O)[O-]
REMARK SMILES IDX 10 1 9 2 11 3 12 4 13 5 14 6 15 7 16 8 17 9 18 10 19 11
REMARK SMILES IDX 20 12 8 13 7 14 6 15 5 16 4 17 3 18 2 19 1 20
REMARK H PARENT
REMARK Flexibility Score: inf
ROOT
ATOM      1  C   UNL     1       4.129  -8.422   5.357  1.00  0.00    -0.031 C 
ATOM      2  C   UNL     1       4.812  -7.266   5.271  1.00  0.00    -0.031 C 
ENDROOT
BRANCH   1   3
ATOM      3  C   UNL     1       2.998  -8.818   4.442  1.00  0.00     0.027 C 
BRANCH   3   4
ATOM      4  C   UNL     1       1.827  -9.396   5.250  1.00  0.00     0.004 C 
BRANCH   4   5
ATOM      5  C   UNL     1       0.740 -10.026   4.361  1.00  0.00     0.000 C 
BRANCH   5   6
ATOM      6  C   UNL     1      -0.702  -9.624   4.715  1.00  0.00     0.000 C 
BRANCH   6   7
ATOM      7  C   UNL     1      -1.718 -10.021   3.634  1.00  0.00     0.000 C 
BRANCH   7   8
ATOM      8  C   UNL     1      -3.132 -10.121   4.217  1.00  0.00     0.006 C 
BRANCH   8   9
ATOM      9  C   UNL     1      -3.163  -9.635   5.670  1.00  0.00     0.053 C 
BRANCH   9  10
ATOM     10  C   UNL     1      -4.558  -9.274   6.071  1.00  0.00     0.041 C 
ATOM     11  O   UNL     1      -5.502  -9.375   5.244  1.00  0.00    -0.550 OA
ATOM     12  O   UNL     1      -4.808  -8.779   7.345  1.00  0.00    -0.550 OA
ENDBRANCH   9  10
ENDBRANCH   8   9
ENDBRANCH   7   8
ENDBRANCH   6   7
ENDBRANCH   5   6
ENDBRANCH   4   5
ENDBRANCH   3   4
ENDBRANCH   1   3
BRANCH   2  13
ATOM     13  C   UNL     1       4.493  -6.155   4.299  1.00  0.00     0.027 C 
BRANCH  13  14
ATOM     14  C   UNL     1       5.038  -4.791   4.770  1.00  0.00     0.004 C 
BRANCH  14  15
ATOM     15  C   UNL     1       4.941  -3.682   3.708  1.00  0.00     0.000 C 
BRANCH  15  16
ATOM     16  C   UNL     1       4.272  -2.404   4.241  1.00  0.00     0.000 C 
BRANCH  16  17
ATOM     17  C   UNL     1       5.192  -1.605   5.178  1.00  0.00    -0.000 C 
BRANCH  17  18
ATOM     18  C   UNL     1       6.559  -1.300   4.540  1.00  0.00    -0.000 C 
BRANCH  18  19
ATOM     19  C   UNL     1       7.732  -1.820   5.386  1.00  0.00    -0.003 C 
ATOM     20  C   UNL     1       8.819  -2.491   4.547  1.00  0.00     0.004 C 
ENDBRANCH  18  19
ENDBRANCH  17  18
ENDBRANCH  16  17
ENDBRANCH  15  16
ENDBRANCH  14  15
ENDBRANCH  13  14
ENDBRANCH   2  13
TORSDOF 15
ENDMDL
MODEL 2
REMARK VINA RESULT:    13.429      4.910     10.706
REMARK INTER + INTRA:          24.409
REMARK INTER:                  25.027
REMARK INTRA:                  -0.619
REMARK UNBOUND:                -0.796
REMARK SMILES CCCCCCCCC=CCCCCCCCC(=O)[O-]
REMARK SMILES IDX 10 1 9 2 11 3 12 4 13 5 14 6 15 7 16 8 17 9 18 10 19 11
REMARK SMILES IDX 20 12 8 13 7 14 6 15 5 16 4 17 3 18 2 19 1 20
REMARK H PARENT
REMARK Flexibility Score: inf
ROOT
ATOM      1  C   UNL     1       3.635  -8.050   4.504  1.00  0.00    -0.031 C 
ATOM      2  C   UNL     1       2.752  -9.042   4.717  1.00  0.00    -0.031 C 
ENDROOT
BRANCH   1   3
ATOM      3  C   UNL     1       3.436  -6.922   3.523  1.00  0.00     0.027 C 
BRANCH   3   4
ATOM      4  C   UNL     1       4.571  -5.895   3.644  1.00  0.00     0.004 C 
BRANCH   4   5
ATOM      5  C   UNL     1       4.642  -5.243   5.036  1.00  0.00     0.000 C 
BRANCH   5   6
ATOM      6  C   UNL     1       4.350  -3.732   5.061  1.00  0.00     0.000 C 
BRANCH   6   7
ATOM      7  C   UNL     1       4.919  -2.992   3.841  1.00  0.00     0.000 C 
BRANCH   7   8
ATOM      8  C   UNL     1       5.400  -1.588   4.224  1.00  0.00     0.006 C 
BRANCH   8   9
ATOM      9  C   UNL     1       6.371  -1.643   5.407  1.00  0.00     0.053 C 
BRANCH   9  10
ATOM     10  C   UNL     1       7.765  -1.901   4.929  1.00  0.00     0.041 C 
ATOM     11  O   UNL     1       8.018  -1.921   3.695  1.00  0.00    -0.550 OA
ATOM     12  O   UNL     1       8.775  -2.168   5.844  1.00  0.00    -0.550 OA
ENDBRANCH   9  10
ENDBRANCH   8   9
ENDBRANCH   7   8
ENDBRANCH   6   7
ENDBRANCH   5   6
ENDBRANCH   4   5
ENDBRANCH   3   4
ENDBRANCH   1   3
BRANCH   2  13
ATOM     13  C   UNL     1       1.466  -9.222   3.945  1.00  0.00     0.027 C 
BRANCH  13  14
ATOM     14  C   UNL     1       0.460 -10.125   4.688  1.00  0.00     0.004 C 
BRANCH  14  15
ATOM     15  C   UNL     1      -0.670  -9.351   5.390  1.00  0.00     0.000 C 
BRANCH  15  16
ATOM     16  C   UNL     1      -2.069  -9.850   4.993  1.00  0.00     0.000 C 
BRANCH  16  17
ATOM     17  C   UNL     1      -3.186  -8.898   5.453  1.00  0.00    -0.000 C 
BRANCH  17  18
ATOM     18  C   UNL     1      -4.443  -9.651   5.923  1.00  0.00    -0.000 C 
BRANCH  18  19
ATOM     19  C   UNL     1      -5.463  -9.856   4.791  1.00  0.00    -0.003 C 
ATOM     20  C   UNL     1      -6.906  -9.640   5.246  1.00  0.00     0.004 C 
ENDBRANCH  18  19
ENDBRANCH  17  18
ENDBRANCH  16  17
ENDBRANCH  15  16
ENDBRANCH  14  15
ENDBRANCH  13  14
ENDBRANCH   2  13
TORSDOF 15
ENDMDL
