MODEL 1
REMARK VINA RESULT:    -6.240      0.000      0.000
REMARK INTER + INTRA:         -18.930
REMARK INTER:                 -16.455
REMARK INTRA:                  -2.475
REMARK UNBOUND:                -2.475
REMARK SMILES CCCCCCCCCCCCCCCCCCCCCCCCCCCCCC(=O)[O-]
REMARK SMILES IDX 16 1 17 2 18 3 19 4 20 5 21 6 22 7 23 8 24 9 25 10 26 11
REMARK SMILES IDX 27 12 28 13 29 14 30 15 31 16 32 17 15 18 14 19 13 20 12 21
REMARK SMILES IDX 11 22 10 23 9 24 8 25 7 26 6 27 5 28 4 29 3 30 2 31 1 32
REMARK H PARENT
REMARK Flexibility Score: inf
ROOT
ATOM      1  C   UNL     1      -8.974  62.753  45.792  1.00  0.00     0.000 C 
ENDROOT
BRANCH   1   2
ATOM      2  C   UNL     1      -8.989  62.638  47.327  1.00  0.00     0.000 C 
BRANCH   2   3
ATOM      3  C   UNL     1      -9.324  63.972  48.017  1.00  0.00     0.000 C 
BRANCH   3   4
ATOM      4  C   UNL     1      -8.790  64.046  49.455  1.00  0.00     0.000 C 
BRANCH   4   5
ATOM      5  C   UNL     1      -7.276  63.785  49.540  1.00  0.00     0.000 C 
BRANCH   5   6
ATOM      6  C   UNL     1      -6.459  65.084  49.653  1.00  0.00     0.000 C 
BRANCH   6   7
ATOM      7  C   UNL     1      -5.761  65.231  51.014  1.00  0.00     0.000 C 
BRANCH   7   8
ATOM      8  C   UNL     1      -6.479  66.270  51.889  1.00  0.00     0.000 C 
BRANCH   8   9
ATOM      9  C   UNL     1      -6.829  65.729  53.285  1.00  0.00     0.000 C 
BRANCH   9  10
ATOM     10  C   UNL     1      -7.730  64.482  53.230  1.00  0.00     0.000 C 
BRANCH  10  11
ATOM     11  C   UNL     1      -7.099  63.265  53.925  1.00  0.00     0.000 C 
BRANCH  11  12
ATOM     12  C   UNL     1      -7.370  61.949  53.181  1.00  0.00     0.000 C 
BRANCH  12  13
ATOM     13  C   UNL     1      -7.080  60.742  54.083  1.00  0.00     0.006 C 
BRANCH  13  14
ATOM     14  C   UNL     1      -6.328  61.140  55.360  1.00  0.00     0.053 C 
BRANCH  14  15
ATOM     15  C   UNL     1      -5.819  59.942  56.102  1.00  0.00     0.041 C 
ATOM     16  O   UNL     1      -4.665  59.949  56.606  1.00  0.00    -0.550 OA
ATOM     17  O   UNL     1      -6.610  58.804  56.209  1.00  0.00    -0.550 OA
ENDBRANCH  14  15
ENDBRANCH  13  14
ENDBRANCH  12  13
ENDBRANCH  11  12
ENDBRANCH  10  11
ENDBRANCH   9  10
ENDBRANCH   8   9
ENDBRANCH   7   8
ENDBRANCH   6   7
ENDBRANCH   5   6
ENDBRANCH   4   5
ENDBRANCH   3   4
ENDBRANCH   2   3
ENDBRANCH   1   2
BRANCH   1  18
ATOM     18  C   UNL     1      -9.439  61.488  45.042  1.00  0.00     0.000 C 
BRANCH  18  19
ATOM     19  C   UNL     1     -10.005  61.731  43.630  1.00  0.00     0.000 C 
BRANCH  19  20
ATOM     20  C   UNL     1     -10.020  63.217  43.234  1.00  0.00     0.000 C 
BRANCH  20  21
ATOM     21  C   UNL     1      -9.546  63.453  41.789  1.00  0.00     0.000 C 
BRANCH  21  22
ATOM     22  C   UNL     1      -9.692  64.919  41.322  1.00  0.00     0.000 C 
BRANCH  22  23
ATOM     23  C   UNL     1      -8.689  65.278  40.214  1.00  0.00     0.000 C 
BRANCH  23  24
ATOM     24  C   UNL     1      -8.650  64.212  39.097  1.00  0.00    -0.000 C 
BRANCH  24  25
ATOM     25  C   UNL     1     -10.002  64.018  38.391  1.00  0.00    -0.000 C 
BRANCH  25  26
ATOM     26  C   UNL     1     -10.400  62.543  38.254  1.00  0.00    -0.000 C 
BRANCH  26  27
ATOM     27  C   UNL     1     -11.721  62.269  38.988  1.00  0.00    -0.000 C 
BRANCH  27  28
ATOM     28  C   UNL     1     -11.552  61.187  40.065  1.00  0.00    -0.000 C 
BRANCH  28  29
ATOM     29  C   UNL     1     -12.602  60.072  39.928  1.00  0.00    -0.000 C 
BRANCH  29  30
ATOM     30  C   UNL     1     -13.187  59.998  38.506  1.00  0.00    -0.000 C 
BRANCH  30  31
ATOM     31  C   UNL     1     -14.708  60.224  38.488  1.00  0.00    -0.003 C 
ATOM     32  C   UNL     1     -15.180  61.067  39.676  1.00  0.00     0.004 C 
ENDBRANCH  30  31
ENDBRANCH  29  30
ENDBRANCH  28  29
ENDBRANCH  27  28
ENDBRANCH  26  27
ENDBRANCH  25  26
ENDBRANCH  24  25
ENDBRANCH  23  24
ENDBRANCH  22  23
ENDBRANCH  21  22
ENDBRANCH  20  21
ENDBRANCH  19  20
ENDBRANCH  18  19
ENDBRANCH   1  18
TORSDOF 28
ENDMDL
MODEL 2
REMARK VINA RESULT:    -6.229      5.403     13.620
REMARK INTER + INTRA:         -18.900
REMARK INTER:                 -16.543
REMARK INTRA:                  -2.357
REMARK UNBOUND:                -2.475
REMARK SMILES CCCCCCCCCCCCCCCCCCCCCCCCCCCCCC(=O)[O-]
REMARK SMILES IDX 16 1 17 2 18 3 19 4 20 5 21 6 22 7 23 8 24 9 25 10 26 11
REMARK SMILES IDX 27 12 28 13 29 14 30 15 31 16 32 17 15 18 14 19 13 20 12 21
REMARK SMILES IDX 11 22 10 23 9 24 8 25 7 26 6 27 5 28 4 29 3 30 2 31 1 32
REMARK H PARENT
REMARK Flexibility Score: inf
ROOT
ATOM      1  C   UNL     1      -9.635  63.425  43.431  1.00  0.00     0.000 C 
ENDROOT
BRANCH   1   2
ATOM      2  C   UNL     1      -9.695  63.791  41.937  1.00  0.00     0.000 C 
BRANCH   2   3
ATOM      3  C   UNL     1      -9.410  65.281  41.681  1.00  0.00     0.000 C 
BRANCH   3   4
ATOM      4  C   UNL     1      -8.896  65.550  40.259  1.00  0.00     0.000 C 
BRANCH   4   5
ATOM      5  C   UNL     1      -8.756  64.263  39.426  1.00  0.00     0.000 C 
BRANCH   5   6
ATOM      6  C   UNL     1      -9.581  64.307  38.129  1.00  0.00     0.000 C 
BRANCH   6   7
ATOM      7  C   UNL     1     -10.420  63.038  37.915  1.00  0.00     0.000 C 
BRANCH   7   8
ATOM      8  C   UNL     1     -11.309  62.755  39.136  1.00  0.00     0.000 C 
BRANCH   8   9
ATOM      9  C   UNL     1     -11.075  61.355  39.728  1.00  0.00     0.000 C 
BRANCH   9  10
ATOM     10  C   UNL     1     -12.101  60.991  40.815  1.00  0.00     0.000 C 
BRANCH  10  11
ATOM     11  C   UNL     1     -13.150  59.979  40.326  1.00  0.00     0.000 C 
BRANCH  11  12
ATOM     12  C   UNL     1     -13.147  59.811  38.799  1.00  0.00     0.000 C 
BRANCH  12  13
ATOM     13  C   UNL     1     -14.564  59.969  38.231  1.00  0.00     0.006 C 
BRANCH  13  14
ATOM     14  C   UNL     1     -15.042  61.427  38.262  1.00  0.00     0.053 C 
BRANCH  14  15
ATOM     15  C   UNL     1     -16.537  61.521  38.273  1.00  0.00     0.041 C 
ATOM     16  O   UNL     1     -17.237  60.493  38.473  1.00  0.00    -0.550 OA
ATOM     17  O   UNL     1     -17.159  62.741  38.030  1.00  0.00    -0.550 OA
ENDBRANCH  14  15
ENDBRANCH  13  14
ENDBRANCH  12  13
ENDBRANCH  11  12
ENDBRANCH  10  11
ENDBRANCH   9  10
ENDBRANCH   8   9
ENDBRANCH   7   8
ENDBRANCH   6   7
ENDBRANCH   5   6
ENDBRANCH   4   5
ENDBRANCH   3   4
ENDBRANCH   2   3
ENDBRANCH   1   2
BRANCH   1  18
ATOM     18  C   UNL     1      -9.866  61.933  43.744  1.00  0.00     0.000 C 
BRANCH  18  19
ATOM     19  C   UNL     1      -9.462  61.487  45.162  1.00  0.00     0.000 C 
BRANCH  19  20
ATOM     20  C   UNL     1      -8.966  62.649  46.041  1.00  0.00     0.000 C 
BRANCH  20  21
ATOM     21  C   UNL     1      -8.988  62.311  47.542  1.00  0.00     0.000 C 
BRANCH  21  22
ATOM     22  C   UNL     1      -9.613  63.421  48.416  1.00  0.00     0.000 C 
BRANCH  22  23
ATOM     23  C   UNL     1      -8.618  64.556  48.712  1.00  0.00     0.000 C 
BRANCH  23  24
ATOM     24  C   UNL     1      -7.459  64.091  49.620  1.00  0.00    -0.000 C 
BRANCH  24  25
ATOM     25  C   UNL     1      -6.589  65.247  50.140  1.00  0.00    -0.000 C 
BRANCH  25  26
ATOM     26  C   UNL     1      -6.272  65.131  51.637  1.00  0.00    -0.000 C 
BRANCH  26  27
ATOM     27  C   UNL     1      -6.824  63.816  52.207  1.00  0.00    -0.000 C 
BRANCH  27  28
ATOM     28  C   UNL     1      -7.796  64.070  53.368  1.00  0.00    -0.000 C 
BRANCH  28  29
ATOM     29  C   UNL     1      -7.903  62.855  54.304  1.00  0.00    -0.000 C 
BRANCH  29  30
ATOM     30  C   UNL     1      -7.640  61.530  53.565  1.00  0.00    -0.000 C 
BRANCH  30  31
ATOM     31  C   UNL     1      -6.511  60.712  54.218  1.00  0.00    -0.003 C 
ATOM     32  C   UNL     1      -6.423  60.954  55.727  1.00  0.00     0.004 C 
ENDBRANCH  30  31
ENDBRANCH  29  30
ENDBRANCH  28  29
ENDBRANCH  27  28
ENDBRANCH  26  27
ENDBRANCH  25  26
ENDBRANCH  24  25
ENDBRANCH  23  24
ENDBRANCH  22  23
ENDBRANCH  21  22
ENDBRANCH  20  21
ENDBRANCH  19  20
ENDBRANCH  18  19
ENDBRANCH   1  18
TORSDOF 28
ENDMDL
MODEL 3
REMARK VINA RESULT:    -6.160      5.008     13.747
REMARK INTER + INTRA:         -18.717
REMARK INTER:                 -16.204
REMARK INTRA:                  -2.513
REMARK UNBOUND:                -2.475
REMARK SMILES CCCCCCCCCCCCCCCCCCCCCCCCCCCCCC(=O)[O-]
REMARK SMILES IDX 16 1 17 2 18 3 19 4 20 5 21 6 22 7 23 8 24 9 25 10 26 11
REMARK SMILES IDX 27 12 28 13 29 14 30 15 31 16 32 17 15 18 14 19 13 20 12 21
REMARK SMILES IDX 11 22 10 23 9 24 8 25 7 26 6 27 5 28 4 29 3 30 2 31 1 32
REMARK H PARENT
REMARK Flexibility Score: inf
ROOT
ATOM      1  C   UNL     1      -8.850  62.598  47.091  1.00  0.00     0.000 C 
ENDROOT
BRANCH   1   2
ATOM      2  C   UNL     1      -9.219  63.019  45.657  1.00  0.00     0.000 C 
BRANCH   2   3
ATOM      3  C   UNL     1      -9.573  61.819  44.761  1.00  0.00     0.000 C 
BRANCH   3   4
ATOM      4  C   UNL     1      -9.966  62.239  43.336  1.00  0.00     0.000 C 
BRANCH   4   5
ATOM      5  C   UNL     1      -9.581  63.695  43.021  1.00  0.00     0.000 C 
BRANCH   5   6
ATOM      6  C   UNL     1     -10.083  64.152  41.641  1.00  0.00     0.000 C 
BRANCH   6   7
ATOM      7  C   UNL     1      -8.989  64.834  40.805  1.00  0.00     0.000 C 
BRANCH   7   8
ATOM      8  C   UNL     1      -8.799  64.116  39.460  1.00  0.00     0.000 C 
BRANCH   8   9
ATOM      9  C   UNL     1      -9.494  62.744  39.417  1.00  0.00     0.000 C 
BRANCH   9  10
ATOM     10  C   UNL     1     -10.645  62.694  38.397  1.00  0.00     0.000 C 
BRANCH  10  11
ATOM     11  C   UNL     1     -11.963  62.197  39.015  1.00  0.00     0.000 C 
BRANCH  11  12
ATOM     12  C   UNL     1     -11.755  61.055  40.020  1.00  0.00     0.000 C 
BRANCH  12  13
ATOM     13  C   UNL     1     -12.882  60.019  39.909  1.00  0.00     0.006 C 
BRANCH  13  14
ATOM     14  C   UNL     1     -13.669  60.156  38.599  1.00  0.00     0.053 C 
BRANCH  14  15
ATOM     15  C   UNL     1     -15.081  60.595  38.842  1.00  0.00     0.041 C 
ATOM     16  O   UNL     1     -15.321  61.749  39.285  1.00  0.00    -0.550 OA
ATOM     17  O   UNL     1     -16.132  59.714  38.611  1.00  0.00    -0.550 OA
ENDBRANCH  14  15
ENDBRANCH  13  14
ENDBRANCH  12  13
ENDBRANCH  11  12
ENDBRANCH  10  11
ENDBRANCH   9  10
ENDBRANCH   8   9
ENDBRANCH   7   8
ENDBRANCH   6   7
ENDBRANCH   5   6
ENDBRANCH   4   5
ENDBRANCH   3   4
ENDBRANCH   2   3
ENDBRANCH   1   2
BRANCH   1  18
ATOM     18  C   UNL     1      -9.660  63.296  48.202  1.00  0.00     0.000 C 
BRANCH  18  19
ATOM     19  C   UNL     1      -8.874  64.311  49.051  1.00  0.00     0.000 C 
BRANCH  19  20
ATOM     20  C   UNL     1      -7.687  63.680  49.800  1.00  0.00     0.000 C 
BRANCH  20  21
ATOM     21  C   UNL     1      -6.371  64.446  49.582  1.00  0.00     0.000 C 
BRANCH  21  22
ATOM     22  C   UNL     1      -5.786  65.051  50.879  1.00  0.00     0.000 C 
BRANCH  22  23
ATOM     23  C   UNL     1      -6.846  65.806  51.697  1.00  0.00     0.000 C 
BRANCH  23  24
ATOM     24  C   UNL     1      -6.952  65.274  53.143  1.00  0.00    -0.000 C 
BRANCH  24  25
ATOM     25  C   UNL     1      -8.211  64.427  53.391  1.00  0.00    -0.000 C 
BRANCH  25  26
ATOM     26  C   UNL     1      -7.921  63.139  54.173  1.00  0.00    -0.000 C 
BRANCH  26  27
ATOM     27  C   UNL     1      -7.350  62.058  53.244  1.00  0.00    -0.000 C 
BRANCH  27  28
ATOM     28  C   UNL     1      -5.831  61.912  53.418  1.00  0.00    -0.000 C 
BRANCH  28  29
ATOM     29  C   UNL     1      -5.467  61.277  54.770  1.00  0.00    -0.000 C 
BRANCH  29  30
ATOM     30  C   UNL     1      -6.255  59.982  55.034  1.00  0.00    -0.000 C 
BRANCH  30  31
ATOM     31  C   UNL     1      -5.813  59.284  56.333  1.00  0.00    -0.003 C 
ATOM     32  C   UNL     1      -4.362  58.800  56.262  1.00  0.00     0.004 C 
ENDBRANCH  30  31
ENDBRANCH  29  30
ENDBRANCH  28  29
ENDBRANCH  27  28
ENDBRANCH  26  27
ENDBRANCH  25  26
ENDBRANCH  24  25
ENDBRANCH  23  24
ENDBRANCH  22  23
ENDBRANCH  21  22
ENDBRANCH  20  21
ENDBRANCH  19  20
ENDBRANCH  18  19
ENDBRANCH   1  18
TORSDOF 28
ENDMDL
MODEL 4
REMARK VINA RESULT:    -6.098      4.801     13.820
REMARK INTER + INTRA:         -18.555
REMARK INTER:                 -16.198
REMARK INTRA:                  -2.357
REMARK UNBOUND:                -2.475
REMARK SMILES CCCCCCCCCCCCCCCCCCCCCCCCCCCCCC(=O)[O-]
REMARK SMILES IDX 16 1 17 2 18 3 19 4 20 5 21 6 22 7 23 8 24 9 25 10 26 11
REMARK SMILES IDX 27 12 28 13 29 14 30 15 31 16 32 17 15 18 14 19 13 20 12 21
REMARK SMILES IDX 11 22 10 23 9 24 8 25 7 26 6 27 5 28 4 29 3 30 2 31 1 32
REMARK H PARENT
REMARK Flexibility Score: inf
ROOT
ATOM      1  C   UNL     1      -9.482  64.020  48.218  1.00  0.00     0.000 C 
ENDROOT
BRANCH   1   2
ATOM      2  C   UNL     1      -9.228  62.679  47.506  1.00  0.00     0.000 C 
BRANCH   2   3
ATOM      3  C   UNL     1      -9.131  62.830  45.977  1.00  0.00     0.000 C 
BRANCH   3   4
ATOM      4  C   UNL     1      -9.206  61.484  45.243  1.00  0.00     0.000 C 
BRANCH   4   5
ATOM      5  C   UNL     1     -10.089  61.544  43.984  1.00  0.00     0.000 C 
BRANCH   5   6
ATOM      6  C   UNL     1     -10.007  62.905  43.271  1.00  0.00     0.000 C 
BRANCH   6   7
ATOM      7  C   UNL     1      -9.657  62.776  41.781  1.00  0.00     0.000 C 
BRANCH   7   8
ATOM      8  C   UNL     1      -9.364  64.153  41.165  1.00  0.00     0.000 C 
BRANCH   8   9
ATOM      9  C   UNL     1      -8.816  64.057  39.731  1.00  0.00     0.000 C 
BRANCH   9  10
ATOM     10  C   UNL     1      -9.918  64.188  38.665  1.00  0.00     0.000 C 
BRANCH  10  11
ATOM     11  C   UNL     1     -10.458  62.825  38.201  1.00  0.00     0.000 C 
BRANCH  11  12
ATOM     12  C   UNL     1     -11.862  62.524  38.748  1.00  0.00     0.000 C 
BRANCH  12  13
ATOM     13  C   UNL     1     -11.887  61.169  39.469  1.00  0.00     0.006 C 
BRANCH  13  14
ATOM     14  C   UNL     1     -12.934  60.216  38.877  1.00  0.00     0.053 C 
BRANCH  14  15
ATOM     15  C   UNL     1     -14.324  60.596  39.286  1.00  0.00     0.041 C 
ATOM     16  O   UNL     1     -14.545  61.054  40.439  1.00  0.00    -0.550 OA
ATOM     17  O   UNL     1     -15.383  60.412  38.404  1.00  0.00    -0.550 OA
ENDBRANCH  14  15
ENDBRANCH  13  14
ENDBRANCH  12  13
ENDBRANCH  11  12
ENDBRANCH  10  11
ENDBRANCH   9  10
ENDBRANCH   8   9
ENDBRANCH   7   8
ENDBRANCH   6   7
ENDBRANCH   5   6
ENDBRANCH   4   5
ENDBRANCH   3   4
ENDBRANCH   2   3
ENDBRANCH   1   2
BRANCH   1  18
ATOM     18  C   UNL     1      -8.282  64.570  49.014  1.00  0.00     0.000 C 
BRANCH  18  19
ATOM     19  C   UNL     1      -7.626  63.574  49.989  1.00  0.00     0.000 C 
BRANCH  19  20
ATOM     20  C   UNL     1      -6.220  64.009  50.440  1.00  0.00     0.000 C 
BRANCH  20  21
ATOM     21  C   UNL     1      -6.135  65.513  50.756  1.00  0.00     0.000 C 
BRANCH  21  22
ATOM     22  C   UNL     1      -6.798  65.900  52.097  1.00  0.00     0.000 C 
BRANCH  22  23
ATOM     23  C   UNL     1      -6.615  64.814  53.170  1.00  0.00     0.000 C 
BRANCH  23  24
ATOM     24  C   UNL     1      -7.964  64.217  53.629  1.00  0.00    -0.000 C 
BRANCH  24  25
ATOM     25  C   UNL     1      -7.817  62.884  54.380  1.00  0.00    -0.000 C 
BRANCH  25  26
ATOM     26  C   UNL     1      -7.728  61.673  53.441  1.00  0.00    -0.000 C 
BRANCH  26  27
ATOM     27  C   UNL     1      -6.312  61.079  53.458  1.00  0.00    -0.000 C 
BRANCH  27  28
ATOM     28  C   UNL     1      -5.421  61.777  54.496  1.00  0.00    -0.000 C 
BRANCH  28  29
ATOM     29  C   UNL     1      -4.174  60.945  54.835  1.00  0.00    -0.000 C 
BRANCH  29  30
ATOM     30  C   UNL     1      -4.327  60.185  56.165  1.00  0.00    -0.000 C 
BRANCH  30  31
ATOM     31  C   UNL     1      -4.937  58.786  55.970  1.00  0.00    -0.003 C 
ATOM     32  C   UNL     1      -6.452  58.782  56.195  1.00  0.00     0.004 C 
ENDBRANCH  30  31
ENDBRANCH  29  30
ENDBRANCH  28  29
ENDBRANCH  27  28
ENDBRANCH  26  27
ENDBRANCH  25  26
ENDBRANCH  24  25
ENDBRANCH  23  24
ENDBRANCH  22  23
ENDBRANCH  21  22
ENDBRANCH  20  21
ENDBRANCH  19  20
ENDBRANCH  18  19
ENDBRANCH   1  18
TORSDOF 28
ENDMDL
MODEL 5
REMARK VINA RESULT:    -5.981      5.239     14.010
REMARK INTER + INTRA:         -18.245
REMARK INTER:                 -16.241
REMARK INTRA:                  -2.005
REMARK UNBOUND:                -2.475
REMARK SMILES CCCCCCCCCCCCCCCCCCCCCCCCCCCCCC(=O)[O-]
REMARK SMILES IDX 16 1 17 2 18 3 19 4 20 5 21 6 22 7 23 8 24 9 25 10 26 11
REMARK SMILES IDX 27 12 28 13 29 14 30 15 31 16 32 17 15 18 14 19 13 20 12 21
REMARK SMILES IDX 11 22 10 23 9 24 8 25 7 26 6 27 5 28 4 29 3 30 2 31 1 32
REMARK H PARENT
REMARK Flexibility Score: inf
ROOT
ATOM      1  C   UNL     1      -9.251  62.036  45.101  1.00  0.00     0.000 C 
ENDROOT
BRANCH   1   2
ATOM      2  C   UNL     1      -9.285  63.331  44.271  1.00  0.00     0.000 C 
BRANCH   2   3
ATOM      3  C   UNL     1      -9.736  63.092  42.819  1.00  0.00     0.000 C 
BRANCH   3   4
ATOM      4  C   UNL     1     -10.110  64.393  42.093  1.00  0.00     0.000 C 
BRANCH   4   5
ATOM      5  C   UNL     1      -8.987  64.902  41.172  1.00  0.00     0.000 C 
BRANCH   5   6
ATOM      6  C   UNL     1      -8.784  64.006  39.939  1.00  0.00     0.000 C 
BRANCH   6   7
ATOM      7  C   UNL     1      -9.503  64.541  38.690  1.00  0.00     0.000 C 
BRANCH   7   8
ATOM      8  C   UNL     1     -10.174  63.399  37.912  1.00  0.00     0.000 C 
BRANCH   8   9
ATOM      9  C   UNL     1     -10.700  62.285  38.833  1.00  0.00     0.000 C 
BRANCH   9  10
ATOM     10  C   UNL     1     -12.214  62.392  39.089  1.00  0.00     0.000 C 
BRANCH  10  11
ATOM     11  C   UNL     1     -12.754  61.236  39.946  1.00  0.00     0.000 C 
BRANCH  11  12
ATOM     12  C   UNL     1     -13.189  60.026  39.107  1.00  0.00     0.000 C 
BRANCH  12  13
ATOM     13  C   UNL     1     -14.479  60.333  38.334  1.00  0.00     0.006 C 
BRANCH  13  14
ATOM     14  C   UNL     1     -15.463  61.173  39.159  1.00  0.00     0.053 C 
BRANCH  14  15
ATOM     15  C   UNL     1     -16.867  60.666  39.032  1.00  0.00     0.041 C 
ATOM     16  O   UNL     1     -17.126  59.452  39.244  1.00  0.00    -0.550 OA
ATOM     17  O   UNL     1     -17.886  61.530  38.647  1.00  0.00    -0.550 OA
ENDBRANCH  14  15
ENDBRANCH  13  14
ENDBRANCH  12  13
ENDBRANCH  11  12
ENDBRANCH  10  11
ENDBRANCH   9  10
ENDBRANCH   8   9
ENDBRANCH   7   8
ENDBRANCH   6   7
ENDBRANCH   5   6
ENDBRANCH   4   5
ENDBRANCH   3   4
ENDBRANCH   2   3
ENDBRANCH   1   2
BRANCH   1  18
ATOM     18  C   UNL     1      -9.223  62.244  46.628  1.00  0.00     0.000 C 
BRANCH  18  19
ATOM     19  C   UNL     1      -9.073  63.705  47.092  1.00  0.00     0.000 C 
BRANCH  19  20
ATOM     20  C   UNL     1      -9.598  63.941  48.519  1.00  0.00     0.000 C 
BRANCH  20  21
ATOM     21  C   UNL     1      -8.543  64.573  49.444  1.00  0.00     0.000 C 
BRANCH  21  22
ATOM     22  C   UNL     1      -7.263  63.720  49.593  1.00  0.00     0.000 C 
BRANCH  22  23
ATOM     23  C   UNL     1      -6.205  64.410  50.470  1.00  0.00     0.000 C 
BRANCH  23  24
ATOM     24  C   UNL     1      -6.802  65.571  51.295  1.00  0.00    -0.000 C 
BRANCH  24  25
ATOM     25  C   UNL     1      -6.642  65.386  52.813  1.00  0.00    -0.000 C 
BRANCH  25  26
ATOM     26  C   UNL     1      -6.492  63.915  53.225  1.00  0.00    -0.000 C 
BRANCH  26  27
ATOM     27  C   UNL     1      -7.840  63.343  53.689  1.00  0.00    -0.000 C 
BRANCH  27  28
ATOM     28  C   UNL     1      -7.737  61.842  53.996  1.00  0.00    -0.000 C 
BRANCH  28  29
ATOM     29  C   UNL     1      -6.323  61.444  54.449  1.00  0.00    -0.000 C 
BRANCH  29  30
ATOM     30  C   UNL     1      -6.328  60.750  55.823  1.00  0.00    -0.000 C 
BRANCH  30  31
ATOM     31  C   UNL     1      -5.825  59.298  55.746  1.00  0.00    -0.003 C 
ATOM     32  C   UNL     1      -4.655  59.041  56.699  1.00  0.00     0.004 C 
ENDBRANCH  30  31
ENDBRANCH  29  30
ENDBRANCH  28  29
ENDBRANCH  27  28
ENDBRANCH  26  27
ENDBRANCH  25  26
ENDBRANCH  24  25
ENDBRANCH  23  24
ENDBRANCH  22  23
ENDBRANCH  21  22
ENDBRANCH  20  21
ENDBRANCH  19  20
ENDBRANCH  18  19
ENDBRANCH   1  18
TORSDOF 28
ENDMDL
MODEL 6
REMARK VINA RESULT:    -5.976      0.958      2.345
REMARK INTER + INTRA:         -18.234
REMARK INTER:                 -15.594
REMARK INTRA:                  -2.640
REMARK UNBOUND:                -2.475
REMARK SMILES CCCCCCCCCCCCCCCCCCCCCCCCCCCCCC(=O)[O-]
REMARK SMILES IDX 16 1 17 2 18 3 19 4 20 5 21 6 22 7 23 8 24 9 25 10 26 11
REMARK SMILES IDX 27 12 28 13 29 14 30 15 31 16 32 17 15 18 14 19 13 20 12 21
REMARK SMILES IDX 11 22 10 23 9 24 8 25 7 26 6 27 5 28 4 29 3 30 2 31 1 32
REMARK H PARENT
REMARK Flexibility Score: inf
ROOT
ATOM      1  C   UNL     1      -9.187  63.634  47.797  1.00  0.00     0.000 C 
ENDROOT
BRANCH   1   2
ATOM      2  C   UNL     1      -8.425  63.514  49.129  1.00  0.00     0.000 C 
BRANCH   2   3
ATOM      3  C   UNL     1      -7.780  64.841  49.563  1.00  0.00     0.000 C 
BRANCH   3   4
ATOM      4  C   UNL     1      -6.247  64.764  49.622  1.00  0.00     0.000 C 
BRANCH   4   5
ATOM      5  C   UNL     1      -5.645  65.723  50.664  1.00  0.00     0.000 C 
BRANCH   5   6
ATOM      6  C   UNL     1      -6.648  66.099  51.768  1.00  0.00     0.000 C 
BRANCH   6   7
ATOM      7  C   UNL     1      -6.389  65.355  53.087  1.00  0.00     0.000 C 
BRANCH   7   8
ATOM      8  C   UNL     1      -7.666  64.661  53.584  1.00  0.00     0.000 C 
BRANCH   8   9
ATOM      9  C   UNL     1      -7.659  63.146  53.318  1.00  0.00     0.000 C 
BRANCH   9  10
ATOM     10  C   UNL     1      -6.318  62.650  52.749  1.00  0.00     0.000 C 
BRANCH  10  11
ATOM     11  C   UNL     1      -5.621  61.638  53.672  1.00  0.00     0.000 C 
BRANCH  11  12
ATOM     12  C   UNL     1      -6.612  60.728  54.414  1.00  0.00     0.000 C 
BRANCH  12  13
ATOM     13  C   UNL     1      -6.249  60.624  55.901  1.00  0.00     0.006 C 
BRANCH  13  14
ATOM     14  C   UNL     1      -5.742  59.226  56.279  1.00  0.00     0.053 C 
BRANCH  14  15
ATOM     15  C   UNL     1      -4.312  59.254  56.724  1.00  0.00     0.041 C 
ATOM     16  O   UNL     1      -4.025  59.513  57.923  1.00  0.00    -0.550 OA
ATOM     17  O   UNL     1      -3.294  59.028  55.805  1.00  0.00    -0.550 OA
ENDBRANCH  14  15
ENDBRANCH  13  14
ENDBRANCH  12  13
ENDBRANCH  11  12
ENDBRANCH  10  11
ENDBRANCH   9  10
ENDBRANCH   8   9
ENDBRANCH   7   8
ENDBRANCH   6   7
ENDBRANCH   5   6
ENDBRANCH   4   5
ENDBRANCH   3   4
ENDBRANCH   2   3
ENDBRANCH   1   2
BRANCH   1  18
ATOM     18  C   UNL     1      -8.960  62.469  46.812  1.00  0.00     0.000 C 
BRANCH  18  19
ATOM     19  C   UNL     1      -9.222  62.799  45.330  1.00  0.00     0.000 C 
BRANCH  19  20
ATOM     20  C   UNL     1      -9.518  61.553  44.478  1.00  0.00     0.000 C 
BRANCH  20  21
ATOM     21  C   UNL     1     -10.310  61.880  43.200  1.00  0.00     0.000 C 
BRANCH  21  22
ATOM     22  C   UNL     1      -9.564  62.832  42.238  1.00  0.00     0.000 C 
BRANCH  22  23
ATOM     23  C   UNL     1     -10.189  64.237  42.212  1.00  0.00     0.000 C 
BRANCH  23  24
ATOM     24  C   UNL     1      -9.577  65.124  41.105  1.00  0.00    -0.000 C 
BRANCH  24  25
ATOM     25  C   UNL     1      -8.282  64.549  40.508  1.00  0.00    -0.000 C 
BRANCH  25  26
ATOM     26  C   UNL     1      -8.517  63.770  39.207  1.00  0.00    -0.000 C 
BRANCH  26  27
ATOM     27  C   UNL     1      -9.837  64.200  38.550  1.00  0.00    -0.000 C 
BRANCH  27  28
ATOM     28  C   UNL     1     -10.696  62.986  38.166  1.00  0.00    -0.000 C 
BRANCH  28  29
ATOM     29  C   UNL     1     -11.720  62.639  39.259  1.00  0.00    -0.000 C 
BRANCH  29  30
ATOM     30  C   UNL     1     -11.700  61.142  39.620  1.00  0.00    -0.000 C 
BRANCH  30  31
ATOM     31  C   UNL     1     -12.990  60.422  39.193  1.00  0.00    -0.003 C 
ATOM     32  C   UNL     1     -14.243  61.106  39.748  1.00  0.00     0.004 C 
ENDBRANCH  30  31
ENDBRANCH  29  30
ENDBRANCH  28  29
ENDBRANCH  27  28
ENDBRANCH  26  27
ENDBRANCH  25  26
ENDBRANCH  24  25
ENDBRANCH  23  24
ENDBRANCH  22  23
ENDBRANCH  21  22
ENDBRANCH  20  21
ENDBRANCH  19  20
ENDBRANCH  18  19
ENDBRANCH   1  18
TORSDOF 28
ENDMDL
MODEL 7
REMARK VINA RESULT:    -5.944      4.705     13.496
REMARK INTER + INTRA:         -18.147
REMARK INTER:                 -15.747
REMARK INTRA:                  -2.400
REMARK UNBOUND:                -2.475
REMARK SMILES CCCCCCCCCCCCCCCCCCCCCCCCCCCCCC(=O)[O-]
REMARK SMILES IDX 16 1 17 2 18 3 19 4 20 5 21 6 22 7 23 8 24 9 25 10 26 11
REMARK SMILES IDX 27 12 28 13 29 14 30 15 31 16 32 17 15 18 14 19 13 20 12 21
REMARK SMILES IDX 11 22 10 23 9 24 8 25 7 26 6 27 5 28 4 29 3 30 2 31 1 32
REMARK H PARENT
REMARK Flexibility Score: inf
ROOT
ATOM      1  C   UNL     1      -9.269  61.881  46.267  1.00  0.00     0.000 C 
ENDROOT
BRANCH   1   2
ATOM      2  C   UNL     1      -9.248  62.702  44.966  1.00  0.00     0.000 C 
BRANCH   2   3
ATOM      3  C   UNL     1      -9.980  61.998  43.810  1.00  0.00     0.000 C 
BRANCH   3   4
ATOM      4  C   UNL     1      -9.902  62.784  42.493  1.00  0.00     0.000 C 
BRANCH   4   5
ATOM      5  C   UNL     1      -9.601  64.278  42.711  1.00  0.00     0.000 C 
BRANCH   5   6
ATOM      6  C   UNL     1      -9.822  65.116  41.440  1.00  0.00     0.000 C 
BRANCH   6   7
ATOM      7  C   UNL     1      -8.511  65.650  40.844  1.00  0.00     0.000 C 
BRANCH   7   8
ATOM      8  C   UNL     1      -7.937  64.667  39.811  1.00  0.00     0.000 C 
BRANCH   8   9
ATOM      9  C   UNL     1      -8.338  65.023  38.369  1.00  0.00     0.000 C 
BRANCH   9  10
ATOM     10  C   UNL     1      -9.556  64.220  37.877  1.00  0.00     0.000 C 
BRANCH  10  11
ATOM     11  C   UNL     1      -9.848  62.991  38.752  1.00  0.00     0.000 C 
BRANCH  11  12
ATOM     12  C   UNL     1     -11.202  62.340  38.431  1.00  0.00     0.000 C 
BRANCH  12  13
ATOM     13  C   UNL     1     -12.261  62.746  39.464  1.00  0.00     0.006 C 
BRANCH  13  14
ATOM     14  C   UNL     1     -13.689  62.587  38.924  1.00  0.00     0.053 C 
BRANCH  14  15
ATOM     15  C   UNL     1     -14.386  61.411  39.535  1.00  0.00     0.041 C 
ATOM     16  O   UNL     1     -13.729  60.536  40.159  1.00  0.00    -0.550 OA
ATOM     17  O   UNL     1     -15.761  61.263  39.386  1.00  0.00    -0.550 OA
ENDBRANCH  14  15
ENDBRANCH  13  14
ENDBRANCH  12  13
ENDBRANCH  11  12
ENDBRANCH  10  11
ENDBRANCH   9  10
ENDBRANCH   8   9
ENDBRANCH   7   8
ENDBRANCH   6   7
ENDBRANCH   5   6
ENDBRANCH   4   5
ENDBRANCH   3   4
ENDBRANCH   2   3
ENDBRANCH   1   2
BRANCH   1  18
ATOM     18  C   UNL     1      -8.725  62.616  47.508  1.00  0.00     0.000 C 
BRANCH  18  19
ATOM     19  C   UNL     1      -9.612  63.758  48.039  1.00  0.00     0.000 C 
BRANCH  19  20
ATOM     20  C   UNL     1      -8.989  64.500  49.235  1.00  0.00     0.000 C 
BRANCH  20  21
ATOM     21  C   UNL     1      -7.628  63.917  49.652  1.00  0.00     0.000 C 
BRANCH  21  22
ATOM     22  C   UNL     1      -6.479  64.950  49.621  1.00  0.00     0.000 C 
BRANCH  22  23
ATOM     23  C   UNL     1      -5.812  65.118  50.996  1.00  0.00     0.000 C 
BRANCH  23  24
ATOM     24  C   UNL     1      -6.637  66.027  51.934  1.00  0.00    -0.000 C 
BRANCH  24  25
ATOM     25  C   UNL     1      -7.268  65.272  53.116  1.00  0.00    -0.000 C 
BRANCH  25  26
ATOM     26  C   UNL     1      -6.757  63.830  53.247  1.00  0.00    -0.000 C 
BRANCH  26  27
ATOM     27  C   UNL     1      -7.731  62.985  54.082  1.00  0.00    -0.000 C 
BRANCH  27  28
ATOM     28  C   UNL     1      -7.703  61.510  53.655  1.00  0.00    -0.000 C 
BRANCH  28  29
ATOM     29  C   UNL     1      -6.402  60.813  54.084  1.00  0.00    -0.000 C 
BRANCH  29  30
ATOM     30  C   UNL     1      -6.453  60.341  55.549  1.00  0.00    -0.000 C 
BRANCH  30  31
ATOM     31  C   UNL     1      -5.054  60.039  56.114  1.00  0.00    -0.003 C 
ATOM     32  C   UNL     1      -3.964  60.866  55.427  1.00  0.00     0.004 C 
ENDBRANCH  30  31
ENDBRANCH  29  30
ENDBRANCH  28  29
ENDBRANCH  27  28
ENDBRANCH  26  27
ENDBRANCH  25  26
ENDBRANCH  24  25
ENDBRANCH  23  24
ENDBRANCH  22  23
ENDBRANCH  21  22
ENDBRANCH  20  21
ENDBRANCH  19  20
ENDBRANCH  18  19
ENDBRANCH   1  18
TORSDOF 28
ENDMDL
MODEL 8
REMARK VINA RESULT:    -5.830      1.130      2.322
REMARK INTER + INTRA:         -17.847
REMARK INTER:                 -15.825
REMARK INTRA:                  -2.022
REMARK UNBOUND:                -2.475
REMARK SMILES CCCCCCCCCCCCCCCCCCCCCCCCCCCCCC(=O)[O-]
REMARK SMILES IDX 16 1 17 2 18 3 19 4 20 5 21 6 22 7 23 8 24 9 25 10 26 11
REMARK SMILES IDX 27 12 28 13 29 14 30 15 31 16 32 17 15 18 14 19 13 20 12 21
REMARK SMILES IDX 11 22 10 23 9 24 8 25 7 26 6 27 5 28 4 29 3 30 2 31 1 32
REMARK H PARENT
REMARK Flexibility Score: inf
ROOT
ATOM      1  C   UNL     1     -10.014  62.077  43.228  1.00  0.00     0.000 C 
ENDROOT
BRANCH   1   2
ATOM      2  C   UNL     1      -9.229  61.284  44.288  1.00  0.00     0.000 C 
BRANCH   2   3
ATOM      3  C   UNL     1      -9.775  61.498  45.710  1.00  0.00     0.000 C 
BRANCH   3   4
ATOM      4  C   UNL     1      -8.884  62.421  46.555  1.00  0.00     0.000 C 
BRANCH   4   5
ATOM      5  C   UNL     1      -9.249  62.392  48.050  1.00  0.00     0.000 C 
BRANCH   5   6
ATOM      6  C   UNL     1      -8.167  63.036  48.933  1.00  0.00     0.000 C 
BRANCH   6   7
ATOM      7  C   UNL     1      -8.557  64.439  49.424  1.00  0.00     0.000 C 
BRANCH   7   8
ATOM      8  C   UNL     1      -7.740  64.832  50.665  1.00  0.00     0.000 C 
BRANCH   8   9
ATOM      9  C   UNL     1      -6.410  64.067  50.765  1.00  0.00     0.000 C 
BRANCH   9  10
ATOM     10  C   UNL     1      -6.183  63.453  52.158  1.00  0.00     0.000 C 
BRANCH  10  11
ATOM     11  C   UNL     1      -7.471  62.876  52.769  1.00  0.00     0.000 C 
BRANCH  11  12
ATOM     12  C   UNL     1      -7.256  62.300  54.176  1.00  0.00     0.000 C 
BRANCH  12  13
ATOM     13  C   UNL     1      -6.172  61.214  54.161  1.00  0.00     0.006 C 
BRANCH  13  14
ATOM     14  C   UNL     1      -6.257  60.292  55.386  1.00  0.00     0.053 C 
BRANCH  14  15
ATOM     15  C   UNL     1      -4.948  60.208  56.109  1.00  0.00     0.041 C 
ATOM     16  O   UNL     1      -4.016  61.008  55.832  1.00  0.00    -0.550 OA
ATOM     17  O   UNL     1      -4.747  59.222  57.068  1.00  0.00    -0.550 OA
ENDBRANCH  14  15
ENDBRANCH  13  14
ENDBRANCH  12  13
ENDBRANCH  11  12
ENDBRANCH  10  11
ENDBRANCH   9  10
ENDBRANCH   8   9
ENDBRANCH   7   8
ENDBRANCH   6   7
ENDBRANCH   5   6
ENDBRANCH   4   5
ENDBRANCH   3   4
ENDBRANCH   2   3
ENDBRANCH   1   2
BRANCH   1  18
ATOM     18  C   UNL     1      -9.667  63.577  43.149  1.00  0.00     0.000 C 
BRANCH  18  19
ATOM     19  C   UNL     1      -9.960  64.251  41.796  1.00  0.00     0.000 C 
BRANCH  19  20
ATOM     20  C   UNL     1      -9.289  65.629  41.650  1.00  0.00     0.000 C 
BRANCH  20  21
ATOM     21  C   UNL     1      -8.304  65.688  40.469  1.00  0.00     0.000 C 
BRANCH  21  22
ATOM     22  C   UNL     1      -8.217  64.368  39.671  1.00  0.00     0.000 C 
BRANCH  22  23
ATOM     23  C   UNL     1      -8.703  64.533  38.222  1.00  0.00     0.000 C 
BRANCH  23  24
ATOM     24  C   UNL     1     -10.053  63.822  37.978  1.00  0.00    -0.000 C 
BRANCH  24  25
ATOM     25  C   UNL     1     -10.146  62.441  38.648  1.00  0.00    -0.000 C 
BRANCH  25  26
ATOM     26  C   UNL     1     -11.564  62.100  39.124  1.00  0.00    -0.000 C 
BRANCH  26  27
ATOM     27  C   UNL     1     -11.529  60.969  40.162  1.00  0.00    -0.000 C 
BRANCH  27  28
ATOM     28  C   UNL     1     -12.481  59.826  39.780  1.00  0.00    -0.000 C 
BRANCH  28  29
ATOM     29  C   UNL     1     -13.617  60.308  38.863  1.00  0.00    -0.000 C 
BRANCH  29  30
ATOM     30  C   UNL     1     -14.649  61.164  39.619  1.00  0.00    -0.000 C 
BRANCH  30  31
ATOM     31  C   UNL     1     -16.013  61.196  38.908  1.00  0.00    -0.003 C 
ATOM     32  C   UNL     1     -16.702  59.828  38.920  1.00  0.00     0.004 C 
ENDBRANCH  30  31
ENDBRANCH  29  30
ENDBRANCH  28  29
ENDBRANCH  27  28
ENDBRANCH  26  27
ENDBRANCH  25  26
ENDBRANCH  24  25
ENDBRANCH  23  24
ENDBRANCH  22  23
ENDBRANCH  21  22
ENDBRANCH  20  21
ENDBRANCH  19  20
ENDBRANCH  18  19
ENDBRANCH   1  18
TORSDOF 28
ENDMDL
MODEL 9
REMARK VINA RESULT:    -5.773      1.150      3.444
REMARK INTER + INTRA:         -17.697
REMARK INTER:                 -15.132
REMARK INTRA:                  -2.565
REMARK UNBOUND:                -2.475
REMARK SMILES CCCCCCCCCCCCCCCCCCCCCCCCCCCCCC(=O)[O-]
REMARK SMILES IDX 16 1 17 2 18 3 19 4 20 5 21 6 22 7 23 8 24 9 25 10 26 11
REMARK SMILES IDX 27 12 28 13 29 14 30 15 31 16 32 17 15 18 14 19 13 20 12 21
REMARK SMILES IDX 11 22 10 23 9 24 8 25 7 26 6 27 5 28 4 29 3 30 2 31 1 32
REMARK H PARENT
REMARK Flexibility Score: inf
ROOT
ATOM      1  C   UNL     1      -9.241  62.399  45.183  1.00  0.00     0.000 C 
ENDROOT
BRANCH   1   2
ATOM      2  C   UNL     1      -9.213  62.271  46.716  1.00  0.00     0.000 C 
BRANCH   2   3
ATOM      3  C   UNL     1      -9.188  63.637  47.424  1.00  0.00     0.000 C 
BRANCH   3   4
ATOM      4  C   UNL     1      -8.979  63.516  48.940  1.00  0.00     0.000 C 
BRANCH   4   5
ATOM      5  C   UNL     1      -8.053  64.609  49.501  1.00  0.00     0.000 C 
BRANCH   5   6
ATOM      6  C   UNL     1      -6.658  64.073  49.862  1.00  0.00     0.000 C 
BRANCH   6   7
ATOM      7  C   UNL     1      -5.836  65.067  50.697  1.00  0.00     0.000 C 
BRANCH   7   8
ATOM      8  C   UNL     1      -6.684  65.663  51.831  1.00  0.00     0.000 C 
BRANCH   8   9
ATOM      9  C   UNL     1      -6.689  64.783  53.093  1.00  0.00     0.000 C 
BRANCH   9  10
ATOM     10  C   UNL     1      -8.092  64.254  53.441  1.00  0.00     0.000 C 
BRANCH  10  11
ATOM     11  C   UNL     1      -8.049  63.022  54.360  1.00  0.00     0.000 C 
BRANCH  11  12
ATOM     12  C   UNL     1      -7.673  61.735  53.610  1.00  0.00     0.000 C 
BRANCH  12  13
ATOM     13  C   UNL     1      -6.309  61.210  54.078  1.00  0.00     0.006 C 
BRANCH  13  14
ATOM     14  C   UNL     1      -6.272  60.958  55.592  1.00  0.00     0.053 C 
BRANCH  14  15
ATOM     15  C   UNL     1      -4.996  60.296  56.014  1.00  0.00     0.041 C 
ATOM     16  O   UNL     1      -3.896  60.895  55.884  1.00  0.00    -0.550 OA
ATOM     17  O   UNL     1      -5.020  59.001  56.520  1.00  0.00    -0.550 OA
ENDBRANCH  14  15
ENDBRANCH  13  14
ENDBRANCH  12  13
ENDBRANCH  11  12
ENDBRANCH  10  11
ENDBRANCH   9  10
ENDBRANCH   8   9
ENDBRANCH   7   8
ENDBRANCH   6   7
ENDBRANCH   5   6
ENDBRANCH   4   5
ENDBRANCH   3   4
ENDBRANCH   2   3
ENDBRANCH   1   2
BRANCH   1  18
ATOM     18  C   UNL     1      -9.785  61.163  44.438  1.00  0.00     0.000 C 
BRANCH  18  19
ATOM     19  C   UNL     1     -10.964  61.435  43.485  1.00  0.00     0.000 C 
BRANCH  19  20
ATOM     20  C   UNL     1     -12.255  60.705  43.900  1.00  0.00     0.000 C 
BRANCH  20  21
ATOM     21  C   UNL     1     -13.173  60.395  42.705  1.00  0.00     0.000 C 
BRANCH  21  22
ATOM     22  C   UNL     1     -12.435  60.377  41.347  1.00  0.00     0.000 C 
BRANCH  22  23
ATOM     23  C   UNL     1     -13.308  59.804  40.219  1.00  0.00     0.000 C 
BRANCH  23  24
ATOM     24  C   UNL     1     -13.250  60.670  38.942  1.00  0.00    -0.000 C 
BRANCH  24  25
ATOM     25  C   UNL     1     -13.884  62.060  39.118  1.00  0.00    -0.000 C 
BRANCH  25  26
ATOM     26  C   UNL     1     -12.853  63.196  39.098  1.00  0.00    -0.000 C 
BRANCH  26  27
ATOM     27  C   UNL     1     -11.494  62.684  38.600  1.00  0.00    -0.000 C 
BRANCH  27  28
ATOM     28  C   UNL     1     -10.338  63.536  39.146  1.00  0.00    -0.000 C 
BRANCH  28  29
ATOM     29  C   UNL     1      -9.576  62.816  40.271  1.00  0.00    -0.000 C 
BRANCH  29  30
ATOM     30  C   UNL     1      -9.312  63.739  41.475  1.00  0.00    -0.000 C 
BRANCH  30  31
ATOM     31  C   UNL     1      -9.852  65.162  41.248  1.00  0.00    -0.003 C 
ATOM     32  C   UNL     1      -8.732  66.206  41.221  1.00  0.00     0.004 C 
ENDBRANCH  30  31
ENDBRANCH  29  30
ENDBRANCH  28  29
ENDBRANCH  27  28
ENDBRANCH  26  27
ENDBRANCH  25  26
ENDBRANCH  24  25
ENDBRANCH  23  24
ENDBRANCH  22  23
ENDBRANCH  21  22
ENDBRANCH  20  21
ENDBRANCH  19  20
ENDBRANCH  18  19
ENDBRANCH   1  18
TORSDOF 28
ENDMDL
