MODEL 1
REMARK VINA RESULT:    -4.781      0.000      0.000
REMARK INTER + INTRA:          -9.356
REMARK INTER:                  -8.694
REMARK INTRA:                  -0.662
REMARK UNBOUND:                -0.662
REMARK SMILES CCCCCCCCCCCCCCCC(=O)[O-]
REMARK SMILES IDX 9 1 10 2 11 3 12 4 13 5 14 6 15 7 16 8 17 9 18 10 8 11 7 12
REMARK SMILES IDX 6 13 5 14 4 15 3 16 2 17 1 18
REMARK H PARENT
REMARK Flexibility Score: inf
ROOT
ATOM      1  C   UNL     1       2.993  12.500  18.770  1.00  0.00     0.000 C 
ENDROOT
BRANCH   1   2
ATOM      2  C   UNL     1       2.381  11.098  18.594  1.00  0.00     0.000 C 
BRANCH   2   3
ATOM      3  C   UNL     1       3.165  10.154  17.659  1.00  0.00     0.000 C 
BRANCH   3   4
ATOM      4  C   UNL     1       4.514   9.655  18.212  1.00  0.00     0.000 C 
BRANCH   4   5
ATOM      5  C   UNL     1       5.739  10.002  17.346  1.00  0.00     0.000 C 
BRANCH   5   6
ATOM      6  C   UNL     1       6.838  10.731  18.132  1.00  0.00     0.006 C 
BRANCH   6   7
ATOM      7  C   UNL     1       6.256  11.433  19.362  1.00  0.00     0.053 C 
BRANCH   7   8
ATOM      8  C   UNL     1       6.682  10.734  20.614  1.00  0.00     0.041 C 
ATOM      9  O   UNL     1       7.906  10.581  20.870  1.00  0.00    -0.550 OA
ATOM     10  O   UNL     1       5.729  10.296  21.525  1.00  0.00    -0.550 OA
ENDBRANCH   7   8
ENDBRANCH   6   7
ENDBRANCH   5   6
ENDBRANCH   4   5
ENDBRANCH   3   4
ENDBRANCH   2   3
ENDBRANCH   1   2
BRANCH   1  11
ATOM     11  C   UNL     1       1.939  13.576  19.084  1.00  0.00     0.000 C 
BRANCH  11  12
ATOM     12  C   UNL     1       1.835  14.649  17.986  1.00  0.00    -0.000 C 
BRANCH  12  13
ATOM     13  C   UNL     1       0.681  15.658  18.156  1.00  0.00    -0.000 C 
BRANCH  13  14
ATOM     14  C   UNL     1       1.097  17.062  18.632  1.00  0.00    -0.000 C 
BRANCH  14  15
ATOM     15  C   UNL     1      -0.103  17.943  19.018  1.00  0.00    -0.000 C 
BRANCH  15  16
ATOM     16  C   UNL     1      -0.035  19.352  18.400  1.00  0.00    -0.000 C 
BRANCH  16  17
ATOM     17  C   UNL     1       1.292  19.693  17.699  1.00  0.00    -0.003 C 
ATOM     18  C   UNL     1       1.108  20.125  16.245  1.00  0.00     0.004 C 
ENDBRANCH  16  17
ENDBRANCH  15  16
ENDBRANCH  14  15
ENDBRANCH  13  14
ENDBRANCH  12  13
ENDBRANCH  11  12
ENDBRANCH   1  11
TORSDOF 14
ENDMDL
MODEL 2
REMARK VINA RESULT:    -4.619      0.778      1.502
REMARK INTER + INTRA:          -9.062
REMARK INTER:                  -8.380
REMARK INTRA:                  -0.682
REMARK UNBOUND:                -0.662
REMARK SMILES CCCCCCCCCCCCCCCC(=O)[O-]
REMARK SMILES IDX 9 1 10 2 11 3 12 4 13 5 14 6 15 7 16 8 17 9 18 10 8 11 7 12
REMARK SMILES IDX 6 13 5 14 4 15 3 16 2 17 1 18
REMARK H PARENT
REMARK Flexibility Score: inf
ROOT
ATOM      1  C   UNL     1       1.932  13.647  19.117  1.00  0.00     0.000 C 
ENDROOT
BRANCH   1   2
ATOM      2  C   UNL     1       3.083  12.653  18.877  1.00  0.00     0.000 C 
BRANCH   2   3
ATOM      3  C   UNL     1       2.649  11.188  18.662  1.00  0.00     0.000 C 
BRANCH   3   4
ATOM      4  C   UNL     1       3.743  10.134  18.926  1.00  0.00     0.000 C 
BRANCH   4   5
ATOM      5  C   UNL     1       4.776   9.973  17.796  1.00  0.00     0.000 C 
BRANCH   5   6
ATOM      6  C   UNL     1       6.198  10.359  18.228  1.00  0.00     0.006 C 
BRANCH   6   7
ATOM      7  C   UNL     1       6.166  11.316  19.423  1.00  0.00     0.053 C 
BRANCH   7   8
ATOM      8  C   UNL     1       6.725  10.651  20.641  1.00  0.00     0.041 C 
ATOM      9  O   UNL     1       5.967  10.333  21.595  1.00  0.00    -0.550 OA
ATOM     10  O   UNL     1       8.077  10.337  20.703  1.00  0.00    -0.550 OA
ENDBRANCH   7   8
ENDBRANCH   6   7
ENDBRANCH   5   6
ENDBRANCH   4   5
ENDBRANCH   3   4
ENDBRANCH   2   3
ENDBRANCH   1   2
BRANCH   1  11
ATOM     11  C   UNL     1       1.667  14.557  17.906  1.00  0.00     0.000 C 
BRANCH  11  12
ATOM     12  C   UNL     1       0.921  15.849  18.280  1.00  0.00    -0.000 C 
BRANCH  12  13
ATOM     13  C   UNL     1      -0.595  15.692  18.517  1.00  0.00    -0.000 C 
BRANCH  13  14
ATOM     14  C   UNL     1      -1.366  17.006  18.743  1.00  0.00    -0.000 C 
BRANCH  14  15
ATOM     15  C   UNL     1      -0.745  17.883  19.843  1.00  0.00    -0.000 C 
BRANCH  15  16
ATOM     16  C   UNL     1      -0.590  19.355  19.420  1.00  0.00    -0.000 C 
BRANCH  16  17
ATOM     17  C   UNL     1       0.840  19.778  19.043  1.00  0.00    -0.003 C 
ATOM     18  C   UNL     1       1.151  19.588  17.559  1.00  0.00     0.004 C 
ENDBRANCH  16  17
ENDBRANCH  15  16
ENDBRANCH  14  15
ENDBRANCH  13  14
ENDBRANCH  12  13
ENDBRANCH  11  12
ENDBRANCH   1  11
TORSDOF 14
ENDMDL
MODEL 3
REMARK VINA RESULT:    -4.552      3.810      8.766
REMARK INTER + INTRA:          -8.939
REMARK INTER:                  -8.065
REMARK INTRA:                  -0.874
REMARK UNBOUND:                -0.662
REMARK SMILES CCCCCCCCCCCCCCCC(=O)[O-]
REMARK SMILES IDX 9 1 10 2 11 3 12 4 13 5 14 6 15 7 16 8 17 9 18 10 8 11 7 12
REMARK SMILES IDX 6 13 5 14 4 15 3 16 2 17 1 18
REMARK H PARENT
REMARK Flexibility Score: inf
ROOT
ATOM      1  C   UNL     1       3.053  12.566  18.720  1.00  0.00     0.000 C 
ENDROOT
BRANCH   1   2
ATOM      2  C   UNL     1       2.027  13.660  19.071  1.00  0.00     0.000 C 
BRANCH   2   3
ATOM      3  C   UNL     1       1.565  14.530  17.885  1.00  0.00     0.000 C 
BRANCH   3   4
ATOM      4  C   UNL     1       1.121  15.960  18.253  1.00  0.00     0.000 C 
BRANCH   4   5
ATOM      5  C   UNL     1      -0.400  16.153  18.389  1.00  0.00     0.000 C 
BRANCH   5   6
ATOM      6  C   UNL     1      -0.773  17.359  19.264  1.00  0.00     0.006 C 
BRANCH   6   7
ATOM      7  C   UNL     1      -0.657  18.665  18.473  1.00  0.00     0.053 C 
BRANCH   7   8
ATOM      8  C   UNL     1       0.545  19.439  18.915  1.00  0.00     0.041 C 
ATOM      9  O   UNL     1       0.625  19.865  20.098  1.00  0.00    -0.550 OA
ATOM     10  O   UNL     1       1.600  19.649  18.036  1.00  0.00    -0.550 OA
ENDBRANCH   7   8
ENDBRANCH   6   7
ENDBRANCH   5   6
ENDBRANCH   4   5
ENDBRANCH   3   4
ENDBRANCH   2   3
ENDBRANCH   1   2
BRANCH   1  11
ATOM     11  C   UNL     1       2.437  11.157  18.698  1.00  0.00     0.000 C 
BRANCH  11  12
ATOM     12  C   UNL     1       3.163  10.203  17.732  1.00  0.00    -0.000 C 
BRANCH  12  13
ATOM     13  C   UNL     1       4.495   9.624  18.251  1.00  0.00    -0.000 C 
BRANCH  13  14
ATOM     14  C   UNL     1       5.764  10.212  17.606  1.00  0.00    -0.000 C 
BRANCH  14  15
ATOM     15  C   UNL     1       6.707  10.865  18.631  1.00  0.00    -0.000 C 
BRANCH  15  16
ATOM     16  C   UNL     1       6.029  11.123  19.989  1.00  0.00    -0.000 C 
BRANCH  16  17
ATOM     17  C   UNL     1       6.754  10.518  21.205  1.00  0.00    -0.003 C 
ATOM     18  C   UNL     1       8.218  10.183  20.925  1.00  0.00     0.004 C 
ENDBRANCH  16  17
ENDBRANCH  15  16
ENDBRANCH  14  15
ENDBRANCH  13  14
ENDBRANCH  12  13
ENDBRANCH  11  12
ENDBRANCH   1  11
TORSDOF 14
ENDMDL
MODEL 4
REMARK VINA RESULT:    -4.417      1.156      2.574
REMARK INTER + INTRA:          -8.693
REMARK INTER:                  -7.838
REMARK INTRA:                  -0.855
REMARK UNBOUND:                -0.662
REMARK SMILES CCCCCCCCCCCCCCCC(=O)[O-]
REMARK SMILES IDX 9 1 10 2 11 3 12 4 13 5 14 6 15 7 16 8 17 9 18 10 8 11 7 12
REMARK SMILES IDX 6 13 5 14 4 15 3 16 2 17 1 18
REMARK H PARENT
REMARK Flexibility Score: inf
ROOT
ATOM      1  C   UNL     1       1.213  14.939  17.650  1.00  0.00     0.000 C 
ENDROOT
BRANCH   1   2
ATOM      2  C   UNL     1       2.238  14.452  18.692  1.00  0.00     0.000 C 
BRANCH   2   3
ATOM      3  C   UNL     1       2.123  12.963  19.077  1.00  0.00     0.000 C 
BRANCH   3   4
ATOM      4  C   UNL     1       3.339  12.093  18.702  1.00  0.00     0.000 C 
BRANCH   4   5
ATOM      5  C   UNL     1       3.022  10.608  18.447  1.00  0.00     0.000 C 
BRANCH   5   6
ATOM      6  C   UNL     1       4.060   9.661  19.067  1.00  0.00     0.006 C 
BRANCH   6   7
ATOM      7  C   UNL     1       5.400  10.374  19.267  1.00  0.00     0.053 C 
BRANCH   7   8
ATOM      8  C   UNL     1       5.665  10.592  20.723  1.00  0.00     0.041 C 
ATOM      9  O   UNL     1       4.847  10.177  21.585  1.00  0.00    -0.550 OA
ATOM     10  O   UNL     1       6.840  11.210  21.131  1.00  0.00    -0.550 OA
ENDBRANCH   7   8
ENDBRANCH   6   7
ENDBRANCH   5   6
ENDBRANCH   4   5
ENDBRANCH   3   4
ENDBRANCH   2   3
ENDBRANCH   1   2
BRANCH   1  11
ATOM     11  C   UNL     1       0.452  16.196  18.104  1.00  0.00     0.000 C 
BRANCH  11  12
ATOM     12  C   UNL     1      -0.910  15.873  18.742  1.00  0.00    -0.000 C 
BRANCH  12  13
ATOM     13  C   UNL     1      -1.464  16.949  19.698  1.00  0.00    -0.000 C 
BRANCH  13  14
ATOM     14  C   UNL     1      -1.475  18.384  19.139  1.00  0.00    -0.000 C 
BRANCH  14  15
ATOM     15  C   UNL     1      -0.784  19.394  20.071  1.00  0.00    -0.000 C 
BRANCH  15  16
ATOM     16  C   UNL     1       0.440  20.067  19.423  1.00  0.00    -0.000 C 
BRANCH  16  17
ATOM     17  C   UNL     1       0.542  19.903  17.897  1.00  0.00    -0.003 C 
ATOM     18  C   UNL     1       1.983  19.797  17.400  1.00  0.00     0.004 C 
ENDBRANCH  16  17
ENDBRANCH  15  16
ENDBRANCH  14  15
ENDBRANCH  13  14
ENDBRANCH  12  13
ENDBRANCH  11  12
ENDBRANCH   1  11
TORSDOF 14
ENDMDL
MODEL 5
REMARK VINA RESULT:    -4.352      3.887      8.673
REMARK INTER + INTRA:          -8.576
REMARK INTER:                  -8.137
REMARK INTRA:                  -0.439
REMARK UNBOUND:                -0.662
REMARK SMILES CCCCCCCCCCCCCCCC(=O)[O-]
REMARK SMILES IDX 9 1 10 2 11 3 12 4 13 5 14 6 15 7 16 8 17 9 18 10 8 11 7 12
REMARK SMILES IDX 6 13 5 14 4 15 3 16 2 17 1 18
REMARK H PARENT
REMARK Flexibility Score: inf
ROOT
ATOM      1  C   UNL     1       3.030  12.587  18.773  1.00  0.00     0.000 C 
ENDROOT
BRANCH   1   2
ATOM      2  C   UNL     1       1.996  13.684  19.084  1.00  0.00     0.000 C 
BRANCH   2   3
ATOM      3  C   UNL     1       1.638  14.604  17.898  1.00  0.00     0.000 C 
BRANCH   3   4
ATOM      4  C   UNL     1       0.583  15.686  18.202  1.00  0.00     0.000 C 
BRANCH   4   5
ATOM      5  C   UNL     1       1.151  17.099  18.431  1.00  0.00     0.000 C 
BRANCH   5   6
ATOM      6  C   UNL     1       0.113  18.073  19.007  1.00  0.00     0.006 C 
BRANCH   6   7
ATOM      7  C   UNL     1       0.609  19.518  18.916  1.00  0.00     0.053 C 
BRANCH   7   8
ATOM      8  C   UNL     1       1.260  19.766  17.592  1.00  0.00     0.041 C 
ATOM      9  O   UNL     1       0.557  19.989  16.571  1.00  0.00    -0.550 OA
ATOM     10  O   UNL     1       2.645  19.800  17.493  1.00  0.00    -0.550 OA
ENDBRANCH   7   8
ENDBRANCH   6   7
ENDBRANCH   5   6
ENDBRANCH   4   5
ENDBRANCH   3   4
ENDBRANCH   2   3
ENDBRANCH   1   2
BRANCH   1  11
ATOM     11  C   UNL     1       2.416  11.177  18.755  1.00  0.00     0.000 C 
BRANCH  11  12
ATOM     12  C   UNL     1       3.467  10.070  18.557  1.00  0.00    -0.000 C 
BRANCH  12  13
ATOM     13  C   UNL     1       4.154   9.573  19.845  1.00  0.00    -0.000 C 
BRANCH  13  14
ATOM     14  C   UNL     1       4.942  10.641  20.626  1.00  0.00    -0.000 C 
BRANCH  14  15
ATOM     15  C   UNL     1       6.393  10.222  20.914  1.00  0.00    -0.000 C 
BRANCH  15  16
ATOM     16  C   UNL     1       7.370  10.643  19.800  1.00  0.00    -0.000 C 
BRANCH  16  17
ATOM     17  C   UNL     1       6.720  11.347  18.595  1.00  0.00    -0.003 C 
ATOM     18  C   UNL     1       6.894  10.579  17.286  1.00  0.00     0.004 C 
ENDBRANCH  16  17
ENDBRANCH  15  16
ENDBRANCH  14  15
ENDBRANCH  13  14
ENDBRANCH  12  13
ENDBRANCH  11  12
ENDBRANCH   1  11
TORSDOF 14
ENDMDL
MODEL 6
REMARK VINA RESULT:    -4.333      3.710      9.023
REMARK INTER + INTRA:          -8.542
REMARK INTER:                  -7.698
REMARK INTRA:                  -0.844
REMARK UNBOUND:                -0.662
REMARK SMILES CCCCCCCCCCCCCCCC(=O)[O-]
REMARK SMILES IDX 9 1 10 2 11 3 12 4 13 5 14 6 15 7 16 8 17 9 18 10 8 11 7 12
REMARK SMILES IDX 6 13 5 14 4 15 3 16 2 17 1 18
REMARK H PARENT
REMARK Flexibility Score: inf
ROOT
ATOM      1  C   UNL     1       1.994  14.471  17.996  1.00  0.00     0.000 C 
ENDROOT
BRANCH   1   2
ATOM      2  C   UNL     1       1.208  15.745  18.358  1.00  0.00     0.000 C 
BRANCH   2   3
ATOM      3  C   UNL     1      -0.327  15.591  18.358  1.00  0.00     0.000 C 
BRANCH   3   4
ATOM      4  C   UNL     1      -1.087  16.600  19.241  1.00  0.00     0.000 C 
BRANCH   4   5
ATOM      5  C   UNL     1      -1.951  17.614  18.470  1.00  0.00     0.000 C 
BRANCH   5   6
ATOM      6  C   UNL     1      -1.651  19.070  18.858  1.00  0.00     0.006 C 
BRANCH   6   7
ATOM      7  C   UNL     1      -0.555  19.659  17.966  1.00  0.00     0.053 C 
BRANCH   7   8
ATOM      8  C   UNL     1       0.744  19.722  18.704  1.00  0.00     0.041 C 
ATOM      9  O   UNL     1       0.766  20.043  19.922  1.00  0.00    -0.550 OA
ATOM     10  O   UNL     1       1.926  19.377  18.062  1.00  0.00    -0.550 OA
ENDBRANCH   7   8
ENDBRANCH   6   7
ENDBRANCH   5   6
ENDBRANCH   4   5
ENDBRANCH   3   4
ENDBRANCH   2   3
ENDBRANCH   1   2
BRANCH   1  11
ATOM     11  C   UNL     1       1.961  13.412  19.111  1.00  0.00     0.000 C 
BRANCH  11  12
ATOM     12  C   UNL     1       3.159  12.448  19.055  1.00  0.00    -0.000 C 
BRANCH  12  13
ATOM     13  C   UNL     1       2.830  11.009  18.608  1.00  0.00    -0.000 C 
BRANCH  13  14
ATOM     14  C   UNL     1       3.951   9.977  18.831  1.00  0.00    -0.000 C 
BRANCH  14  15
ATOM     15  C   UNL     1       5.086  10.095  17.799  1.00  0.00    -0.000 C 
BRANCH  15  16
ATOM     16  C   UNL     1       6.423  10.528  18.428  1.00  0.00    -0.000 C 
BRANCH  16  17
ATOM     17  C   UNL     1       6.368  10.828  19.936  1.00  0.00    -0.003 C 
ATOM     18  C   UNL     1       7.658  10.458  20.668  1.00  0.00     0.004 C 
ENDBRANCH  16  17
ENDBRANCH  15  16
ENDBRANCH  14  15
ENDBRANCH  13  14
ENDBRANCH  12  13
ENDBRANCH  11  12
ENDBRANCH   1  11
TORSDOF 14
ENDMDL
MODEL 7
REMARK VINA RESULT:    -4.219      3.819      8.239
REMARK INTER + INTRA:          -8.333
REMARK INTER:                  -7.504
REMARK INTRA:                  -0.829
REMARK UNBOUND:                -0.662
REMARK SMILES CCCCCCCCCCCCCCCC(=O)[O-]
REMARK SMILES IDX 9 1 10 2 11 3 12 4 13 5 14 6 15 7 16 8 17 9 18 10 8 11 7 12
REMARK SMILES IDX 6 13 5 14 4 15 3 16 2 17 1 18
REMARK H PARENT
REMARK Flexibility Score: inf
ROOT
ATOM      1  C   UNL     1       4.171  10.781  20.266  1.00  0.00     0.000 C 
ENDROOT
BRANCH   1   2
ATOM      2  C   UNL     1       4.108  12.125  19.517  1.00  0.00     0.000 C 
BRANCH   2   3
ATOM      3  C   UNL     1       2.805  12.377  18.731  1.00  0.00     0.000 C 
BRANCH   3   4
ATOM      4  C   UNL     1       2.032  13.649  19.133  1.00  0.00     0.000 C 
BRANCH   4   5
ATOM      5  C   UNL     1       1.766  14.638  17.983  1.00  0.00     0.000 C 
BRANCH   5   6
ATOM      6  C   UNL     1       0.541  15.528  18.234  1.00  0.00     0.006 C 
BRANCH   6   7
ATOM      7  C   UNL     1       0.959  16.985  18.455  1.00  0.00     0.053 C 
BRANCH   7   8
ATOM      8  C   UNL     1      -0.166  17.767  19.055  1.00  0.00     0.041 C 
ATOM      9  O   UNL     1       0.061  18.615  19.959  1.00  0.00    -0.550 OA
ATOM     10  O   UNL     1      -1.461  17.598  18.582  1.00  0.00    -0.550 OA
ENDBRANCH   7   8
ENDBRANCH   6   7
ENDBRANCH   5   6
ENDBRANCH   4   5
ENDBRANCH   3   4
ENDBRANCH   2   3
ENDBRANCH   1   2
BRANCH   1  11
ATOM     11  C   UNL     1       5.510  10.565  20.992  1.00  0.00     0.000 C 
BRANCH  11  12
ATOM     12  C   UNL     1       6.708  11.151  20.224  1.00  0.00    -0.000 C 
BRANCH  12  13
ATOM     13  C   UNL     1       7.167  10.339  18.995  1.00  0.00    -0.000 C 
BRANCH  13  14
ATOM     14  C   UNL     1       6.869  10.986  17.630  1.00  0.00    -0.000 C 
BRANCH  14  15
ATOM     15  C   UNL     1       5.920  10.142  16.762  1.00  0.00    -0.000 C 
BRANCH  15  16
ATOM     16  C   UNL     1       4.848   9.407  17.588  1.00  0.00    -0.000 C 
BRANCH  16  17
ATOM     17  C   UNL     1       3.524   9.144  16.850  1.00  0.00    -0.003 C 
ATOM     18  C   UNL     1       2.351   8.886  17.795  1.00  0.00     0.004 C 
ENDBRANCH  16  17
ENDBRANCH  15  16
ENDBRANCH  14  15
ENDBRANCH  13  14
ENDBRANCH  12  13
ENDBRANCH  11  12
ENDBRANCH   1  11
TORSDOF 14
ENDMDL
MODEL 8
REMARK VINA RESULT:    -4.156      3.799      8.923
REMARK INTER + INTRA:          -8.218
REMARK INTER:                  -7.578
REMARK INTRA:                  -0.641
REMARK UNBOUND:                -0.662
REMARK SMILES CCCCCCCCCCCCCCCC(=O)[O-]
REMARK SMILES IDX 9 1 10 2 11 3 12 4 13 5 14 6 15 7 16 8 17 9 18 10 8 11 7 12
REMARK SMILES IDX 6 13 5 14 4 15 3 16 2 17 1 18
REMARK H PARENT
REMARK Flexibility Score: inf
ROOT
ATOM      1  C   UNL     1       1.487  14.527  17.842  1.00  0.00     0.000 C 
ENDROOT
BRANCH   1   2
ATOM      2  C   UNL     1       0.747  15.822  18.224  1.00  0.00     0.000 C 
BRANCH   2   3
ATOM      3  C   UNL     1      -0.743  15.645  18.584  1.00  0.00     0.000 C 
BRANCH   3   4
ATOM      4  C   UNL     1      -1.541  16.954  18.739  1.00  0.00     0.000 C 
BRANCH   4   5
ATOM      5  C   UNL     1      -1.327  17.691  20.074  1.00  0.00     0.000 C 
BRANCH   5   6
ATOM      6  C   UNL     1      -0.838  19.135  19.887  1.00  0.00     0.006 C 
BRANCH   6   7
ATOM      7  C   UNL     1      -0.717  19.483  18.401  1.00  0.00     0.053 C 
BRANCH   7   8
ATOM      8  C   UNL     1       0.720  19.530  17.989  1.00  0.00     0.041 C 
ATOM      9  O   UNL     1       1.627  19.251  18.817  1.00  0.00    -0.550 OA
ATOM     10  O   UNL     1       1.058  19.831  16.676  1.00  0.00    -0.550 OA
ENDBRANCH   7   8
ENDBRANCH   6   7
ENDBRANCH   5   6
ENDBRANCH   4   5
ENDBRANCH   3   4
ENDBRANCH   2   3
ENDBRANCH   1   2
BRANCH   1  11
ATOM     11  C   UNL     1       2.099  13.809  19.056  1.00  0.00     0.000 C 
BRANCH  11  12
ATOM     12  C   UNL     1       2.664  12.421  18.708  1.00  0.00    -0.000 C 
BRANCH  12  13
ATOM     13  C   UNL     1       3.971  12.038  19.431  1.00  0.00    -0.000 C 
BRANCH  13  14
ATOM     14  C   UNL     1       4.212  10.526  19.601  1.00  0.00    -0.000 C 
BRANCH  14  15
ATOM     15  C   UNL     1       4.024   9.741  18.292  1.00  0.00    -0.000 C 
BRANCH  15  16
ATOM     16  C   UNL     1       5.223   9.877  17.335  1.00  0.00    -0.000 C 
BRANCH  16  17
ATOM     17  C   UNL     1       6.495  10.473  17.963  1.00  0.00    -0.003 C 
ATOM     18  C   UNL     1       7.501  10.968  16.925  1.00  0.00     0.004 C 
ENDBRANCH  16  17
ENDBRANCH  15  16
ENDBRANCH  14  15
ENDBRANCH  13  14
ENDBRANCH  12  13
ENDBRANCH  11  12
ENDBRANCH   1  11
TORSDOF 14
ENDMDL
MODEL 9
REMARK VINA RESULT:    -4.146      1.924      2.513
REMARK INTER + INTRA:          -8.201
REMARK INTER:                  -7.812
REMARK INTRA:                  -0.389
REMARK UNBOUND:                -0.662
REMARK SMILES CCCCCCCCCCCCCCCC(=O)[O-]
REMARK SMILES IDX 9 1 10 2 11 3 12 4 13 5 14 6 15 7 16 8 17 9 18 10 8 11 7 12
REMARK SMILES IDX 6 13 5 14 4 15 3 16 2 17 1 18
REMARK H PARENT
REMARK Flexibility Score: inf
ROOT
ATOM      1  C   UNL     1       1.854  13.506  19.117  1.00  0.00     0.000 C 
ENDROOT
BRANCH   1   2
ATOM      2  C   UNL     1       3.013  12.495  19.193  1.00  0.00     0.000 C 
BRANCH   2   3
ATOM      3  C   UNL     1       2.773  11.165  18.450  1.00  0.00     0.000 C 
BRANCH   3   4
ATOM      4  C   UNL     1       3.595   9.967  18.966  1.00  0.00     0.000 C 
BRANCH   4   5
ATOM      5  C   UNL     1       4.786  10.338  19.867  1.00  0.00     0.000 C 
BRANCH   5   6
ATOM      6  C   UNL     1       5.703  11.397  19.239  1.00  0.00     0.006 C 
BRANCH   6   7
ATOM      7  C   UNL     1       6.973  10.755  18.672  1.00  0.00     0.053 C 
BRANCH   7   8
ATOM      8  C   UNL     1       6.913  10.706  17.178  1.00  0.00     0.041 C 
ATOM      9  O   UNL     1       6.081   9.958  16.601  1.00  0.00    -0.550 OA
ATOM     10  O   UNL     1       7.741  11.525  16.422  1.00  0.00    -0.550 OA
ENDBRANCH   7   8
ENDBRANCH   6   7
ENDBRANCH   5   6
ENDBRANCH   4   5
ENDBRANCH   3   4
ENDBRANCH   2   3
ENDBRANCH   1   2
BRANCH   1  11
ATOM     11  C   UNL     1       1.995  14.489  17.943  1.00  0.00     0.000 C 
BRANCH  11  12
ATOM     12  C   UNL     1       0.847  15.512  17.878  1.00  0.00    -0.000 C 
BRANCH  12  13
ATOM     13  C   UNL     1      -0.288  15.297  18.899  1.00  0.00    -0.000 C 
BRANCH  13  14
ATOM     14  C   UNL     1      -1.376  16.387  18.914  1.00  0.00    -0.000 C 
BRANCH  14  15
ATOM     15  C   UNL     1      -1.285  17.306  20.143  1.00  0.00    -0.000 C 
BRANCH  15  16
ATOM     16  C   UNL     1      -0.993  18.772  19.775  1.00  0.00    -0.000 C 
BRANCH  16  17
ATOM     17  C   UNL     1      -0.329  18.980  18.402  1.00  0.00    -0.003 C 
ATOM     18  C   UNL     1       1.190  19.131  18.487  1.00  0.00     0.004 C 
ENDBRANCH  16  17
ENDBRANCH  15  16
ENDBRANCH  14  15
ENDBRANCH  13  14
ENDBRANCH  12  13
ENDBRANCH  11  12
ENDBRANCH   1  11
TORSDOF 14
ENDMDL
