MODEL 1
REMARK VINA RESULT:    -4.025      0.000      0.000
REMARK INTER + INTRA:         -12.232
REMARK INTER:                  -8.732
REMARK INTRA:                  -3.500
REMARK UNBOUND:                -3.500
REMARK SMILES CCCCCCCCCCCCCCCCCCCCCC(=O)[O-]
REMARK SMILES IDX 12 1 11 2 10 3 9 4 8 5 7 6 6 7 5 8 4 9 3 10 2 11 1 12 13 13
REMARK SMILES IDX 14 14 15 15 16 16 17 17 18 18 19 19 20 20 21 21 22 22 23 23
REMARK SMILES IDX 24 24
REMARK H PARENT
REMARK Flexibility Score: inf
ROOT
ATOM      1  C   UNL     1       0.686  17.260  27.406  1.00  0.00     0.000 C 
ENDROOT
BRANCH   1   2
ATOM      2  C   UNL     1      -0.141  17.220  28.705  1.00  0.00     0.000 C 
BRANCH   2   3
ATOM      3  C   UNL     1      -0.542  18.600  29.265  1.00  0.00     0.000 C 
BRANCH   3   4
ATOM      4  C   UNL     1       0.403  19.175  30.339  1.00  0.00    -0.000 C 
BRANCH   4   5
ATOM      5  C   UNL     1       1.308  18.138  31.027  1.00  0.00    -0.000 C 
BRANCH   5   6
ATOM      6  C   UNL     1       2.411  18.785  31.882  1.00  0.00    -0.000 C 
BRANCH   6   7
ATOM      7  C   UNL     1       2.202  20.296  32.072  1.00  0.00    -0.000 C 
BRANCH   7   8
ATOM      8  C   UNL     1       3.481  21.106  31.807  1.00  0.00    -0.000 C 
BRANCH   8   9
ATOM      9  C   UNL     1       3.172  22.358  30.973  1.00  0.00    -0.000 C 
BRANCH   9  10
ATOM     10  C   UNL     1       1.754  22.897  31.217  1.00  0.00    -0.000 C 
BRANCH  10  11
ATOM     11  C   UNL     1       0.847  22.755  29.985  1.00  0.00    -0.003 C 
ATOM     12  C   UNL     1      -0.578  23.204  30.297  1.00  0.00     0.004 C 
ENDBRANCH  10  11
ENDBRANCH   9  10
ENDBRANCH   8   9
ENDBRANCH   7   8
ENDBRANCH   6   7
ENDBRANCH   5   6
ENDBRANCH   4   5
ENDBRANCH   3   4
ENDBRANCH   2   3
ENDBRANCH   1   2
BRANCH   1  13
ATOM     13  C   UNL     1       1.988  16.436  27.442  1.00  0.00     0.000 C 
BRANCH  13  14
ATOM     14  C   UNL     1       3.255  17.288  27.676  1.00  0.00     0.000 C 
BRANCH  14  15
ATOM     15  C   UNL     1       3.015  18.782  27.402  1.00  0.00     0.000 C 
BRANCH  15  16
ATOM     16  C   UNL     1       3.664  19.688  28.460  1.00  0.00     0.000 C 
BRANCH  16  17
ATOM     17  C   UNL     1       4.908  19.051  29.102  1.00  0.00     0.000 C 
BRANCH  17  18
ATOM     18  C   UNL     1       6.161  19.937  28.977  1.00  0.00     0.000 C 
BRANCH  18  19
ATOM     19  C   UNL     1       5.902  21.358  28.437  1.00  0.00     0.000 C 
BRANCH  19  20
ATOM     20  C   UNL     1       6.580  22.494  29.230  1.00  0.00     0.006 C 
BRANCH  20  21
ATOM     21  C   UNL     1       7.718  23.201  28.477  1.00  0.00     0.053 C 
BRANCH  21  22
ATOM     22  C   UNL     1       8.982  22.398  28.491  1.00  0.00     0.041 C 
ATOM     23  O   UNL     1       9.621  22.203  27.424  1.00  0.00    -0.550 OA
ATOM     24  O   UNL     1       9.469  21.890  29.688  1.00  0.00    -0.550 OA
ENDBRANCH  21  22
ENDBRANCH  20  21
ENDBRANCH  19  20
ENDBRANCH  18  19
ENDBRANCH  17  18
ENDBRANCH  16  17
ENDBRANCH  15  16
ENDBRANCH  14  15
ENDBRANCH  13  14
ENDBRANCH   1  13
TORSDOF 20
ENDMDL
MODEL 2
REMARK VINA RESULT:    -3.891      3.410      7.585
REMARK INTER + INTRA:         -11.941
REMARK INTER:                  -9.637
REMARK INTRA:                  -2.303
REMARK UNBOUND:                -3.500
REMARK SMILES CCCCCCCCCCCCCCCCCCCCCC(=O)[O-]
REMARK SMILES IDX 12 1 11 2 10 3 9 4 8 5 7 6 6 7 5 8 4 9 3 10 2 11 1 12 13 13
REMARK SMILES IDX 14 14 15 15 16 16 17 17 18 18 19 19 20 20 21 21 22 22 23 23
REMARK SMILES IDX 24 24
REMARK H PARENT
REMARK Flexibility Score: inf
ROOT
ATOM      1  C   UNL     1       2.783  20.085  30.002  1.00  0.00     0.000 C 
ENDROOT
BRANCH   1   2
ATOM      2  C   UNL     1       3.611  19.859  28.723  1.00  0.00     0.000 C 
BRANCH   2   3
ATOM      3  C   UNL     1       4.882  19.007  28.912  1.00  0.00     0.000 C 
BRANCH   3   4
ATOM      4  C   UNL     1       6.214  19.762  28.726  1.00  0.00    -0.000 C 
BRANCH   4   5
ATOM      5  C   UNL     1       6.184  21.241  29.148  1.00  0.00    -0.000 C 
BRANCH   5   6
ATOM      6  C   UNL     1       6.693  22.185  28.044  1.00  0.00    -0.000 C 
BRANCH   6   7
ATOM      7  C   UNL     1       7.818  23.112  28.531  1.00  0.00    -0.000 C 
BRANCH   7   8
ATOM      8  C   UNL     1       9.202  22.682  28.019  1.00  0.00    -0.000 C 
BRANCH   8   9
ATOM      9  C   UNL     1       9.785  21.564  28.896  1.00  0.00    -0.000 C 
BRANCH   9  10
ATOM     10  C   UNL     1      10.255  20.352  28.076  1.00  0.00    -0.000 C 
BRANCH  10  11
ATOM     11  C   UNL     1       9.559  20.257  26.710  1.00  0.00    -0.003 C 
ATOM     12  C   UNL     1       9.302  18.803  26.324  1.00  0.00     0.004 C 
ENDBRANCH  10  11
ENDBRANCH   9  10
ENDBRANCH   8   9
ENDBRANCH   7   8
ENDBRANCH   6   7
ENDBRANCH   5   6
ENDBRANCH   4   5
ENDBRANCH   3   4
ENDBRANCH   2   3
ENDBRANCH   1   2
BRANCH   1  13
ATOM     13  C   UNL     1       2.128  21.475  30.112  1.00  0.00     0.000 C 
BRANCH  13  14
ATOM     14  C   UNL     1       0.601  21.426  30.344  1.00  0.00     0.000 C 
BRANCH  14  15
ATOM     15  C   UNL     1       0.076  19.986  30.474  1.00  0.00     0.000 C 
BRANCH  15  16
ATOM     16  C   UNL     1      -1.298  19.798  29.812  1.00  0.00     0.000 C 
BRANCH  16  17
ATOM     17  C   UNL     1      -1.380  18.511  28.973  1.00  0.00     0.000 C 
BRANCH  17  18
ATOM     18  C   UNL     1      -0.063  17.713  28.978  1.00  0.00     0.000 C 
BRANCH  18  19
ATOM     19  C   UNL     1       0.449  17.295  27.585  1.00  0.00     0.000 C 
BRANCH  19  20
ATOM     20  C   UNL     1       1.955  16.963  27.514  1.00  0.00     0.006 C 
BRANCH  20  21
ATOM     21  C   UNL     1       2.281  15.469  27.655  1.00  0.00     0.053 C 
BRANCH  21  22
ATOM     22  C   UNL     1       1.955  14.952  29.022  1.00  0.00     0.041 C 
ATOM     23  O   UNL     1       2.631  15.323  30.019  1.00  0.00    -0.550 OA
ATOM     24  O   UNL     1       0.887  14.083  29.200  1.00  0.00    -0.550 OA
ENDBRANCH  21  22
ENDBRANCH  20  21
ENDBRANCH  19  20
ENDBRANCH  18  19
ENDBRANCH  17  18
ENDBRANCH  16  17
ENDBRANCH  15  16
ENDBRANCH  14  15
ENDBRANCH  13  14
ENDBRANCH   1  13
TORSDOF 20
ENDMDL
MODEL 3
REMARK VINA RESULT:    -3.827      2.552      5.015
REMARK INTER + INTRA:         -11.802
REMARK INTER:                  -9.487
REMARK INTRA:                  -2.315
REMARK UNBOUND:                -3.500
REMARK SMILES CCCCCCCCCCCCCCCCCCCCCC(=O)[O-]
REMARK SMILES IDX 12 1 11 2 10 3 9 4 8 5 7 6 6 7 5 8 4 9 3 10 2 11 1 12 13 13
REMARK SMILES IDX 14 14 15 15 16 16 17 17 18 18 19 19 20 20 21 21 22 22 23 23
REMARK SMILES IDX 24 24
REMARK H PARENT
REMARK Flexibility Score: inf
ROOT
ATOM      1  C   UNL     1       5.379  19.563  28.739  1.00  0.00     0.000 C 
ENDROOT
BRANCH   1   2
ATOM      2  C   UNL     1       3.875  19.855  28.582  1.00  0.00     0.000 C 
BRANCH   2   3
ATOM      3  C   UNL     1       3.126  18.915  27.615  1.00  0.00     0.000 C 
BRANCH   3   4
ATOM      4  C   UNL     1       3.126  17.426  28.014  1.00  0.00    -0.000 C 
BRANCH   4   5
ATOM      5  C   UNL     1       1.944  16.608  27.464  1.00  0.00    -0.000 C 
BRANCH   5   6
ATOM      6  C   UNL     1       0.630  17.408  27.433  1.00  0.00    -0.000 C 
BRANCH   6   7
ATOM      7  C   UNL     1      -0.132  17.345  28.766  1.00  0.00    -0.000 C 
BRANCH   7   8
ATOM      8  C   UNL     1      -0.173  18.701  29.489  1.00  0.00    -0.000 C 
BRANCH   8   9
ATOM      9  C   UNL     1       0.873  18.753  30.612  1.00  0.00    -0.000 C 
BRANCH   9  10
ATOM     10  C   UNL     1       1.105  20.178  31.140  1.00  0.00    -0.000 C 
BRANCH  10  11
ATOM     11  C   UNL     1       0.702  21.257  30.124  1.00  0.00    -0.003 C 
ATOM     12  C   UNL     1       1.358  22.595  30.454  1.00  0.00     0.004 C 
ENDBRANCH  10  11
ENDBRANCH   9  10
ENDBRANCH   8   9
ENDBRANCH   7   8
ENDBRANCH   6   7
ENDBRANCH   5   6
ENDBRANCH   4   5
ENDBRANCH   3   4
ENDBRANCH   2   3
ENDBRANCH   1   2
BRANCH   1  13
ATOM     13  C   UNL     1       6.236  20.779  29.143  1.00  0.00     0.000 C 
BRANCH  13  14
ATOM     14  C   UNL     1       6.492  21.769  27.985  1.00  0.00     0.000 C 
BRANCH  14  15
ATOM     15  C   UNL     1       7.558  22.821  28.339  1.00  0.00     0.000 C 
BRANCH  15  16
ATOM     16  C   UNL     1       8.932  22.195  28.623  1.00  0.00     0.000 C 
BRANCH  16  17
ATOM     17  C   UNL     1       9.801  22.075  27.359  1.00  0.00     0.000 C 
BRANCH  17  18
ATOM     18  C   UNL     1      10.338  20.649  27.140  1.00  0.00     0.000 C 
BRANCH  18  19
ATOM     19  C   UNL     1       9.314  19.650  26.565  1.00  0.00     0.000 C 
BRANCH  19  20
ATOM     20  C   UNL     1       8.791  18.599  27.567  1.00  0.00     0.006 C 
BRANCH  20  21
ATOM     21  C   UNL     1       9.098  17.144  27.178  1.00  0.00     0.053 C 
BRANCH  21  22
ATOM     22  C   UNL     1       9.981  17.063  25.970  1.00  0.00     0.041 C 
ATOM     23  O   UNL     1      11.233  17.035  26.099  1.00  0.00    -0.550 OA
ATOM     24  O   UNL     1       9.418  16.989  24.702  1.00  0.00    -0.550 OA
ENDBRANCH  21  22
ENDBRANCH  20  21
ENDBRANCH  19  20
ENDBRANCH  18  19
ENDBRANCH  17  18
ENDBRANCH  16  17
ENDBRANCH  15  16
ENDBRANCH  14  15
ENDBRANCH  13  14
ENDBRANCH   1  13
TORSDOF 20
ENDMDL
MODEL 4
REMARK VINA RESULT:    -3.827      2.962      6.043
REMARK INTER + INTRA:         -11.802
REMARK INTER:                  -9.238
REMARK INTRA:                  -2.564
REMARK UNBOUND:                -3.500
REMARK SMILES CCCCCCCCCCCCCCCCCCCCCC(=O)[O-]
REMARK SMILES IDX 12 1 11 2 10 3 9 4 8 5 7 6 6 7 5 8 4 9 3 10 2 11 1 12 13 13
REMARK SMILES IDX 14 14 15 15 16 16 17 17 18 18 19 19 20 20 21 21 22 22 23 23
REMARK SMILES IDX 24 24
REMARK H PARENT
REMARK Flexibility Score: inf
ROOT
ATOM      1  C   UNL     1       6.504  21.739  27.985  1.00  0.00     0.000 C 
ENDROOT
BRANCH   1   2
ATOM      2  C   UNL     1       5.500  21.046  28.925  1.00  0.00     0.000 C 
BRANCH   2   3
ATOM      3  C   UNL     1       5.422  19.512  28.777  1.00  0.00     0.000 C 
BRANCH   3   4
ATOM      4  C   UNL     1       4.045  18.892  29.088  1.00  0.00    -0.000 C 
BRANCH   4   5
ATOM      5  C   UNL     1       3.067  18.857  27.900  1.00  0.00    -0.000 C 
BRANCH   5   6
ATOM      6  C   UNL     1       2.542  17.442  27.603  1.00  0.00    -0.000 C 
BRANCH   6   7
ATOM      7  C   UNL     1       1.006  17.369  27.601  1.00  0.00    -0.000 C 
BRANCH   7   8
ATOM      8  C   UNL     1       0.410  17.443  29.015  1.00  0.00    -0.000 C 
BRANCH   8   9
ATOM      9  C   UNL     1      -0.881  18.276  29.022  1.00  0.00    -0.000 C 
BRANCH   9  10
ATOM     10  C   UNL     1      -0.719  19.613  29.762  1.00  0.00    -0.000 C 
BRANCH  10  11
ATOM     11  C   UNL     1       0.607  19.706  30.531  1.00  0.00    -0.003 C 
ATOM     12  C   UNL     1       1.241  21.084  30.369  1.00  0.00     0.004 C 
ENDBRANCH  10  11
ENDBRANCH   9  10
ENDBRANCH   8   9
ENDBRANCH   7   8
ENDBRANCH   6   7
ENDBRANCH   5   6
ENDBRANCH   4   5
ENDBRANCH   3   4
ENDBRANCH   2   3
ENDBRANCH   1   2
BRANCH   1  13
ATOM     13  C   UNL     1       7.343  22.853  28.642  1.00  0.00     0.000 C 
BRANCH  13  14
ATOM     14  C   UNL     1       8.855  22.745  28.349  1.00  0.00     0.000 C 
BRANCH  14  15
ATOM     15  C   UNL     1       9.570  21.780  29.310  1.00  0.00     0.000 C 
BRANCH  15  16
ATOM     16  C   UNL     1      10.385  20.707  28.572  1.00  0.00     0.000 C 
BRANCH  16  17
ATOM     17  C   UNL     1      10.109  20.690  27.059  1.00  0.00     0.000 C 
BRANCH  17  18
ATOM     18  C   UNL     1       9.211  19.515  26.632  1.00  0.00     0.000 C 
BRANCH  18  19
ATOM     19  C   UNL     1       8.628  18.686  27.794  1.00  0.00     0.000 C 
BRANCH  19  20
ATOM     20  C   UNL     1       8.380  17.197  27.475  1.00  0.00     0.006 C 
BRANCH  20  21
ATOM     21  C   UNL     1       7.595  16.440  28.557  1.00  0.00     0.053 C 
BRANCH  21  22
ATOM     22  C   UNL     1       6.580  15.510  27.964  1.00  0.00     0.041 C 
ATOM     23  O   UNL     1       5.716  15.945  27.157  1.00  0.00    -0.550 OA
ATOM     24  O   UNL     1       6.608  14.158  28.280  1.00  0.00    -0.550 OA
ENDBRANCH  21  22
ENDBRANCH  20  21
ENDBRANCH  19  20
ENDBRANCH  18  19
ENDBRANCH  17  18
ENDBRANCH  16  17
ENDBRANCH  15  16
ENDBRANCH  14  15
ENDBRANCH  13  14
ENDBRANCH   1  13
TORSDOF 20
ENDMDL
MODEL 5
REMARK VINA RESULT:    -3.816      4.522      7.867
REMARK INTER + INTRA:         -11.778
REMARK INTER:                  -9.450
REMARK INTRA:                  -2.328
REMARK UNBOUND:                -3.500
REMARK SMILES CCCCCCCCCCCCCCCCCCCCCC(=O)[O-]
REMARK SMILES IDX 12 1 11 2 10 3 9 4 8 5 7 6 6 7 5 8 4 9 3 10 2 11 1 12 13 13
REMARK SMILES IDX 14 14 15 15 16 16 17 17 18 18 19 19 20 20 21 21 22 22 23 23
REMARK SMILES IDX 24 24
REMARK H PARENT
REMARK Flexibility Score: inf
ROOT
ATOM      1  C   UNL     1       3.257  17.348  27.605  1.00  0.00     0.000 C 
ENDROOT
BRANCH   1   2
ATOM      2  C   UNL     1       2.984  18.836  27.892  1.00  0.00     0.000 C 
BRANCH   2   3
ATOM      3  C   UNL     1       3.270  19.284  29.340  1.00  0.00     0.000 C 
BRANCH   3   4
ATOM      4  C   UNL     1       4.409  20.311  29.499  1.00  0.00    -0.000 C 
BRANCH   4   5
ATOM      5  C   UNL     1       5.157  20.654  28.199  1.00  0.00    -0.000 C 
BRANCH   5   6
ATOM      6  C   UNL     1       6.611  21.092  28.448  1.00  0.00    -0.000 C 
BRANCH   6   7
ATOM      7  C   UNL     1       6.738  22.603  28.702  1.00  0.00    -0.000 C 
BRANCH   7   8
ATOM      8  C   UNL     1       8.141  23.140  28.380  1.00  0.00    -0.000 C 
BRANCH   8   9
ATOM      9  C   UNL     1       9.184  22.014  28.437  1.00  0.00    -0.000 C 
BRANCH   9  10
ATOM     10  C   UNL     1       9.992  21.890  27.136  1.00  0.00    -0.000 C 
BRANCH  10  11
ATOM     11  C   UNL     1       9.719  20.574  26.393  1.00  0.00    -0.003 C 
ATOM     12  C   UNL     1       9.748  19.386  27.351  1.00  0.00     0.004 C 
ENDBRANCH  10  11
ENDBRANCH   9  10
ENDBRANCH   8   9
ENDBRANCH   7   8
ENDBRANCH   6   7
ENDBRANCH   5   6
ENDBRANCH   4   5
ENDBRANCH   3   4
ENDBRANCH   2   3
ENDBRANCH   1   2
BRANCH   1  13
ATOM     13  C   UNL     1       2.001  16.504  27.315  1.00  0.00     0.000 C 
BRANCH  13  14
ATOM     14  C   UNL     1       0.700  17.334  27.235  1.00  0.00     0.000 C 
BRANCH  14  15
ATOM     15  C   UNL     1      -0.104  17.291  28.545  1.00  0.00     0.000 C 
BRANCH  15  16
ATOM     16  C   UNL     1       0.279  16.097  29.434  1.00  0.00     0.000 C 
BRANCH  16  17
ATOM     17  C   UNL     1       1.040  16.521  30.701  1.00  0.00     0.000 C 
BRANCH  17  18
ATOM     18  C   UNL     1       1.889  15.382  31.294  1.00  0.00     0.000 C 
BRANCH  18  19
ATOM     19  C   UNL     1       3.038  14.890  30.392  1.00  0.00     0.000 C 
BRANCH  19  20
ATOM     20  C   UNL     1       3.000  13.387  30.045  1.00  0.00     0.006 C 
BRANCH  20  21
ATOM     21  C   UNL     1       2.259  13.057  28.740  1.00  0.00     0.053 C 
BRANCH  21  22
ATOM     22  C   UNL     1       1.137  12.090  28.963  1.00  0.00     0.041 C 
ATOM     23  O   UNL     1       0.603  11.500  27.986  1.00  0.00    -0.550 OA
ATOM     24  O   UNL     1       0.701  11.818  30.253  1.00  0.00    -0.550 OA
ENDBRANCH  21  22
ENDBRANCH  20  21
ENDBRANCH  19  20
ENDBRANCH  18  19
ENDBRANCH  17  18
ENDBRANCH  16  17
ENDBRANCH  15  16
ENDBRANCH  14  15
ENDBRANCH  13  14
ENDBRANCH   1  13
TORSDOF 20
ENDMDL
MODEL 6
REMARK VINA RESULT:    -3.793      2.421      5.403
REMARK INTER + INTRA:         -11.728
REMARK INTER:                  -8.891
REMARK INTRA:                  -2.837
REMARK UNBOUND:                -3.500
REMARK SMILES CCCCCCCCCCCCCCCCCCCCCC(=O)[O-]
REMARK SMILES IDX 12 1 11 2 10 3 9 4 8 5 7 6 6 7 5 8 4 9 3 10 2 11 1 12 13 13
REMARK SMILES IDX 14 14 15 15 16 16 17 17 18 18 19 19 20 20 21 21 22 22 23 23
REMARK SMILES IDX 24 24
REMARK H PARENT
REMARK Flexibility Score: inf
ROOT
ATOM      1  C   UNL     1       5.537  19.828  28.716  1.00  0.00     0.000 C 
ENDROOT
BRANCH   1   2
ATOM      2  C   UNL     1       4.029  19.804  28.406  1.00  0.00     0.000 C 
BRANCH   2   3
ATOM      3  C   UNL     1       3.113  19.625  29.634  1.00  0.00     0.000 C 
BRANCH   3   4
ATOM      4  C   UNL     1       2.317  20.879  30.050  1.00  0.00    -0.000 C 
BRANCH   4   5
ATOM      5  C   UNL     1       0.805  20.658  30.225  1.00  0.00    -0.000 C 
BRANCH   5   6
ATOM      6  C   UNL     1       0.433  19.171  30.365  1.00  0.00    -0.000 C 
BRANCH   6   7
ATOM      7  C   UNL     1      -0.607  18.722  29.326  1.00  0.00    -0.000 C 
BRANCH   7   8
ATOM      8  C   UNL     1      -0.315  17.321  28.767  1.00  0.00    -0.000 C 
BRANCH   8   9
ATOM      9  C   UNL     1       0.463  17.411  27.445  1.00  0.00    -0.000 C 
BRANCH   9  10
ATOM     10  C   UNL     1       1.827  16.709  27.513  1.00  0.00    -0.000 C 
BRANCH  10  11
ATOM     11  C   UNL     1       1.905  15.674  28.645  1.00  0.00    -0.003 C 
ATOM     12  C   UNL     1       3.115  15.927  29.540  1.00  0.00     0.004 C 
ENDBRANCH  10  11
ENDBRANCH   9  10
ENDBRANCH   8   9
ENDBRANCH   7   8
ENDBRANCH   6   7
ENDBRANCH   5   6
ENDBRANCH   4   5
ENDBRANCH   3   4
ENDBRANCH   2   3
ENDBRANCH   1   2
BRANCH   1  13
ATOM     13  C   UNL     1       5.932  20.679  29.939  1.00  0.00     0.000 C 
BRANCH  13  14
ATOM     14  C   UNL     1       6.060  22.187  29.630  1.00  0.00     0.000 C 
BRANCH  14  15
ATOM     15  C   UNL     1       6.747  22.452  28.279  1.00  0.00     0.000 C 
BRANCH  15  16
ATOM     16  C   UNL     1       8.062  23.232  28.428  1.00  0.00     0.000 C 
BRANCH  16  17
ATOM     17  C   UNL     1       9.278  22.449  27.905  1.00  0.00     0.000 C 
BRANCH  17  18
ATOM     18  C   UNL     1       9.749  21.359  28.885  1.00  0.00     0.000 C 
BRANCH  18  19
ATOM     19  C   UNL     1       9.419  19.915  28.458  1.00  0.00     0.000 C 
BRANCH  19  20
ATOM     20  C   UNL     1       8.930  19.758  27.003  1.00  0.00     0.006 C 
BRANCH  20  21
ATOM     21  C   UNL     1       9.497  18.531  26.272  1.00  0.00     0.053 C 
BRANCH  21  22
ATOM     22  C   UNL     1       9.339  17.278  27.078  1.00  0.00     0.041 C 
ATOM     23  O   UNL     1      10.353  16.663  27.501  1.00  0.00    -0.550 OA
ATOM     24  O   UNL     1       8.069  16.806  27.386  1.00  0.00    -0.550 OA
ENDBRANCH  21  22
ENDBRANCH  20  21
ENDBRANCH  19  20
ENDBRANCH  18  19
ENDBRANCH  17  18
ENDBRANCH  16  17
ENDBRANCH  15  16
ENDBRANCH  14  15
ENDBRANCH  13  14
ENDBRANCH   1  13
TORSDOF 20
ENDMDL
MODEL 7
REMARK VINA RESULT:    -3.782      1.430      2.635
REMARK INTER + INTRA:         -11.705
REMARK INTER:                  -9.317
REMARK INTRA:                  -2.387
REMARK UNBOUND:                -3.500
REMARK SMILES CCCCCCCCCCCCCCCCCCCCCC(=O)[O-]
REMARK SMILES IDX 12 1 11 2 10 3 9 4 8 5 7 6 6 7 5 8 4 9 3 10 2 11 1 12 13 13
REMARK SMILES IDX 14 14 15 15 16 16 17 17 18 18 19 19 20 20 21 21 22 22 23 23
REMARK SMILES IDX 24 24
REMARK H PARENT
REMARK Flexibility Score: inf
ROOT
ATOM      1  C   UNL     1       3.192  17.722  27.722  1.00  0.00     0.000 C 
ENDROOT
BRANCH   1   2
ATOM      2  C   UNL     1       2.139  16.671  27.321  1.00  0.00     0.000 C 
BRANCH   2   3
ATOM      3  C   UNL     1       0.698  17.206  27.201  1.00  0.00     0.000 C 
BRANCH   3   4
ATOM      4  C   UNL     1      -0.167  17.058  28.469  1.00  0.00    -0.000 C 
BRANCH   4   5
ATOM      5  C   UNL     1      -0.654  18.384  29.080  1.00  0.00    -0.000 C 
BRANCH   5   6
ATOM      6  C   UNL     1       0.217  18.851  30.260  1.00  0.00    -0.000 C 
BRANCH   6   7
ATOM      7  C   UNL     1       0.954  20.167  29.966  1.00  0.00    -0.000 C 
BRANCH   7   8
ATOM      8  C   UNL     1       1.428  20.877  31.244  1.00  0.00    -0.000 C 
BRANCH   8   9
ATOM      9  C   UNL     1       1.017  22.357  31.231  1.00  0.00    -0.000 C 
BRANCH   9  10
ATOM     10  C   UNL     1      -0.053  22.665  30.173  1.00  0.00    -0.000 C 
BRANCH  10  11
ATOM     11  C   UNL     1      -1.465  22.763  30.770  1.00  0.00    -0.003 C 
ATOM     12  C   UNL     1      -2.374  21.671  30.213  1.00  0.00     0.004 C 
ENDBRANCH  10  11
ENDBRANCH   9  10
ENDBRANCH   8   9
ENDBRANCH   7   8
ENDBRANCH   6   7
ENDBRANCH   5   6
ENDBRANCH   4   5
ENDBRANCH   3   4
ENDBRANCH   2   3
ENDBRANCH   1   2
BRANCH   1  13
ATOM     13  C   UNL     1       3.652  17.649  29.191  1.00  0.00     0.000 C 
BRANCH  13  14
ATOM     14  C   UNL     1       4.920  18.479  29.486  1.00  0.00     0.000 C 
BRANCH  14  15
ATOM     15  C   UNL     1       4.658  19.993  29.419  1.00  0.00     0.000 C 
BRANCH  15  16
ATOM     16  C   UNL     1       5.734  20.744  28.620  1.00  0.00     0.000 C 
BRANCH  16  17
ATOM     17  C   UNL     1       5.899  22.204  29.075  1.00  0.00     0.000 C 
BRANCH  17  18
ATOM     18  C   UNL     1       7.067  22.390  30.061  1.00  0.00     0.000 C 
BRANCH  18  19
ATOM     19  C   UNL     1       8.196  21.348  29.937  1.00  0.00     0.000 C 
BRANCH  19  20
ATOM     20  C   UNL     1       9.506  21.874  29.313  1.00  0.00     0.006 C 
BRANCH  20  21
ATOM     21  C   UNL     1       9.376  22.319  27.848  1.00  0.00     0.053 C 
BRANCH  21  22
ATOM     22  C   UNL     1       9.889  21.279  26.900  1.00  0.00     0.041 C 
ATOM     23  O   UNL     1       9.102  20.432  26.399  1.00  0.00    -0.550 OA
ATOM     24  O   UNL     1      11.232  21.263  26.546  1.00  0.00    -0.550 OA
ENDBRANCH  21  22
ENDBRANCH  20  21
ENDBRANCH  19  20
ENDBRANCH  18  19
ENDBRANCH  17  18
ENDBRANCH  16  17
ENDBRANCH  15  16
ENDBRANCH  14  15
ENDBRANCH  13  14
ENDBRANCH   1  13
TORSDOF 20
ENDMDL
MODEL 8
REMARK VINA RESULT:    -3.778      2.626      5.527
REMARK INTER + INTRA:         -11.696
REMARK INTER:                  -8.239
REMARK INTRA:                  -3.458
REMARK UNBOUND:                -3.500
REMARK SMILES CCCCCCCCCCCCCCCCCCCCCC(=O)[O-]
REMARK SMILES IDX 12 1 11 2 10 3 9 4 8 5 7 6 6 7 5 8 4 9 3 10 2 11 1 12 13 13
REMARK SMILES IDX 14 14 15 15 16 16 17 17 18 18 19 19 20 20 21 21 22 22 23 23
REMARK SMILES IDX 24 24
REMARK H PARENT
REMARK Flexibility Score: inf
ROOT
ATOM      1  C   UNL     1       1.811  16.434  27.378  1.00  0.00     0.000 C 
ENDROOT
BRANCH   1   2
ATOM      2  C   UNL     1       3.205  17.088  27.411  1.00  0.00     0.000 C 
BRANCH   2   3
ATOM      3  C   UNL     1       4.389  16.102  27.333  1.00  0.00     0.000 C 
BRANCH   3   4
ATOM      4  C   UNL     1       5.601  16.460  28.216  1.00  0.00    -0.000 C 
BRANCH   4   5
ATOM      5  C   UNL     1       5.384  16.260  29.726  1.00  0.00    -0.000 C 
BRANCH   5   6
ATOM      6  C   UNL     1       4.695  14.925  30.057  1.00  0.00    -0.000 C 
BRANCH   6   7
ATOM      7  C   UNL     1       3.588  15.076  31.113  1.00  0.00    -0.000 C 
BRANCH   7   8
ATOM      8  C   UNL     1       2.536  13.960  31.029  1.00  0.00    -0.000 C 
BRANCH   8   9
ATOM      9  C   UNL     1       1.460  14.300  29.986  1.00  0.00    -0.000 C 
BRANCH   9  10
ATOM     10  C   UNL     1       0.034  14.174  30.544  1.00  0.00    -0.000 C 
BRANCH  10  11
ATOM     11  C   UNL     1      -0.781  13.077  29.842  1.00  0.00    -0.003 C 
ATOM     12  C   UNL     1      -1.718  12.377  30.822  1.00  0.00     0.004 C 
ENDBRANCH  10  11
ENDBRANCH   9  10
ENDBRANCH   8   9
ENDBRANCH   7   8
ENDBRANCH   6   7
ENDBRANCH   5   6
ENDBRANCH   4   5
ENDBRANCH   3   4
ENDBRANCH   2   3
ENDBRANCH   1   2
BRANCH   1  13
ATOM     13  C   UNL     1       0.631  17.425  27.381  1.00  0.00     0.000 C 
BRANCH  13  14
ATOM     14  C   UNL     1      -0.408  17.149  28.490  1.00  0.00     0.000 C 
BRANCH  14  15
ATOM     15  C   UNL     1      -0.841  18.433  29.219  1.00  0.00     0.000 C 
BRANCH  15  16
ATOM     16  C   UNL     1       0.331  19.135  29.923  1.00  0.00     0.000 C 
BRANCH  16  17
ATOM     17  C   UNL     1       1.194  18.166  30.748  1.00  0.00     0.000 C 
BRANCH  17  18
ATOM     18  C   UNL     1       2.646  18.652  30.910  1.00  0.00     0.000 C 
BRANCH  18  19
ATOM     19  C   UNL     1       3.085  19.733  29.902  1.00  0.00     0.000 C 
BRANCH  19  20
ATOM     20  C   UNL     1       4.602  19.792  29.626  1.00  0.00     0.006 C 
BRANCH  20  21
ATOM     21  C   UNL     1       4.972  20.322  28.232  1.00  0.00     0.053 C 
BRANCH  21  22
ATOM     22  C   UNL     1       6.119  21.285  28.285  1.00  0.00     0.041 C 
ATOM     23  O   UNL     1       7.213  21.001  27.730  1.00  0.00    -0.550 OA
ATOM     24  O   UNL     1       5.968  22.509  28.924  1.00  0.00    -0.550 OA
ENDBRANCH  21  22
ENDBRANCH  20  21
ENDBRANCH  19  20
ENDBRANCH  18  19
ENDBRANCH  17  18
ENDBRANCH  16  17
ENDBRANCH  15  16
ENDBRANCH  14  15
ENDBRANCH  13  14
ENDBRANCH   1  13
TORSDOF 20
ENDMDL
MODEL 9
REMARK VINA RESULT:    -3.743      4.318      6.474
REMARK INTER + INTRA:         -11.620
REMARK INTER:                  -8.016
REMARK INTRA:                  -3.604
REMARK UNBOUND:                -3.500
REMARK SMILES CCCCCCCCCCCCCCCCCCCCCC(=O)[O-]
REMARK SMILES IDX 12 1 11 2 10 3 9 4 8 5 7 6 6 7 5 8 4 9 3 10 2 11 1 12 13 13
REMARK SMILES IDX 14 14 15 15 16 16 17 17 18 18 19 19 20 20 21 21 22 22 23 23
REMARK SMILES IDX 24 24
REMARK H PARENT
REMARK Flexibility Score: inf
ROOT
ATOM      1  C   UNL     1       1.383  16.552  27.644  1.00  0.00     0.000 C 
ENDROOT
BRANCH   1   2
ATOM      2  C   UNL     1       0.249  17.593  27.625  1.00  0.00     0.000 C 
BRANCH   2   3
ATOM      3  C   UNL     1      -0.641  17.611  28.886  1.00  0.00     0.000 C 
BRANCH   3   4
ATOM      4  C   UNL     1      -0.950  19.011  29.453  1.00  0.00    -0.000 C 
BRANCH   4   5
ATOM      5  C   UNL     1       0.113  19.569  30.416  1.00  0.00    -0.000 C 
BRANCH   5   6
ATOM      6  C   UNL     1       0.458  21.041  30.132  1.00  0.00    -0.000 C 
BRANCH   6   7
ATOM      7  C   UNL     1       0.406  21.915  31.396  1.00  0.00    -0.000 C 
BRANCH   7   8
ATOM      8  C   UNL     1       1.801  22.348  31.873  1.00  0.00    -0.000 C 
BRANCH   8   9
ATOM      9  C   UNL     1       2.805  22.332  30.710  1.00  0.00    -0.000 C 
BRANCH   9  10
ATOM     10  C   UNL     1       4.258  22.183  31.186  1.00  0.00    -0.000 C 
BRANCH  10  11
ATOM     11  C   UNL     1       5.271  22.293  30.036  1.00  0.00    -0.003 C 
ATOM     12  C   UNL     1       6.703  22.313  30.564  1.00  0.00     0.004 C 
ENDBRANCH  10  11
ENDBRANCH   9  10
ENDBRANCH   8   9
ENDBRANCH   7   8
ENDBRANCH   6   7
ENDBRANCH   5   6
ENDBRANCH   4   5
ENDBRANCH   3   4
ENDBRANCH   2   3
ENDBRANCH   1   2
BRANCH   1  13
ATOM     13  C   UNL     1       2.805  17.144  27.662  1.00  0.00     0.000 C 
BRANCH  13  14
ATOM     14  C   UNL     1       2.834  18.686  27.746  1.00  0.00     0.000 C 
BRANCH  14  15
ATOM     15  C   UNL     1       3.552  19.191  29.009  1.00  0.00     0.000 C 
BRANCH  15  16
ATOM     16  C   UNL     1       3.943  18.050  29.961  1.00  0.00     0.000 C 
BRANCH  16  17
ATOM     17  C   UNL     1       3.479  18.298  31.406  1.00  0.00     0.000 C 
BRANCH  17  18
ATOM     18  C   UNL     1       2.276  17.422  31.802  1.00  0.00     0.000 C 
BRANCH  18  19
ATOM     19  C   UNL     1       2.327  15.973  31.278  1.00  0.00     0.000 C 
BRANCH  19  20
ATOM     20  C   UNL     1       0.951  15.324  31.013  1.00  0.00     0.006 C 
BRANCH  20  21
ATOM     21  C   UNL     1       1.022  13.909  30.419  1.00  0.00     0.053 C 
BRANCH  21  22
ATOM     22  C   UNL     1      -0.319  13.242  30.401  1.00  0.00     0.041 C 
ATOM     23  O   UNL     1      -0.494  12.152  31.009  1.00  0.00    -0.550 OA
ATOM     24  O   UNL     1      -1.383  13.839  29.739  1.00  0.00    -0.550 OA
ENDBRANCH  21  22
ENDBRANCH  20  21
ENDBRANCH  19  20
ENDBRANCH  18  19
ENDBRANCH  17  18
ENDBRANCH  16  17
ENDBRANCH  15  16
ENDBRANCH  14  15
ENDBRANCH  13  14
ENDBRANCH   1  13
TORSDOF 20
ENDMDL
