MODEL 1
REMARK VINA RESULT:    -4.803      0.000      0.000
REMARK INTER + INTRA:         -15.946
REMARK INTER:                 -12.102
REMARK INTRA:                  -3.843
REMARK UNBOUND:                -3.843
REMARK SMILES CCCCCCCCCCCCCCCCCCCCCCCCCCCC(=O)[O-]
REMARK SMILES IDX 15 1 16 2 17 3 18 4 19 5 20 6 21 7 22 8 23 9 24 10 25 11
REMARK SMILES IDX 26 12 27 13 28 14 29 15 30 16 14 17 13 18 12 19 11 20 10 21
REMARK SMILES IDX 9 22 8 23 7 24 6 25 5 26 4 27 3 28 2 29 1 30
REMARK H PARENT
REMARK Flexibility Score: inf
ROOT
ATOM      1  C   UNL     1       7.027  -1.604  51.825  1.00  0.00     0.000 C 
ENDROOT
BRANCH   1   2
ATOM      2  C   UNL     1       6.609  -0.432  52.739  1.00  0.00     0.000 C 
BRANCH   2   3
ATOM      3  C   UNL     1       7.744   0.198  53.567  1.00  0.00     0.000 C 
BRANCH   3   4
ATOM      4  C   UNL     1       7.386   1.592  54.107  1.00  0.00     0.000 C 
BRANCH   4   5
ATOM      5  C   UNL     1       7.831   1.803  55.566  1.00  0.00     0.000 C 
BRANCH   5   6
ATOM      6  C   UNL     1       9.155   1.121  55.954  1.00  0.00     0.000 C 
BRANCH   6   7
ATOM      7  C   UNL     1      10.377   2.036  55.784  1.00  0.00     0.000 C 
BRANCH   7   8
ATOM      8  C   UNL     1      11.022   1.834  54.409  1.00  0.00     0.000 C 
BRANCH   8   9
ATOM      9  C   UNL     1      10.891   3.099  53.545  1.00  0.00     0.000 C 
BRANCH   9  10
ATOM     10  C   UNL     1      10.372   4.310  54.337  1.00  0.00     0.000 C 
BRANCH  10  11
ATOM     11  C   UNL     1       9.133   4.998  53.732  1.00  0.00     0.000 C 
BRANCH  11  12
ATOM     12  C   UNL     1       8.754   4.477  52.326  1.00  0.00     0.006 C 
BRANCH  12  13
ATOM     13  C   UNL     1       9.035   5.483  51.197  1.00  0.00     0.053 C 
BRANCH  13  14
ATOM     14  C   UNL     1       9.952   4.919  50.152  1.00  0.00     0.041 C 
ATOM     15  O   UNL     1      11.154   4.666  50.431  1.00  0.00    -0.550 OA
ATOM     16  O   UNL     1       9.480   4.680  48.867  1.00  0.00    -0.550 OA
ENDBRANCH  13  14
ENDBRANCH  12  13
ENDBRANCH  11  12
ENDBRANCH  10  11
ENDBRANCH   9  10
ENDBRANCH   8   9
ENDBRANCH   7   8
ENDBRANCH   6   7
ENDBRANCH   5   6
ENDBRANCH   4   5
ENDBRANCH   3   4
ENDBRANCH   2   3
ENDBRANCH   1   2
BRANCH   1  17
ATOM     17  C   UNL     1       5.942  -2.103  50.853  1.00  0.00     0.000 C 
BRANCH  17  18
ATOM     18  C   UNL     1       6.109  -3.589  50.486  1.00  0.00     0.000 C 
BRANCH  18  19
ATOM     19  C   UNL     1       4.785  -4.249  50.070  1.00  0.00     0.000 C 
BRANCH  19  20
ATOM     20  C   UNL     1       4.311  -3.810  48.673  1.00  0.00     0.000 C 
BRANCH  20  21
ATOM     21  C   UNL     1       5.332  -4.150  47.575  1.00  0.00     0.000 C 
BRANCH  21  22
ATOM     22  C   UNL     1       5.541  -2.994  46.585  1.00  0.00    -0.000 C 
BRANCH  22  23
ATOM     23  C   UNL     1       5.061  -1.665  47.188  1.00  0.00    -0.000 C 
BRANCH  23  24
ATOM     24  C   UNL     1       6.172  -0.602  47.245  1.00  0.00    -0.000 C 
BRANCH  24  25
ATOM     25  C   UNL     1       7.592  -1.124  46.949  1.00  0.00    -0.000 C 
BRANCH  25  26
ATOM     26  C   UNL     1       8.365  -1.657  48.169  1.00  0.00    -0.000 C 
BRANCH  26  27
ATOM     27  C   UNL     1       9.400  -2.733  47.795  1.00  0.00    -0.000 C 
BRANCH  27  28
ATOM     28  C   UNL     1       9.712  -3.683  48.962  1.00  0.00    -0.000 C 
BRANCH  28  29
ATOM     29  C   UNL     1       8.737  -4.868  49.036  1.00  0.00    -0.003 C 
ATOM     30  C   UNL     1       8.873  -5.768  47.813  1.00  0.00     0.004 C 
ENDBRANCH  28  29
ENDBRANCH  27  28
ENDBRANCH  26  27
ENDBRANCH  25  26
ENDBRANCH  24  25
ENDBRANCH  23  24
ENDBRANCH  22  23
ENDBRANCH  21  22
ENDBRANCH  20  21
ENDBRANCH  19  20
ENDBRANCH  18  19
ENDBRANCH  17  18
ENDBRANCH   1  17
TORSDOF 26
ENDMDL
MODEL 2
REMARK VINA RESULT:    -4.725      1.834      3.113
REMARK INTER + INTRA:         -15.749
REMARK INTER:                 -12.181
REMARK INTRA:                  -3.568
REMARK UNBOUND:                -3.843
REMARK SMILES CCCCCCCCCCCCCCCCCCCCCCCCCCCC(=O)[O-]
REMARK SMILES IDX 15 1 16 2 17 3 18 4 19 5 20 6 21 7 22 8 23 9 24 10 25 11
REMARK SMILES IDX 26 12 27 13 28 14 29 15 30 16 14 17 13 18 12 19 11 20 10 21
REMARK SMILES IDX 9 22 8 23 7 24 6 25 5 26 4 27 3 28 2 29 1 30
REMARK H PARENT
REMARK Flexibility Score: inf
ROOT
ATOM      1  C   UNL     1       7.077  -1.619  52.099  1.00  0.00     0.000 C 
ENDROOT
BRANCH   1   2
ATOM      2  C   UNL     1       7.032  -0.285  52.874  1.00  0.00     0.000 C 
BRANCH   2   3
ATOM      3  C   UNL     1       8.182  -0.061  53.873  1.00  0.00     0.000 C 
BRANCH   3   4
ATOM      4  C   UNL     1       8.156   1.338  54.510  1.00  0.00     0.000 C 
BRANCH   4   5
ATOM      5  C   UNL     1       9.272   1.545  55.551  1.00  0.00     0.000 C 
BRANCH   5   6
ATOM      6  C   UNL     1       9.511   3.005  55.975  1.00  0.00     0.000 C 
BRANCH   6   7
ATOM      7  C   UNL     1      10.869   3.552  55.510  1.00  0.00     0.000 C 
BRANCH   7   8
ATOM      8  C   UNL     1      11.639   2.493  54.712  1.00  0.00     0.000 C 
BRANCH   8   9
ATOM      9  C   UNL     1      11.549   2.764  53.202  1.00  0.00     0.000 C 
BRANCH   9  10
ATOM     10  C   UNL     1      11.047   4.181  52.880  1.00  0.00     0.000 C 
BRANCH  10  11
ATOM     11  C   UNL     1      10.104   4.274  51.664  1.00  0.00     0.000 C 
BRANCH  11  12
ATOM     12  C   UNL     1       8.864   5.165  51.902  1.00  0.00     0.006 C 
BRANCH  12  13
ATOM     13  C   UNL     1       8.182   4.927  53.259  1.00  0.00     0.053 C 
BRANCH  13  14
ATOM     14  C   UNL     1       6.688   5.046  53.171  1.00  0.00     0.041 C 
ATOM     15  O   UNL     1       6.122   6.140  53.429  1.00  0.00    -0.550 OA
ATOM     16  O   UNL     1       5.922   3.943  52.812  1.00  0.00    -0.550 OA
ENDBRANCH  13  14
ENDBRANCH  12  13
ENDBRANCH  11  12
ENDBRANCH  10  11
ENDBRANCH   9  10
ENDBRANCH   8   9
ENDBRANCH   7   8
ENDBRANCH   6   7
ENDBRANCH   5   6
ENDBRANCH   4   5
ENDBRANCH   3   4
ENDBRANCH   2   3
ENDBRANCH   1   2
BRANCH   1  17
ATOM     17  C   UNL     1       6.171  -1.694  50.857  1.00  0.00     0.000 C 
BRANCH  17  18
ATOM     18  C   UNL     1       5.432  -3.039  50.737  1.00  0.00     0.000 C 
BRANCH  18  19
ATOM     19  C   UNL     1       5.095  -3.404  49.283  1.00  0.00     0.000 C 
BRANCH  19  20
ATOM     20  C   UNL     1       5.486  -4.847  48.922  1.00  0.00     0.000 C 
BRANCH  20  21
ATOM     21  C   UNL     1       6.858  -5.243  49.495  1.00  0.00     0.000 C 
BRANCH  21  22
ATOM     22  C   UNL     1       7.823  -5.754  48.415  1.00  0.00    -0.000 C 
BRANCH  22  23
ATOM     23  C   UNL     1       8.724  -4.621  47.904  1.00  0.00    -0.000 C 
BRANCH  23  24
ATOM     24  C   UNL     1       9.009  -3.556  48.978  1.00  0.00    -0.000 C 
BRANCH  24  25
ATOM     25  C   UNL     1       8.881  -2.096  48.501  1.00  0.00    -0.000 C 
BRANCH  25  26
ATOM     26  C   UNL     1       8.070  -1.895  47.208  1.00  0.00    -0.000 C 
BRANCH  26  27
ATOM     27  C   UNL     1       7.209  -0.621  47.236  1.00  0.00    -0.000 C 
BRANCH  27  28
ATOM     28  C   UNL     1       5.955  -0.735  46.355  1.00  0.00    -0.000 C 
BRANCH  28  29
ATOM     29  C   UNL     1       5.562  -2.192  46.072  1.00  0.00    -0.003 C 
ATOM     30  C   UNL     1       4.808  -2.312  44.752  1.00  0.00     0.004 C 
ENDBRANCH  28  29
ENDBRANCH  27  28
ENDBRANCH  26  27
ENDBRANCH  25  26
ENDBRANCH  24  25
ENDBRANCH  23  24
ENDBRANCH  22  23
ENDBRANCH  21  22
ENDBRANCH  20  21
ENDBRANCH  19  20
ENDBRANCH  18  19
ENDBRANCH  17  18
ENDBRANCH   1  17
TORSDOF 26
ENDMDL
MODEL 3
REMARK VINA RESULT:    -4.718      1.230      2.327
REMARK INTER + INTRA:         -15.733
REMARK INTER:                 -12.186
REMARK INTRA:                  -3.548
REMARK UNBOUND:                -3.843
REMARK SMILES CCCCCCCCCCCCCCCCCCCCCCCCCCCC(=O)[O-]
REMARK SMILES IDX 15 1 16 2 17 3 18 4 19 5 20 6 21 7 22 8 23 9 24 10 25 11
REMARK SMILES IDX 26 12 27 13 28 14 29 15 30 16 14 17 13 18 12 19 11 20 10 21
REMARK SMILES IDX 9 22 8 23 7 24 6 25 5 26 4 27 3 28 2 29 1 30
REMARK H PARENT
REMARK Flexibility Score: inf
ROOT
ATOM      1  C   UNL     1       7.010  -1.365  52.692  1.00  0.00     0.000 C 
ENDROOT
BRANCH   1   2
ATOM      2  C   UNL     1       7.126   0.115  53.118  1.00  0.00     0.000 C 
BRANCH   2   3
ATOM      3  C   UNL     1       8.343   0.455  53.998  1.00  0.00     0.000 C 
BRANCH   3   4
ATOM      4  C   UNL     1       8.131   1.719  54.848  1.00  0.00     0.000 C 
BRANCH   4   5
ATOM      5  C   UNL     1       7.137   2.709  54.213  1.00  0.00     0.000 C 
BRANCH   5   6
ATOM      6  C   UNL     1       7.717   4.093  53.874  1.00  0.00     0.000 C 
BRANCH   6   7
ATOM      7  C   UNL     1       7.557   4.468  52.393  1.00  0.00     0.000 C 
BRANCH   7   8
ATOM      8  C   UNL     1       8.847   5.092  51.847  1.00  0.00     0.000 C 
BRANCH   8   9
ATOM      9  C   UNL     1      10.050   4.744  52.738  1.00  0.00     0.000 C 
BRANCH   9  10
ATOM     10  C   UNL     1      10.873   3.565  52.194  1.00  0.00     0.000 C 
BRANCH  10  11
ATOM     11  C   UNL     1      12.137   3.965  51.408  1.00  0.00     0.000 C 
BRANCH  11  12
ATOM     12  C   UNL     1      11.985   3.840  49.875  1.00  0.00     0.006 C 
BRANCH  12  13
ATOM     13  C   UNL     1      11.824   5.191  49.157  1.00  0.00     0.053 C 
BRANCH  13  14
ATOM     14  C   UNL     1      10.507   5.301  48.446  1.00  0.00     0.041 C 
ATOM     15  O   UNL     1      10.135   6.404  47.965  1.00  0.00    -0.550 OA
ATOM     16  O   UNL     1       9.687   4.186  48.324  1.00  0.00    -0.550 OA
ENDBRANCH  13  14
ENDBRANCH  12  13
ENDBRANCH  11  12
ENDBRANCH  10  11
ENDBRANCH   9  10
ENDBRANCH   8   9
ENDBRANCH   7   8
ENDBRANCH   6   7
ENDBRANCH   5   6
ENDBRANCH   4   5
ENDBRANCH   3   4
ENDBRANCH   2   3
ENDBRANCH   1   2
BRANCH   1  17
ATOM     17  C   UNL     1       7.081  -1.623  51.175  1.00  0.00     0.000 C 
BRANCH  17  18
ATOM     18  C   UNL     1       5.760  -2.165  50.601  1.00  0.00     0.000 C 
BRANCH  18  19
ATOM     19  C   UNL     1       5.573  -3.668  50.860  1.00  0.00     0.000 C 
BRANCH  19  20
ATOM     20  C   UNL     1       5.530  -4.498  49.565  1.00  0.00     0.000 C 
BRANCH  20  21
ATOM     21  C   UNL     1       4.732  -3.802  48.449  1.00  0.00     0.000 C 
BRANCH  21  22
ATOM     22  C   UNL     1       5.198  -4.214  47.045  1.00  0.00    -0.000 C 
BRANCH  22  23
ATOM     23  C   UNL     1       5.373  -2.984  46.143  1.00  0.00    -0.000 C 
BRANCH  23  24
ATOM     24  C   UNL     1       5.217  -1.657  46.906  1.00  0.00    -0.000 C 
BRANCH  24  25
ATOM     25  C   UNL     1       6.360  -0.644  46.695  1.00  0.00    -0.000 C 
BRANCH  25  26
ATOM     26  C   UNL     1       7.589  -0.841  47.601  1.00  0.00    -0.000 C 
BRANCH  26  27
ATOM     27  C   UNL     1       8.332  -2.158  47.319  1.00  0.00    -0.000 C 
BRANCH  27  28
ATOM     28  C   UNL     1       9.437  -2.446  48.348  1.00  0.00    -0.000 C 
BRANCH  28  29
ATOM     29  C   UNL     1       9.258  -3.803  49.043  1.00  0.00    -0.003 C 
ATOM     30  C   UNL     1       8.818  -4.875  48.051  1.00  0.00     0.004 C 
ENDBRANCH  28  29
ENDBRANCH  27  28
ENDBRANCH  26  27
ENDBRANCH  25  26
ENDBRANCH  24  25
ENDBRANCH  23  24
ENDBRANCH  22  23
ENDBRANCH  21  22
ENDBRANCH  20  21
ENDBRANCH  19  20
ENDBRANCH  18  19
ENDBRANCH  17  18
ENDBRANCH   1  17
TORSDOF 26
ENDMDL
MODEL 4
REMARK VINA RESULT:    -4.701     10.490     14.085
REMARK INTER + INTRA:         -15.690
REMARK INTER:                 -11.560
REMARK INTRA:                  -4.130
REMARK UNBOUND:                -3.843
REMARK SMILES CCCCCCCCCCCCCCCCCCCCCCCCCCCC(=O)[O-]
REMARK SMILES IDX 15 1 16 2 17 3 18 4 19 5 20 6 21 7 22 8 23 9 24 10 25 11
REMARK SMILES IDX 26 12 27 13 28 14 29 15 30 16 14 17 13 18 12 19 11 20 10 21
REMARK SMILES IDX 9 22 8 23 7 24 6 25 5 26 4 27 3 28 2 29 1 30
REMARK H PARENT
REMARK Flexibility Score: inf
ROOT
ATOM      1  C   UNL     1       5.802  12.982  47.780  1.00  0.00     0.000 C 
ENDROOT
BRANCH   1   2
ATOM      2  C   UNL     1       5.292  12.071  48.918  1.00  0.00     0.000 C 
BRANCH   2   3
ATOM      3  C   UNL     1       4.149  12.654  49.770  1.00  0.00     0.000 C 
BRANCH   3   4
ATOM      4  C   UNL     1       2.760  12.379  49.171  1.00  0.00     0.000 C 
BRANCH   4   5
ATOM      5  C   UNL     1       2.628  10.962  48.584  1.00  0.00     0.000 C 
BRANCH   5   6
ATOM      6  C   UNL     1       2.151  10.900  47.122  1.00  0.00     0.000 C 
BRANCH   6   7
ATOM      7  C   UNL     1       1.391   9.606  46.791  1.00  0.00     0.000 C 
BRANCH   7   8
ATOM      8  C   UNL     1       0.998   8.863  48.073  1.00  0.00     0.000 C 
BRANCH   8   9
ATOM      9  C   UNL     1      -0.527   8.693  48.168  1.00  0.00     0.000 C 
BRANCH   9  10
ATOM     10  C   UNL     1      -1.246   9.020  46.849  1.00  0.00     0.000 C 
BRANCH  10  11
ATOM     11  C   UNL     1      -2.453   8.117  46.528  1.00  0.00     0.000 C 
BRANCH  11  12
ATOM     12  C   UNL     1      -2.539   7.694  45.044  1.00  0.00     0.006 C 
BRANCH  12  13
ATOM     13  C   UNL     1      -1.197   7.775  44.298  1.00  0.00     0.053 C 
BRANCH  13  14
ATOM     14  C   UNL     1      -1.340   7.456  42.839  1.00  0.00     0.041 C 
ATOM     15  O   UNL     1      -0.334   7.481  42.082  1.00  0.00    -0.550 OA
ATOM     16  O   UNL     1      -2.588   7.140  42.314  1.00  0.00    -0.550 OA
ENDBRANCH  13  14
ENDBRANCH  12  13
ENDBRANCH  11  12
ENDBRANCH  10  11
ENDBRANCH   9  10
ENDBRANCH   8   9
ENDBRANCH   7   8
ENDBRANCH   6   7
ENDBRANCH   5   6
ENDBRANCH   4   5
ENDBRANCH   3   4
ENDBRANCH   2   3
ENDBRANCH   1   2
BRANCH   1  17
ATOM     17  C   UNL     1       5.413  12.541  46.357  1.00  0.00     0.000 C 
BRANCH  17  18
ATOM     18  C   UNL     1       5.642  11.039  46.114  1.00  0.00     0.000 C 
BRANCH  18  19
ATOM     19  C   UNL     1       6.649  10.767  44.985  1.00  0.00     0.000 C 
BRANCH  19  20
ATOM     20  C   UNL     1       6.839  11.974  44.050  1.00  0.00     0.000 C 
BRANCH  20  21
ATOM     21  C   UNL     1       8.297  12.464  44.016  1.00  0.00     0.000 C 
BRANCH  21  22
ATOM     22  C   UNL     1       9.223  11.622  44.906  1.00  0.00    -0.000 C 
BRANCH  22  23
ATOM     23  C   UNL     1       9.610  12.392  46.177  1.00  0.00    -0.000 C 
BRANCH  23  24
ATOM     24  C   UNL     1       9.970  11.463  47.350  1.00  0.00    -0.000 C 
BRANCH  24  25
ATOM     25  C   UNL     1       9.045  11.574  48.579  1.00  0.00    -0.000 C 
BRANCH  25  26
ATOM     26  C   UNL     1       8.643  10.234  49.222  1.00  0.00    -0.000 C 
BRANCH  26  27
ATOM     27  C   UNL     1       7.862   9.322  48.261  1.00  0.00    -0.000 C 
BRANCH  27  28
ATOM     28  C   UNL     1       8.717   8.168  47.713  1.00  0.00    -0.000 C 
BRANCH  28  29
ATOM     29  C   UNL     1       8.465   7.902  46.222  1.00  0.00    -0.003 C 
ATOM     30  C   UNL     1       9.761   7.983  45.423  1.00  0.00     0.004 C 
ENDBRANCH  28  29
ENDBRANCH  27  28
ENDBRANCH  26  27
ENDBRANCH  25  26
ENDBRANCH  24  25
ENDBRANCH  23  24
ENDBRANCH  22  23
ENDBRANCH  21  22
ENDBRANCH  20  21
ENDBRANCH  19  20
ENDBRANCH  18  19
ENDBRANCH  17  18
ENDBRANCH   1  17
TORSDOF 26
ENDMDL
MODEL 5
REMARK VINA RESULT:    -4.651      2.770      8.697
REMARK INTER + INTRA:         -15.563
REMARK INTER:                 -11.810
REMARK INTRA:                  -3.754
REMARK UNBOUND:                -3.843
REMARK SMILES CCCCCCCCCCCCCCCCCCCCCCCCCCCC(=O)[O-]
REMARK SMILES IDX 15 1 16 2 17 3 18 4 19 5 20 6 21 7 22 8 23 9 24 10 25 11
REMARK SMILES IDX 26 12 27 13 28 14 29 15 30 16 14 17 13 18 12 19 11 20 10 21
REMARK SMILES IDX 9 22 8 23 7 24 6 25 5 26 4 27 3 28 2 29 1 30
REMARK H PARENT
REMARK Flexibility Score: inf
ROOT
ATOM      1  C   UNL     1       5.104  -2.751  50.116  1.00  0.00     0.000 C 
ENDROOT
BRANCH   1   2
ATOM      2  C   UNL     1       5.130  -4.100  50.866  1.00  0.00     0.000 C 
BRANCH   2   3
ATOM      3  C   UNL     1       5.258  -5.350  49.974  1.00  0.00     0.000 C 
BRANCH   3   4
ATOM      4  C   UNL     1       5.625  -5.010  48.520  1.00  0.00     0.000 C 
BRANCH   4   5
ATOM      5  C   UNL     1       6.942  -5.665  48.064  1.00  0.00     0.000 C 
BRANCH   5   6
ATOM      6  C   UNL     1       8.125  -5.504  49.034  1.00  0.00     0.000 C 
BRANCH   6   7
ATOM      7  C   UNL     1       8.515  -4.037  49.271  1.00  0.00     0.000 C 
BRANCH   7   8
ATOM      8  C   UNL     1       9.624  -3.606  48.304  1.00  0.00     0.000 C 
BRANCH   8   9
ATOM      9  C   UNL     1       9.147  -2.466  47.390  1.00  0.00     0.000 C 
BRANCH   9  10
ATOM     10  C   UNL     1       8.003  -1.646  48.007  1.00  0.00     0.000 C 
BRANCH  10  11
ATOM     11  C   UNL     1       7.249  -0.738  47.016  1.00  0.00     0.000 C 
BRANCH  11  12
ATOM     12  C   UNL     1       5.809  -1.209  46.707  1.00  0.00     0.006 C 
BRANCH  12  13
ATOM     13  C   UNL     1       5.746  -2.452  45.804  1.00  0.00     0.053 C 
BRANCH  13  14
ATOM     14  C   UNL     1       4.827  -2.255  44.633  1.00  0.00     0.041 C 
ATOM     15  O   UNL     1       4.567  -1.095  44.219  1.00  0.00    -0.550 OA
ATOM     16  O   UNL     1       4.253  -3.354  44.006  1.00  0.00    -0.550 OA
ENDBRANCH  13  14
ENDBRANCH  12  13
ENDBRANCH  11  12
ENDBRANCH  10  11
ENDBRANCH   9  10
ENDBRANCH   8   9
ENDBRANCH   7   8
ENDBRANCH   6   7
ENDBRANCH   5   6
ENDBRANCH   4   5
ENDBRANCH   3   4
ENDBRANCH   2   3
ENDBRANCH   1   2
BRANCH   1  17
ATOM     17  C   UNL     1       5.859  -1.598  50.803  1.00  0.00     0.000 C 
BRANCH  17  18
ATOM     18  C   UNL     1       6.614  -2.049  52.067  1.00  0.00     0.000 C 
BRANCH  18  19
ATOM     19  C   UNL     1       7.334  -0.890  52.774  1.00  0.00     0.000 C 
BRANCH  19  20
ATOM     20  C   UNL     1       6.467   0.378  52.877  1.00  0.00     0.000 C 
BRANCH  20  21
ATOM     21  C   UNL     1       7.044   1.402  53.869  1.00  0.00     0.000 C 
BRANCH  21  22
ATOM     22  C   UNL     1       8.433   1.002  54.387  1.00  0.00    -0.000 C 
BRANCH  22  23
ATOM     23  C   UNL     1       8.691   1.597  55.779  1.00  0.00    -0.000 C 
BRANCH  23  24
ATOM     24  C   UNL     1       9.882   2.571  55.801  1.00  0.00    -0.000 C 
BRANCH  24  25
ATOM     25  C   UNL     1      10.487   2.894  54.420  1.00  0.00    -0.000 C 
BRANCH  25  26
ATOM     26  C   UNL     1      10.108   4.270  53.842  1.00  0.00    -0.000 C 
BRANCH  26  27
ATOM     27  C   UNL     1       9.900   4.240  52.318  1.00  0.00    -0.000 C 
BRANCH  27  28
ATOM     28  C   UNL     1       8.541   4.821  51.896  1.00  0.00    -0.000 C 
BRANCH  28  29
ATOM     29  C   UNL     1       7.889   5.663  53.002  1.00  0.00    -0.003 C 
ATOM     30  C   UNL     1       6.509   5.122  53.363  1.00  0.00     0.004 C 
ENDBRANCH  28  29
ENDBRANCH  27  28
ENDBRANCH  26  27
ENDBRANCH  25  26
ENDBRANCH  24  25
ENDBRANCH  23  24
ENDBRANCH  22  23
ENDBRANCH  21  22
ENDBRANCH  20  21
ENDBRANCH  19  20
ENDBRANCH  18  19
ENDBRANCH  17  18
ENDBRANCH   1  17
TORSDOF 26
ENDMDL
MODEL 6
REMARK VINA RESULT:    -4.638      2.599      8.843
REMARK INTER + INTRA:         -15.531
REMARK INTER:                 -12.137
REMARK INTRA:                  -3.394
REMARK UNBOUND:                -3.843
REMARK SMILES CCCCCCCCCCCCCCCCCCCCCCCCCCCC(=O)[O-]
REMARK SMILES IDX 15 1 16 2 17 3 18 4 19 5 20 6 21 7 22 8 23 9 24 10 25 11
REMARK SMILES IDX 26 12 27 13 28 14 29 15 30 16 14 17 13 18 12 19 11 20 10 21
REMARK SMILES IDX 9 22 8 23 7 24 6 25 5 26 4 27 3 28 2 29 1 30
REMARK H PARENT
REMARK Flexibility Score: inf
ROOT
ATOM      1  C   UNL     1       7.328  -1.298  52.397  1.00  0.00     0.000 C 
ENDROOT
BRANCH   1   2
ATOM      2  C   UNL     1       6.251  -1.672  51.357  1.00  0.00     0.000 C 
BRANCH   2   3
ATOM      3  C   UNL     1       5.913  -3.172  51.265  1.00  0.00     0.000 C 
BRANCH   3   4
ATOM      4  C   UNL     1       4.896  -3.488  50.156  1.00  0.00     0.000 C 
BRANCH   4   5
ATOM      5  C   UNL     1       5.220  -4.788  49.397  1.00  0.00     0.000 C 
BRANCH   5   6
ATOM      6  C   UNL     1       6.605  -5.391  49.691  1.00  0.00     0.000 C 
BRANCH   6   7
ATOM      7  C   UNL     1       7.359  -5.815  48.422  1.00  0.00     0.000 C 
BRANCH   7   8
ATOM      8  C   UNL     1       8.233  -4.669  47.899  1.00  0.00     0.000 C 
BRANCH   8   9
ATOM      9  C   UNL     1       8.847  -3.868  49.059  1.00  0.00     0.000 C 
BRANCH   9  10
ATOM     10  C   UNL     1       8.886  -2.356  48.784  1.00  0.00     0.000 C 
BRANCH  10  11
ATOM     11  C   UNL     1       8.292  -1.928  47.428  1.00  0.00     0.000 C 
BRANCH  11  12
ATOM     12  C   UNL     1       7.229  -0.811  47.536  1.00  0.00     0.006 C 
BRANCH  12  13
ATOM     13  C   UNL     1       5.784  -1.334  47.576  1.00  0.00     0.053 C 
BRANCH  13  14
ATOM     14  C   UNL     1       5.405  -2.051  46.313  1.00  0.00     0.041 C 
ATOM     15  O   UNL     1       5.333  -3.308  46.294  1.00  0.00    -0.550 OA
ATOM     16  O   UNL     1       5.139  -1.329  45.155  1.00  0.00    -0.550 OA
ENDBRANCH  13  14
ENDBRANCH  12  13
ENDBRANCH  11  12
ENDBRANCH  10  11
ENDBRANCH   9  10
ENDBRANCH   8   9
ENDBRANCH   7   8
ENDBRANCH   6   7
ENDBRANCH   5   6
ENDBRANCH   4   5
ENDBRANCH   3   4
ENDBRANCH   2   3
ENDBRANCH   1   2
BRANCH   1  17
ATOM     17  C   UNL     1       7.118   0.049  53.112  1.00  0.00     0.000 C 
BRANCH  17  18
ATOM     18  C   UNL     1       8.179   0.323  54.193  1.00  0.00     0.000 C 
BRANCH  18  19
ATOM     19  C   UNL     1       8.120   1.761  54.732  1.00  0.00     0.000 C 
BRANCH  19  20
ATOM     20  C   UNL     1       8.866   1.930  56.067  1.00  0.00     0.000 C 
BRANCH  20  21
ATOM     21  C   UNL     1      10.319   2.396  55.871  1.00  0.00     0.000 C 
BRANCH  21  22
ATOM     22  C   UNL     1      10.728   2.441  54.392  1.00  0.00    -0.000 C 
BRANCH  22  23
ATOM     23  C   UNL     1      11.636   3.647  54.111  1.00  0.00    -0.000 C 
BRANCH  23  24
ATOM     24  C   UNL     1      12.192   3.654  52.676  1.00  0.00    -0.000 C 
BRANCH  24  25
ATOM     25  C   UNL     1      11.168   4.012  51.581  1.00  0.00    -0.000 C 
BRANCH  25  26
ATOM     26  C   UNL     1      10.263   5.218  51.895  1.00  0.00    -0.000 C 
BRANCH  26  27
ATOM     27  C   UNL     1       8.782   4.830  52.038  1.00  0.00    -0.000 C 
BRANCH  27  28
ATOM     28  C   UNL     1       8.209   5.183  53.420  1.00  0.00    -0.000 C 
BRANCH  28  29
ATOM     29  C   UNL     1       6.729   5.590  53.359  1.00  0.00    -0.003 C 
ATOM     30  C   UNL     1       5.876   4.476  52.761  1.00  0.00     0.004 C 
ENDBRANCH  28  29
ENDBRANCH  27  28
ENDBRANCH  26  27
ENDBRANCH  25  26
ENDBRANCH  24  25
ENDBRANCH  23  24
ENDBRANCH  22  23
ENDBRANCH  21  22
ENDBRANCH  20  21
ENDBRANCH  19  20
ENDBRANCH  18  19
ENDBRANCH  17  18
ENDBRANCH   1  17
TORSDOF 26
ENDMDL
MODEL 7
REMARK VINA RESULT:    -4.628      2.937      8.657
REMARK INTER + INTRA:         -15.505
REMARK INTER:                 -12.156
REMARK INTRA:                  -3.349
REMARK UNBOUND:                -3.843
REMARK SMILES CCCCCCCCCCCCCCCCCCCCCCCCCCCC(=O)[O-]
REMARK SMILES IDX 15 1 16 2 17 3 18 4 19 5 20 6 21 7 22 8 23 9 24 10 25 11
REMARK SMILES IDX 26 12 27 13 28 14 29 15 30 16 14 17 13 18 12 19 11 20 10 21
REMARK SMILES IDX 9 22 8 23 7 24 6 25 5 26 4 27 3 28 2 29 1 30
REMARK H PARENT
REMARK Flexibility Score: inf
ROOT
ATOM      1  C   UNL     1       6.823  -1.685  51.409  1.00  0.00     0.000 C 
ENDROOT
BRANCH   1   2
ATOM      2  C   UNL     1       5.571  -1.970  50.551  1.00  0.00     0.000 C 
BRANCH   2   3
ATOM      3  C   UNL     1       5.181  -3.454  50.424  1.00  0.00     0.000 C 
BRANCH   3   4
ATOM      4  C   UNL     1       5.242  -3.966  48.976  1.00  0.00     0.000 C 
BRANCH   4   5
ATOM      5  C   UNL     1       6.071  -5.255  48.829  1.00  0.00     0.000 C 
BRANCH   5   6
ATOM      6  C   UNL     1       6.985  -5.587  50.021  1.00  0.00     0.000 C 
BRANCH   6   7
ATOM      7  C   UNL     1       8.458  -5.762  49.621  1.00  0.00     0.000 C 
BRANCH   7   8
ATOM      8  C   UNL     1       8.860  -4.731  48.560  1.00  0.00     0.000 C 
BRANCH   8   9
ATOM      9  C   UNL     1       9.202  -3.378  49.205  1.00  0.00     0.000 C 
BRANCH   9  10
ATOM     10  C   UNL     1       9.303  -2.238  48.179  1.00  0.00     0.000 C 
BRANCH  10  11
ATOM     11  C   UNL     1       7.973  -1.523  47.871  1.00  0.00     0.000 C 
BRANCH  11  12
ATOM     12  C   UNL     1       7.327  -1.955  46.535  1.00  0.00     0.006 C 
BRANCH  12  13
ATOM     13  C   UNL     1       5.957  -1.308  46.272  1.00  0.00     0.053 C 
BRANCH  13  14
ATOM     14  C   UNL     1       5.095  -2.150  45.377  1.00  0.00     0.041 C 
ATOM     15  O   UNL     1       4.393  -1.611  44.482  1.00  0.00    -0.550 OA
ATOM     16  O   UNL     1       5.062  -3.530  45.539  1.00  0.00    -0.550 OA
ENDBRANCH  13  14
ENDBRANCH  12  13
ENDBRANCH  11  12
ENDBRANCH  10  11
ENDBRANCH   9  10
ENDBRANCH   8   9
ENDBRANCH   7   8
ENDBRANCH   6   7
ENDBRANCH   5   6
ENDBRANCH   4   5
ENDBRANCH   3   4
ENDBRANCH   2   3
ENDBRANCH   1   2
BRANCH   1  17
ATOM     17  C   UNL     1       6.661  -0.578  52.467  1.00  0.00     0.000 C 
BRANCH  17  18
ATOM     18  C   UNL     1       7.804  -0.566  53.497  1.00  0.00     0.000 C 
BRANCH  18  19
ATOM     19  C   UNL     1       8.171   0.853  53.961  1.00  0.00     0.000 C 
BRANCH  19  20
ATOM     20  C   UNL     1       6.985   1.830  53.890  1.00  0.00     0.000 C 
BRANCH  20  21
ATOM     21  C   UNL     1       7.413   3.289  54.129  1.00  0.00     0.000 C 
BRANCH  21  22
ATOM     22  C   UNL     1       6.867   4.246  53.059  1.00  0.00    -0.000 C 
BRANCH  22  23
ATOM     23  C   UNL     1       7.713   5.526  52.987  1.00  0.00    -0.000 C 
BRANCH  23  24
ATOM     24  C   UNL     1       8.986   5.449  53.848  1.00  0.00    -0.000 C 
BRANCH  24  25
ATOM     25  C   UNL     1      10.302   5.310  53.057  1.00  0.00    -0.000 C 
BRANCH  25  26
ATOM     26  C   UNL     1      10.493   3.968  52.328  1.00  0.00    -0.000 C 
BRANCH  26  27
ATOM     27  C   UNL     1      11.536   3.064  53.008  1.00  0.00    -0.000 C 
BRANCH  27  28
ATOM     28  C   UNL     1      12.170   3.719  54.245  1.00  0.00    -0.000 C 
BRANCH  28  29
ATOM     29  C   UNL     1      13.644   4.089  54.028  1.00  0.00    -0.003 C 
ATOM     30  C   UNL     1      14.411   2.940  53.382  1.00  0.00     0.004 C 
ENDBRANCH  28  29
ENDBRANCH  27  28
ENDBRANCH  26  27
ENDBRANCH  25  26
ENDBRANCH  24  25
ENDBRANCH  23  24
ENDBRANCH  22  23
ENDBRANCH  21  22
ENDBRANCH  20  21
ENDBRANCH  19  20
ENDBRANCH  18  19
ENDBRANCH  17  18
ENDBRANCH   1  17
TORSDOF 26
ENDMDL
MODEL 8
REMARK VINA RESULT:    -4.565      1.120      3.060
REMARK INTER + INTRA:         -15.348
REMARK INTER:                 -11.743
REMARK INTRA:                  -3.605
REMARK UNBOUND:                -3.843
REMARK SMILES CCCCCCCCCCCCCCCCCCCCCCCCCCCC(=O)[O-]
REMARK SMILES IDX 15 1 16 2 17 3 18 4 19 5 20 6 21 7 22 8 23 9 24 10 25 11
REMARK SMILES IDX 26 12 27 13 28 14 29 15 30 16 14 17 13 18 12 19 11 20 10 21
REMARK SMILES IDX 9 22 8 23 7 24 6 25 5 26 4 27 3 28 2 29 1 30
REMARK H PARENT
REMARK Flexibility Score: inf
ROOT
ATOM      1  C   UNL     1       7.816   0.134  53.635  1.00  0.00     0.000 C 
ENDROOT
BRANCH   1   2
ATOM      2  C   UNL     1       7.672   1.545  54.245  1.00  0.00     0.000 C 
BRANCH   2   3
ATOM      3  C   UNL     1       8.647   1.873  55.391  1.00  0.00     0.000 C 
BRANCH   3   4
ATOM      4  C   UNL     1      10.095   1.463  55.079  1.00  0.00     0.000 C 
BRANCH   4   5
ATOM      5  C   UNL     1      10.892   2.571  54.367  1.00  0.00     0.000 C 
BRANCH   5   6
ATOM      6  C   UNL     1      12.086   3.133  55.159  1.00  0.00     0.000 C 
BRANCH   6   7
ATOM      7  C   UNL     1      11.962   4.636  55.450  1.00  0.00     0.000 C 
BRANCH   7   8
ATOM      8  C   UNL     1      10.633   5.186  54.919  1.00  0.00     0.000 C 
BRANCH   8   9
ATOM      9  C   UNL     1      10.865   6.187  53.776  1.00  0.00     0.000 C 
BRANCH   9  10
ATOM     10  C   UNL     1       9.569   6.561  53.039  1.00  0.00     0.000 C 
BRANCH  10  11
ATOM     11  C   UNL     1       8.667   5.368  52.667  1.00  0.00     0.000 C 
BRANCH  11  12
ATOM     12  C   UNL     1       9.060   4.678  51.341  1.00  0.00     0.006 C 
BRANCH  12  13
ATOM     13  C   UNL     1       9.429   5.660  50.217  1.00  0.00     0.053 C 
BRANCH  13  14
ATOM     14  C   UNL     1       9.263   5.052  48.855  1.00  0.00     0.041 C 
ATOM     15  O   UNL     1       8.237   5.301  48.169  1.00  0.00    -0.550 OA
ATOM     16  O   UNL     1      10.240   4.202  48.348  1.00  0.00    -0.550 OA
ENDBRANCH  13  14
ENDBRANCH  12  13
ENDBRANCH  11  12
ENDBRANCH  10  11
ENDBRANCH   9  10
ENDBRANCH   8   9
ENDBRANCH   7   8
ENDBRANCH   6   7
ENDBRANCH   5   6
ENDBRANCH   4   5
ENDBRANCH   3   4
ENDBRANCH   2   3
ENDBRANCH   1   2
BRANCH   1  17
ATOM     17  C   UNL     1       6.655  -0.316  52.729  1.00  0.00     0.000 C 
BRANCH  17  18
ATOM     18  C   UNL     1       6.991  -1.576  51.911  1.00  0.00     0.000 C 
BRANCH  18  19
ATOM     19  C   UNL     1       5.998  -1.821  50.764  1.00  0.00     0.000 C 
BRANCH  19  20
ATOM     20  C   UNL     1       5.607  -3.303  50.618  1.00  0.00     0.000 C 
BRANCH  20  21
ATOM     21  C   UNL     1       4.798  -3.571  49.338  1.00  0.00     0.000 C 
BRANCH  21  22
ATOM     22  C   UNL     1       5.520  -4.522  48.373  1.00  0.00    -0.000 C 
BRANCH  22  23
ATOM     23  C   UNL     1       6.823  -5.047  48.993  1.00  0.00    -0.000 C 
BRANCH  23  24
ATOM     24  C   UNL     1       8.058  -4.753  48.124  1.00  0.00    -0.000 C 
BRANCH  24  25
ATOM     25  C   UNL     1       9.125  -3.858  48.787  1.00  0.00    -0.000 C 
BRANCH  25  26
ATOM     26  C   UNL     1       8.890  -2.343  48.648  1.00  0.00    -0.000 C 
BRANCH  26  27
ATOM     27  C   UNL     1       8.160  -1.969  47.347  1.00  0.00    -0.000 C 
BRANCH  27  28
ATOM     28  C   UNL     1       7.406  -0.634  47.454  1.00  0.00    -0.000 C 
BRANCH  28  29
ATOM     29  C   UNL     1       5.905  -0.778  47.165  1.00  0.00    -0.003 C 
ATOM     30  C   UNL     1       5.659  -1.741  46.007  1.00  0.00     0.004 C 
ENDBRANCH  28  29
ENDBRANCH  27  28
ENDBRANCH  26  27
ENDBRANCH  25  26
ENDBRANCH  24  25
ENDBRANCH  23  24
ENDBRANCH  22  23
ENDBRANCH  21  22
ENDBRANCH  20  21
ENDBRANCH  19  20
ENDBRANCH  18  19
ENDBRANCH  17  18
ENDBRANCH   1  17
TORSDOF 26
ENDMDL
MODEL 9
REMARK VINA RESULT:    -4.504      9.811     12.974
REMARK INTER + INTRA:         -15.192
REMARK INTER:                 -12.047
REMARK INTRA:                  -3.145
REMARK UNBOUND:                -3.843
REMARK SMILES CCCCCCCCCCCCCCCCCCCCCCCCCCCC(=O)[O-]
REMARK SMILES IDX 15 1 16 2 17 3 18 4 19 5 20 6 21 7 22 8 23 9 24 10 25 11
REMARK SMILES IDX 26 12 27 13 28 14 29 15 30 16 14 17 13 18 12 19 11 20 10 21
REMARK SMILES IDX 9 22 8 23 7 24 6 25 5 26 4 27 3 28 2 29 1 30
REMARK H PARENT
REMARK Flexibility Score: inf
ROOT
ATOM      1  C   UNL     1       2.089  10.400  47.248  1.00  0.00     0.000 C 
ENDROOT
BRANCH   1   2
ATOM      2  C   UNL     1       1.800  11.019  48.633  1.00  0.00     0.000 C 
BRANCH   2   3
ATOM      3  C   UNL     1       2.620  12.275  48.979  1.00  0.00     0.000 C 
BRANCH   3   4
ATOM      4  C   UNL     1       3.160  12.997  47.734  1.00  0.00     0.000 C 
BRANCH   4   5
ATOM      5  C   UNL     1       4.698  12.985  47.652  1.00  0.00     0.000 C 
BRANCH   5   6
ATOM      6  C   UNL     1       5.403  12.098  48.693  1.00  0.00     0.000 C 
BRANCH   6   7
ATOM      7  C   UNL     1       6.067  10.857  48.078  1.00  0.00     0.000 C 
BRANCH   7   8
ATOM      8  C   UNL     1       5.695  10.719  46.597  1.00  0.00     0.000 C 
BRANCH   8   9
ATOM      9  C   UNL     1       6.941  10.827  45.702  1.00  0.00     0.000 C 
BRANCH   9  10
ATOM     10  C   UNL     1       7.797   9.551  45.717  1.00  0.00     0.000 C 
BRANCH  10  11
ATOM     11  C   UNL     1       9.239   9.744  46.224  1.00  0.00     0.000 C 
BRANCH  11  12
ATOM     12  C   UNL     1       9.470   9.228  47.663  1.00  0.00     0.006 C 
BRANCH  12  13
ATOM     13  C   UNL     1       8.532   8.079  48.066  1.00  0.00     0.053 C 
BRANCH  13  14
ATOM     14  C   UNL     1       9.114   6.733  47.746  1.00  0.00     0.041 C 
ATOM     15  O   UNL     1      10.287   6.639  47.299  1.00  0.00    -0.550 OA
ATOM     16  O   UNL     1       8.356   5.584  47.935  1.00  0.00    -0.550 OA
ENDBRANCH  13  14
ENDBRANCH  12  13
ENDBRANCH  11  12
ENDBRANCH  10  11
ENDBRANCH   9  10
ENDBRANCH   8   9
ENDBRANCH   7   8
ENDBRANCH   6   7
ENDBRANCH   5   6
ENDBRANCH   4   5
ENDBRANCH   3   4
ENDBRANCH   2   3
ENDBRANCH   1   2
BRANCH   1  17
ATOM     17  C   UNL     1       1.145   9.259  46.824  1.00  0.00     0.000 C 
BRANCH  17  18
ATOM     18  C   UNL     1       0.388   8.638  48.012  1.00  0.00     0.000 C 
BRANCH  18  19
ATOM     19  C   UNL     1      -1.136   8.799  47.894  1.00  0.00     0.000 C 
BRANCH  19  20
ATOM     20  C   UNL     1      -1.607   8.981  46.440  1.00  0.00     0.000 C 
BRANCH  20  21
ATOM     21  C   UNL     1      -2.632   7.915  46.019  1.00  0.00     0.000 C 
BRANCH  21  22
ATOM     22  C   UNL     1      -2.566   7.594  44.518  1.00  0.00    -0.000 C 
BRANCH  22  23
ATOM     23  C   UNL     1      -1.110   7.543  44.032  1.00  0.00    -0.000 C 
BRANCH  23  24
ATOM     24  C   UNL     1      -0.862   6.418  43.012  1.00  0.00    -0.000 C 
BRANCH  24  25
ATOM     25  C   UNL     1      -2.091   5.545  42.690  1.00  0.00    -0.000 C 
BRANCH  25  26
ATOM     26  C   UNL     1      -2.675   5.725  41.277  1.00  0.00    -0.000 C 
BRANCH  26  27
ATOM     27  C   UNL     1      -1.985   6.851  40.487  1.00  0.00    -0.000 C 
BRANCH  27  28
ATOM     28  C   UNL     1      -2.799   8.155  40.482  1.00  0.00    -0.000 C 
BRANCH  28  29
ATOM     29  C   UNL     1      -1.927   9.397  40.715  1.00  0.00    -0.003 C 
ATOM     30  C   UNL     1      -0.454   9.089  40.464  1.00  0.00     0.004 C 
ENDBRANCH  28  29
ENDBRANCH  27  28
ENDBRANCH  26  27
ENDBRANCH  25  26
ENDBRANCH  24  25
ENDBRANCH  23  24
ENDBRANCH  22  23
ENDBRANCH  21  22
ENDBRANCH  20  21
ENDBRANCH  19  20
ENDBRANCH  18  19
ENDBRANCH  17  18
ENDBRANCH   1  17
TORSDOF 26
ENDMDL
