MODEL 1
REMARK VINA RESULT:    -3.819      0.000      0.000
REMARK INTER + INTRA:         -11.689
REMARK INTER:                  -8.284
REMARK INTRA:                  -3.405
REMARK UNBOUND:                -3.405
REMARK SMILES CCCCCCCCCCCCCCCCCCCCCC(=O)[O-]
REMARK SMILES IDX 12 1 11 2 10 3 9 4 8 5 7 6 6 7 5 8 4 9 3 10 2 11 1 12 13 13
REMARK SMILES IDX 14 14 15 15 16 16 17 17 18 18 19 19 20 20 21 21 22 22 23 23
REMARK SMILES IDX 24 24
REMARK H PARENT
REMARK Flexibility Score: inf
ROOT
ATOM      1  C   UNL     1      10.379 -23.174 -30.760  1.00  0.00     0.000 C 
ENDROOT
BRANCH   1   2
ATOM      2  C   UNL     1      11.916 -23.191 -30.671  1.00  0.00     0.000 C 
BRANCH   2   3
ATOM      3  C   UNL     1      12.517 -21.786 -30.510  1.00  0.00     0.000 C 
BRANCH   3   4
ATOM      4  C   UNL     1      14.040 -21.766 -30.728  1.00  0.00    -0.000 C 
BRANCH   4   5
ATOM      5  C   UNL     1      14.434 -21.336 -32.153  1.00  0.00    -0.000 C 
BRANCH   5   6
ATOM      6  C   UNL     1      15.266 -22.368 -32.941  1.00  0.00    -0.000 C 
BRANCH   6   7
ATOM      7  C   UNL     1      14.642 -22.835 -34.273  1.00  0.00    -0.000 C 
BRANCH   7   8
ATOM      8  C   UNL     1      13.192 -23.340 -34.173  1.00  0.00    -0.000 C 
BRANCH   8   9
ATOM      9  C   UNL     1      12.194 -22.443 -34.925  1.00  0.00    -0.000 C 
BRANCH   9  10
ATOM     10  C   UNL     1      11.155 -21.804 -33.989  1.00  0.00    -0.000 C 
BRANCH  10  11
ATOM     11  C   UNL     1      11.178 -20.269 -34.040  1.00  0.00    -0.003 C 
ATOM     12  C   UNL     1      10.648 -19.668 -32.740  1.00  0.00     0.004 C 
ENDBRANCH  10  11
ENDBRANCH   9  10
ENDBRANCH   8   9
ENDBRANCH   7   8
ENDBRANCH   6   7
ENDBRANCH   5   6
ENDBRANCH   4   5
ENDBRANCH   3   4
ENDBRANCH   2   3
ENDBRANCH   1   2
BRANCH   1  13
ATOM     13  C   UNL     1       9.794 -24.540 -31.150  1.00  0.00     0.000 C 
BRANCH  13  14
ATOM     14  C   UNL     1      10.623 -25.249 -32.232  1.00  0.00     0.000 C 
BRANCH  14  15
ATOM     15  C   UNL     1      11.071 -26.638 -31.761  1.00  0.00     0.000 C 
BRANCH  15  16
ATOM     16  C   UNL     1      10.194 -27.133 -30.600  1.00  0.00     0.000 C 
BRANCH  16  17
ATOM     17  C   UNL     1      11.022 -27.563 -29.378  1.00  0.00     0.000 C 
BRANCH  17  18
ATOM     18  C   UNL     1      11.740 -26.381 -28.706  1.00  0.00     0.000 C 
BRANCH  18  19
ATOM     19  C   UNL     1      10.802 -25.533 -27.829  1.00  0.00     0.000 C 
BRANCH  19  20
ATOM     20  C   UNL     1       9.583 -26.290 -27.260  1.00  0.00     0.006 C 
BRANCH  20  21
ATOM     21  C   UNL     1       9.468 -26.254 -25.727  1.00  0.00     0.053 C 
BRANCH  21  22
ATOM     22  C   UNL     1      10.638 -26.911 -25.060  1.00  0.00     0.041 C 
ATOM     23  O   UNL     1      11.174 -26.376 -24.053  1.00  0.00    -0.550 OA
ATOM     24  O   UNL     1      11.158 -28.093 -25.571  1.00  0.00    -0.550 OA
ENDBRANCH  21  22
ENDBRANCH  20  21
ENDBRANCH  19  20
ENDBRANCH  18  19
ENDBRANCH  17  18
ENDBRANCH  16  17
ENDBRANCH  15  16
ENDBRANCH  14  15
ENDBRANCH  13  14
ENDBRANCH   1  13
TORSDOF 20
ENDMDL
MODEL 2
REMARK VINA RESULT:    -3.803      3.427      5.819
REMARK INTER + INTRA:         -11.655
REMARK INTER:                  -8.796
REMARK INTRA:                  -2.860
REMARK UNBOUND:                -3.405
REMARK SMILES CCCCCCCCCCCCCCCCCCCCCC(=O)[O-]
REMARK SMILES IDX 12 1 11 2 10 3 9 4 8 5 7 6 6 7 5 8 4 9 3 10 2 11 1 12 13 13
REMARK SMILES IDX 14 14 15 15 16 16 17 17 18 18 19 19 20 20 21 21 22 22 23 23
REMARK SMILES IDX 24 24
REMARK H PARENT
REMARK Flexibility Score: inf
ROOT
ATOM      1  C   UNL     1       8.341 -27.229 -27.414  1.00  0.00     0.000 C 
ENDROOT
BRANCH   1   2
ATOM      2  C   UNL     1       8.662 -27.861 -28.781  1.00  0.00     0.000 C 
BRANCH   2   3
ATOM      3  C   UNL     1      10.159 -28.161 -28.959  1.00  0.00     0.000 C 
BRANCH   3   4
ATOM      4  C   UNL     1      10.815 -27.277 -30.033  1.00  0.00    -0.000 C 
BRANCH   4   5
ATOM      5  C   UNL     1      11.204 -25.885 -29.504  1.00  0.00    -0.000 C 
BRANCH   5   6
ATOM      6  C   UNL     1      10.161 -24.776 -29.749  1.00  0.00    -0.000 C 
BRANCH   6   7
ATOM      7  C   UNL     1       9.542 -24.758 -31.162  1.00  0.00    -0.000 C 
BRANCH   7   8
ATOM      8  C   UNL     1      10.554 -24.825 -32.320  1.00  0.00    -0.000 C 
BRANCH   8   9
ATOM      9  C   UNL     1      10.985 -23.434 -32.817  1.00  0.00    -0.000 C 
BRANCH   9  10
ATOM     10  C   UNL     1      12.503 -23.212 -32.705  1.00  0.00    -0.000 C 
BRANCH  10  11
ATOM     11  C   UNL     1      12.939 -22.814 -31.287  1.00  0.00    -0.003 C 
ATOM     12  C   UNL     1      12.039 -21.715 -30.724  1.00  0.00     0.004 C 
ENDBRANCH  10  11
ENDBRANCH   9  10
ENDBRANCH   8   9
ENDBRANCH   7   8
ENDBRANCH   6   7
ENDBRANCH   5   6
ENDBRANCH   4   5
ENDBRANCH   3   4
ENDBRANCH   2   3
ENDBRANCH   1   2
BRANCH   1  13
ATOM     13  C   UNL     1       9.566 -27.167 -26.489  1.00  0.00     0.000 C 
BRANCH  13  14
ATOM     14  C   UNL     1       9.684 -25.822 -25.756  1.00  0.00     0.000 C 
BRANCH  14  15
ATOM     15  C   UNL     1      11.150 -25.489 -25.450  1.00  0.00     0.000 C 
BRANCH  15  16
ATOM     16  C   UNL     1      12.054 -26.706 -25.700  1.00  0.00     0.000 C 
BRANCH  16  17
ATOM     17  C   UNL     1      13.268 -26.368 -26.580  1.00  0.00     0.000 C 
BRANCH  17  18
ATOM     18  C   UNL     1      13.878 -27.610 -27.249  1.00  0.00     0.000 C 
BRANCH  18  19
ATOM     19  C   UNL     1      15.386 -27.753 -26.981  1.00  0.00     0.000 C 
BRANCH  19  20
ATOM     20  C   UNL     1      16.005 -26.623 -26.132  1.00  0.00     0.006 C 
BRANCH  20  21
ATOM     21  C   UNL     1      17.019 -25.742 -26.880  1.00  0.00     0.053 C 
BRANCH  21  22
ATOM     22  C   UNL     1      17.997 -26.558 -27.670  1.00  0.00     0.041 C 
ATOM     23  O   UNL     1      18.696 -27.435 -27.098  1.00  0.00    -0.550 OA
ATOM     24  O   UNL     1      18.159 -26.326 -29.030  1.00  0.00    -0.550 OA
ENDBRANCH  21  22
ENDBRANCH  20  21
ENDBRANCH  19  20
ENDBRANCH  18  19
ENDBRANCH  17  18
ENDBRANCH  16  17
ENDBRANCH  15  16
ENDBRANCH  14  15
ENDBRANCH  13  14
ENDBRANCH   1  13
TORSDOF 20
ENDMDL
MODEL 3
REMARK VINA RESULT:    -3.755      4.544      7.325
REMARK INTER + INTRA:         -11.550
REMARK INTER:                  -9.356
REMARK INTRA:                  -2.193
REMARK UNBOUND:                -3.405
REMARK SMILES CCCCCCCCCCCCCCCCCCCCCC(=O)[O-]
REMARK SMILES IDX 12 1 11 2 10 3 9 4 8 5 7 6 6 7 5 8 4 9 3 10 2 11 1 12 13 13
REMARK SMILES IDX 14 14 15 15 16 16 17 17 18 18 19 19 20 20 21 21 22 22 23 23
REMARK SMILES IDX 24 24
REMARK H PARENT
REMARK Flexibility Score: inf
ROOT
ATOM      1  C   UNL     1      11.578 -25.826 -26.170  1.00  0.00     0.000 C 
ENDROOT
BRANCH   1   2
ATOM      2  C   UNL     1      10.214 -25.638 -26.858  1.00  0.00     0.000 C 
BRANCH   2   3
ATOM      3  C   UNL     1       9.132 -26.575 -26.297  1.00  0.00     0.000 C 
BRANCH   3   4
ATOM      4  C   UNL     1       8.325 -27.275 -27.403  1.00  0.00    -0.000 C 
BRANCH   4   5
ATOM      5  C   UNL     1       9.078 -28.459 -28.035  1.00  0.00    -0.000 C 
BRANCH   5   6
ATOM      6  C   UNL     1       9.252 -28.383 -29.565  1.00  0.00    -0.000 C 
BRANCH   6   7
ATOM      7  C   UNL     1       9.630 -26.992 -30.115  1.00  0.00    -0.000 C 
BRANCH   7   8
ATOM      8  C   UNL     1      10.743 -26.991 -31.178  1.00  0.00    -0.000 C 
BRANCH   8   9
ATOM      9  C   UNL     1      11.086 -25.578 -31.682  1.00  0.00    -0.000 C 
BRANCH   9  10
ATOM     10  C   UNL     1      10.752 -24.488 -30.650  1.00  0.00    -0.000 C 
BRANCH  10  11
ATOM     11  C   UNL     1      11.976 -24.056 -29.829  1.00  0.00    -0.003 C 
ATOM     12  C   UNL     1      12.867 -23.108 -30.629  1.00  0.00     0.004 C 
ENDBRANCH  10  11
ENDBRANCH   9  10
ENDBRANCH   8   9
ENDBRANCH   7   8
ENDBRANCH   6   7
ENDBRANCH   5   6
ENDBRANCH   4   5
ENDBRANCH   3   4
ENDBRANCH   2   3
ENDBRANCH   1   2
BRANCH   1  13
ATOM     13  C   UNL     1      12.687 -26.222 -27.156  1.00  0.00     0.000 C 
BRANCH  13  14
ATOM     14  C   UNL     1      12.608 -27.699 -27.571  1.00  0.00     0.000 C 
BRANCH  14  15
ATOM     15  C   UNL     1      13.758 -28.506 -26.956  1.00  0.00     0.000 C 
BRANCH  15  16
ATOM     16  C   UNL     1      15.001 -27.625 -26.754  1.00  0.00     0.000 C 
BRANCH  16  17
ATOM     17  C   UNL     1      16.139 -28.369 -26.036  1.00  0.00     0.000 C 
BRANCH  17  18
ATOM     18  C   UNL     1      17.369 -28.575 -26.934  1.00  0.00     0.000 C 
BRANCH  18  19
ATOM     19  C   UNL     1      18.406 -27.447 -26.796  1.00  0.00     0.000 C 
BRANCH  19  20
ATOM     20  C   UNL     1      18.048 -26.141 -27.537  1.00  0.00     0.006 C 
BRANCH  20  21
ATOM     21  C   UNL     1      19.224 -25.484 -28.277  1.00  0.00     0.053 C 
BRANCH  21  22
ATOM     22  C   UNL     1      19.349 -25.979 -29.686  1.00  0.00     0.041 C 
ATOM     23  O   UNL     1      18.442 -25.735 -30.525  1.00  0.00    -0.550 OA
ATOM     24  O   UNL     1      20.448 -26.739 -30.062  1.00  0.00    -0.550 OA
ENDBRANCH  21  22
ENDBRANCH  20  21
ENDBRANCH  19  20
ENDBRANCH  18  19
ENDBRANCH  17  18
ENDBRANCH  16  17
ENDBRANCH  15  16
ENDBRANCH  14  15
ENDBRANCH  13  14
ENDBRANCH   1  13
TORSDOF 20
ENDMDL
MODEL 4
REMARK VINA RESULT:    -3.743      3.326      7.770
REMARK INTER + INTRA:         -11.524
REMARK INTER:                  -8.021
REMARK INTRA:                  -3.503
REMARK UNBOUND:                -3.405
REMARK SMILES CCCCCCCCCCCCCCCCCCCCCC(=O)[O-]
REMARK SMILES IDX 12 1 11 2 10 3 9 4 8 5 7 6 6 7 5 8 4 9 3 10 2 11 1 12 13 13
REMARK SMILES IDX 14 14 15 15 16 16 17 17 18 18 19 19 20 20 21 21 22 22 23 23
REMARK SMILES IDX 24 24
REMARK H PARENT
REMARK Flexibility Score: inf
ROOT
ATOM      1  C   UNL     1       8.616 -27.997 -28.344  1.00  0.00     0.000 C 
ENDROOT
BRANCH   1   2
ATOM      2  C   UNL     1       8.396 -27.039 -27.159  1.00  0.00     0.000 C 
BRANCH   2   3
ATOM      3  C   UNL     1       9.656 -26.864 -26.296  1.00  0.00     0.000 C 
BRANCH   3   4
ATOM      4  C   UNL     1       9.460 -25.838 -25.167  1.00  0.00    -0.000 C 
BRANCH   4   5
ATOM      5  C   UNL     1      10.616 -24.828 -25.070  1.00  0.00    -0.000 C 
BRANCH   5   6
ATOM      6  C   UNL     1      12.029 -25.446 -25.092  1.00  0.00    -0.000 C 
BRANCH   6   7
ATOM      7  C   UNL     1      12.868 -25.124 -26.346  1.00  0.00    -0.000 C 
BRANCH   7   8
ATOM      8  C   UNL     1      13.124 -26.317 -27.284  1.00  0.00    -0.000 C 
BRANCH   8   9
ATOM      9  C   UNL     1      14.070 -27.365 -26.672  1.00  0.00    -0.000 C 
BRANCH   9  10
ATOM     10  C   UNL     1      13.377 -28.717 -26.435  1.00  0.00    -0.000 C 
BRANCH  10  11
ATOM     11  C   UNL     1      13.291 -29.084 -24.946  1.00  0.00    -0.003 C 
ATOM     12  C   UNL     1      11.841 -29.120 -24.471  1.00  0.00     0.004 C 
ENDBRANCH  10  11
ENDBRANCH   9  10
ENDBRANCH   8   9
ENDBRANCH   7   8
ENDBRANCH   6   7
ENDBRANCH   5   6
ENDBRANCH   4   5
ENDBRANCH   3   4
ENDBRANCH   2   3
ENDBRANCH   1   2
BRANCH   1  13
ATOM     13  C   UNL     1       9.990 -28.682 -28.304  1.00  0.00     0.000 C 
BRANCH  13  14
ATOM     14  C   UNL     1      10.947 -28.148 -29.381  1.00  0.00     0.000 C 
BRANCH  14  15
ATOM     15  C   UNL     1      10.185 -27.776 -30.658  1.00  0.00     0.000 C 
BRANCH  15  16
ATOM     16  C   UNL     1      10.674 -26.432 -31.219  1.00  0.00     0.000 C 
BRANCH  16  17
ATOM     17  C   UNL     1       9.897 -25.236 -30.646  1.00  0.00     0.000 C 
BRANCH  17  18
ATOM     18  C   UNL     1      10.605 -24.593 -29.442  1.00  0.00     0.000 C 
BRANCH  18  19
ATOM     19  C   UNL     1      11.940 -23.928 -29.820  1.00  0.00     0.000 C 
BRANCH  19  20
ATOM     20  C   UNL     1      11.823 -22.749 -30.810  1.00  0.00     0.006 C 
BRANCH  20  21
ATOM     21  C   UNL     1      12.919 -22.707 -31.886  1.00  0.00     0.053 C 
BRANCH  21  22
ATOM     22  C   UNL     1      12.437 -23.237 -33.202  1.00  0.00     0.041 C 
ATOM     23  O   UNL     1      13.264 -23.595 -34.081  1.00  0.00    -0.550 OA
ATOM     24  O   UNL     1      11.076 -23.302 -33.470  1.00  0.00    -0.550 OA
ENDBRANCH  21  22
ENDBRANCH  20  21
ENDBRANCH  19  20
ENDBRANCH  18  19
ENDBRANCH  17  18
ENDBRANCH  16  17
ENDBRANCH  15  16
ENDBRANCH  14  15
ENDBRANCH  13  14
ENDBRANCH   1  13
TORSDOF 20
ENDMDL
MODEL 5
REMARK VINA RESULT:    -3.714      2.902      7.985
REMARK INTER + INTRA:         -11.461
REMARK INTER:                  -8.506
REMARK INTRA:                  -2.955
REMARK UNBOUND:                -3.405
REMARK SMILES CCCCCCCCCCCCCCCCCCCCCC(=O)[O-]
REMARK SMILES IDX 12 1 11 2 10 3 9 4 8 5 7 6 6 7 5 8 4 9 3 10 2 11 1 12 13 13
REMARK SMILES IDX 14 14 15 15 16 16 17 17 18 18 19 19 20 20 21 21 22 22 23 23
REMARK SMILES IDX 24 24
REMARK H PARENT
REMARK Flexibility Score: inf
ROOT
ATOM      1  C   UNL     1      10.589 -26.621 -31.048  1.00  0.00     0.000 C 
ENDROOT
BRANCH   1   2
ATOM      2  C   UNL     1      10.538 -27.748 -30.000  1.00  0.00     0.000 C 
BRANCH   2   3
ATOM      3  C   UNL     1       9.102 -28.146 -29.626  1.00  0.00     0.000 C 
BRANCH   3   4
ATOM      4  C   UNL     1       8.948 -28.467 -28.130  1.00  0.00    -0.000 C 
BRANCH   4   5
ATOM      5  C   UNL     1       8.245 -27.344 -27.347  1.00  0.00    -0.000 C 
BRANCH   5   6
ATOM      6  C   UNL     1       9.112 -26.648 -26.279  1.00  0.00    -0.000 C 
BRANCH   6   7
ATOM      7  C   UNL     1      10.244 -25.756 -26.830  1.00  0.00    -0.000 C 
BRANCH   7   8
ATOM      8  C   UNL     1      11.634 -26.014 -26.221  1.00  0.00    -0.000 C 
BRANCH   8   9
ATOM      9  C   UNL     1      12.710 -26.290 -27.285  1.00  0.00    -0.000 C 
BRANCH   9  10
ATOM     10  C   UNL     1      12.879 -27.790 -27.578  1.00  0.00    -0.000 C 
BRANCH  10  11
ATOM     11  C   UNL     1      13.028 -28.629 -26.299  1.00  0.00    -0.003 C 
ATOM     12  C   UNL     1      11.842 -29.573 -26.120  1.00  0.00     0.004 C 
ENDBRANCH  10  11
ENDBRANCH   9  10
ENDBRANCH   8   9
ENDBRANCH   7   8
ENDBRANCH   6   7
ENDBRANCH   5   6
ENDBRANCH   4   5
ENDBRANCH   3   4
ENDBRANCH   2   3
ENDBRANCH   1   2
BRANCH   1  13
ATOM     13  C   UNL     1      10.038 -25.291 -30.512  1.00  0.00     0.000 C 
BRANCH  13  14
ATOM     14  C   UNL     1      11.150 -24.323 -30.079  1.00  0.00     0.000 C 
BRANCH  14  15
ATOM     15  C   UNL     1      11.061 -23.001 -30.851  1.00  0.00     0.000 C 
BRANCH  15  16
ATOM     16  C   UNL     1      10.855 -23.254 -32.352  1.00  0.00     0.000 C 
BRANCH  16  17
ATOM     17  C   UNL     1      12.125 -23.778 -33.041  1.00  0.00     0.000 C 
BRANCH  17  18
ATOM     18  C   UNL     1      12.720 -22.765 -34.033  1.00  0.00     0.000 C 
BRANCH  18  19
ATOM     19  C   UNL     1      14.239 -22.934 -34.218  1.00  0.00     0.000 C 
BRANCH  19  20
ATOM     20  C   UNL     1      15.107 -22.155 -33.208  1.00  0.00     0.006 C 
BRANCH  20  21
ATOM     21  C   UNL     1      14.334 -21.142 -32.348  1.00  0.00     0.053 C 
BRANCH  21  22
ATOM     22  C   UNL     1      14.448 -21.444 -30.885  1.00  0.00     0.041 C 
ATOM     23  O   UNL     1      14.520 -22.637 -30.489  1.00  0.00    -0.550 OA
ATOM     24  O   UNL     1      14.441 -20.410 -29.958  1.00  0.00    -0.550 OA
ENDBRANCH  21  22
ENDBRANCH  20  21
ENDBRANCH  19  20
ENDBRANCH  18  19
ENDBRANCH  17  18
ENDBRANCH  16  17
ENDBRANCH  15  16
ENDBRANCH  14  15
ENDBRANCH  13  14
ENDBRANCH   1  13
TORSDOF 20
ENDMDL
MODEL 6
REMARK VINA RESULT:    -3.697      4.257      7.214
REMARK INTER + INTRA:         -11.426
REMARK INTER:                  -8.001
REMARK INTRA:                  -3.425
REMARK UNBOUND:                -3.405
REMARK SMILES CCCCCCCCCCCCCCCCCCCCCC(=O)[O-]
REMARK SMILES IDX 12 1 11 2 10 3 9 4 8 5 7 6 6 7 5 8 4 9 3 10 2 11 1 12 13 13
REMARK SMILES IDX 14 14 15 15 16 16 17 17 18 18 19 19 20 20 21 21 22 22 23 23
REMARK SMILES IDX 24 24
REMARK H PARENT
REMARK Flexibility Score: inf
ROOT
ATOM      1  C   UNL     1      13.150 -25.648 -26.163  1.00  0.00     0.000 C 
ENDROOT
BRANCH   1   2
ATOM      2  C   UNL     1      12.730 -26.111 -27.570  1.00  0.00     0.000 C 
BRANCH   2   3
ATOM      3  C   UNL     1      12.937 -27.618 -27.785  1.00  0.00     0.000 C 
BRANCH   3   4
ATOM      4  C   UNL     1      12.646 -28.441 -26.517  1.00  0.00    -0.000 C 
BRANCH   4   5
ATOM      5  C   UNL     1      11.338 -29.246 -26.615  1.00  0.00    -0.000 C 
BRANCH   5   6
ATOM      6  C   UNL     1      10.907 -29.622 -28.047  1.00  0.00    -0.000 C 
BRANCH   6   7
ATOM      7  C   UNL     1       9.385 -29.771 -28.256  1.00  0.00    -0.000 C 
BRANCH   7   8
ATOM      8  C   UNL     1       8.745 -28.712 -29.173  1.00  0.00    -0.000 C 
BRANCH   8   9
ATOM      9  C   UNL     1       9.771 -27.720 -29.746  1.00  0.00    -0.000 C 
BRANCH   9  10
ATOM     10  C   UNL     1       9.506 -26.273 -29.299  1.00  0.00    -0.000 C 
BRANCH  10  11
ATOM     11  C   UNL     1      10.156 -25.238 -30.229  1.00  0.00    -0.003 C 
ATOM     12  C   UNL     1      10.971 -25.920 -31.325  1.00  0.00     0.004 C 
ENDBRANCH  10  11
ENDBRANCH   9  10
ENDBRANCH   8   9
ENDBRANCH   7   8
ENDBRANCH   6   7
ENDBRANCH   5   6
ENDBRANCH   4   5
ENDBRANCH   3   4
ENDBRANCH   2   3
ENDBRANCH   1   2
BRANCH   1  13
ATOM     13  C   UNL     1      12.012 -24.945 -25.408  1.00  0.00     0.000 C 
BRANCH  13  14
ATOM     14  C   UNL     1      10.627 -25.283 -25.981  1.00  0.00     0.000 C 
BRANCH  14  15
ATOM     15  C   UNL     1       9.759 -25.996 -24.936  1.00  0.00     0.000 C 
BRANCH  15  16
ATOM     16  C   UNL     1      10.629 -26.657 -23.856  1.00  0.00     0.000 C 
BRANCH  16  17
ATOM     17  C   UNL     1      10.173 -26.299 -22.433  1.00  0.00     0.000 C 
BRANCH  17  18
ATOM     18  C   UNL     1      10.629 -24.895 -22.001  1.00  0.00     0.000 C 
BRANCH  18  19
ATOM     19  C   UNL     1       9.452 -23.949 -21.708  1.00  0.00     0.000 C 
BRANCH  19  20
ATOM     20  C   UNL     1       8.995 -23.088 -22.905  1.00  0.00     0.006 C 
BRANCH  20  21
ATOM     21  C   UNL     1      10.103 -22.226 -23.531  1.00  0.00     0.053 C 
BRANCH  21  22
ATOM     22  C   UNL     1       9.992 -20.787 -23.127  1.00  0.00     0.041 C 
ATOM     23  O   UNL     1       9.909 -20.477 -21.909  1.00  0.00    -0.550 OA
ATOM     24  O   UNL     1       9.944 -19.793 -24.096  1.00  0.00    -0.550 OA
ENDBRANCH  21  22
ENDBRANCH  20  21
ENDBRANCH  19  20
ENDBRANCH  18  19
ENDBRANCH  17  18
ENDBRANCH  16  17
ENDBRANCH  15  16
ENDBRANCH  14  15
ENDBRANCH  13  14
ENDBRANCH   1  13
TORSDOF 20
ENDMDL
MODEL 7
REMARK VINA RESULT:    -3.654      2.339      5.136
REMARK INTER + INTRA:         -11.332
REMARK INTER:                  -8.265
REMARK INTRA:                  -3.067
REMARK UNBOUND:                -3.405
REMARK SMILES CCCCCCCCCCCCCCCCCCCCCC(=O)[O-]
REMARK SMILES IDX 12 1 11 2 10 3 9 4 8 5 7 6 6 7 5 8 4 9 3 10 2 11 1 12 13 13
REMARK SMILES IDX 14 14 15 15 16 16 17 17 18 18 19 19 20 20 21 21 22 22 23 23
REMARK SMILES IDX 24 24
REMARK H PARENT
REMARK Flexibility Score: inf
ROOT
ATOM      1  C   UNL     1       8.732 -29.180 -28.612  1.00  0.00     0.000 C 
ENDROOT
BRANCH   1   2
ATOM      2  C   UNL     1       8.800 -27.913 -27.741  1.00  0.00     0.000 C 
BRANCH   2   3
ATOM      3  C   UNL     1       8.852 -26.622 -28.573  1.00  0.00     0.000 C 
BRANCH   3   4
ATOM      4  C   UNL     1      10.231 -25.943 -28.526  1.00  0.00    -0.000 C 
BRANCH   4   5
ATOM      5  C   UNL     1      11.257 -26.609 -29.460  1.00  0.00    -0.000 C 
BRANCH   5   6
ATOM      6  C   UNL     1      10.677 -27.176 -30.771  1.00  0.00    -0.000 C 
BRANCH   6   7
ATOM      7  C   UNL     1      11.016 -26.370 -32.043  1.00  0.00    -0.000 C 
BRANCH   7   8
ATOM      8  C   UNL     1      10.435 -24.944 -32.086  1.00  0.00    -0.000 C 
BRANCH   8   9
ATOM      9  C   UNL     1      11.522 -23.856 -32.062  1.00  0.00    -0.000 C 
BRANCH   9  10
ATOM     10  C   UNL     1      11.604 -23.135 -30.707  1.00  0.00    -0.000 C 
BRANCH  10  11
ATOM     11  C   UNL     1      13.050 -22.927 -30.234  1.00  0.00    -0.003 C 
ATOM     12  C   UNL     1      13.932 -22.419 -31.372  1.00  0.00     0.004 C 
ENDBRANCH  10  11
ENDBRANCH   9  10
ENDBRANCH   8   9
ENDBRANCH   7   8
ENDBRANCH   6   7
ENDBRANCH   5   6
ENDBRANCH   4   5
ENDBRANCH   3   4
ENDBRANCH   2   3
ENDBRANCH   1   2
BRANCH   1  13
ATOM     13  C   UNL     1       9.541 -30.346 -28.025  1.00  0.00     0.000 C 
BRANCH  13  14
ATOM     14  C   UNL     1      11.057 -30.144 -28.171  1.00  0.00     0.000 C 
BRANCH  14  15
ATOM     15  C   UNL     1      11.695 -29.778 -26.826  1.00  0.00     0.000 C 
BRANCH  15  16
ATOM     16  C   UNL     1      12.607 -28.549 -26.967  1.00  0.00     0.000 C 
BRANCH  16  17
ATOM     17  C   UNL     1      12.466 -27.572 -25.789  1.00  0.00     0.000 C 
BRANCH  17  18
ATOM     18  C   UNL     1      11.177 -27.802 -24.982  1.00  0.00     0.000 C 
BRANCH  18  19
ATOM     19  C   UNL     1      10.809 -26.603 -24.090  1.00  0.00     0.000 C 
BRANCH  19  20
ATOM     20  C   UNL     1      10.358 -25.340 -24.853  1.00  0.00     0.006 C 
BRANCH  20  21
ATOM     21  C   UNL     1       9.185 -24.587 -24.204  1.00  0.00     0.053 C 
BRANCH  21  22
ATOM     22  C   UNL     1       9.615 -23.806 -23.000  1.00  0.00     0.041 C 
ATOM     23  O   UNL     1       9.645 -24.355 -21.867  1.00  0.00    -0.550 OA
ATOM     24  O   UNL     1       9.949 -22.463 -23.124  1.00  0.00    -0.550 OA
ENDBRANCH  21  22
ENDBRANCH  20  21
ENDBRANCH  19  20
ENDBRANCH  18  19
ENDBRANCH  17  18
ENDBRANCH  16  17
ENDBRANCH  15  16
ENDBRANCH  14  15
ENDBRANCH  13  14
ENDBRANCH   1  13
TORSDOF 20
ENDMDL
MODEL 8
REMARK VINA RESULT:    -3.619      2.923      7.724
REMARK INTER + INTRA:         -11.256
REMARK INTER:                  -7.936
REMARK INTRA:                  -3.320
REMARK UNBOUND:                -3.405
REMARK SMILES CCCCCCCCCCCCCCCCCCCCCC(=O)[O-]
REMARK SMILES IDX 12 1 11 2 10 3 9 4 8 5 7 6 6 7 5 8 4 9 3 10 2 11 1 12 13 13
REMARK SMILES IDX 14 14 15 15 16 16 17 17 18 18 19 19 20 20 21 21 22 22 23 23
REMARK SMILES IDX 24 24
REMARK H PARENT
REMARK Flexibility Score: inf
ROOT
ATOM      1  C   UNL     1       8.577 -27.442 -28.948  1.00  0.00     0.000 C 
ENDROOT
BRANCH   1   2
ATOM      2  C   UNL     1       8.570 -27.851 -27.464  1.00  0.00     0.000 C 
BRANCH   2   3
ATOM      3  C   UNL     1       8.923 -26.685 -26.527  1.00  0.00     0.000 C 
BRANCH   3   4
ATOM      4  C   UNL     1      10.375 -26.750 -26.024  1.00  0.00    -0.000 C 
BRANCH   4   5
ATOM      5  C   UNL     1      11.196 -25.506 -26.406  1.00  0.00    -0.000 C 
BRANCH   5   6
ATOM      6  C   UNL     1      12.498 -25.793 -27.181  1.00  0.00    -0.000 C 
BRANCH   6   7
ATOM      7  C   UNL     1      12.749 -27.278 -27.516  1.00  0.00    -0.000 C 
BRANCH   7   8
ATOM      8  C   UNL     1      14.131 -27.816 -27.100  1.00  0.00    -0.000 C 
BRANCH   8   9
ATOM      9  C   UNL     1      14.054 -28.830 -25.946  1.00  0.00    -0.000 C 
BRANCH   9  10
ATOM     10  C   UNL     1      12.840 -29.766 -26.064  1.00  0.00    -0.000 C 
BRANCH  10  11
ATOM     11  C   UNL     1      11.983 -29.786 -24.789  1.00  0.00    -0.003 C 
ATOM     12  C   UNL     1      12.488 -28.766 -23.772  1.00  0.00     0.004 C 
ENDBRANCH  10  11
ENDBRANCH   9  10
ENDBRANCH   8   9
ENDBRANCH   7   8
ENDBRANCH   6   7
ENDBRANCH   5   6
ENDBRANCH   4   5
ENDBRANCH   3   4
ENDBRANCH   2   3
ENDBRANCH   1   2
BRANCH   1  13
ATOM     13  C   UNL     1       9.895 -27.795 -29.653  1.00  0.00     0.000 C 
BRANCH  13  14
ATOM     14  C   UNL     1      10.491 -26.605 -30.421  1.00  0.00     0.000 C 
BRANCH  14  15
ATOM     15  C   UNL     1       9.884 -25.281 -29.940  1.00  0.00     0.000 C 
BRANCH  15  16
ATOM     16  C   UNL     1       9.511 -24.383 -31.129  1.00  0.00     0.000 C 
BRANCH  16  17
ATOM     17  C   UNL     1      10.154 -24.850 -32.445  1.00  0.00     0.000 C 
BRANCH  17  18
ATOM     18  C   UNL     1      10.510 -23.680 -33.377  1.00  0.00     0.000 C 
BRANCH  18  19
ATOM     19  C   UNL     1      11.976 -23.233 -33.241  1.00  0.00     0.000 C 
BRANCH  19  20
ATOM     20  C   UNL     1      12.171 -21.804 -32.693  1.00  0.00     0.006 C 
BRANCH  20  21
ATOM     21  C   UNL     1      12.231 -21.710 -31.160  1.00  0.00     0.053 C 
BRANCH  21  22
ATOM     22  C   UNL     1      13.216 -22.676 -30.575  1.00  0.00     0.041 C 
ATOM     23  O   UNL     1      12.824 -23.591 -29.804  1.00  0.00    -0.550 OA
ATOM     24  O   UNL     1      14.570 -22.543 -30.854  1.00  0.00    -0.550 OA
ENDBRANCH  21  22
ENDBRANCH  20  21
ENDBRANCH  19  20
ENDBRANCH  18  19
ENDBRANCH  17  18
ENDBRANCH  16  17
ENDBRANCH  15  16
ENDBRANCH  14  15
ENDBRANCH  13  14
ENDBRANCH   1  13
TORSDOF 20
ENDMDL
MODEL 9
REMARK VINA RESULT:    -3.600      3.267      8.142
REMARK INTER + INTRA:         -11.214
REMARK INTER:                  -8.620
REMARK INTRA:                  -2.595
REMARK UNBOUND:                -3.405
REMARK SMILES CCCCCCCCCCCCCCCCCCCCCC(=O)[O-]
REMARK SMILES IDX 12 1 11 2 10 3 9 4 8 5 7 6 6 7 5 8 4 9 3 10 2 11 1 12 13 13
REMARK SMILES IDX 14 14 15 15 16 16 17 17 18 18 19 19 20 20 21 21 22 22 23 23
REMARK SMILES IDX 24 24
REMARK H PARENT
REMARK Flexibility Score: inf
ROOT
ATOM      1  C   UNL     1       9.034 -26.646 -27.984  1.00  0.00     0.000 C 
ENDROOT
BRANCH   1   2
ATOM      2  C   UNL     1       8.013 -27.749 -28.316  1.00  0.00     0.000 C 
BRANCH   2   3
ATOM      3  C   UNL     1       8.608 -28.867 -29.186  1.00  0.00     0.000 C 
BRANCH   3   4
ATOM      4  C   UNL     1       9.358 -29.924 -28.356  1.00  0.00    -0.000 C 
BRANCH   4   5
ATOM      5  C   UNL     1      10.879 -29.695 -28.331  1.00  0.00    -0.000 C 
BRANCH   5   6
ATOM      6  C   UNL     1      11.497 -29.559 -26.925  1.00  0.00    -0.000 C 
BRANCH   6   7
ATOM      7  C   UNL     1      12.266 -28.246 -26.669  1.00  0.00    -0.000 C 
BRANCH   7   8
ATOM      8  C   UNL     1      11.645 -27.322 -25.605  1.00  0.00    -0.000 C 
BRANCH   8   9
ATOM      9  C   UNL     1      11.976 -25.837 -25.837  1.00  0.00    -0.000 C 
BRANCH   9  10
ATOM     10  C   UNL     1      10.887 -24.899 -25.292  1.00  0.00    -0.000 C 
BRANCH  10  11
ATOM     11  C   UNL     1       9.830 -25.640 -24.460  1.00  0.00    -0.003 C 
ATOM     12  C   UNL     1       9.921 -25.254 -22.986  1.00  0.00     0.004 C 
ENDBRANCH  10  11
ENDBRANCH   9  10
ENDBRANCH   8   9
ENDBRANCH   7   8
ENDBRANCH   6   7
ENDBRANCH   5   6
ENDBRANCH   4   5
ENDBRANCH   3   4
ENDBRANCH   2   3
ENDBRANCH   1   2
BRANCH   1  13
ATOM     13  C   UNL     1       9.483 -25.862 -29.227  1.00  0.00     0.000 C 
BRANCH  13  14
ATOM     14  C   UNL     1      10.918 -26.207 -29.655  1.00  0.00     0.000 C 
BRANCH  14  15
ATOM     15  C   UNL     1      10.959 -26.678 -31.113  1.00  0.00     0.000 C 
BRANCH  15  16
ATOM     16  C   UNL     1      10.692 -25.511 -32.076  1.00  0.00     0.000 C 
BRANCH  16  17
ATOM     17  C   UNL     1      11.643 -24.326 -31.844  1.00  0.00     0.000 C 
BRANCH  17  18
ATOM     18  C   UNL     1      11.250 -23.084 -32.660  1.00  0.00     0.000 C 
BRANCH  18  19
ATOM     19  C   UNL     1      11.983 -22.999 -34.010  1.00  0.00     0.000 C 
BRANCH  19  20
ATOM     20  C   UNL     1      13.191 -22.038 -34.034  1.00  0.00     0.006 C 
BRANCH  20  21
ATOM     21  C   UNL     1      14.506 -22.653 -33.529  1.00  0.00     0.053 C 
BRANCH  21  22
ATOM     22  C   UNL     1      14.827 -22.223 -32.130  1.00  0.00     0.041 C 
ATOM     23  O   UNL     1      15.752 -22.790 -31.490  1.00  0.00    -0.550 OA
ATOM     24  O   UNL     1      14.083 -21.221 -31.522  1.00  0.00    -0.550 OA
ENDBRANCH  21  22
ENDBRANCH  20  21
ENDBRANCH  19  20
ENDBRANCH  18  19
ENDBRANCH  17  18
ENDBRANCH  16  17
ENDBRANCH  15  16
ENDBRANCH  14  15
ENDBRANCH  13  14
ENDBRANCH   1  13
TORSDOF 20
ENDMDL
