MODEL 1
REMARK VINA RESULT:    -6.094      0.000      0.000
REMARK INTER + INTRA:         -13.032
REMARK INTER:                 -10.014
REMARK INTRA:                  -3.019
REMARK UNBOUND:                -3.019
REMARK SMILES C[C@@H]1O[C@@H](OC[C@H]2O[C@@H](Oc3c(-c4ccc(O)c(O)c4)oc4cc(O)cc(O)c4c3=O)[C@H](O)[C@H](O)[C@H]2O)[C@H](O)[C@@H](O)[C@@H]1O
REMARK SMILES IDX 7 1 36 2 34 3 32 4 9 5 8 6 6 7 5 8 4 9 1 10 2 11 42 12 3 13
REMARK SMILES IDX 40 14 38 15 43 16 41 18 39 20 37 22 35 24 10 26 11 27 12 28
REMARK SMILES IDX 30 29 21 30 29 31 31 32 22 33 27 34 23 35 26 36 24 37 13 38
REMARK SMILES IDX 20 39 14 40 18 41 15 42 16 43 19 44 17 46 28 48 25 50 33 52
REMARK H PARENT 43 17 41 19 39 21 37 23 35 25 19 45 17 47 28 49 25 51 33 53
REMARK Flexibility Score: inf
ROOT
ATOM      1  C   UNL     1      15.839  35.660 119.341  1.00  0.00     0.180 C 
ATOM      2  C   UNL     1      17.361  35.917 119.474  1.00  0.00     0.177 C 
ATOM      3  C   UNL     1      17.655  36.914 120.606  1.00  0.00     0.180 C 
ATOM      4  C   UNL     1      16.803  38.176 120.410  1.00  0.00     0.214 C 
ATOM      5  C   UNL     1      15.318  37.806 120.264  1.00  0.00     0.339 C 
ATOM      6  O   UNL     1      15.091  36.865 119.220  1.00  0.00    -0.332 OA
ENDROOT
BRANCH   1   7
ATOM      7  C   UNL     1      15.259  34.724 120.421  1.00  0.00     0.198 C 
BRANCH   7   8
ATOM      8  O   UNL     1      14.087  34.095 119.929  1.00  0.00    -0.347 OA
BRANCH   8   9
ATOM      9  C   UNL     1      13.275  33.582 120.980  1.00  0.00     0.281 C 
ATOM     10  C   UNL     1      10.494  32.397 118.875  1.00  0.00     0.041 C 
ATOM     11  C   UNL     1      11.421  33.410 119.549  1.00  0.00     0.150 C 
ATOM     12  C   UNL     1      10.613  34.513 120.281  1.00  0.00     0.174 C 
ATOM     13  O   UNL     1      12.280  32.721 120.445  1.00  0.00    -0.344 OA
ATOM     14  C   UNL     1      11.563  35.475 121.027  1.00  0.00     0.179 C 
ATOM     15  C   UNL     1      12.624  34.702 121.838  1.00  0.00     0.202 C 
BRANCH  12  16
ATOM     16  O   UNL     1       9.649  33.979 121.158  1.00  0.00    -0.388 OA
ATOM     17  H   UNL     1       9.766  34.403 122.047  1.00  0.00     0.211 HD
ENDBRANCH  12  16
BRANCH  14  18
ATOM     18  O   UNL     1      12.193  36.311 120.090  1.00  0.00    -0.387 OA
ATOM     19  H   UNL     1      11.533  36.492 119.373  1.00  0.00     0.211 HD
ENDBRANCH  14  18
BRANCH  15  20
ATOM     20  O   UNL     1      12.027  34.144 122.980  1.00  0.00    -0.385 OA
ATOM     21  H   UNL     1      11.616  34.892 123.489  1.00  0.00     0.211 HD
ENDBRANCH  15  20
ENDBRANCH   8   9
ENDBRANCH   7   8
ENDBRANCH   1   7
BRANCH   2  22
ATOM     22  O   UNL     1      18.039  34.706 119.705  1.00  0.00    -0.387 OA
ATOM     23  H   UNL     1      17.894  34.134 118.908  1.00  0.00     0.211 HD
ENDBRANCH   2  22
BRANCH   3  24
ATOM     24  O   UNL     1      19.015  37.262 120.603  1.00  0.00    -0.387 OA
ATOM     25  H   UNL     1      19.479  36.618 120.005  1.00  0.00     0.211 HD
ENDBRANCH   3  24
BRANCH   5  26
ATOM     26  O   UNL     1      14.786  37.358 121.515  1.00  0.00    -0.454 OA
BRANCH  26  27
ATOM     27  C   UNL     1      14.045  38.125 122.438  1.00  0.00     0.214 A 
ATOM     28  C   UNL     1      14.291  37.934 123.811  1.00  0.00     0.180 A 
ATOM     29  C   UNL     1      13.080  39.091 122.066  1.00  0.00     0.239 A 
ATOM     30  O   UNL     1      13.656  38.664 124.721  1.00  0.00    -0.452 OA
ATOM     31  C   UNL     1      12.415  39.837 123.065  1.00  0.00     0.111 A 
ATOM     32  O   UNL     1      12.808  39.283 120.852  1.00  0.00    -0.285 OA
ATOM     33  C   UNL     1      12.747  39.580 124.415  1.00  0.00     0.146 A 
ATOM     34  C   UNL     1      11.437  40.821 122.774  1.00  0.00     0.134 A 
ATOM     35  C   UNL     1      12.116  40.284 125.445  1.00  0.00     0.094 A 
ATOM     36  C   UNL     1      10.813  41.514 123.822  1.00  0.00     0.093 A 
ATOM     37  C   UNL     1      11.149  41.246 125.153  1.00  0.00     0.123 A 
BRANCH  28  38
ATOM     38  C   UNL     1      15.280  36.949 124.281  1.00  0.00     0.025 A 
ATOM     39  C   UNL     1      16.590  37.359 124.568  1.00  0.00     0.062 A 
ATOM     40  C   UNL     1      14.914  35.612 124.487  1.00  0.00     0.016 A 
ATOM     41  C   UNL     1      17.539  36.435 125.024  1.00  0.00     0.158 A 
ATOM     42  C   UNL     1      15.857  34.686 124.938  1.00  0.00     0.051 A 
ATOM     43  C   UNL     1      17.173  35.091 125.205  1.00  0.00     0.157 A 
BRANCH  41  44
ATOM     44  O   UNL     1      18.836  36.872 125.291  1.00  0.00    -0.504 OA
ATOM     45  H   UNL     1      19.312  37.538 124.695  1.00  0.00     0.293 HD
ENDBRANCH  41  44
BRANCH  43  46
ATOM     46  O   UNL     1      18.113  34.164 125.653  1.00  0.00    -0.504 OA
ATOM     47  H   UNL     1      17.839  33.237 125.960  1.00  0.00     0.293 HD
ENDBRANCH  43  46
ENDBRANCH  28  38
BRANCH  34  48
ATOM     48  O   UNL     1      11.081  41.114 121.457  1.00  0.00    -0.507 OA
ATOM     49  H   UNL     1      10.672  42.004 121.199  1.00  0.00     0.293 HD
ENDBRANCH  34  48
BRANCH  37  50
ATOM     50  O   UNL     1      10.525  41.931 126.194  1.00  0.00    -0.508 OA
ATOM     51  H   UNL     1       9.524  42.090 126.200  1.00  0.00     0.293 HD
ENDBRANCH  37  50
ENDBRANCH  26  27
ENDBRANCH   5  26
BRANCH   4  52
ATOM     52  O   UNL     1      17.213  38.874 119.260  1.00  0.00    -0.384 OA
ATOM     53  H   UNL     1      16.471  38.814 118.604  1.00  0.00     0.211 HD
ENDBRANCH   4  52
TORSDOF 16
ENDMDL
MODEL 2
REMARK VINA RESULT:    -5.647      2.332      3.841
REMARK INTER + INTRA:         -12.297
REMARK INTER:                 -10.086
REMARK INTRA:                  -2.211
REMARK UNBOUND:                -3.019
REMARK SMILES C[C@@H]1O[C@@H](OC[C@H]2O[C@@H](Oc3c(-c4ccc(O)c(O)c4)oc4cc(O)cc(O)c4c3=O)[C@H](O)[C@H](O)[C@H]2O)[C@H](O)[C@@H](O)[C@@H]1O
REMARK SMILES IDX 7 1 36 2 34 3 32 4 9 5 8 6 6 7 5 8 4 9 1 10 2 11 42 12 3 13
REMARK SMILES IDX 40 14 38 15 43 16 41 18 39 20 37 22 35 24 10 26 11 27 12 28
REMARK SMILES IDX 30 29 21 30 29 31 31 32 22 33 27 34 23 35 26 36 24 37 13 38
REMARK SMILES IDX 20 39 14 40 18 41 15 42 16 43 19 44 17 46 28 48 25 50 33 52
REMARK H PARENT 43 17 41 19 39 21 37 23 35 25 19 45 17 47 28 49 25 51 33 53
REMARK Flexibility Score: inf
ROOT
ATOM      1  C   UNL     1      14.551  37.809 121.509  1.00  0.00     0.180 C 
ATOM      2  C   UNL     1      15.720  36.813 121.309  1.00  0.00     0.177 C 
ATOM      3  C   UNL     1      16.406  36.493 122.648  1.00  0.00     0.180 C 
ATOM      4  C   UNL     1      16.787  37.802 123.353  1.00  0.00     0.214 C 
ATOM      5  C   UNL     1      15.564  38.725 123.475  1.00  0.00     0.339 C 
ATOM      6  O   UNL     1      14.945  38.979 122.217  1.00  0.00    -0.332 OA
ENDROOT
BRANCH   1   7
ATOM      7  C   UNL     1      13.275  37.177 122.099  1.00  0.00     0.198 C 
BRANCH   7   8
ATOM      8  O   UNL     1      12.510  36.586 121.063  1.00  0.00    -0.347 OA
BRANCH   8   9
ATOM      9  C   UNL     1      11.874  35.385 121.485  1.00  0.00     0.281 C 
ATOM     10  C   UNL     1      13.260  33.186 118.875  1.00  0.00     0.041 C 
ATOM     11  C   UNL     1      12.412  34.314 119.466  1.00  0.00     0.150 C 
ATOM     12  C   UNL     1      10.937  34.215 118.997  1.00  0.00     0.174 C 
ATOM     13  O   UNL     1      12.506  34.265 120.882  1.00  0.00    -0.344 OA
ATOM     14  C   UNL     1      10.080  35.306 119.672  1.00  0.00     0.179 C 
ATOM     15  C   UNL     1      10.348  35.376 121.190  1.00  0.00     0.202 C 
BRANCH  12  16
ATOM     16  O   UNL     1      10.389  32.937 119.220  1.00  0.00    -0.388 OA
ATOM     17  H   UNL     1       9.429  32.960 118.971  1.00  0.00     0.211 HD
ENDBRANCH  12  16
BRANCH  14  18
ATOM     18  O   UNL     1      10.370  36.546 119.078  1.00  0.00    -0.387 OA
ATOM     19  H   UNL     1       9.616  37.153 119.294  1.00  0.00     0.211 HD
ENDBRANCH  14  18
BRANCH  15  20
ATOM     20  O   UNL     1       9.744  34.279 121.824  1.00  0.00    -0.385 OA
ATOM     21  H   UNL     1       9.786  34.448 122.801  1.00  0.00     0.211 HD
ENDBRANCH  15  20
ENDBRANCH   8   9
ENDBRANCH   7   8
ENDBRANCH   1   7
BRANCH   2  22
ATOM     22  O   UNL     1      15.254  35.631 120.708  1.00  0.00    -0.387 OA
ATOM     23  H   UNL     1      15.860  34.900 120.993  1.00  0.00     0.211 HD
ENDBRANCH   2  22
BRANCH   3  24
ATOM     24  O   UNL     1      17.561  35.725 122.428  1.00  0.00    -0.387 OA
ATOM     25  H   UNL     1      18.148  35.850 123.222  1.00  0.00     0.211 HD
ENDBRANCH   3  24
BRANCH   5  26
ATOM     26  O   UNL     1      14.636  38.206 124.433  1.00  0.00    -0.454 OA
BRANCH  26  27
ATOM     27  C   UNL     1      13.821  38.955 125.307  1.00  0.00     0.214 A 
ATOM     28  C   UNL     1      12.713  38.315 125.896  1.00  0.00     0.180 A 
ATOM     29  C   UNL     1      14.062  40.308 125.645  1.00  0.00     0.239 A 
ATOM     30  O   UNL     1      11.941  38.960 126.763  1.00  0.00    -0.452 OA
ATOM     31  C   UNL     1      13.208  40.963 126.561  1.00  0.00     0.111 A 
ATOM     32  O   UNL     1      15.026  40.931 125.129  1.00  0.00    -0.285 OA
ATOM     33  C   UNL     1      12.133  40.226 127.108  1.00  0.00     0.146 A 
ATOM     34  C   UNL     1      13.381  42.315 126.950  1.00  0.00     0.134 A 
ATOM     35  C   UNL     1      11.253  40.825 128.014  1.00  0.00     0.094 A 
ATOM     36  C   UNL     1      12.486  42.899 127.858  1.00  0.00     0.093 A 
ATOM     37  C   UNL     1      11.424  42.159 128.387  1.00  0.00     0.123 A 
BRANCH  28  38
ATOM     38  C   UNL     1      12.395  36.909 125.597  1.00  0.00     0.025 A 
ATOM     39  C   UNL     1      11.086  36.551 125.243  1.00  0.00     0.062 A 
ATOM     40  C   UNL     1      13.397  35.930 125.618  1.00  0.00     0.016 A 
ATOM     41  C   UNL     1      10.770  35.219 124.948  1.00  0.00     0.158 A 
ATOM     42  C   UNL     1      13.086  34.599 125.327  1.00  0.00     0.051 A 
ATOM     43  C   UNL     1      11.774  34.237 124.995  1.00  0.00     0.157 A 
BRANCH  41  44
ATOM     44  O   UNL     1       9.457  34.893 124.610  1.00  0.00    -0.504 OA
ATOM     45  H   UNL     1       9.025  34.025 124.904  1.00  0.00     0.293 HD
ENDBRANCH  41  44
BRANCH  43  46
ATOM     46  O   UNL     1      11.466  32.908 124.707  1.00  0.00    -0.504 OA
ATOM     47  H   UNL     1      11.216  32.251 125.438  1.00  0.00     0.293 HD
ENDBRANCH  43  46
ENDBRANCH  28  38
BRANCH  34  48
ATOM     48  O   UNL     1      14.432  43.080 126.441  1.00  0.00    -0.507 OA
ATOM     49  H   UNL     1      15.104  42.697 125.787  1.00  0.00     0.293 HD
ENDBRANCH  34  48
BRANCH  37  50
ATOM     50  O   UNL     1      10.532  42.741 129.286  1.00  0.00    -0.508 OA
ATOM     51  H   UNL     1       9.923  43.504 129.010  1.00  0.00     0.293 HD
ENDBRANCH  37  50
ENDBRANCH  26  27
ENDBRANCH   5  26
BRANCH   4  52
ATOM     52  O   UNL     1      17.794  38.474 122.636  1.00  0.00    -0.384 OA
ATOM     53  H   UNL     1      18.440  37.786 122.329  1.00  0.00     0.211 HD
ENDBRANCH   4  52
TORSDOF 16
ENDMDL
MODEL 3
REMARK VINA RESULT:    -5.520      2.611      5.423
REMARK INTER + INTRA:         -12.089
REMARK INTER:                  -9.660
REMARK INTRA:                  -2.429
REMARK UNBOUND:                -3.019
REMARK SMILES C[C@@H]1O[C@@H](OC[C@H]2O[C@@H](Oc3c(-c4ccc(O)c(O)c4)oc4cc(O)cc(O)c4c3=O)[C@H](O)[C@H](O)[C@H]2O)[C@H](O)[C@@H](O)[C@@H]1O
REMARK SMILES IDX 7 1 36 2 34 3 32 4 9 5 8 6 6 7 5 8 4 9 1 10 2 11 42 12 3 13
REMARK SMILES IDX 40 14 38 15 43 16 41 18 39 20 37 22 35 24 10 26 11 27 12 28
REMARK SMILES IDX 30 29 21 30 29 31 31 32 22 33 27 34 23 35 26 36 24 37 13 38
REMARK SMILES IDX 20 39 14 40 18 41 15 42 16 43 19 44 17 46 28 48 25 50 33 52
REMARK H PARENT 43 17 41 19 39 21 37 23 35 25 19 45 17 47 28 49 25 51 33 53
REMARK Flexibility Score: inf
ROOT
ATOM      1  C   UNL     1      12.041  36.736 120.881  1.00  0.00     0.180 C 
ATOM      2  C   UNL     1      11.740  37.715 119.718  1.00  0.00     0.177 C 
ATOM      3  C   UNL     1      11.123  39.022 120.244  1.00  0.00     0.180 C 
ATOM      4  C   UNL     1       9.920  38.695 121.139  1.00  0.00     0.214 C 
ATOM      5  C   UNL     1      10.322  37.699 122.239  1.00  0.00     0.339 C 
ATOM      6  O   UNL     1      10.908  36.513 121.713  1.00  0.00    -0.332 OA
ENDROOT
BRANCH   1   7
ATOM      7  C   UNL     1      13.299  37.092 121.697  1.00  0.00     0.198 C 
BRANCH   7   8
ATOM      8  O   UNL     1      14.458  36.659 121.005  1.00  0.00    -0.347 OA
BRANCH   8   9
ATOM      9  C   UNL     1      15.650  36.937 121.731  1.00  0.00     0.281 C 
ATOM     10  C   UNL     1      17.410  38.748 119.049  1.00  0.00     0.041 C 
ATOM     11  C   UNL     1      16.778  37.553 119.766  1.00  0.00     0.150 C 
ATOM     12  C   UNL     1      17.751  36.346 119.813  1.00  0.00     0.174 C 
ATOM     13  O   UNL     1      16.391  37.954 121.072  1.00  0.00    -0.344 OA
ATOM     14  C   UNL     1      17.131  35.182 120.615  1.00  0.00     0.179 C 
ATOM     15  C   UNL     1      16.530  35.673 121.948  1.00  0.00     0.202 C 
BRANCH  12  16
ATOM     16  O   UNL     1      19.014  36.695 120.331  1.00  0.00    -0.388 OA
ATOM     17  H   UNL     1      19.152  36.201 121.179  1.00  0.00     0.211 HD
ENDBRANCH  12  16
BRANCH  14  18
ATOM     18  O   UNL     1      16.133  34.573 119.837  1.00  0.00    -0.387 OA
ATOM     19  H   UNL     1      15.265  34.954 120.130  1.00  0.00     0.211 HD
ENDBRANCH  14  18
BRANCH  15  20
ATOM     20  O   UNL     1      17.565  35.961 122.853  1.00  0.00    -0.385 OA
ATOM     21  H   UNL     1      17.362  35.471 123.692  1.00  0.00     0.211 HD
ENDBRANCH  15  20
ENDBRANCH   8   9
ENDBRANCH   7   8
ENDBRANCH   1   7
BRANCH   2  22
ATOM     22  O   UNL     1      12.916  37.989 118.997  1.00  0.00    -0.387 OA
ATOM     23  H   UNL     1      13.013  38.975 118.962  1.00  0.00     0.211 HD
ENDBRANCH   2  22
BRANCH   3  24
ATOM     24  O   UNL     1      10.704  39.825 119.171  1.00  0.00    -0.387 OA
ATOM     25  H   UNL     1       9.916  40.343 119.486  1.00  0.00     0.211 HD
ENDBRANCH   3  24
BRANCH   5  26
ATOM     26  O   UNL     1      11.167  38.331 123.206  1.00  0.00    -0.454 OA
BRANCH  26  27
ATOM     27  C   UNL     1      10.822  38.675 124.530  1.00  0.00     0.214 A 
ATOM     28  C   UNL     1      11.001  37.707 125.536  1.00  0.00     0.180 A 
ATOM     29  C   UNL     1      10.326  39.944 124.911  1.00  0.00     0.239 A 
ATOM     30  O   UNL     1      10.737  37.993 126.807  1.00  0.00    -0.452 OA
ATOM     31  C   UNL     1      10.044  40.205 126.271  1.00  0.00     0.111 A 
ATOM     32  O   UNL     1      10.128  40.836 124.046  1.00  0.00    -0.285 OA
ATOM     33  C   UNL     1      10.273  39.169 127.206  1.00  0.00     0.146 A 
ATOM     34  C   UNL     1       9.545  41.448 126.734  1.00  0.00     0.134 A 
ATOM     35  C   UNL     1      10.006  39.370 128.564  1.00  0.00     0.094 A 
ATOM     36  C   UNL     1       9.280  41.629 128.099  1.00  0.00     0.093 A 
ATOM     37  C   UNL     1       9.508  40.594 129.012  1.00  0.00     0.123 A 
BRANCH  28  38
ATOM     38  C   UNL     1      11.513  36.362 125.222  1.00  0.00     0.025 A 
ATOM     39  C   UNL     1      12.897  36.136 125.184  1.00  0.00     0.062 A 
ATOM     40  C   UNL     1      10.632  35.295 125.004  1.00  0.00     0.016 A 
ATOM     41  C   UNL     1      13.399  34.861 124.895  1.00  0.00     0.158 A 
ATOM     42  C   UNL     1      11.128  34.022 124.712  1.00  0.00     0.051 A 
ATOM     43  C   UNL     1      12.511  33.799 124.653  1.00  0.00     0.157 A 
BRANCH  41  44
ATOM     44  O   UNL     1      14.780  34.670 124.854  1.00  0.00    -0.504 OA
ATOM     45  H   UNL     1      15.195  33.746 124.855  1.00  0.00     0.293 HD
ENDBRANCH  41  44
BRANCH  43  46
ATOM     46  O   UNL     1      13.003  32.528 124.359  1.00  0.00    -0.504 OA
ATOM     47  H   UNL     1      12.680  31.706 124.857  1.00  0.00     0.293 HD
ENDBRANCH  43  46
ENDBRANCH  28  38
BRANCH  34  48
ATOM     48  O   UNL     1       9.309  42.502 125.849  1.00  0.00    -0.507 OA
ATOM     49  H   UNL     1       9.693  43.426 126.005  1.00  0.00     0.293 HD
ENDBRANCH  34  48
BRANCH  37  50
ATOM     50  O   UNL     1       9.240  40.772 130.368  1.00  0.00    -0.508 OA
ATOM     51  H   UNL     1       8.289  40.806 130.721  1.00  0.00     0.293 HD
ENDBRANCH  37  50
ENDBRANCH  26  27
ENDBRANCH   5  26
BRANCH   4  52
ATOM     52  O   UNL     1       8.876  38.137 120.380  1.00  0.00    -0.384 OA
ATOM     53  H   UNL     1       9.162  38.164 119.430  1.00  0.00     0.211 HD
ENDBRANCH   4  52
TORSDOF 16
ENDMDL
MODEL 4
REMARK VINA RESULT:    -5.460      2.069      5.913
REMARK INTER + INTRA:         -11.990
REMARK INTER:                  -8.777
REMARK INTRA:                  -3.214
REMARK UNBOUND:                -3.019
REMARK SMILES C[C@@H]1O[C@@H](OC[C@H]2O[C@@H](Oc3c(-c4ccc(O)c(O)c4)oc4cc(O)cc(O)c4c3=O)[C@H](O)[C@H](O)[C@H]2O)[C@H](O)[C@@H](O)[C@@H]1O
REMARK SMILES IDX 7 1 36 2 34 3 32 4 9 5 8 6 6 7 5 8 4 9 1 10 2 11 42 12 3 13
REMARK SMILES IDX 40 14 38 15 43 16 41 18 39 20 37 22 35 24 10 26 11 27 12 28
REMARK SMILES IDX 30 29 21 30 29 31 31 32 22 33 27 34 23 35 26 36 24 37 13 38
REMARK SMILES IDX 20 39 14 40 18 41 15 42 16 43 19 44 17 46 28 48 25 50 33 52
REMARK H PARENT 43 17 41 19 39 21 37 23 35 25 19 45 17 47 28 49 25 51 33 53
REMARK Flexibility Score: inf
ROOT
ATOM      1  C   UNL     1      14.542  34.371 123.595  1.00  0.00     0.180 C 
ATOM      2  C   UNL     1      13.312  33.601 124.139  1.00  0.00     0.177 C 
ATOM      3  C   UNL     1      12.200  34.571 124.570  1.00  0.00     0.180 C 
ATOM      4  C   UNL     1      12.780  35.618 125.530  1.00  0.00     0.214 C 
ATOM      5  C   UNL     1      14.007  36.302 124.906  1.00  0.00     0.339 C 
ATOM      6  O   UNL     1      15.003  35.369 124.500  1.00  0.00    -0.332 OA
ENDROOT
BRANCH   1   7
ATOM      7  C   UNL     1      14.362  34.923 122.168  1.00  0.00     0.198 C 
BRANCH   7   8
ATOM      8  O   UNL     1      15.631  35.199 121.598  1.00  0.00    -0.347 OA
BRANCH   8   9
ATOM      9  C   UNL     1      15.537  36.078 120.483  1.00  0.00     0.281 C 
ATOM     10  C   UNL     1      19.127  36.166 119.661  1.00  0.00     0.041 C 
ATOM     11  C   UNL     1      17.859  36.424 120.478  1.00  0.00     0.150 C 
ATOM     12  C   UNL     1      17.750  37.915 120.893  1.00  0.00     0.174 C 
ATOM     13  O   UNL     1      16.732  36.018 119.717  1.00  0.00    -0.344 OA
ATOM     14  C   UNL     1      16.425  38.173 121.640  1.00  0.00     0.179 C 
ATOM     15  C   UNL     1      15.227  37.544 120.897  1.00  0.00     0.202 C 
BRANCH  12  16
ATOM     16  O   UNL     1      17.887  38.788 119.796  1.00  0.00    -0.388 OA
ATOM     17  H   UNL     1      18.551  39.485 120.031  1.00  0.00     0.211 HD
ENDBRANCH  12  16
BRANCH  14  18
ATOM     18  O   UNL     1      16.518  37.637 122.935  1.00  0.00    -0.387 OA
ATOM     19  H   UNL     1      16.649  36.659 122.834  1.00  0.00     0.211 HD
ENDBRANCH  14  18
BRANCH  15  20
ATOM     20  O   UNL     1      14.925  38.310 119.760  1.00  0.00    -0.385 OA
ATOM     21  H   UNL     1      14.012  38.678 119.891  1.00  0.00     0.211 HD
ENDBRANCH  15  20
ENDBRANCH   8   9
ENDBRANCH   7   8
ENDBRANCH   1   7
BRANCH   2  22
ATOM     22  O   UNL     1      12.828  32.710 123.163  1.00  0.00    -0.387 OA
ATOM     23  H   UNL     1      13.134  31.803 123.420  1.00  0.00     0.211 HD
ENDBRANCH   2  22
BRANCH   3  24
ATOM     24  O   UNL     1      11.167  33.868 125.212  1.00  0.00    -0.387 OA
ATOM     25  H   UNL     1      10.422  33.786 124.558  1.00  0.00     0.211 HD
ENDBRANCH   3  24
BRANCH   5  26
ATOM     26  O   UNL     1      13.611  37.163 123.834  1.00  0.00    -0.454 OA
BRANCH  26  27
ATOM     27  C   UNL     1      13.026  38.441 123.952  1.00  0.00     0.214 A 
ATOM     28  C   UNL     1      11.711  38.617 123.482  1.00  0.00     0.180 A 
ATOM     29  C   UNL     1      13.676  39.555 124.534  1.00  0.00     0.239 A 
ATOM     30  O   UNL     1      11.095  39.787 123.611  1.00  0.00    -0.452 OA
ATOM     31  C   UNL     1      12.993  40.787 124.641  1.00  0.00     0.111 A 
ATOM     32  O   UNL     1      14.861  39.455 124.949  1.00  0.00    -0.285 OA
ATOM     33  C   UNL     1      11.667  40.854 124.153  1.00  0.00     0.146 A 
ATOM     34  C   UNL     1      13.573  41.948 125.210  1.00  0.00     0.134 A 
ATOM     35  C   UNL     1      10.945  42.049 124.227  1.00  0.00     0.094 A 
ATOM     36  C   UNL     1      12.834  43.138 125.273  1.00  0.00     0.093 A 
ATOM     37  C   UNL     1      11.525  43.190 124.782  1.00  0.00     0.123 A 
BRANCH  28  38
ATOM     38  C   UNL     1      10.965  37.507 122.863  1.00  0.00     0.025 A 
ATOM     39  C   UNL     1      11.422  36.944 121.663  1.00  0.00     0.062 A 
ATOM     40  C   UNL     1       9.827  36.977 123.485  1.00  0.00     0.016 A 
ATOM     41  C   UNL     1      10.729  35.883 121.068  1.00  0.00     0.158 A 
ATOM     42  C   UNL     1       9.131  35.921 122.894  1.00  0.00     0.051 A 
ATOM     43  C   UNL     1       9.575  35.371 121.683  1.00  0.00     0.157 A 
BRANCH  41  44
ATOM     44  O   UNL     1      11.203  35.351 119.869  1.00  0.00    -0.504 OA
ATOM     45  H   UNL     1      10.641  35.340 119.027  1.00  0.00     0.293 HD
ENDBRANCH  41  44
BRANCH  43  46
ATOM     46  O   UNL     1       8.876  34.318 121.095  1.00  0.00    -0.504 OA
ATOM     47  H   UNL     1       9.289  33.751 120.363  1.00  0.00     0.293 HD
ENDBRANCH  43  46
ENDBRANCH  28  38
BRANCH  34  48
ATOM     48  O   UNL     1      14.876  41.928 125.712  1.00  0.00    -0.507 OA
ATOM     49  H   UNL     1      15.210  42.632 126.358  1.00  0.00     0.293 HD
ENDBRANCH  34  48
BRANCH  37  50
ATOM     50  O   UNL     1      10.792  44.374 124.840  1.00  0.00    -0.508 OA
ATOM     51  H   UNL     1       9.905  44.473 124.359  1.00  0.00     0.293 HD
ENDBRANCH  37  50
ENDBRANCH  26  27
ENDBRANCH   5  26
BRANCH   4  52
ATOM     52  O   UNL     1      13.163  35.018 126.743  1.00  0.00    -0.384 OA
ATOM     53  H   UNL     1      12.658  34.167 126.818  1.00  0.00     0.211 HD
ENDBRANCH   4  52
TORSDOF 16
ENDMDL
MODEL 5
REMARK VINA RESULT:    -5.410     11.660     14.382
REMARK INTER + INTRA:         -11.907
REMARK INTER:                 -10.673
REMARK INTRA:                  -1.234
REMARK UNBOUND:                -3.019
REMARK SMILES C[C@@H]1O[C@@H](OC[C@H]2O[C@@H](Oc3c(-c4ccc(O)c(O)c4)oc4cc(O)cc(O)c4c3=O)[C@H](O)[C@H](O)[C@H]2O)[C@H](O)[C@@H](O)[C@@H]1O
REMARK SMILES IDX 7 1 36 2 34 3 32 4 9 5 8 6 6 7 5 8 4 9 1 10 2 11 42 12 3 13
REMARK SMILES IDX 40 14 38 15 43 16 41 18 39 20 37 22 35 24 10 26 11 27 12 28
REMARK SMILES IDX 30 29 21 30 29 31 31 32 22 33 27 34 23 35 26 36 24 37 13 38
REMARK SMILES IDX 20 39 14 40 18 41 15 42 16 43 19 44 17 46 28 48 25 50 33 52
REMARK H PARENT 43 17 41 19 39 21 37 23 35 25 19 45 17 47 28 49 25 51 33 53
REMARK Flexibility Score: inf
ROOT
ATOM      1  C   UNL     1      25.857  41.881 128.169  1.00  0.00     0.180 C 
ATOM      2  C   UNL     1      27.135  42.753 128.076  1.00  0.00     0.177 C 
ATOM      3  C   UNL     1      26.919  44.121 128.744  1.00  0.00     0.180 C 
ATOM      4  C   UNL     1      25.651  44.773 128.176  1.00  0.00     0.214 C 
ATOM      5  C   UNL     1      24.453  43.816 128.294  1.00  0.00     0.339 C 
ATOM      6  O   UNL     1      24.701  42.554 127.682  1.00  0.00    -0.332 OA
ENDROOT
BRANCH   1   7
ATOM      7  C   UNL     1      25.621  41.253 129.557  1.00  0.00     0.198 C 
BRANCH   7   8
ATOM      8  O   UNL     1      26.054  39.903 129.551  1.00  0.00    -0.347 OA
BRANCH   8   9
ATOM      9  C   UNL     1      25.909  39.300 128.270  1.00  0.00     0.281 C 
ATOM     10  C   UNL     1      24.452  36.118 129.420  1.00  0.00     0.041 C 
ATOM     11  C   UNL     1      25.524  37.194 129.234  1.00  0.00     0.150 C 
ATOM     12  C   UNL     1      26.847  36.585 128.700  1.00  0.00     0.174 C 
ATOM     13  O   UNL     1      25.025  38.191 128.354  1.00  0.00    -0.344 OA
ATOM     14  C   UNL     1      27.886  37.694 128.436  1.00  0.00     0.179 C 
ATOM     15  C   UNL     1      27.268  38.870 127.650  1.00  0.00     0.202 C 
BRANCH  12  16
ATOM     16  O   UNL     1      26.649  35.798 127.549  1.00  0.00    -0.388 OA
ATOM     17  H   UNL     1      26.671  34.843 127.815  1.00  0.00     0.211 HD
ENDBRANCH  12  16
BRANCH  14  18
ATOM     18  O   UNL     1      28.387  38.153 129.665  1.00  0.00    -0.387 OA
ATOM     19  H   UNL     1      28.388  39.144 129.625  1.00  0.00     0.211 HD
ENDBRANCH  14  18
BRANCH  15  20
ATOM     20  O   UNL     1      27.085  38.495 126.309  1.00  0.00    -0.385 OA
ATOM     21  H   UNL     1      26.690  37.584 126.314  1.00  0.00     0.211 HD
ENDBRANCH  15  20
ENDBRANCH   8   9
ENDBRANCH   7   8
ENDBRANCH   1   7
BRANCH   2  22
ATOM     22  O   UNL     1      28.221  42.088 128.672  1.00  0.00    -0.387 OA
ATOM     23  H   UNL     1      28.005  41.982 129.634  1.00  0.00     0.211 HD
ENDBRANCH   2  22
BRANCH   3  24
ATOM     24  O   UNL     1      28.022  44.956 128.505  1.00  0.00    -0.387 OA
ATOM     25  H   UNL     1      27.694  45.723 127.963  1.00  0.00     0.211 HD
ENDBRANCH   3  24
BRANCH   5  26
ATOM     26  O   UNL     1      24.052  43.679 129.661  1.00  0.00    -0.454 OA
BRANCH  26  27
ATOM     27  C   UNL     1      22.765  43.913 130.188  1.00  0.00     0.214 A 
ATOM     28  C   UNL     1      22.635  44.068 131.581  1.00  0.00     0.180 A 
ATOM     29  C   UNL     1      21.597  44.022 129.397  1.00  0.00     0.239 A 
ATOM     30  O   UNL     1      21.453  44.338 132.126  1.00  0.00    -0.452 OA
ATOM     31  C   UNL     1      20.356  44.295 130.016  1.00  0.00     0.111 A 
ATOM     32  O   UNL     1      21.656  43.869 128.149  1.00  0.00    -0.285 OA
ATOM     33  C   UNL     1      20.336  44.450 131.421  1.00  0.00     0.146 A 
ATOM     34  C   UNL     1      19.142  44.419 129.295  1.00  0.00     0.134 A 
ATOM     35  C   UNL     1      19.135  44.716 132.087  1.00  0.00     0.094 A 
ATOM     36  C   UNL     1      17.947  44.682 129.981  1.00  0.00     0.093 A 
ATOM     37  C   UNL     1      17.942  44.828 131.372  1.00  0.00     0.123 A 
BRANCH  28  38
ATOM     38  C   UNL     1      23.803  43.970 132.474  1.00  0.00     0.025 A 
ATOM     39  C   UNL     1      23.819  43.011 133.497  1.00  0.00     0.062 A 
ATOM     40  C   UNL     1      24.918  44.796 132.283  1.00  0.00     0.016 A 
ATOM     41  C   UNL     1      24.926  42.900 134.347  1.00  0.00     0.158 A 
ATOM     42  C   UNL     1      26.023  44.692 133.131  1.00  0.00     0.051 A 
ATOM     43  C   UNL     1      26.032  43.748 134.167  1.00  0.00     0.157 A 
BRANCH  41  44
ATOM     44  O   UNL     1      24.908  41.943 135.362  1.00  0.00    -0.504 OA
ATOM     45  H   UNL     1      25.578  41.952 136.121  1.00  0.00     0.293 HD
ENDBRANCH  41  44
BRANCH  43  46
ATOM     46  O   UNL     1      27.136  43.647 135.014  1.00  0.00    -0.504 OA
ATOM     47  H   UNL     1      27.179  44.152 135.891  1.00  0.00     0.293 HD
ENDBRANCH  43  46
ENDBRANCH  28  38
BRANCH  34  48
ATOM     48  O   UNL     1      19.113  44.281 127.906  1.00  0.00    -0.507 OA
ATOM     49  H   UNL     1      19.600  43.529 127.434  1.00  0.00     0.293 HD
ENDBRANCH  34  48
BRANCH  37  50
ATOM     50  O   UNL     1      16.754  45.085 132.055  1.00  0.00    -0.508 OA
ATOM     51  H   UNL     1      16.257  44.352 132.548  1.00  0.00     0.293 HD
ENDBRANCH  37  50
ENDBRANCH  26  27
ENDBRANCH   5  26
BRANCH   4  52
ATOM     52  O   UNL     1      25.832  45.108 126.821  1.00  0.00    -0.384 OA
ATOM     53  H   UNL     1      25.167  44.586 126.302  1.00  0.00     0.211 HD
ENDBRANCH   4  52
TORSDOF 16
ENDMDL
MODEL 6
REMARK VINA RESULT:    -5.341      1.472      2.259
REMARK INTER + INTRA:         -11.794
REMARK INTER:                  -9.417
REMARK INTRA:                  -2.377
REMARK UNBOUND:                -3.019
REMARK SMILES C[C@@H]1O[C@@H](OC[C@H]2O[C@@H](Oc3c(-c4ccc(O)c(O)c4)oc4cc(O)cc(O)c4c3=O)[C@H](O)[C@H](O)[C@H]2O)[C@H](O)[C@@H](O)[C@@H]1O
REMARK SMILES IDX 7 1 36 2 34 3 32 4 9 5 8 6 6 7 5 8 4 9 1 10 2 11 42 12 3 13
REMARK SMILES IDX 40 14 38 15 43 16 41 18 39 20 37 22 35 24 10 26 11 27 12 28
REMARK SMILES IDX 30 29 21 30 29 31 31 32 22 33 27 34 23 35 26 36 24 37 13 38
REMARK SMILES IDX 20 39 14 40 18 41 15 42 16 43 19 44 17 46 28 48 25 50 33 52
REMARK H PARENT 43 17 41 19 39 21 37 23 35 25 19 45 17 47 28 49 25 51 33 53
REMARK Flexibility Score: inf
ROOT
ATOM      1  C   UNL     1      15.375  37.824 119.667  1.00  0.00     0.180 C 
ATOM      2  C   UNL     1      16.471  36.729 119.665  1.00  0.00     0.177 C 
ATOM      3  C   UNL     1      16.785  36.261 121.096  1.00  0.00     0.180 C 
ATOM      4  C   UNL     1      17.094  37.480 121.976  1.00  0.00     0.214 C 
ATOM      5  C   UNL     1      15.959  38.513 121.884  1.00  0.00     0.339 C 
ATOM      6  O   UNL     1      15.685  38.903 120.542  1.00  0.00    -0.332 OA
ENDROOT
BRANCH   1   7
ATOM      7  C   UNL     1      13.947  37.290 119.889  1.00  0.00     0.198 C 
BRANCH   7   8
ATOM      8  O   UNL     1      14.003  35.950 120.349  1.00  0.00    -0.347 OA
BRANCH   8   9
ATOM      9  C   UNL     1      12.748  35.289 120.227  1.00  0.00     0.281 C 
ATOM     10  C   UNL     1      11.297  36.459 123.403  1.00  0.00     0.041 C 
ATOM     11  C   UNL     1      12.246  35.686 122.485  1.00  0.00     0.150 C 
ATOM     12  C   UNL     1      12.313  34.187 122.879  1.00  0.00     0.174 C 
ATOM     13  O   UNL     1      11.816  35.846 121.141  1.00  0.00    -0.344 OA
ATOM     14  C   UNL     1      13.204  33.407 121.890  1.00  0.00     0.179 C 
ATOM     15  C   UNL     1      12.858  33.751 120.426  1.00  0.00     0.202 C 
BRANCH  12  16
ATOM     16  O   UNL     1      11.036  33.600 122.974  1.00  0.00    -0.388 OA
ATOM     17  H   UNL     1      10.756  33.612 123.925  1.00  0.00     0.211 HD
ENDBRANCH  12  16
BRANCH  14  18
ATOM     18  O   UNL     1      14.550  33.717 122.147  1.00  0.00    -0.387 OA
ATOM     19  H   UNL     1      15.058  32.866 122.094  1.00  0.00     0.211 HD
ENDBRANCH  14  18
BRANCH  15  20
ATOM     20  O   UNL     1      11.646  33.135 120.073  1.00  0.00    -0.385 OA
ATOM     21  H   UNL     1      11.424  32.494 120.798  1.00  0.00     0.211 HD
ENDBRANCH  15  20
ENDBRANCH   8   9
ENDBRANCH   7   8
ENDBRANCH   1   7
BRANCH   2  22
ATOM     22  O   UNL     1      16.065  35.637 118.876  1.00  0.00    -0.387 OA
ATOM     23  H   UNL     1      16.872  35.297 118.413  1.00  0.00     0.211 HD
ENDBRANCH   2  22
BRANCH   3  24
ATOM     24  O   UNL     1      17.891  35.395 121.090  1.00  0.00    -0.387 OA
ATOM     25  H   UNL     1      18.460  35.655 120.317  1.00  0.00     0.211 HD
ENDBRANCH   3  24
BRANCH   5  26
ATOM     26  O   UNL     1      14.788  38.034 122.553  1.00  0.00    -0.454 OA
BRANCH  26  27
ATOM     27  C   UNL     1      14.169  38.608 123.683  1.00  0.00     0.214 A 
ATOM     28  C   UNL     1      14.516  38.114 124.955  1.00  0.00     0.180 A 
ATOM     29  C   UNL     1      13.234  39.668 123.616  1.00  0.00     0.239 A 
ATOM     30  O   UNL     1      13.998  38.651 126.054  1.00  0.00    -0.452 OA
ATOM     31  C   UNL     1      12.696  40.203 124.808  1.00  0.00     0.111 A 
ATOM     32  O   UNL     1      12.875  40.131 122.501  1.00  0.00    -0.285 OA
ATOM     33  C   UNL     1      13.122  39.645 126.035  1.00  0.00     0.146 A 
ATOM     34  C   UNL     1      11.755  41.263 124.826  1.00  0.00     0.134 A 
ATOM     35  C   UNL     1      12.618  40.131 127.246  1.00  0.00     0.094 A 
ATOM     36  C   UNL     1      11.259  41.734 126.050  1.00  0.00     0.093 A 
ATOM     37  C   UNL     1      11.686  41.170 127.256  1.00  0.00     0.123 A 
BRANCH  28  38
ATOM     38  C   UNL     1      15.482  37.013 125.110  1.00  0.00     0.025 A 
ATOM     39  C   UNL     1      16.833  37.301 125.346  1.00  0.00     0.062 A 
ATOM     40  C   UNL     1      15.056  35.678 125.069  1.00  0.00     0.016 A 
ATOM     41  C   UNL     1      17.762  36.264 125.504  1.00  0.00     0.158 A 
ATOM     42  C   UNL     1      15.979  34.641 125.223  1.00  0.00     0.051 A 
ATOM     43  C   UNL     1      17.335  34.928 125.438  1.00  0.00     0.157 A 
BRANCH  41  44
ATOM     44  O   UNL     1      19.102  36.583 125.727  1.00  0.00    -0.504 OA
ATOM     45  H   UNL     1      19.387  37.486 126.085  1.00  0.00     0.293 HD
ENDBRANCH  41  44
BRANCH  43  46
ATOM     46  O   UNL     1      18.254  33.890 125.589  1.00  0.00    -0.504 OA
ATOM     47  H   UNL     1      17.982  32.920 125.474  1.00  0.00     0.293 HD
ENDBRANCH  43  46
ENDBRANCH  28  38
BRANCH  34  48
ATOM     48  O   UNL     1      11.311  41.849 123.639  1.00  0.00    -0.507 OA
ATOM     49  H   UNL     1      10.654  41.382 123.026  1.00  0.00     0.293 HD
ENDBRANCH  34  48
BRANCH  37  50
ATOM     50  O   UNL     1      11.189  41.634 128.473  1.00  0.00    -0.508 OA
ATOM     51  H   UNL     1      10.510  41.102 129.007  1.00  0.00     0.293 HD
ENDBRANCH  37  50
ENDBRANCH  26  27
ENDBRANCH   5  26
BRANCH   4  52
ATOM     52  O   UNL     1      18.296  38.089 121.571  1.00  0.00    -0.384 OA
ATOM     53  H   UNL     1      18.136  38.480 120.673  1.00  0.00     0.211 HD
ENDBRANCH   4  52
TORSDOF 16
ENDMDL
MODEL 7
REMARK VINA RESULT:    -5.223      2.310      6.635
REMARK INTER + INTRA:         -11.601
REMARK INTER:                  -9.293
REMARK INTRA:                  -2.308
REMARK UNBOUND:                -3.019
REMARK SMILES C[C@@H]1O[C@@H](OC[C@H]2O[C@@H](Oc3c(-c4ccc(O)c(O)c4)oc4cc(O)cc(O)c4c3=O)[C@H](O)[C@H](O)[C@H]2O)[C@H](O)[C@@H](O)[C@@H]1O
REMARK SMILES IDX 7 1 36 2 34 3 32 4 9 5 8 6 6 7 5 8 4 9 1 10 2 11 42 12 3 13
REMARK SMILES IDX 40 14 38 15 43 16 41 18 39 20 37 22 35 24 10 26 11 27 12 28
REMARK SMILES IDX 30 29 21 30 29 31 31 32 22 33 27 34 23 35 26 36 24 37 13 38
REMARK SMILES IDX 20 39 14 40 18 41 15 42 16 43 19 44 17 46 28 48 25 50 33 52
REMARK H PARENT 43 17 41 19 39 21 37 23 35 25 19 45 17 47 28 49 25 51 33 53
REMARK Flexibility Score: inf
ROOT
ATOM      1  C   UNL     1      11.099  36.146 126.002  1.00  0.00     0.180 C 
ATOM      2  C   UNL     1      10.292  37.170 126.840  1.00  0.00     0.177 C 
ATOM      3  C   UNL     1      10.826  38.597 126.630  1.00  0.00     0.180 C 
ATOM      4  C   UNL     1      12.341  38.616 126.873  1.00  0.00     0.214 C 
ATOM      5  C   UNL     1      13.039  37.548 126.015  1.00  0.00     0.339 C 
ATOM      6  O   UNL     1      12.502  36.246 126.223  1.00  0.00    -0.332 OA
ENDROOT
BRANCH   1   7
ATOM      7  C   UNL     1      10.747  36.140 124.502  1.00  0.00     0.198 C 
BRANCH   7   8
ATOM      8  O   UNL     1      11.590  35.229 123.817  1.00  0.00    -0.347 OA
BRANCH   8   9
ATOM      9  C   UNL     1      10.859  34.386 122.932  1.00  0.00     0.281 C 
ATOM     10  C   UNL     1      13.759  32.785 121.321  1.00  0.00     0.041 C 
ATOM     11  C   UNL     1      12.791  33.912 121.685  1.00  0.00     0.150 C 
ATOM     12  C   UNL     1      12.291  34.656 120.419  1.00  0.00     0.174 C 
ATOM     13  O   UNL     1      11.708  33.367 122.423  1.00  0.00    -0.344 OA
ATOM     14  C   UNL     1      11.251  35.731 120.798  1.00  0.00     0.179 C 
ATOM     15  C   UNL     1      10.190  35.171 121.769  1.00  0.00     0.202 C 
BRANCH  12  16
ATOM     16  O   UNL     1      11.772  33.775 119.450  1.00  0.00    -0.388 OA
ATOM     17  H   UNL     1      12.458  33.087 119.254  1.00  0.00     0.211 HD
ENDBRANCH  12  16
BRANCH  14  18
ATOM     18  O   UNL     1      11.913  36.819 121.390  1.00  0.00    -0.387 OA
ATOM     19  H   UNL     1      12.857  36.782 121.088  1.00  0.00     0.211 HD
ENDBRANCH  14  18
BRANCH  15  20
ATOM     20  O   UNL     1       9.309  34.332 121.069  1.00  0.00    -0.385 OA
ATOM     21  H   UNL     1       9.442  33.413 121.421  1.00  0.00     0.211 HD
ENDBRANCH  15  20
ENDBRANCH   8   9
ENDBRANCH   7   8
ENDBRANCH   1   7
BRANCH   2  22
ATOM     22  O   UNL     1       8.929  37.107 126.501  1.00  0.00    -0.387 OA
ATOM     23  H   UNL     1       8.605  38.041 126.421  1.00  0.00     0.211 HD
ENDBRANCH   2  22
BRANCH   3  24
ATOM     24  O   UNL     1      10.198  39.484 127.519  1.00  0.00    -0.387 OA
ATOM     25  H   UNL     1      10.901  39.828 128.133  1.00  0.00     0.211 HD
ENDBRANCH   3  24
BRANCH   5  26
ATOM     26  O   UNL     1      13.020  37.922 124.634  1.00  0.00    -0.454 OA
BRANCH  26  27
ATOM     27  C   UNL     1      14.139  38.199 123.821  1.00  0.00     0.214 A 
ATOM     28  C   UNL     1      14.576  39.533 123.721  1.00  0.00     0.180 A 
ATOM     29  C   UNL     1      14.862  37.210 123.113  1.00  0.00     0.239 A 
ATOM     30  O   UNL     1      15.653  39.842 123.007  1.00  0.00    -0.452 OA
ATOM     31  C   UNL     1      15.994  37.581 122.352  1.00  0.00     0.111 A 
ATOM     32  O   UNL     1      14.499  36.005 123.151  1.00  0.00    -0.285 OA
ATOM     33  C   UNL     1      16.359  38.947 122.332  1.00  0.00     0.146 A 
ATOM     34  C   UNL     1      16.771  36.652 121.616  1.00  0.00     0.134 A 
ATOM     35  C   UNL     1      17.467  39.372 121.592  1.00  0.00     0.094 A 
ATOM     36  C   UNL     1      17.876  37.099 120.877  1.00  0.00     0.093 A 
ATOM     37  C   UNL     1      18.223  38.454 120.862  1.00  0.00     0.123 A 
BRANCH  28  38
ATOM     38  C   UNL     1      13.877  40.621 124.428  1.00  0.00     0.025 A 
ATOM     39  C   UNL     1      14.537  41.328 125.443  1.00  0.00     0.062 A 
ATOM     40  C   UNL     1      12.575  40.987 124.066  1.00  0.00     0.016 A 
ATOM     41  C   UNL     1      13.889  42.370 126.118  1.00  0.00     0.158 A 
ATOM     42  C   UNL     1      11.923  42.024 124.738  1.00  0.00     0.051 A 
ATOM     43  C   UNL     1      12.574  42.717 125.767  1.00  0.00     0.157 A 
BRANCH  41  44
ATOM     44  O   UNL     1      14.569  43.048 127.131  1.00  0.00    -0.504 OA
ATOM     45  H   UNL     1      14.612  44.059 127.165  1.00  0.00     0.293 HD
ENDBRANCH  41  44
BRANCH  43  46
ATOM     46  O   UNL     1      11.920  43.750 126.438  1.00  0.00    -0.504 OA
ATOM     47  H   UNL     1      11.419  44.475 125.936  1.00  0.00     0.293 HD
ENDBRANCH  43  46
ENDBRANCH  28  38
BRANCH  34  48
ATOM     48  O   UNL     1      16.453  35.293 121.612  1.00  0.00    -0.507 OA
ATOM     49  H   UNL     1      15.499  34.967 121.711  1.00  0.00     0.293 HD
ENDBRANCH  34  48
BRANCH  37  50
ATOM     50  O   UNL     1      19.318  38.898 120.124  1.00  0.00    -0.508 OA
ATOM     51  H   UNL     1      19.413  38.688 119.136  1.00  0.00     0.293 HD
ENDBRANCH  37  50
ENDBRANCH  26  27
ENDBRANCH   5  26
BRANCH   4  52
ATOM     52  O   UNL     1      12.627  38.368 128.228  1.00  0.00    -0.384 OA
ATOM     53  H   UNL     1      12.316  37.447 128.427  1.00  0.00     0.211 HD
ENDBRANCH   4  52
TORSDOF 16
ENDMDL
MODEL 8
REMARK VINA RESULT:    -5.223      2.256      7.545
REMARK INTER + INTRA:         -11.600
REMARK INTER:                  -9.376
REMARK INTRA:                  -2.224
REMARK UNBOUND:                -3.019
REMARK SMILES C[C@@H]1O[C@@H](OC[C@H]2O[C@@H](Oc3c(-c4ccc(O)c(O)c4)oc4cc(O)cc(O)c4c3=O)[C@H](O)[C@H](O)[C@H]2O)[C@H](O)[C@@H](O)[C@@H]1O
REMARK SMILES IDX 7 1 36 2 34 3 32 4 9 5 8 6 6 7 5 8 4 9 1 10 2 11 42 12 3 13
REMARK SMILES IDX 40 14 38 15 43 16 41 18 39 20 37 22 35 24 10 26 11 27 12 28
REMARK SMILES IDX 30 29 21 30 29 31 31 32 22 33 27 34 23 35 26 36 24 37 13 38
REMARK SMILES IDX 20 39 14 40 18 41 15 42 16 43 19 44 17 46 28 48 25 50 33 52
REMARK H PARENT 43 17 41 19 39 21 37 23 35 25 19 45 17 47 28 49 25 51 33 53
REMARK Flexibility Score: inf
ROOT
ATOM      1  C   UNL     1      15.102  38.798 124.108  1.00  0.00     0.180 C 
ATOM      2  C   UNL     1      16.493  38.562 123.468  1.00  0.00     0.177 C 
ATOM      3  C   UNL     1      16.442  37.418 122.443  1.00  0.00     0.180 C 
ATOM      4  C   UNL     1      15.813  36.178 123.092  1.00  0.00     0.214 C 
ATOM      5  C   UNL     1      14.453  36.527 123.717  1.00  0.00     0.339 C 
ATOM      6  O   UNL     1      14.539  37.605 124.644  1.00  0.00    -0.332 OA
ENDROOT
BRANCH   1   7
ATOM      7  C   UNL     1      14.108  39.551 123.202  1.00  0.00     0.198 C 
BRANCH   7   8
ATOM      8  O   UNL     1      13.247  40.349 123.996  1.00  0.00    -0.347 OA
BRANCH   8   9
ATOM      9  C   UNL     1      13.954  41.049 125.015  1.00  0.00     0.281 C 
ATOM     10  C   UNL     1      12.624  39.157 127.882  1.00  0.00     0.041 C 
ATOM     11  C   UNL     1      12.598  40.113 126.688  1.00  0.00     0.150 C 
ATOM     12  C   UNL     1      11.936  41.465 127.063  1.00  0.00     0.174 C 
ATOM     13  O   UNL     1      13.927  40.303 126.223  1.00  0.00    -0.344 OA
ATOM     14  C   UNL     1      11.997  42.446 125.873  1.00  0.00     0.179 C 
ATOM     15  C   UNL     1      13.407  42.485 125.247  1.00  0.00     0.202 C 
BRANCH  12  16
ATOM     16  O   UNL     1      12.504  42.039 128.217  1.00  0.00    -0.388 OA
ATOM     17  H   UNL     1      13.467  42.203 128.043  1.00  0.00     0.211 HD
ENDBRANCH  12  16
BRANCH  14  18
ATOM     18  O   UNL     1      11.057  42.051 124.907  1.00  0.00    -0.387 OA
ATOM     19  H   UNL     1      11.478  41.329 124.372  1.00  0.00     0.211 HD
ENDBRANCH  14  18
BRANCH  15  20
ATOM     20  O   UNL     1      14.276  43.197 126.091  1.00  0.00    -0.385 OA
ATOM     21  H   UNL     1      15.193  42.862 125.914  1.00  0.00     0.211 HD
ENDBRANCH  15  20
ENDBRANCH   8   9
ENDBRANCH   7   8
ENDBRANCH   1   7
BRANCH   2  22
ATOM     22  O   UNL     1      16.952  39.743 122.856  1.00  0.00    -0.387 OA
ATOM     23  H   UNL     1      16.747  39.668 121.889  1.00  0.00     0.211 HD
ENDBRANCH   2  22
BRANCH   3  24
ATOM     24  O   UNL     1      17.737  37.108 121.998  1.00  0.00    -0.387 OA
ATOM     25  H   UNL     1      17.831  36.119 122.044  1.00  0.00     0.211 HD
ENDBRANCH   3  24
BRANCH   5  26
ATOM     26  O   UNL     1      13.480  36.775 122.697  1.00  0.00    -0.454 OA
BRANCH  26  27
ATOM     27  C   UNL     1      12.645  35.820 122.080  1.00  0.00     0.214 A 
ATOM     28  C   UNL     1      11.309  35.723 122.513  1.00  0.00     0.180 A 
ATOM     29  C   UNL     1      13.066  34.964 121.034  1.00  0.00     0.239 A 
ATOM     30  O   UNL     1      10.468  34.874 121.933  1.00  0.00    -0.452 OA
ATOM     31  C   UNL     1      12.144  34.064 120.453  1.00  0.00     0.111 A 
ATOM     32  O   UNL     1      14.256  34.996 120.625  1.00  0.00    -0.285 OA
ATOM     33  C   UNL     1      10.821  34.058 120.950  1.00  0.00     0.146 A 
ATOM     34  C   UNL     1      12.487  33.176 119.403  1.00  0.00     0.134 A 
ATOM     35  C   UNL     1       9.869  33.184 120.416  1.00  0.00     0.094 A 
ATOM     36  C   UNL     1      11.518  32.305 118.883  1.00  0.00     0.093 A 
ATOM     37  C   UNL     1      10.214  32.306 119.388  1.00  0.00     0.123 A 
BRANCH  28  38
ATOM     38  C   UNL     1      10.793  36.579 123.596  1.00  0.00     0.025 A 
ATOM     39  C   UNL     1      10.302  37.858 123.299  1.00  0.00     0.062 A 
ATOM     40  C   UNL     1      10.747  36.110 124.916  1.00  0.00     0.016 A 
ATOM     41  C   UNL     1       9.800  38.679 124.316  1.00  0.00     0.158 A 
ATOM     42  C   UNL     1      10.251  36.927 125.934  1.00  0.00     0.051 A 
ATOM     43  C   UNL     1       9.779  38.214 125.641  1.00  0.00     0.157 A 
BRANCH  41  44
ATOM     44  O   UNL     1       9.327  39.950 123.990  1.00  0.00    -0.504 OA
ATOM     45  H   UNL     1       9.613  40.777 124.499  1.00  0.00     0.293 HD
ENDBRANCH  41  44
BRANCH  43  46
ATOM     46  O   UNL     1       9.285  39.027 126.661  1.00  0.00    -0.504 OA
ATOM     47  H   UNL     1       8.429  38.799 127.154  1.00  0.00     0.293 HD
ENDBRANCH  43  46
ENDBRANCH  28  38
BRANCH  34  48
ATOM     48  O   UNL     1      13.779  33.151 118.875  1.00  0.00    -0.507 OA
ATOM     49  H   UNL     1      14.573  32.836 119.420  1.00  0.00     0.293 HD
ENDBRANCH  34  48
BRANCH  37  50
ATOM     50  O   UNL     1       9.253  31.437 118.875  1.00  0.00    -0.508 OA
ATOM     51  H   UNL     1       8.641  30.904 119.483  1.00  0.00     0.293 HD
ENDBRANCH  37  50
ENDBRANCH  26  27
ENDBRANCH   5  26
BRANCH   4  52
ATOM     52  O   UNL     1      16.655  35.665 124.095  1.00  0.00    -0.384 OA
ATOM     53  H   UNL     1      16.710  36.353 124.808  1.00  0.00     0.211 HD
ENDBRANCH   4  52
TORSDOF 16
ENDMDL
MODEL 9
REMARK VINA RESULT:    -5.174      2.525      7.798
REMARK INTER + INTRA:         -11.519
REMARK INTER:                  -9.373
REMARK INTRA:                  -2.146
REMARK UNBOUND:                -3.019
REMARK SMILES C[C@@H]1O[C@@H](OC[C@H]2O[C@@H](Oc3c(-c4ccc(O)c(O)c4)oc4cc(O)cc(O)c4c3=O)[C@H](O)[C@H](O)[C@H]2O)[C@H](O)[C@@H](O)[C@@H]1O
REMARK SMILES IDX 7 1 36 2 34 3 32 4 9 5 8 6 6 7 5 8 4 9 1 10 2 11 42 12 3 13
REMARK SMILES IDX 40 14 38 15 43 16 41 18 39 20 37 22 35 24 10 26 11 27 12 28
REMARK SMILES IDX 30 29 21 30 29 31 31 32 22 33 27 34 23 35 26 36 24 37 13 38
REMARK SMILES IDX 20 39 14 40 18 41 15 42 16 43 19 44 17 46 28 48 25 50 33 52
REMARK H PARENT 43 17 41 19 39 21 37 23 35 25 19 45 17 47 28 49 25 51 33 53
REMARK Flexibility Score: inf
ROOT
ATOM      1  C   UNL     1      10.316  39.394 123.047  1.00  0.00     0.180 C 
ATOM      2  C   UNL     1       9.419  38.132 123.099  1.00  0.00     0.177 C 
ATOM      3  C   UNL     1      10.212  36.876 122.701  1.00  0.00     0.180 C 
ATOM      4  C   UNL     1      10.909  37.116 121.355  1.00  0.00     0.214 C 
ATOM      5  C   UNL     1      11.749  38.403 121.405  1.00  0.00     0.339 C 
ATOM      6  O   UNL     1      10.983  39.538 121.797  1.00  0.00    -0.332 OA
ENDROOT
BRANCH   1   7
ATOM      7  C   UNL     1      11.283  39.533 124.239  1.00  0.00     0.198 C 
BRANCH   7   8
ATOM      8  O   UNL     1      11.555  40.903 124.478  1.00  0.00    -0.347 OA
BRANCH   8   9
ATOM      9  C   UNL     1      11.694  41.188 125.866  1.00  0.00     0.281 C 
ATOM     10  C   UNL     1      12.418  44.784 125.530  1.00  0.00     0.041 C 
ATOM     11  C   UNL     1      12.659  43.278 125.407  1.00  0.00     0.150 C 
ATOM     12  C   UNL     1      14.051  42.883 125.967  1.00  0.00     0.174 C 
ATOM     13  O   UNL     1      11.618  42.589 126.083  1.00  0.00    -0.344 OA
ATOM     14  C   UNL     1      14.241  41.352 125.915  1.00  0.00     0.179 C 
ATOM     15  C   UNL     1      13.006  40.611 126.469  1.00  0.00     0.202 C 
BRANCH  12  16
ATOM     16  O   UNL     1      14.261  43.370 127.272  1.00  0.00    -0.388 OA
ATOM     17  H   UNL     1      14.455  42.601 127.866  1.00  0.00     0.211 HD
ENDBRANCH  12  16
BRANCH  14  18
ATOM     18  O   UNL     1      14.471  40.966 124.584  1.00  0.00    -0.387 OA
ATOM     19  H   UNL     1      15.442  40.781 124.501  1.00  0.00     0.211 HD
ENDBRANCH  14  18
BRANCH  15  20
ATOM     20  O   UNL     1      12.979  40.725 127.868  1.00  0.00    -0.385 OA
ATOM     21  H   UNL     1      13.838  40.360 128.206  1.00  0.00     0.211 HD
ENDBRANCH  15  20
ENDBRANCH   8   9
ENDBRANCH   7   8
ENDBRANCH   1   7
BRANCH   2  22
ATOM     22  O   UNL     1       8.875  37.976 124.386  1.00  0.00    -0.387 OA
ATOM     23  H   UNL     1       9.569  38.265 125.033  1.00  0.00     0.211 HD
ENDBRANCH   2  22
BRANCH   3  24
ATOM     24  O   UNL     1       9.349  35.774 122.591  1.00  0.00    -0.387 OA
ATOM     25  H   UNL     1       9.142  35.473 123.516  1.00  0.00     0.211 HD
ENDBRANCH   3  24
BRANCH   5  26
ATOM     26  O   UNL     1      12.900  38.220 122.234  1.00  0.00    -0.454 OA
BRANCH  26  27
ATOM     27  C   UNL     1      14.084  37.534 121.892  1.00  0.00     0.214 A 
ATOM     28  C   UNL     1      14.374  36.331 122.564  1.00  0.00     0.180 A 
ATOM     29  C   UNL     1      14.991  37.973 120.899  1.00  0.00     0.239 A 
ATOM     30  O   UNL     1      15.451  35.620 122.248  1.00  0.00    -0.452 OA
ATOM     31  C   UNL     1      16.133  37.195 120.601  1.00  0.00     0.111 A 
ATOM     32  O   UNL     1      14.789  39.053 120.285  1.00  0.00    -0.285 OA
ATOM     33  C   UNL     1      16.323  35.994 121.322  1.00  0.00     0.146 A 
ATOM     34  C   UNL     1      17.087  37.566 119.621  1.00  0.00     0.134 A 
ATOM     35  C   UNL     1      17.439  35.189 121.073  1.00  0.00     0.094 A 
ATOM     36  C   UNL     1      18.201  36.746 119.388  1.00  0.00     0.093 A 
ATOM     37  C   UNL     1      18.379  35.563 120.112  1.00  0.00     0.123 A 
BRANCH  28  38
ATOM     38  C   UNL     1      13.480  35.806 123.611  1.00  0.00     0.025 A 
ATOM     39  C   UNL     1      12.892  34.543 123.455  1.00  0.00     0.062 A 
ATOM     40  C   UNL     1      13.247  36.536 124.783  1.00  0.00     0.016 A 
ATOM     41  C   UNL     1      12.048  34.026 124.446  1.00  0.00     0.158 A 
ATOM     42  C   UNL     1      12.403  36.027 125.773  1.00  0.00     0.051 A 
ATOM     43  C   UNL     1      11.798  34.774 125.609  1.00  0.00     0.157 A 
BRANCH  41  44
ATOM     44  O   UNL     1      11.469  32.771 124.257  1.00  0.00    -0.504 OA
ATOM     45  H   UNL     1      10.573  32.655 123.801  1.00  0.00     0.293 HD
ENDBRANCH  41  44
BRANCH  43  46
ATOM     46  O   UNL     1      10.954  34.269 126.598  1.00  0.00    -0.504 OA
ATOM     47  H   UNL     1      11.246  34.215 127.567  1.00  0.00     0.293 HD
ENDBRANCH  43  46
ENDBRANCH  28  38
BRANCH  34  48
ATOM     48  O   UNL     1      16.938  38.739 118.879  1.00  0.00    -0.507 OA
ATOM     49  H   UNL     1      16.460  38.749 117.987  1.00  0.00     0.293 HD
ENDBRANCH  34  48
BRANCH  37  50
ATOM     50  O   UNL     1      19.488  34.751 119.885  1.00  0.00    -0.508 OA
ATOM     51  H   UNL     1      19.791  34.063 120.566  1.00  0.00     0.293 HD
ENDBRANCH  37  50
ENDBRANCH  26  27
ENDBRANCH   5  26
BRANCH   4  52
ATOM     52  O   UNL     1       9.962  37.231 120.322  1.00  0.00    -0.384 OA
ATOM     53  H   UNL     1       9.132  36.787 120.638  1.00  0.00     0.211 HD
ENDBRANCH   4  52
TORSDOF 16
ENDMDL
