MODEL 1
REMARK VINA RESULT:    -5.661      0.000      0.000
REMARK INTER + INTRA:          -6.923
REMARK INTER:                  -6.654
REMARK INTRA:                  -0.270
REMARK UNBOUND:                -0.270
REMARK SMILES O=c1cc(-c2ccc(O)c(O)c2)oc2cc(O)cc(O)c12
REMARK SMILES IDX 4 1 3 2 2 3 1 4 21 5 19 6 18 7 16 8 15 9 14 10 13 11 5 12
REMARK SMILES IDX 6 13 7 14 8 15 12 16 10 17 9 18 11 20 20 22 17 24
REMARK H PARENT 9 19 11 21 20 23 17 25
REMARK Flexibility Score: inf
ROOT
ATOM      1  C   UNL     1      28.413  34.767  20.018  1.00  0.00     0.138 A 
ATOM      2  C   UNL     1      29.201  35.923  20.102  1.00  0.00     0.100 A 
ATOM      3  C   UNL     1      30.361  36.024  19.332  1.00  0.00     0.197 A 
ATOM      4  O   UNL     1      31.081  37.046  19.475  1.00  0.00    -0.289 OA
ATOM      5  C   UNL     1      30.714  34.975  18.450  1.00  0.00     0.107 A 
ATOM      6  C   UNL     1      31.851  34.987  17.588  1.00  0.00     0.134 A 
ATOM      7  C   UNL     1      32.165  33.843  16.845  1.00  0.00     0.093 A 
ATOM      8  C   UNL     1      31.349  32.709  16.887  1.00  0.00     0.123 A 
ATOM      9  C   UNL     1      30.207  32.708  17.685  1.00  0.00     0.094 A 
ATOM     10  C   UNL     1      29.886  33.821  18.465  1.00  0.00     0.146 A 
ATOM     11  O   UNL     1      28.796  33.773  19.223  1.00  0.00    -0.456 OA
ENDROOT
BRANCH   1  12
ATOM     12  C   UNL     1      27.169  34.606  20.814  1.00  0.00     0.021 A 
ATOM     13  C   UNL     1      26.049  35.399  20.514  1.00  0.00     0.016 A 
ATOM     14  C   UNL     1      24.869  35.271  21.253  1.00  0.00     0.051 A 
ATOM     15  C   UNL     1      24.791  34.359  22.309  1.00  0.00     0.157 A 
ATOM     16  C   UNL     1      27.091  33.697  21.887  1.00  0.00     0.062 A 
ATOM     17  C   UNL     1      25.908  33.570  22.631  1.00  0.00     0.158 A 
BRANCH  15  18
ATOM     18  O   UNL     1      23.601  34.253  23.027  1.00  0.00    -0.504 OA
ATOM     19  H   UNL     1      22.704  34.150  22.568  1.00  0.00     0.293 HD
ENDBRANCH  15  18
BRANCH  17  20
ATOM     20  O   UNL     1      25.840  32.666  23.689  1.00  0.00    -0.504 OA
ATOM     21  H   UNL     1      25.066  32.020  23.787  1.00  0.00     0.293 HD
ENDBRANCH  17  20
ENDBRANCH   1  12
BRANCH   6  22
ATOM     22  O   UNL     1      32.683  36.097  17.407  1.00  0.00    -0.507 OA
ATOM     23  H   UNL     1      33.691  36.070  17.421  1.00  0.00     0.293 HD
ENDBRANCH   6  22
BRANCH   8  24
ATOM     24  O   UNL     1      31.662  31.581  16.132  1.00  0.00    -0.508 OA
ATOM     25  H   UNL     1      31.389  30.652  16.429  1.00  0.00     0.293 HD
ENDBRANCH   8  24
TORSDOF 5
ENDMDL
MODEL 2
REMARK VINA RESULT:    -5.660      1.221      2.811
REMARK INTER + INTRA:          -6.922
REMARK INTER:                  -6.657
REMARK INTRA:                  -0.265
REMARK UNBOUND:                -0.270
REMARK SMILES O=c1cc(-c2ccc(O)c(O)c2)oc2cc(O)cc(O)c12
REMARK SMILES IDX 4 1 3 2 2 3 1 4 21 5 19 6 18 7 16 8 15 9 14 10 13 11 5 12
REMARK SMILES IDX 6 13 7 14 8 15 12 16 10 17 9 18 11 20 20 22 17 24
REMARK H PARENT 9 19 11 21 20 23 17 25
REMARK Flexibility Score: inf
ROOT
ATOM      1  C   UNL     1      28.471  34.586  20.030  1.00  0.00     0.138 A 
ATOM      2  C   UNL     1      28.875  33.568  19.155  1.00  0.00     0.100 A 
ATOM      3  C   UNL     1      30.060  33.710  18.433  1.00  0.00     0.197 A 
ATOM      4  O   UNL     1      30.366  32.809  17.610  1.00  0.00    -0.289 OA
ATOM      5  C   UNL     1      30.859  34.865  18.611  1.00  0.00     0.107 A 
ATOM      6  C   UNL     1      32.106  35.098  17.959  1.00  0.00     0.134 A 
ATOM      7  C   UNL     1      32.751  36.330  18.124  1.00  0.00     0.093 A 
ATOM      8  C   UNL     1      32.224  37.313  18.966  1.00  0.00     0.123 A 
ATOM      9  C   UNL     1      31.035  37.072  19.650  1.00  0.00     0.094 A 
ATOM     10  C   UNL     1      30.350  35.867  19.479  1.00  0.00     0.146 A 
ATOM     11  O   UNL     1      29.211  35.685  20.138  1.00  0.00    -0.456 OA
ENDROOT
BRANCH   1  12
ATOM     12  C   UNL     1      27.219  34.487  20.824  1.00  0.00     0.021 A 
ATOM     13  C   UNL     1      26.128  35.310  20.502  1.00  0.00     0.016 A 
ATOM     14  C   UNL     1      24.943  35.241  21.238  1.00  0.00     0.051 A 
ATOM     15  C   UNL     1      24.830  34.357  22.315  1.00  0.00     0.157 A 
ATOM     16  C   UNL     1      27.106  33.607  21.919  1.00  0.00     0.062 A 
ATOM     17  C   UNL     1      25.917  33.538  22.660  1.00  0.00     0.158 A 
BRANCH  15  18
ATOM     18  O   UNL     1      23.634  34.310  23.030  1.00  0.00    -0.504 OA
ATOM     19  H   UNL     1      23.607  34.399  24.039  1.00  0.00     0.293 HD
ENDBRANCH  15  18
BRANCH  17  20
ATOM     20  O   UNL     1      25.815  32.662  23.739  1.00  0.00    -0.504 OA
ATOM     21  H   UNL     1      25.802  32.997  24.696  1.00  0.00     0.293 HD
ENDBRANCH  17  20
ENDBRANCH   1  12
BRANCH   6  22
ATOM     22  O   UNL     1      32.762  34.153  17.164  1.00  0.00    -0.507 OA
ATOM     23  H   UNL     1      32.449  33.849  16.254  1.00  0.00     0.293 HD
ENDBRANCH   6  22
BRANCH   8  24
ATOM     24  O   UNL     1      32.882  38.529  19.136  1.00  0.00    -0.508 OA
ATOM     25  H   UNL     1      32.572  39.208  19.821  1.00  0.00     0.293 HD
ENDBRANCH   8  24
TORSDOF 5
ENDMDL
MODEL 3
REMARK VINA RESULT:    -5.660      2.023      7.540
REMARK INTER + INTRA:          -6.922
REMARK INTER:                  -6.604
REMARK INTRA:                  -0.318
REMARK UNBOUND:                -0.270
REMARK SMILES O=c1cc(-c2ccc(O)c(O)c2)oc2cc(O)cc(O)c12
REMARK SMILES IDX 4 1 3 2 2 3 1 4 21 5 19 6 18 7 16 8 15 9 14 10 13 11 5 12
REMARK SMILES IDX 6 13 7 14 8 15 12 16 10 17 9 18 11 20 20 22 17 24
REMARK H PARENT 9 19 11 21 20 23 17 25
REMARK Flexibility Score: inf
ROOT
ATOM      1  C   UNL     1      28.334  35.228  20.184  1.00  0.00     0.138 A 
ATOM      2  C   UNL     1      27.438  34.151  20.135  1.00  0.00     0.100 A 
ATOM      3  C   UNL     1      26.276  34.186  20.906  1.00  0.00     0.197 A 
ATOM      4  O   UNL     1      25.522  33.179  20.889  1.00  0.00    -0.289 OA
ATOM      5  C   UNL     1      25.996  35.318  21.708  1.00  0.00     0.107 A 
ATOM      6  C   UNL     1      24.823  35.480  22.503  1.00  0.00     0.134 A 
ATOM      7  C   UNL     1      24.709  36.593  23.346  1.00  0.00     0.093 A 
ATOM      8  C   UNL     1      25.699  37.579  23.376  1.00  0.00     0.123 A 
ATOM      9  C   UNL     1      26.822  37.456  22.562  1.00  0.00     0.094 A 
ATOM     10  C   UNL     1      26.981  36.341  21.736  1.00  0.00     0.146 A 
ATOM     11  O   UNL     1      28.075  36.256  20.987  1.00  0.00    -0.456 OA
ENDROOT
BRANCH   1  12
ATOM     12  C   UNL     1      29.586  35.245  19.384  1.00  0.00     0.021 A 
ATOM     13  C   UNL     1      29.958  34.102  18.657  1.00  0.00     0.016 A 
ATOM     14  C   UNL     1      31.133  34.091  17.902  1.00  0.00     0.051 A 
ATOM     15  C   UNL     1      31.963  35.215  17.868  1.00  0.00     0.157 A 
ATOM     16  C   UNL     1      30.431  36.372  19.358  1.00  0.00     0.062 A 
ATOM     17  C   UNL     1      31.613  36.361  18.602  1.00  0.00     0.158 A 
BRANCH  15  18
ATOM     18  O   UNL     1      33.129  35.175  17.105  1.00  0.00    -0.504 OA
ATOM     19  H   UNL     1      33.109  35.179  16.093  1.00  0.00     0.293 HD
ENDBRANCH  15  18
BRANCH  17  20
ATOM     20  O   UNL     1      32.441  37.481  18.580  1.00  0.00    -0.504 OA
ATOM     21  H   UNL     1      32.079  38.406  18.377  1.00  0.00     0.293 HD
ENDBRANCH  17  20
ENDBRANCH   1  12
BRANCH   6  22
ATOM     22  O   UNL     1      23.738  34.598  22.485  1.00  0.00    -0.507 OA
ATOM     23  H   UNL     1      23.435  34.040  23.269  1.00  0.00     0.293 HD
ENDBRANCH   6  22
BRANCH   8  24
ATOM     24  O   UNL     1      25.569  38.690  24.207  1.00  0.00    -0.508 OA
ATOM     25  H   UNL     1      26.360  39.284  24.424  1.00  0.00     0.293 HD
ENDBRANCH   8  24
TORSDOF 5
ENDMDL
MODEL 4
REMARK VINA RESULT:    -5.350      1.826      7.070
REMARK INTER + INTRA:          -6.558
REMARK INTER:                  -6.292
REMARK INTRA:                  -0.267
REMARK UNBOUND:                -0.270
REMARK SMILES O=c1cc(-c2ccc(O)c(O)c2)oc2cc(O)cc(O)c12
REMARK SMILES IDX 4 1 3 2 2 3 1 4 21 5 19 6 18 7 16 8 15 9 14 10 13 11 5 12
REMARK SMILES IDX 6 13 7 14 8 15 12 16 10 17 9 18 11 20 20 22 17 24
REMARK H PARENT 9 19 11 21 20 23 17 25
REMARK Flexibility Score: inf
ROOT
ATOM      1  C   UNL     1      28.777  35.194  20.390  1.00  0.00     0.138 A 
ATOM      2  C   UNL     1      27.489  35.653  20.083  1.00  0.00     0.100 A 
ATOM      3  C   UNL     1      26.405  35.231  20.854  1.00  0.00     0.197 A 
ATOM      4  O   UNL     1      25.253  35.611  20.518  1.00  0.00    -0.289 OA
ATOM      5  C   UNL     1      26.618  34.370  21.957  1.00  0.00     0.107 A 
ATOM      6  C   UNL     1      25.594  33.908  22.837  1.00  0.00     0.134 A 
ATOM      7  C   UNL     1      25.907  32.965  23.824  1.00  0.00     0.093 A 
ATOM      8  C   UNL     1      27.217  32.513  24.000  1.00  0.00     0.123 A 
ATOM      9  C   UNL     1      28.233  33.000  23.181  1.00  0.00     0.094 A 
ATOM     10  C   UNL     1      27.948  33.915  22.165  1.00  0.00     0.146 A 
ATOM     11  O   UNL     1      28.943  34.342  21.396  1.00  0.00    -0.456 OA
ENDROOT
BRANCH   1  12
ATOM     12  C   UNL     1      29.966  35.612  19.603  1.00  0.00     0.021 A 
ATOM     13  C   UNL     1      30.454  34.771  18.589  1.00  0.00     0.016 A 
ATOM     14  C   UNL     1      31.575  35.138  17.840  1.00  0.00     0.051 A 
ATOM     15  C   UNL     1      32.235  36.343  18.098  1.00  0.00     0.157 A 
ATOM     16  C   UNL     1      30.642  36.819  19.869  1.00  0.00     0.062 A 
ATOM     17  C   UNL     1      31.769  37.187  19.120  1.00  0.00     0.158 A 
BRANCH  15  18
ATOM     18  O   UNL     1      33.350  36.682  17.333  1.00  0.00    -0.504 OA
ATOM     19  H   UNL     1      33.640  37.644  17.203  1.00  0.00     0.293 HD
ENDBRANCH  15  18
BRANCH  17  20
ATOM     20  O   UNL     1      32.429  38.384  19.389  1.00  0.00    -0.504 OA
ATOM     21  H   UNL     1      32.447  38.783  20.320  1.00  0.00     0.293 HD
ENDBRANCH  17  20
ENDBRANCH   1  12
BRANCH   6  22
ATOM     22  O   UNL     1      24.271  34.359  22.801  1.00  0.00    -0.507 OA
ATOM     23  H   UNL     1      23.596  34.224  23.538  1.00  0.00     0.293 HD
ENDBRANCH   6  22
BRANCH   8  24
ATOM     24  O   UNL     1      27.521  31.587  24.995  1.00  0.00    -0.508 OA
ATOM     25  H   UNL     1      27.842  30.653  24.770  1.00  0.00     0.293 HD
ENDBRANCH   8  24
TORSDOF 5
ENDMDL
MODEL 5
REMARK VINA RESULT:    -5.214      1.646      6.732
REMARK INTER + INTRA:          -6.398
REMARK INTER:                  -6.084
REMARK INTRA:                  -0.314
REMARK UNBOUND:                -0.270
REMARK SMILES O=c1cc(-c2ccc(O)c(O)c2)oc2cc(O)cc(O)c12
REMARK SMILES IDX 4 1 3 2 2 3 1 4 21 5 19 6 18 7 16 8 15 9 14 10 13 11 5 12
REMARK SMILES IDX 6 13 7 14 8 15 12 16 10 17 9 18 11 20 20 22 17 24
REMARK H PARENT 9 19 11 21 20 23 17 25
REMARK Flexibility Score: inf
ROOT
ATOM      1  C   UNL     1      28.984  34.823  19.755  1.00  0.00     0.138 A 
ATOM      2  C   UNL     1      29.419  35.937  20.486  1.00  0.00     0.100 A 
ATOM      3  C   UNL     1      28.564  36.524  21.420  1.00  0.00     0.197 A 
ATOM      4  O   UNL     1      28.959  37.559  22.017  1.00  0.00    -0.289 OA
ATOM      5  C   UNL     1      27.280  35.973  21.643  1.00  0.00     0.107 A 
ATOM      6  C   UNL     1      26.341  36.464  22.599  1.00  0.00     0.134 A 
ATOM      7  C   UNL     1      25.055  35.911  22.650  1.00  0.00     0.093 A 
ATOM      8  C   UNL     1      24.696  34.845  21.821  1.00  0.00     0.123 A 
ATOM      9  C   UNL     1      25.624  34.324  20.923  1.00  0.00     0.094 A 
ATOM     10  C   UNL     1      26.903  34.876  20.824  1.00  0.00     0.146 A 
ATOM     11  O   UNL     1      27.752  34.359  19.943  1.00  0.00    -0.456 OA
ENDROOT
BRANCH   1  12
ATOM     12  C   UNL     1      29.851  34.158  18.749  1.00  0.00     0.021 A 
ATOM     13  C   UNL     1      30.985  34.829  18.261  1.00  0.00     0.016 A 
ATOM     14  C   UNL     1      31.813  34.226  17.310  1.00  0.00     0.051 A 
ATOM     15  C   UNL     1      31.518  32.951  16.821  1.00  0.00     0.157 A 
ATOM     16  C   UNL     1      29.550  32.877  18.244  1.00  0.00     0.062 A 
ATOM     17  C   UNL     1      30.379  32.273  17.287  1.00  0.00     0.158 A 
BRANCH  15  18
ATOM     18  O   UNL     1      32.363  32.376  15.873  1.00  0.00    -0.504 OA
ATOM     19  H   UNL     1      32.141  32.376  14.885  1.00  0.00     0.293 HD
ENDBRANCH  15  18
BRANCH  17  20
ATOM     20  O   UNL     1      30.074  31.006  16.796  1.00  0.00    -0.504 OA
ATOM     21  H   UNL     1      29.657  30.876  15.881  1.00  0.00     0.293 HD
ENDBRANCH  17  20
ENDBRANCH   1  12
BRANCH   6  22
ATOM     22  O   UNL     1      26.625  37.468  23.530  1.00  0.00    -0.507 OA
ATOM     23  H   UNL     1      26.216  38.390  23.527  1.00  0.00     0.293 HD
ENDBRANCH   6  22
BRANCH   8  24
ATOM     24  O   UNL     1      23.419  34.291  21.890  1.00  0.00    -0.508 OA
ATOM     25  H   UNL     1      22.662  34.761  22.371  1.00  0.00     0.293 HD
ENDBRANCH   8  24
TORSDOF 5
ENDMDL
MODEL 6
REMARK VINA RESULT:    -5.209      1.360      3.104
REMARK INTER + INTRA:          -6.392
REMARK INTER:                  -6.109
REMARK INTRA:                  -0.284
REMARK UNBOUND:                -0.270
REMARK SMILES O=c1cc(-c2ccc(O)c(O)c2)oc2cc(O)cc(O)c12
REMARK SMILES IDX 4 1 3 2 2 3 1 4 21 5 19 6 18 7 16 8 15 9 14 10 13 11 5 12
REMARK SMILES IDX 6 13 7 14 8 15 12 16 10 17 9 18 11 20 20 22 17 24
REMARK H PARENT 9 19 11 21 20 23 17 25
REMARK Flexibility Score: inf
ROOT
ATOM      1  C   UNL     1      28.964  34.121  19.500  1.00  0.00     0.138 A 
ATOM      2  C   UNL     1      29.276  33.033  18.674  1.00  0.00     0.100 A 
ATOM      3  C   UNL     1      30.369  33.114  17.810  1.00  0.00     0.197 A 
ATOM      4  O   UNL     1      30.588  32.147  17.036  1.00  0.00    -0.289 OA
ATOM      5  C   UNL     1      31.171  34.281  17.798  1.00  0.00     0.107 A 
ATOM      6  C   UNL     1      32.333  34.458  16.989  1.00  0.00     0.134 A 
ATOM      7  C   UNL     1      32.980  35.700  16.975  1.00  0.00     0.093 A 
ATOM      8  C   UNL     1      32.543  36.750  17.786  1.00  0.00     0.123 A 
ATOM      9  C   UNL     1      31.442  36.568  18.620  1.00  0.00     0.094 A 
ATOM     10  C   UNL     1      30.754  35.352  18.631  1.00  0.00     0.146 A 
ATOM     11  O   UNL     1      29.700  35.226  19.430  1.00  0.00    -0.456 OA
ENDROOT
BRANCH   1  12
ATOM     12  C   UNL     1      27.813  34.089  20.439  1.00  0.00     0.021 A 
ATOM     13  C   UNL     1      27.701  33.035  21.361  1.00  0.00     0.016 A 
ATOM     14  C   UNL     1      26.624  32.979  22.249  1.00  0.00     0.051 A 
ATOM     15  C   UNL     1      25.636  33.966  22.225  1.00  0.00     0.157 A 
ATOM     16  C   UNL     1      26.807  35.075  20.409  1.00  0.00     0.062 A 
ATOM     17  C   UNL     1      25.724  35.018  21.299  1.00  0.00     0.158 A 
BRANCH  15  18
ATOM     18  O   UNL     1      24.574  33.884  23.125  1.00  0.00    -0.504 OA
ATOM     19  H   UNL     1      24.565  33.217  23.887  1.00  0.00     0.293 HD
ENDBRANCH  15  18
BRANCH  17  20
ATOM     20  O   UNL     1      24.736  36.000  21.263  1.00  0.00    -0.504 OA
ATOM     21  H   UNL     1      23.848  35.877  21.736  1.00  0.00     0.293 HD
ENDBRANCH  17  20
ENDBRANCH   1  12
BRANCH   6  22
ATOM     22  O   UNL     1      32.903  33.449  16.206  1.00  0.00    -0.507 OA
ATOM     23  H   UNL     1      33.893  33.297  16.094  1.00  0.00     0.293 HD
ENDBRANCH   6  22
BRANCH   8  24
ATOM     24  O   UNL     1      33.203  37.977  17.777  1.00  0.00    -0.508 OA
ATOM     25  H   UNL     1      34.195  38.047  17.969  1.00  0.00     0.293 HD
ENDBRANCH   8  24
TORSDOF 5
ENDMDL
MODEL 7
REMARK VINA RESULT:    -5.195      1.523      1.838
REMARK INTER + INTRA:          -6.376
REMARK INTER:                  -6.092
REMARK INTRA:                  -0.284
REMARK UNBOUND:                -0.270
REMARK SMILES O=c1cc(-c2ccc(O)c(O)c2)oc2cc(O)cc(O)c12
REMARK SMILES IDX 4 1 3 2 2 3 1 4 21 5 19 6 18 7 16 8 15 9 14 10 13 11 5 12
REMARK SMILES IDX 6 13 7 14 8 15 12 16 10 17 9 18 11 20 20 22 17 24
REMARK H PARENT 9 19 11 21 20 23 17 25
REMARK Flexibility Score: inf
ROOT
ATOM      1  C   UNL     1      29.358  35.633  19.639  1.00  0.00     0.138 A 
ATOM      2  C   UNL     1      29.999  36.774  20.141  1.00  0.00     0.100 A 
ATOM      3  C   UNL     1      31.246  37.142  19.635  1.00  0.00     0.197 A 
ATOM      4  O   UNL     1      31.825  38.135  20.148  1.00  0.00    -0.289 OA
ATOM      5  C   UNL     1      31.839  36.380  18.600  1.00  0.00     0.107 A 
ATOM      6  C   UNL     1      33.088  36.685  17.981  1.00  0.00     0.134 A 
ATOM      7  C   UNL     1      33.631  35.793  17.047  1.00  0.00     0.093 A 
ATOM      8  C   UNL     1      32.941  34.638  16.668  1.00  0.00     0.123 A 
ATOM      9  C   UNL     1      31.696  34.361  17.227  1.00  0.00     0.094 A 
ATOM     10  C   UNL     1      31.144  35.213  18.186  1.00  0.00     0.146 A 
ATOM     11  O   UNL     1      29.961  34.903  18.705  1.00  0.00    -0.456 OA
ENDROOT
BRANCH   1  12
ATOM     12  C   UNL     1      28.029  35.195  20.139  1.00  0.00     0.021 A 
ATOM     13  C   UNL     1      26.957  36.103  20.141  1.00  0.00     0.016 A 
ATOM     14  C   UNL     1      25.700  35.718  20.613  1.00  0.00     0.051 A 
ATOM     15  C   UNL     1      25.494  34.425  21.101  1.00  0.00     0.157 A 
ATOM     16  C   UNL     1      27.821  33.897  20.644  1.00  0.00     0.062 A 
ATOM     17  C   UNL     1      26.559  33.509  21.121  1.00  0.00     0.158 A 
BRANCH  15  18
ATOM     18  O   UNL     1      24.228  34.069  21.565  1.00  0.00    -0.504 OA
ATOM     19  H   UNL     1      23.541  34.761  21.839  1.00  0.00     0.293 HD
ENDBRANCH  15  18
BRANCH  17  20
ATOM     20  O   UNL     1      26.362  32.222  21.616  1.00  0.00    -0.504 OA
ATOM     21  H   UNL     1      25.683  31.593  21.205  1.00  0.00     0.293 HD
ENDBRANCH  17  20
ENDBRANCH   1  12
BRANCH   6  22
ATOM     22  O   UNL     1      33.818  37.852  18.225  1.00  0.00    -0.507 OA
ATOM     23  H   UNL     1      33.515  38.783  17.982  1.00  0.00     0.293 HD
ENDBRANCH   6  22
BRANCH   8  24
ATOM     24  O   UNL     1      33.482  33.765  15.727  1.00  0.00    -0.508 OA
ATOM     25  H   UNL     1      34.393  33.343  15.857  1.00  0.00     0.293 HD
ENDBRANCH   8  24
TORSDOF 5
ENDMDL
MODEL 8
REMARK VINA RESULT:    -5.181      1.961      7.230
REMARK INTER + INTRA:          -6.359
REMARK INTER:                  -6.090
REMARK INTRA:                  -0.269
REMARK UNBOUND:                -0.270
REMARK SMILES O=c1cc(-c2ccc(O)c(O)c2)oc2cc(O)cc(O)c12
REMARK SMILES IDX 4 1 3 2 2 3 1 4 21 5 19 6 18 7 16 8 15 9 14 10 13 11 5 12
REMARK SMILES IDX 6 13 7 14 8 15 12 16 10 17 9 18 11 20 20 22 17 24
REMARK H PARENT 9 19 11 21 20 23 17 25
REMARK Flexibility Score: inf
ROOT
ATOM      1  C   UNL     1      30.135  34.805  19.288  1.00  0.00     0.138 A 
ATOM      2  C   UNL     1      30.425  33.713  20.116  1.00  0.00     0.100 A 
ATOM      3  C   UNL     1      29.442  33.218  20.974  1.00  0.00     0.197 A 
ATOM      4  O   UNL     1      29.750  32.277  21.751  1.00  0.00    -0.289 OA
ATOM      5  C   UNL     1      28.152  33.802  20.978  1.00  0.00     0.107 A 
ATOM      6  C   UNL     1      27.061  33.354  21.781  1.00  0.00     0.134 A 
ATOM      7  C   UNL     1      25.865  34.083  21.787  1.00  0.00     0.093 A 
ATOM      8  C   UNL     1      25.702  35.208  20.974  1.00  0.00     0.123 A 
ATOM      9  C   UNL     1      26.744  35.620  20.146  1.00  0.00     0.094 A 
ATOM     10  C   UNL     1      27.961  34.935  20.143  1.00  0.00     0.146 A 
ATOM     11  O   UNL     1      28.933  35.370  19.350  1.00  0.00    -0.456 OA
ENDROOT
BRANCH   1  12
ATOM     12  C   UNL     1      31.143  35.372  18.355  1.00  0.00     0.021 A 
ATOM     13  C   UNL     1      31.540  34.628  17.231  1.00  0.00     0.016 A 
ATOM     14  C   UNL     1      32.491  35.137  16.343  1.00  0.00     0.051 A 
ATOM     15  C   UNL     1      33.070  36.389  16.566  1.00  0.00     0.157 A 
ATOM     16  C   UNL     1      31.738  36.628  18.584  1.00  0.00     0.062 A 
ATOM     17  C   UNL     1      32.695  37.138  17.694  1.00  0.00     0.158 A 
BRANCH  15  18
ATOM     18  O   UNL     1      34.016  36.870  15.662  1.00  0.00    -0.504 OA
ATOM     19  H   UNL     1      34.950  36.483  15.604  1.00  0.00     0.293 HD
ENDBRANCH  15  18
BRANCH  17  20
ATOM     20  O   UNL     1      33.277  38.382  17.928  1.00  0.00    -0.504 OA
ATOM     21  H   UNL     1      34.240  38.574  17.679  1.00  0.00     0.293 HD
ENDBRANCH  17  20
ENDBRANCH   1  12
BRANCH   6  22
ATOM     22  O   UNL     1      27.090  32.197  22.565  1.00  0.00    -0.507 OA
ATOM     23  H   UNL     1      26.445  31.991  23.312  1.00  0.00     0.293 HD
ENDBRANCH   6  22
BRANCH   8  24
ATOM     24  O   UNL     1      24.503  35.917  20.975  1.00  0.00    -0.508 OA
ATOM     25  H   UNL     1      23.750  35.685  21.611  1.00  0.00     0.293 HD
ENDBRANCH   8  24
TORSDOF 5
ENDMDL
MODEL 9
REMARK VINA RESULT:    -5.140      4.099      5.749
REMARK INTER + INTRA:          -6.311
REMARK INTER:                  -6.045
REMARK INTRA:                  -0.266
REMARK UNBOUND:                -0.270
REMARK SMILES O=c1cc(-c2ccc(O)c(O)c2)oc2cc(O)cc(O)c12
REMARK SMILES IDX 4 1 3 2 2 3 1 4 21 5 19 6 18 7 16 8 15 9 14 10 13 11 5 12
REMARK SMILES IDX 6 13 7 14 8 15 12 16 10 17 9 18 11 20 20 22 17 24
REMARK H PARENT 9 19 11 21 20 23 17 25
REMARK Flexibility Score: inf
ROOT
ATOM      1  C   UNL     1      26.695  37.123  23.389  1.00  0.00     0.138 A 
ATOM      2  C   UNL     1      25.928  36.102  22.812  1.00  0.00     0.100 A 
ATOM      3  C   UNL     1      26.393  35.454  21.667  1.00  0.00     0.197 A 
ATOM      4  O   UNL     1      25.654  34.585  21.135  1.00  0.00    -0.289 OA
ATOM      5  C   UNL     1      27.648  35.809  21.117  1.00  0.00     0.107 A 
ATOM      6  C   UNL     1      28.240  35.188  19.977  1.00  0.00     0.134 A 
ATOM      7  C   UNL     1      29.433  35.702  19.454  1.00  0.00     0.093 A 
ATOM      8  C   UNL     1      30.085  36.776  20.065  1.00  0.00     0.123 A 
ATOM      9  C   UNL     1      29.542  37.354  21.210  1.00  0.00     0.094 A 
ATOM     10  C   UNL     1      28.336  36.886  21.737  1.00  0.00     0.146 A 
ATOM     11  O   UNL     1      27.845  37.476  22.821  1.00  0.00    -0.456 OA
ENDROOT
BRANCH   1  12
ATOM     12  C   UNL     1      26.250  37.846  24.608  1.00  0.00     0.021 A 
ATOM     13  C   UNL     1      27.025  37.774  25.777  1.00  0.00     0.016 A 
ATOM     14  C   UNL     1      26.623  38.440  26.938  1.00  0.00     0.051 A 
ATOM     15  C   UNL     1      25.437  39.178  26.956  1.00  0.00     0.157 A 
ATOM     16  C   UNL     1      25.048  38.581  24.633  1.00  0.00     0.062 A 
ATOM     17  C   UNL     1      24.643  39.248  25.799  1.00  0.00     0.158 A 
BRANCH  15  18
ATOM     18  O   UNL     1      25.063  39.833  28.128  1.00  0.00    -0.504 OA
ATOM     19  H   UNL     1      24.340  39.471  28.739  1.00  0.00     0.293 HD
ENDBRANCH  15  18
BRANCH  17  20
ATOM     20  O   UNL     1      23.454  39.974  25.813  1.00  0.00    -0.504 OA
ATOM     21  H   UNL     1      22.707  39.784  25.155  1.00  0.00     0.293 HD
ENDBRANCH  17  20
ENDBRANCH   1  12
BRANCH   6  22
ATOM     22  O   UNL     1      27.716  34.058  19.342  1.00  0.00    -0.507 OA
ATOM     23  H   UNL     1      26.762  33.963  19.031  1.00  0.00     0.293 HD
ENDBRANCH   6  22
BRANCH   8  24
ATOM     24  O   UNL     1      31.279  37.271  19.546  1.00  0.00    -0.508 OA
ATOM     25  H   UNL     1      31.313  38.142  19.030  1.00  0.00     0.293 HD
ENDBRANCH   8  24
TORSDOF 5
ENDMDL
