MODEL 1
REMARK VINA RESULT:    -5.032      0.000      0.000
REMARK INTER + INTRA:         -18.557
REMARK INTER:                 -13.269
REMARK INTRA:                  -5.287
REMARK UNBOUND:                -5.287
REMARK SMILES CCCCCCCCCCCCCCCCCCCCCCCCCCCCCC(=O)[O-]
REMARK SMILES IDX 16 1 17 2 18 3 19 4 20 5 21 6 22 7 23 8 24 9 25 10 26 11
REMARK SMILES IDX 27 12 28 13 29 14 30 15 31 16 32 17 15 18 14 19 13 20 12 21
REMARK SMILES IDX 11 22 10 23 9 24 8 25 7 26 6 27 5 28 4 29 3 30 2 31 1 32
REMARK H PARENT
REMARK Flexibility Score: inf
ROOT
ATOM      1  C   UNL     1      13.629 -30.411  23.229  1.00  0.00     0.000 C 
ENDROOT
BRANCH   1   2
ATOM      2  C   UNL     1      14.652 -29.305  22.885  1.00  0.00     0.000 C 
BRANCH   2   3
ATOM      3  C   UNL     1      16.123 -29.737  23.033  1.00  0.00     0.000 C 
BRANCH   3   4
ATOM      4  C   UNL     1      16.816 -30.170  21.730  1.00  0.00     0.000 C 
BRANCH   4   5
ATOM      5  C   UNL     1      17.419 -31.589  21.739  1.00  0.00     0.000 C 
BRANCH   5   6
ATOM      6  C   UNL     1      18.567 -31.798  20.730  1.00  0.00     0.000 C 
BRANCH   6   7
ATOM      7  C   UNL     1      19.930 -32.004  21.417  1.00  0.00     0.000 C 
BRANCH   7   8
ATOM      8  C   UNL     1      20.260 -30.881  22.413  1.00  0.00     0.000 C 
BRANCH   8   9
ATOM      9  C   UNL     1      21.445 -30.019  21.951  1.00  0.00     0.000 C 
BRANCH   9  10
ATOM     10  C   UNL     1      21.074 -29.192  20.714  1.00  0.00     0.000 C 
BRANCH  10  11
ATOM     11  C   UNL     1      19.941 -28.208  21.032  1.00  0.00     0.000 C 
BRANCH  11  12
ATOM     12  C   UNL     1      20.250 -26.813  20.469  1.00  0.00     0.000 C 
BRANCH  12  13
ATOM     13  C   UNL     1      20.598 -25.797  21.569  1.00  0.00     0.006 C 
BRANCH  13  14
ATOM     14  C   UNL     1      22.104 -25.734  21.857  1.00  0.00     0.053 C 
BRANCH  14  15
ATOM     15  C   UNL     1      22.885 -25.870  20.588  1.00  0.00     0.041 C 
ATOM     16  O   UNL     1      23.660 -26.849  20.422  1.00  0.00    -0.550 OA
ATOM     17  O   UNL     1      22.722 -24.941  19.568  1.00  0.00    -0.550 OA
ENDBRANCH  14  15
ENDBRANCH  13  14
ENDBRANCH  12  13
ENDBRANCH  11  12
ENDBRANCH  10  11
ENDBRANCH   9  10
ENDBRANCH   8   9
ENDBRANCH   7   8
ENDBRANCH   6   7
ENDBRANCH   5   6
ENDBRANCH   4   5
ENDBRANCH   3   4
ENDBRANCH   2   3
ENDBRANCH   1   2
BRANCH   1  18
ATOM     18  C   UNL     1      14.247 -31.766  23.636  1.00  0.00     0.000 C 
BRANCH  18  19
ATOM     19  C   UNL     1      14.269 -32.848  22.536  1.00  0.00     0.000 C 
BRANCH  19  20
ATOM     20  C   UNL     1      13.870 -32.365  21.128  1.00  0.00     0.000 C 
BRANCH  20  21
ATOM     21  C   UNL     1      14.282 -33.302  19.978  1.00  0.00     0.000 C 
BRANCH  21  22
ATOM     22  C   UNL     1      15.239 -34.417  20.434  1.00  0.00     0.000 C 
BRANCH  22  23
ATOM     23  C   UNL     1      16.443 -34.596  19.492  1.00  0.00     0.000 C 
BRANCH  23  24
ATOM     24  C   UNL     1      17.132 -35.975  19.553  1.00  0.00    -0.000 C 
BRANCH  24  25
ATOM     25  C   UNL     1      17.603 -36.418  20.951  1.00  0.00    -0.000 C 
BRANCH  25  26
ATOM     26  C   UNL     1      18.812 -35.616  21.459  1.00  0.00    -0.000 C 
BRANCH  26  27
ATOM     27  C   UNL     1      18.652 -35.154  22.919  1.00  0.00    -0.000 C 
BRANCH  27  28
ATOM     28  C   UNL     1      17.197 -35.078  23.421  1.00  0.00    -0.000 C 
BRANCH  28  29
ATOM     29  C   UNL     1      17.021 -34.385  24.785  1.00  0.00    -0.000 C 
BRANCH  29  30
ATOM     30  C   UNL     1      18.235 -33.525  25.201  1.00  0.00    -0.000 C 
BRANCH  30  31
ATOM     31  C   UNL     1      17.923 -32.021  25.282  1.00  0.00    -0.003 C 
ATOM     32  C   UNL     1      19.109 -31.210  25.803  1.00  0.00     0.004 C 
ENDBRANCH  30  31
ENDBRANCH  29  30
ENDBRANCH  28  29
ENDBRANCH  27  28
ENDBRANCH  26  27
ENDBRANCH  25  26
ENDBRANCH  24  25
ENDBRANCH  23  24
ENDBRANCH  22  23
ENDBRANCH  21  22
ENDBRANCH  20  21
ENDBRANCH  19  20
ENDBRANCH  18  19
ENDBRANCH   1  18
TORSDOF 28
ENDMDL
MODEL 2
REMARK VINA RESULT:    -4.986      3.696      8.019
REMARK INTER + INTRA:         -18.434
REMARK INTER:                 -14.121
REMARK INTRA:                  -4.313
REMARK UNBOUND:                -5.287
REMARK SMILES CCCCCCCCCCCCCCCCCCCCCCCCCCCCCC(=O)[O-]
REMARK SMILES IDX 16 1 17 2 18 3 19 4 20 5 21 6 22 7 23 8 24 9 25 10 26 11
REMARK SMILES IDX 27 12 28 13 29 14 30 15 31 16 32 17 15 18 14 19 13 20 12 21
REMARK SMILES IDX 11 22 10 23 9 24 8 25 7 26 6 27 5 28 4 29 3 30 2 31 1 32
REMARK H PARENT
REMARK Flexibility Score: inf
ROOT
ATOM      1  C   UNL     1      13.454 -30.069  23.617  1.00  0.00     0.000 C 
ENDROOT
BRANCH   1   2
ATOM      2  C   UNL     1      13.433 -31.475  22.974  1.00  0.00     0.000 C 
BRANCH   2   3
ATOM      3  C   UNL     1      14.263 -32.528  23.733  1.00  0.00     0.000 C 
BRANCH   3   4
ATOM      4  C   UNL     1      14.939 -33.593  22.852  1.00  0.00     0.000 C 
BRANCH   4   5
ATOM      5  C   UNL     1      15.264 -33.152  21.410  1.00  0.00     0.000 C 
BRANCH   5   6
ATOM      6  C   UNL     1      14.859 -34.174  20.327  1.00  0.00     0.000 C 
BRANCH   6   7
ATOM      7  C   UNL     1      15.994 -35.159  19.989  1.00  0.00     0.000 C 
BRANCH   7   8
ATOM      8  C   UNL     1      17.333 -34.447  19.736  1.00  0.00     0.000 C 
BRANCH   8   9
ATOM      9  C   UNL     1      18.476 -35.036  20.576  1.00  0.00     0.000 C 
BRANCH   9  10
ATOM     10  C   UNL     1      18.110 -36.429  21.102  1.00  0.00     0.000 C 
BRANCH  10  11
ATOM     11  C   UNL     1      18.354 -36.528  22.613  1.00  0.00     0.000 C 
BRANCH  11  12
ATOM     12  C   UNL     1      17.971 -35.220  23.319  1.00  0.00     0.000 C 
BRANCH  12  13
ATOM     13  C   UNL     1      18.398 -35.198  24.796  1.00  0.00     0.006 C 
BRANCH  13  14
ATOM     14  C   UNL     1      17.260 -35.600  25.744  1.00  0.00     0.053 C 
BRANCH  14  15
ATOM     15  C   UNL     1      17.480 -36.984  26.267  1.00  0.00     0.041 C 
ATOM     16  O   UNL     1      18.645 -37.459  26.332  1.00  0.00    -0.550 OA
ATOM     17  O   UNL     1      16.404 -37.734  26.726  1.00  0.00    -0.550 OA
ENDBRANCH  14  15
ENDBRANCH  13  14
ENDBRANCH  12  13
ENDBRANCH  11  12
ENDBRANCH  10  11
ENDBRANCH   9  10
ENDBRANCH   8   9
ENDBRANCH   7   8
ENDBRANCH   6   7
ENDBRANCH   5   6
ENDBRANCH   4   5
ENDBRANCH   3   4
ENDBRANCH   2   3
ENDBRANCH   1   2
BRANCH   1  18
ATOM     18  C   UNL     1      14.390 -29.052  22.930  1.00  0.00     0.000 C 
BRANCH  18  19
ATOM     19  C   UNL     1      15.327 -29.630  21.849  1.00  0.00     0.000 C 
BRANCH  19  20
ATOM     20  C   UNL     1      16.824 -29.646  22.213  1.00  0.00     0.000 C 
BRANCH  20  21
ATOM     21  C   UNL     1      17.202 -30.582  23.375  1.00  0.00     0.000 C 
BRANCH  21  22
ATOM     22  C   UNL     1      18.223 -31.656  22.964  1.00  0.00     0.000 C 
BRANCH  22  23
ATOM     23  C   UNL     1      18.751 -31.464  21.531  1.00  0.00     0.000 C 
BRANCH  23  24
ATOM     24  C   UNL     1      20.242 -31.804  21.323  1.00  0.00    -0.000 C 
BRANCH  24  25
ATOM     25  C   UNL     1      21.125 -30.638  20.839  1.00  0.00    -0.000 C 
BRANCH  25  26
ATOM     26  C   UNL     1      20.392 -29.287  20.847  1.00  0.00    -0.000 C 
BRANCH  26  27
ATOM     27  C   UNL     1      21.354 -28.085  20.892  1.00  0.00    -0.000 C 
BRANCH  27  28
ATOM     28  C   UNL     1      20.676 -26.717  21.098  1.00  0.00    -0.000 C 
BRANCH  28  29
ATOM     29  C   UNL     1      21.542 -25.504  20.710  1.00  0.00    -0.000 C 
BRANCH  29  30
ATOM     30  C   UNL     1      23.001 -25.873  20.361  1.00  0.00    -0.000 C 
BRANCH  30  31
ATOM     31  C   UNL     1      23.540 -25.141  19.120  1.00  0.00    -0.003 C 
ATOM     32  C   UNL     1      24.203 -23.811  19.475  1.00  0.00     0.004 C 
ENDBRANCH  30  31
ENDBRANCH  29  30
ENDBRANCH  28  29
ENDBRANCH  27  28
ENDBRANCH  26  27
ENDBRANCH  25  26
ENDBRANCH  24  25
ENDBRANCH  23  24
ENDBRANCH  22  23
ENDBRANCH  21  22
ENDBRANCH  20  21
ENDBRANCH  19  20
ENDBRANCH  18  19
ENDBRANCH   1  18
TORSDOF 28
ENDMDL
MODEL 3
REMARK VINA RESULT:    -4.974      4.021      7.012
REMARK INTER + INTRA:         -18.402
REMARK INTER:                 -13.329
REMARK INTRA:                  -5.073
REMARK UNBOUND:                -5.287
REMARK SMILES CCCCCCCCCCCCCCCCCCCCCCCCCCCCCC(=O)[O-]
REMARK SMILES IDX 16 1 17 2 18 3 19 4 20 5 21 6 22 7 23 8 24 9 25 10 26 11
REMARK SMILES IDX 27 12 28 13 29 14 30 15 31 16 32 17 15 18 14 19 13 20 12 21
REMARK SMILES IDX 11 22 10 23 9 24 8 25 7 26 6 27 5 28 4 29 3 30 2 31 1 32
REMARK H PARENT
REMARK Flexibility Score: inf
ROOT
ATOM      1  C   UNL     1      13.238 -31.342  23.170  1.00  0.00     0.000 C 
ENDROOT
BRANCH   1   2
ATOM      2  C   UNL     1      13.834 -32.383  24.145  1.00  0.00     0.000 C 
BRANCH   2   3
ATOM      3  C   UNL     1      15.252 -32.858  23.772  1.00  0.00     0.000 C 
BRANCH   3   4
ATOM      4  C   UNL     1      15.313 -34.019  22.765  1.00  0.00     0.000 C 
BRANCH   4   5
ATOM      5  C   UNL     1      15.106 -33.627  21.288  1.00  0.00     0.000 C 
BRANCH   5   6
ATOM      6  C   UNL     1      15.278 -34.792  20.292  1.00  0.00     0.000 C 
BRANCH   6   7
ATOM      7  C   UNL     1      16.584 -34.691  19.482  1.00  0.00     0.000 C 
BRANCH   7   8
ATOM      8  C   UNL     1      17.563 -35.832  19.804  1.00  0.00     0.000 C 
BRANCH   8   9
ATOM      9  C   UNL     1      18.285 -35.622  21.144  1.00  0.00     0.000 C 
BRANCH   9  10
ATOM     10  C   UNL     1      18.482 -36.955  21.876  1.00  0.00     0.000 C 
BRANCH  10  11
ATOM     11  C   UNL     1      19.786 -36.950  22.685  1.00  0.00     0.000 C 
BRANCH  11  12
ATOM     12  C   UNL     1      19.694 -37.906  23.883  1.00  0.00     0.000 C 
BRANCH  12  13
ATOM     13  C   UNL     1      19.399 -37.173  25.202  1.00  0.00     0.006 C 
BRANCH  13  14
ATOM     14  C   UNL     1      18.281 -37.845  26.011  1.00  0.00     0.053 C 
BRANCH  14  15
ATOM     15  C   UNL     1      17.228 -36.847  26.375  1.00  0.00     0.041 C 
ATOM     16  O   UNL     1      16.895 -35.949  25.557  1.00  0.00    -0.550 OA
ATOM     17  O   UNL     1      16.580 -36.936  27.601  1.00  0.00    -0.550 OA
ENDBRANCH  14  15
ENDBRANCH  13  14
ENDBRANCH  12  13
ENDBRANCH  11  12
ENDBRANCH  10  11
ENDBRANCH   9  10
ENDBRANCH   8   9
ENDBRANCH   7   8
ENDBRANCH   6   7
ENDBRANCH   5   6
ENDBRANCH   4   5
ENDBRANCH   3   4
ENDBRANCH   2   3
ENDBRANCH   1   2
BRANCH   1  18
ATOM     18  C   UNL     1      13.341 -29.875  23.640  1.00  0.00     0.000 C 
BRANCH  18  19
ATOM     19  C   UNL     1      14.524 -29.070  23.061  1.00  0.00     0.000 C 
BRANCH  19  20
ATOM     20  C   UNL     1      15.229 -29.712  21.851  1.00  0.00     0.000 C 
BRANCH  20  21
ATOM     21  C   UNL     1      16.754 -29.509  21.804  1.00  0.00     0.000 C 
BRANCH  21  22
ATOM     22  C   UNL     1      17.534 -30.817  22.022  1.00  0.00     0.000 C 
BRANCH  22  23
ATOM     23  C   UNL     1      17.973 -31.479  20.703  1.00  0.00     0.000 C 
BRANCH  23  24
ATOM     24  C   UNL     1      19.338 -32.196  20.745  1.00  0.00    -0.000 C 
BRANCH  24  25
ATOM     25  C   UNL     1      20.533 -31.321  21.168  1.00  0.00    -0.000 C 
BRANCH  25  26
ATOM     26  C   UNL     1      21.344 -31.931  22.323  1.00  0.00    -0.000 C 
BRANCH  26  27
ATOM     27  C   UNL     1      21.057 -33.430  22.527  1.00  0.00    -0.000 C 
BRANCH  27  28
ATOM     28  C   UNL     1      21.391 -33.971  23.932  1.00  0.00    -0.000 C 
BRANCH  28  29
ATOM     29  C   UNL     1      20.669 -33.252  25.087  1.00  0.00    -0.000 C 
BRANCH  29  30
ATOM     30  C   UNL     1      19.131 -33.226  24.932  1.00  0.00    -0.000 C 
BRANCH  30  31
ATOM     31  C   UNL     1      18.526 -31.818  25.061  1.00  0.00    -0.003 C 
ATOM     32  C   UNL     1      19.065 -31.065  26.278  1.00  0.00     0.004 C 
ENDBRANCH  30  31
ENDBRANCH  29  30
ENDBRANCH  28  29
ENDBRANCH  27  28
ENDBRANCH  26  27
ENDBRANCH  25  26
ENDBRANCH  24  25
ENDBRANCH  23  24
ENDBRANCH  22  23
ENDBRANCH  21  22
ENDBRANCH  20  21
ENDBRANCH  19  20
ENDBRANCH  18  19
ENDBRANCH   1  18
TORSDOF 28
ENDMDL
MODEL 4
REMARK VINA RESULT:    -4.956      1.319      2.071
REMARK INTER + INTRA:         -18.355
REMARK INTER:                 -13.219
REMARK INTRA:                  -5.136
REMARK UNBOUND:                -5.287
REMARK SMILES CCCCCCCCCCCCCCCCCCCCCCCCCCCCCC(=O)[O-]
REMARK SMILES IDX 16 1 17 2 18 3 19 4 20 5 21 6 22 7 23 8 24 9 25 10 26 11
REMARK SMILES IDX 27 12 28 13 29 14 30 15 31 16 32 17 15 18 14 19 13 20 12 21
REMARK SMILES IDX 11 22 10 23 9 24 8 25 7 26 6 27 5 28 4 29 3 30 2 31 1 32
REMARK H PARENT
REMARK Flexibility Score: inf
ROOT
ATOM      1  C   UNL     1      13.234 -31.369  22.804  1.00  0.00     0.000 C 
ENDROOT
BRANCH   1   2
ATOM      2  C   UNL     1      14.190 -30.341  23.449  1.00  0.00     0.000 C 
BRANCH   2   3
ATOM      3  C   UNL     1      14.951 -29.464  22.435  1.00  0.00     0.000 C 
BRANCH   3   4
ATOM      4  C   UNL     1      16.424 -29.844  22.212  1.00  0.00     0.000 C 
BRANCH   4   5
ATOM      5  C   UNL     1      17.000 -30.877  23.202  1.00  0.00     0.000 C 
BRANCH   5   6
ATOM      6  C   UNL     1      17.871 -31.968  22.546  1.00  0.00     0.000 C 
BRANCH   6   7
ATOM      7  C   UNL     1      18.164 -31.681  21.062  1.00  0.00     0.000 C 
BRANCH   7   8
ATOM      8  C   UNL     1      19.667 -31.724  20.741  1.00  0.00     0.000 C 
BRANCH   8   9
ATOM      9  C   UNL     1      20.536 -31.504  21.989  1.00  0.00     0.000 C 
BRANCH   9  10
ATOM     10  C   UNL     1      21.280 -30.166  21.911  1.00  0.00     0.000 C 
BRANCH  10  11
ATOM     11  C   UNL     1      20.424 -29.102  21.211  1.00  0.00     0.000 C 
BRANCH  11  12
ATOM     12  C   UNL     1      21.219 -27.805  21.005  1.00  0.00     0.000 C 
BRANCH  12  13
ATOM     13  C   UNL     1      20.469 -26.785  20.133  1.00  0.00     0.006 C 
BRANCH  13  14
ATOM     14  C   UNL     1      21.049 -25.369  20.252  1.00  0.00     0.053 C 
BRANCH  14  15
ATOM     15  C   UNL     1      20.967 -24.889  21.667  1.00  0.00     0.041 C 
ATOM     16  O   UNL     1      22.019 -24.671  22.324  1.00  0.00    -0.550 OA
ATOM     17  O   UNL     1      19.729 -24.637  22.245  1.00  0.00    -0.550 OA
ENDBRANCH  14  15
ENDBRANCH  13  14
ENDBRANCH  12  13
ENDBRANCH  11  12
ENDBRANCH  10  11
ENDBRANCH   9  10
ENDBRANCH   8   9
ENDBRANCH   7   8
ENDBRANCH   6   7
ENDBRANCH   5   6
ENDBRANCH   4   5
ENDBRANCH   3   4
ENDBRANCH   2   3
ENDBRANCH   1   2
BRANCH   1  18
ATOM     18  C   UNL     1      13.189 -31.339  21.261  1.00  0.00     0.000 C 
BRANCH  18  19
ATOM     19  C   UNL     1      13.832 -32.549  20.551  1.00  0.00     0.000 C 
BRANCH  19  20
ATOM     20  C   UNL     1      14.819 -33.367  21.405  1.00  0.00     0.000 C 
BRANCH  20  21
ATOM     21  C   UNL     1      15.295 -34.685  20.766  1.00  0.00     0.000 C 
BRANCH  21  22
ATOM     22  C   UNL     1      16.179 -34.460  19.528  1.00  0.00     0.000 C 
BRANCH  22  23
ATOM     23  C   UNL     1      17.407 -35.387  19.492  1.00  0.00     0.000 C 
BRANCH  23  24
ATOM     24  C   UNL     1      17.347 -36.603  20.441  1.00  0.00    -0.000 C 
BRANCH  24  25
ATOM     25  C   UNL     1      18.520 -36.726  21.432  1.00  0.00    -0.000 C 
BRANCH  25  26
ATOM     26  C   UNL     1      19.176 -35.373  21.756  1.00  0.00    -0.000 C 
BRANCH  26  27
ATOM     27  C   UNL     1      20.337 -35.498  22.760  1.00  0.00    -0.000 C 
BRANCH  27  28
ATOM     28  C   UNL     1      20.257 -34.544  23.968  1.00  0.00    -0.000 C 
BRANCH  28  29
ATOM     29  C   UNL     1      19.309 -35.003  25.091  1.00  0.00    -0.000 C 
BRANCH  29  30
ATOM     30  C   UNL     1      18.464 -33.857  25.692  1.00  0.00    -0.000 C 
BRANCH  30  31
ATOM     31  C   UNL     1      16.948 -34.068  25.541  1.00  0.00    -0.003 C 
ATOM     32  C   UNL     1      16.606 -34.997  24.376  1.00  0.00     0.004 C 
ENDBRANCH  30  31
ENDBRANCH  29  30
ENDBRANCH  28  29
ENDBRANCH  27  28
ENDBRANCH  26  27
ENDBRANCH  25  26
ENDBRANCH  24  25
ENDBRANCH  23  24
ENDBRANCH  22  23
ENDBRANCH  21  22
ENDBRANCH  20  21
ENDBRANCH  19  20
ENDBRANCH  18  19
ENDBRANCH   1  18
TORSDOF 28
ENDMDL
MODEL 5
REMARK VINA RESULT:    -4.946      2.046      5.547
REMARK INTER + INTRA:         -18.329
REMARK INTER:                 -12.407
REMARK INTRA:                  -5.922
REMARK UNBOUND:                -5.287
REMARK SMILES CCCCCCCCCCCCCCCCCCCCCCCCCCCCCC(=O)[O-]
REMARK SMILES IDX 16 1 17 2 18 3 19 4 20 5 21 6 22 7 23 8 24 9 25 10 26 11
REMARK SMILES IDX 27 12 28 13 29 14 30 15 31 16 32 17 15 18 14 19 13 20 12 21
REMARK SMILES IDX 11 22 10 23 9 24 8 25 7 26 6 27 5 28 4 29 3 30 2 31 1 32
REMARK H PARENT
REMARK Flexibility Score: inf
ROOT
ATOM      1  C   UNL     1      18.009 -34.047  19.285  1.00  0.00     0.000 C 
ENDROOT
BRANCH   1   2
ATOM      2  C   UNL     1      16.513 -34.422  19.390  1.00  0.00     0.000 C 
BRANCH   2   3
ATOM      3  C   UNL     1      16.253 -35.823  19.976  1.00  0.00     0.000 C 
BRANCH   3   4
ATOM      4  C   UNL     1      17.218 -36.924  19.505  1.00  0.00     0.000 C 
BRANCH   4   5
ATOM      5  C   UNL     1      18.079 -37.569  20.610  1.00  0.00     0.000 C 
BRANCH   5   6
ATOM      6  C   UNL     1      18.137 -36.761  21.923  1.00  0.00     0.000 C 
BRANCH   6   7
ATOM      7  C   UNL     1      19.570 -36.612  22.465  1.00  0.00     0.000 C 
BRANCH   7   8
ATOM      8  C   UNL     1      19.633 -35.727  23.721  1.00  0.00     0.000 C 
BRANCH   8   9
ATOM      9  C   UNL     1      21.077 -35.401  24.134  1.00  0.00     0.000 C 
BRANCH   9  10
ATOM     10  C   UNL     1      21.984 -35.271  22.904  1.00  0.00     0.000 C 
BRANCH  10  11
ATOM     11  C   UNL     1      22.610 -33.872  22.828  1.00  0.00     0.000 C 
BRANCH  11  12
ATOM     12  C   UNL     1      21.557 -32.818  22.458  1.00  0.00     0.000 C 
BRANCH  12  13
ATOM     13  C   UNL     1      21.737 -31.504  23.236  1.00  0.00     0.006 C 
BRANCH  13  14
ATOM     14  C   UNL     1      21.419 -30.268  22.385  1.00  0.00     0.053 C 
BRANCH  14  15
ATOM     15  C   UNL     1      22.272 -29.112  22.805  1.00  0.00     0.041 C 
ATOM     16  O   UNL     1      23.296 -29.305  23.513  1.00  0.00    -0.550 OA
ATOM     17  O   UNL     1      21.964 -27.827  22.375  1.00  0.00    -0.550 OA
ENDBRANCH  14  15
ENDBRANCH  13  14
ENDBRANCH  12  13
ENDBRANCH  11  12
ENDBRANCH  10  11
ENDBRANCH   9  10
ENDBRANCH   8   9
ENDBRANCH   7   8
ENDBRANCH   6   7
ENDBRANCH   5   6
ENDBRANCH   4   5
ENDBRANCH   3   4
ENDBRANCH   2   3
ENDBRANCH   1   2
BRANCH   1  18
ATOM     18  C   UNL     1      18.605 -33.385  20.546  1.00  0.00     0.000 C 
BRANCH  18  19
ATOM     19  C   UNL     1      18.380 -31.864  20.672  1.00  0.00     0.000 C 
BRANCH  19  20
ATOM     20  C   UNL     1      17.263 -31.440  21.644  1.00  0.00     0.000 C 
BRANCH  20  21
ATOM     21  C   UNL     1      17.690 -30.428  22.723  1.00  0.00     0.000 C 
BRANCH  21  22
ATOM     22  C   UNL     1      17.596 -31.002  24.147  1.00  0.00     0.000 C 
BRANCH  22  23
ATOM     23  C   UNL     1      18.300 -32.363  24.291  1.00  0.00     0.000 C 
BRANCH  23  24
ATOM     24  C   UNL     1      17.808 -33.243  25.460  1.00  0.00    -0.000 C 
BRANCH  24  25
ATOM     25  C   UNL     1      16.579 -34.120  25.156  1.00  0.00    -0.000 C 
BRANCH  25  26
ATOM     26  C   UNL     1      16.316 -34.282  23.650  1.00  0.00    -0.000 C 
BRANCH  26  27
ATOM     27  C   UNL     1      14.944 -33.729  23.221  1.00  0.00    -0.000 C 
BRANCH  27  28
ATOM     28  C   UNL     1      14.211 -32.901  24.295  1.00  0.00    -0.000 C 
BRANCH  28  29
ATOM     29  C   UNL     1      13.975 -31.426  23.923  1.00  0.00    -0.000 C 
BRANCH  29  30
ATOM     30  C   UNL     1      12.983 -31.236  22.753  1.00  0.00    -0.000 C 
BRANCH  30  31
ATOM     31  C   UNL     1      13.670 -30.950  21.407  1.00  0.00    -0.003 C 
ATOM     32  C   UNL     1      13.438 -32.066  20.389  1.00  0.00     0.004 C 
ENDBRANCH  30  31
ENDBRANCH  29  30
ENDBRANCH  28  29
ENDBRANCH  27  28
ENDBRANCH  26  27
ENDBRANCH  25  26
ENDBRANCH  24  25
ENDBRANCH  23  24
ENDBRANCH  22  23
ENDBRANCH  21  22
ENDBRANCH  20  21
ENDBRANCH  19  20
ENDBRANCH  18  19
ENDBRANCH   1  18
TORSDOF 28
ENDMDL
MODEL 6
REMARK VINA RESULT:    -4.924      1.258      3.796
REMARK INTER + INTRA:         -18.273
REMARK INTER:                 -12.862
REMARK INTRA:                  -5.411
REMARK UNBOUND:                -5.287
REMARK SMILES CCCCCCCCCCCCCCCCCCCCCCCCCCCCCC(=O)[O-]
REMARK SMILES IDX 16 1 17 2 18 3 19 4 20 5 21 6 22 7 23 8 24 9 25 10 26 11
REMARK SMILES IDX 27 12 28 13 29 14 30 15 31 16 32 17 15 18 14 19 13 20 12 21
REMARK SMILES IDX 11 22 10 23 9 24 8 25 7 26 6 27 5 28 4 29 3 30 2 31 1 32
REMARK H PARENT
REMARK Flexibility Score: inf
ROOT
ATOM      1  C   UNL     1      17.445 -33.604  25.445  1.00  0.00     0.000 C 
ENDROOT
BRANCH   1   2
ATOM      2  C   UNL     1      18.760 -32.852  25.752  1.00  0.00     0.000 C 
BRANCH   2   3
ATOM      3  C   UNL     1      19.167 -31.825  24.677  1.00  0.00     0.000 C 
BRANCH   3   4
ATOM      4  C   UNL     1      20.305 -32.267  23.743  1.00  0.00     0.000 C 
BRANCH   4   5
ATOM      5  C   UNL     1      19.872 -32.690  22.324  1.00  0.00     0.000 C 
BRANCH   5   6
ATOM      6  C   UNL     1      18.395 -32.391  21.996  1.00  0.00     0.000 C 
BRANCH   6   7
ATOM      7  C   UNL     1      18.235 -31.261  20.962  1.00  0.00     0.000 C 
BRANCH   7   8
ATOM      8  C   UNL     1      18.278 -29.866  21.607  1.00  0.00     0.000 C 
BRANCH   8   9
ATOM      9  C   UNL     1      18.589 -28.760  20.586  1.00  0.00     0.000 C 
BRANCH   9  10
ATOM     10  C   UNL     1      19.893 -28.035  20.942  1.00  0.00     0.000 C 
BRANCH  10  11
ATOM     11  C   UNL     1      21.063 -29.023  21.033  1.00  0.00     0.000 C 
BRANCH  11  12
ATOM     12  C   UNL     1      21.949 -28.717  22.249  1.00  0.00     0.000 C 
BRANCH  12  13
ATOM     13  C   UNL     1      22.309 -27.226  22.357  1.00  0.00     0.006 C 
BRANCH  13  14
ATOM     14  C   UNL     1      23.226 -26.757  21.220  1.00  0.00     0.053 C 
BRANCH  14  15
ATOM     15  C   UNL     1      22.764 -25.439  20.685  1.00  0.00     0.041 C 
ATOM     16  O   UNL     1      21.903 -25.394  19.766  1.00  0.00    -0.550 OA
ATOM     17  O   UNL     1      23.248 -24.257  21.233  1.00  0.00    -0.550 OA
ENDBRANCH  14  15
ENDBRANCH  13  14
ENDBRANCH  12  13
ENDBRANCH  11  12
ENDBRANCH  10  11
ENDBRANCH   9  10
ENDBRANCH   8   9
ENDBRANCH   7   8
ENDBRANCH   6   7
ENDBRANCH   5   6
ENDBRANCH   4   5
ENDBRANCH   3   4
ENDBRANCH   2   3
ENDBRANCH   1   2
BRANCH   1  18
ATOM     18  C   UNL     1      17.592 -35.131  25.272  1.00  0.00     0.000 C 
BRANCH  18  19
ATOM     19  C   UNL     1      19.035 -35.645  25.081  1.00  0.00     0.000 C 
BRANCH  19  20
ATOM     20  C   UNL     1      19.374 -36.148  23.664  1.00  0.00     0.000 C 
BRANCH  20  21
ATOM     21  C   UNL     1      18.214 -36.077  22.654  1.00  0.00     0.000 C 
BRANCH  21  22
ATOM     22  C   UNL     1      18.392 -37.051  21.477  1.00  0.00     0.000 C 
BRANCH  22  23
ATOM     23  C   UNL     1      17.579 -36.644  20.235  1.00  0.00     0.000 C 
BRANCH  23  24
ATOM     24  C   UNL     1      17.979 -35.299  19.592  1.00  0.00    -0.000 C 
BRANCH  24  25
ATOM     25  C   UNL     1      16.810 -34.362  19.237  1.00  0.00    -0.000 C 
BRANCH  25  26
ATOM     26  C   UNL     1      15.495 -34.754  19.930  1.00  0.00    -0.000 C 
BRANCH  26  27
ATOM     27  C   UNL     1      15.020 -33.700  20.949  1.00  0.00    -0.000 C 
BRANCH  27  28
ATOM     28  C   UNL     1      15.262 -34.069  22.426  1.00  0.00    -0.000 C 
BRANCH  28  29
ATOM     29  C   UNL     1      14.585 -33.131  23.443  1.00  0.00    -0.000 C 
BRANCH  29  30
ATOM     30  C   UNL     1      14.238 -31.741  22.865  1.00  0.00    -0.000 C 
BRANCH  30  31
ATOM     31  C   UNL     1      15.196 -30.629  23.324  1.00  0.00    -0.003 C 
ATOM     32  C   UNL     1      14.708 -29.239  22.916  1.00  0.00     0.004 C 
ENDBRANCH  30  31
ENDBRANCH  29  30
ENDBRANCH  28  29
ENDBRANCH  27  28
ENDBRANCH  26  27
ENDBRANCH  25  26
ENDBRANCH  24  25
ENDBRANCH  23  24
ENDBRANCH  22  23
ENDBRANCH  21  22
ENDBRANCH  20  21
ENDBRANCH  19  20
ENDBRANCH  18  19
ENDBRANCH   1  18
TORSDOF 28
ENDMDL
MODEL 7
REMARK VINA RESULT:    -4.849      2.035      4.070
REMARK INTER + INTRA:         -18.073
REMARK INTER:                 -13.512
REMARK INTRA:                  -4.560
REMARK UNBOUND:                -5.287
REMARK SMILES CCCCCCCCCCCCCCCCCCCCCCCCCCCCCC(=O)[O-]
REMARK SMILES IDX 16 1 17 2 18 3 19 4 20 5 21 6 22 7 23 8 24 9 25 10 26 11
REMARK SMILES IDX 27 12 28 13 29 14 30 15 31 16 32 17 15 18 14 19 13 20 12 21
REMARK SMILES IDX 11 22 10 23 9 24 8 25 7 26 6 27 5 28 4 29 3 30 2 31 1 32
REMARK H PARENT
REMARK Flexibility Score: inf
ROOT
ATOM      1  C   UNL     1      16.879 -30.205  23.264  1.00  0.00     0.000 C 
ENDROOT
BRANCH   1   2
ATOM      2  C   UNL     1      17.763 -31.370  22.765  1.00  0.00     0.000 C 
BRANCH   2   3
ATOM      3  C   UNL     1      18.017 -31.364  21.245  1.00  0.00     0.000 C 
BRANCH   3   4
ATOM      4  C   UNL     1      19.312 -32.058  20.791  1.00  0.00     0.000 C 
BRANCH   4   5
ATOM      5  C   UNL     1      20.618 -31.446  21.337  1.00  0.00     0.000 C 
BRANCH   5   6
ATOM      6  C   UNL     1      21.142 -30.241  20.527  1.00  0.00     0.000 C 
BRANCH   6   7
ATOM      7  C   UNL     1      21.029 -28.914  21.300  1.00  0.00     0.000 C 
BRANCH   7   8
ATOM      8  C   UNL     1      19.806 -28.088  20.871  1.00  0.00     0.000 C 
BRANCH   8   9
ATOM      9  C   UNL     1      20.074 -26.575  20.928  1.00  0.00     0.000 C 
BRANCH   9  10
ATOM     10  C   UNL     1      21.342 -26.213  20.147  1.00  0.00     0.000 C 
BRANCH  10  11
ATOM     11  C   UNL     1      22.214 -25.230  20.939  1.00  0.00     0.000 C 
BRANCH  11  12
ATOM     12  C   UNL     1      21.814 -25.212  22.421  1.00  0.00     0.000 C 
BRANCH  12  13
ATOM     13  C   UNL     1      21.605 -23.787  22.960  1.00  0.00     0.006 C 
BRANCH  13  14
ATOM     14  C   UNL     1      20.210 -23.235  22.640  1.00  0.00     0.053 C 
BRANCH  14  15
ATOM     15  C   UNL     1      20.024 -21.889  23.266  1.00  0.00     0.041 C 
ATOM     16  O   UNL     1      19.521 -21.789  24.416  1.00  0.00    -0.550 OA
ATOM     17  O   UNL     1      20.450 -20.746  22.598  1.00  0.00    -0.550 OA
ENDBRANCH  14  15
ENDBRANCH  13  14
ENDBRANCH  12  13
ENDBRANCH  11  12
ENDBRANCH  10  11
ENDBRANCH   9  10
ENDBRANCH   8   9
ENDBRANCH   7   8
ENDBRANCH   6   7
ENDBRANCH   5   6
ENDBRANCH   4   5
ENDBRANCH   3   4
ENDBRANCH   2   3
ENDBRANCH   1   2
BRANCH   1  18
ATOM     18  C   UNL     1      16.031 -29.516  22.172  1.00  0.00     0.000 C 
BRANCH  18  19
ATOM     19  C   UNL     1      14.545 -29.295  22.522  1.00  0.00     0.000 C 
BRANCH  19  20
ATOM     20  C   UNL     1      13.703 -30.578  22.664  1.00  0.00     0.000 C 
BRANCH  20  21
ATOM     21  C   UNL     1      13.500 -31.371  21.360  1.00  0.00     0.000 C 
BRANCH  21  22
ATOM     22  C   UNL     1      14.338 -32.660  21.312  1.00  0.00     0.000 C 
BRANCH  22  23
ATOM     23  C   UNL     1      14.641 -33.229  22.710  1.00  0.00     0.000 C 
BRANCH  23  24
ATOM     24  C   UNL     1      15.718 -34.333  22.756  1.00  0.00    -0.000 C 
BRANCH  24  25
ATOM     25  C   UNL     1      16.534 -34.406  24.061  1.00  0.00    -0.000 C 
BRANCH  25  26
ATOM     26  C   UNL     1      17.520 -35.586  24.086  1.00  0.00    -0.000 C 
BRANCH  26  27
ATOM     27  C   UNL     1      18.887 -35.235  23.468  1.00  0.00    -0.000 C 
BRANCH  27  28
ATOM     28  C   UNL     1      19.010 -35.521  21.959  1.00  0.00    -0.000 C 
BRANCH  28  29
ATOM     29  C   UNL     1      18.253 -36.772  21.476  1.00  0.00    -0.000 C 
BRANCH  29  30
ATOM     30  C   UNL     1      17.609 -36.604  20.081  1.00  0.00    -0.000 C 
BRANCH  30  31
ATOM     31  C   UNL     1      17.999 -35.291  19.380  1.00  0.00    -0.003 C 
ATOM     32  C   UNL     1      16.797 -34.372  19.163  1.00  0.00     0.004 C 
ENDBRANCH  30  31
ENDBRANCH  29  30
ENDBRANCH  28  29
ENDBRANCH  27  28
ENDBRANCH  26  27
ENDBRANCH  25  26
ENDBRANCH  24  25
ENDBRANCH  23  24
ENDBRANCH  22  23
ENDBRANCH  21  22
ENDBRANCH  20  21
ENDBRANCH  19  20
ENDBRANCH  18  19
ENDBRANCH   1  18
TORSDOF 28
ENDMDL
MODEL 8
REMARK VINA RESULT:    -4.800      1.433      2.531
REMARK INTER + INTRA:         -17.945
REMARK INTER:                 -13.046
REMARK INTRA:                  -4.898
REMARK UNBOUND:                -5.287
REMARK SMILES CCCCCCCCCCCCCCCCCCCCCCCCCCCCCC(=O)[O-]
REMARK SMILES IDX 16 1 17 2 18 3 19 4 20 5 21 6 22 7 23 8 24 9 25 10 26 11
REMARK SMILES IDX 27 12 28 13 29 14 30 15 31 16 32 17 15 18 14 19 13 20 12 21
REMARK SMILES IDX 11 22 10 23 9 24 8 25 7 26 6 27 5 28 4 29 3 30 2 31 1 32
REMARK H PARENT
REMARK Flexibility Score: inf
ROOT
ATOM      1  C   UNL     1      15.331 -29.313  23.051  1.00  0.00     0.000 C 
ENDROOT
BRANCH   1   2
ATOM      2  C   UNL     1      16.181 -29.398  21.763  1.00  0.00     0.000 C 
BRANCH   2   3
ATOM      3  C   UNL     1      17.541 -30.099  21.949  1.00  0.00     0.000 C 
BRANCH   3   4
ATOM      4  C   UNL     1      17.779 -31.322  21.047  1.00  0.00     0.000 C 
BRANCH   4   5
ATOM      5  C   UNL     1      18.470 -32.522  21.726  1.00  0.00     0.000 C 
BRANCH   5   6
ATOM      6  C   UNL     1      18.548 -32.423  23.264  1.00  0.00     0.000 C 
BRANCH   6   7
ATOM      7  C   UNL     1      19.779 -33.146  23.843  1.00  0.00     0.000 C 
BRANCH   7   8
ATOM      8  C   UNL     1      21.083 -32.371  23.597  1.00  0.00     0.000 C 
BRANCH   8   9
ATOM      9  C   UNL     1      20.961 -30.886  23.973  1.00  0.00     0.000 C 
BRANCH   9  10
ATOM     10  C   UNL     1      21.728 -30.003  22.982  1.00  0.00     0.000 C 
BRANCH  10  11
ATOM     11  C   UNL     1      21.318 -30.316  21.537  1.00  0.00     0.000 C 
BRANCH  11  12
ATOM     12  C   UNL     1      20.987 -29.029  20.768  1.00  0.00     0.000 C 
BRANCH  12  13
ATOM     13  C   UNL     1      21.709 -27.798  21.338  1.00  0.00     0.006 C 
BRANCH  13  14
ATOM     14  C   UNL     1      22.613 -27.114  20.303  1.00  0.00     0.053 C 
BRANCH  14  15
ATOM     15  C   UNL     1      22.178 -25.700  20.083  1.00  0.00     0.041 C 
ATOM     16  O   UNL     1      20.979 -25.443  19.796  1.00  0.00    -0.550 OA
ATOM     17  O   UNL     1      23.086 -24.660  20.240  1.00  0.00    -0.550 OA
ENDBRANCH  14  15
ENDBRANCH  13  14
ENDBRANCH  12  13
ENDBRANCH  11  12
ENDBRANCH  10  11
ENDBRANCH   9  10
ENDBRANCH   8   9
ENDBRANCH   7   8
ENDBRANCH   6   7
ENDBRANCH   5   6
ENDBRANCH   4   5
ENDBRANCH   3   4
ENDBRANCH   2   3
ENDBRANCH   1   2
BRANCH   1  18
ATOM     18  C   UNL     1      13.836 -29.653  22.869  1.00  0.00     0.000 C 
BRANCH  18  19
ATOM     19  C   UNL     1      13.437 -31.107  23.198  1.00  0.00     0.000 C 
BRANCH  19  20
ATOM     20  C   UNL     1      14.091 -32.187  22.314  1.00  0.00     0.000 C 
BRANCH  20  21
ATOM     21  C   UNL     1      14.886 -33.261  23.080  1.00  0.00     0.000 C 
BRANCH  21  22
ATOM     22  C   UNL     1      15.470 -34.340  22.153  1.00  0.00     0.000 C 
BRANCH  22  23
ATOM     23  C   UNL     1      15.040 -34.167  20.686  1.00  0.00     0.000 C 
BRANCH  23  24
ATOM     24  C   UNL     1      16.121 -34.498  19.635  1.00  0.00    -0.000 C 
BRANCH  24  25
ATOM     25  C   UNL     1      16.674 -35.934  19.686  1.00  0.00    -0.000 C 
BRANCH  25  26
ATOM     26  C   UNL     1      18.112 -36.005  20.225  1.00  0.00    -0.000 C 
BRANCH  26  27
ATOM     27  C   UNL     1      18.261 -36.985  21.403  1.00  0.00    -0.000 C 
BRANCH  27  28
ATOM     28  C   UNL     1      19.250 -36.541  22.498  1.00  0.00    -0.000 C 
BRANCH  28  29
ATOM     29  C   UNL     1      18.811 -36.872  23.936  1.00  0.00    -0.000 C 
BRANCH  29  30
ATOM     30  C   UNL     1      17.754 -35.895  24.499  1.00  0.00    -0.000 C 
BRANCH  30  31
ATOM     31  C   UNL     1      17.143 -36.354  25.834  1.00  0.00    -0.003 C 
ATOM     32  C   UNL     1      17.897 -37.538  26.439  1.00  0.00     0.004 C 
ENDBRANCH  30  31
ENDBRANCH  29  30
ENDBRANCH  28  29
ENDBRANCH  27  28
ENDBRANCH  26  27
ENDBRANCH  25  26
ENDBRANCH  24  25
ENDBRANCH  23  24
ENDBRANCH  22  23
ENDBRANCH  21  22
ENDBRANCH  20  21
ENDBRANCH  19  20
ENDBRANCH  18  19
ENDBRANCH   1  18
TORSDOF 28
ENDMDL
MODEL 9
REMARK VINA RESULT:    -4.768      1.346      4.573
REMARK INTER + INTRA:         -17.861
REMARK INTER:                 -13.544
REMARK INTRA:                  -4.317
REMARK UNBOUND:                -5.287
REMARK SMILES CCCCCCCCCCCCCCCCCCCCCCCCCCCCCC(=O)[O-]
REMARK SMILES IDX 16 1 17 2 18 3 19 4 20 5 21 6 22 7 23 8 24 9 25 10 26 11
REMARK SMILES IDX 27 12 28 13 29 14 30 15 31 16 32 17 15 18 14 19 13 20 12 21
REMARK SMILES IDX 11 22 10 23 9 24 8 25 7 26 6 27 5 28 4 29 3 30 2 31 1 32
REMARK H PARENT
REMARK Flexibility Score: inf
ROOT
ATOM      1  C   UNL     1      16.682 -34.766  24.074  1.00  0.00     0.000 C 
ENDROOT
BRANCH   1   2
ATOM      2  C   UNL     1      17.267 -35.429  25.342  1.00  0.00     0.000 C 
BRANCH   2   3
ATOM      3  C   UNL     1      18.793 -35.640  25.297  1.00  0.00     0.000 C 
BRANCH   3   4
ATOM      4  C   UNL     1      19.429 -35.553  23.900  1.00  0.00     0.000 C 
BRANCH   4   5
ATOM      5  C   UNL     1      20.140 -34.223  23.576  1.00  0.00     0.000 C 
BRANCH   5   6
ATOM      6  C   UNL     1      20.041 -33.162  24.692  1.00  0.00     0.000 C 
BRANCH   6   7
ATOM      7  C   UNL     1      19.777 -31.748  24.144  1.00  0.00     0.000 C 
BRANCH   7   8
ATOM      8  C   UNL     1      21.005 -30.832  24.268  1.00  0.00     0.000 C 
BRANCH   8   9
ATOM      9  C   UNL     1      21.657 -30.541  22.907  1.00  0.00     0.000 C 
BRANCH   9  10
ATOM     10  C   UNL     1      20.593 -30.266  21.837  1.00  0.00     0.000 C 
BRANCH  10  11
ATOM     11  C   UNL     1      21.032 -29.128  20.907  1.00  0.00     0.000 C 
BRANCH  11  12
ATOM     12  C   UNL     1      19.904 -28.101  20.724  1.00  0.00     0.000 C 
BRANCH  12  13
ATOM     13  C   UNL     1      20.434 -26.674  20.512  1.00  0.00     0.006 C 
BRANCH  13  14
ATOM     14  C   UNL     1      21.853 -26.484  21.062  1.00  0.00     0.053 C 
BRANCH  14  15
ATOM     15  C   UNL     1      22.770 -25.996  19.985  1.00  0.00     0.041 C 
ATOM     16  O   UNL     1      22.853 -24.765  19.733  1.00  0.00    -0.550 OA
ATOM     17  O   UNL     1      23.568 -26.897  19.290  1.00  0.00    -0.550 OA
ENDBRANCH  14  15
ENDBRANCH  13  14
ENDBRANCH  12  13
ENDBRANCH  11  12
ENDBRANCH  10  11
ENDBRANCH   9  10
ENDBRANCH   8   9
ENDBRANCH   7   8
ENDBRANCH   6   7
ENDBRANCH   5   6
ENDBRANCH   4   5
ENDBRANCH   3   4
ENDBRANCH   2   3
ENDBRANCH   1   2
BRANCH   1  18
ATOM     18  C   UNL     1      16.054 -33.373  24.297  1.00  0.00     0.000 C 
BRANCH  18  19
ATOM     19  C   UNL     1      14.623 -33.190  23.749  1.00  0.00     0.000 C 
BRANCH  19  20
ATOM     20  C   UNL     1      13.945 -31.854  24.107  1.00  0.00     0.000 C 
BRANCH  20  21
ATOM     21  C   UNL     1      13.133 -31.211  22.968  1.00  0.00     0.000 C 
BRANCH  21  22
ATOM     22  C   UNL     1      13.333 -29.688  22.883  1.00  0.00     0.000 C 
BRANCH  22  23
ATOM     23  C   UNL     1      14.794 -29.262  23.113  1.00  0.00     0.000 C 
BRANCH  23  24
ATOM     24  C   UNL     1      15.734 -29.438  21.902  1.00  0.00    -0.000 C 
BRANCH  24  25
ATOM     25  C   UNL     1      16.876 -30.453  22.093  1.00  0.00    -0.000 C 
BRANCH  25  26
ATOM     26  C   UNL     1      16.729 -31.696  21.200  1.00  0.00    -0.000 C 
BRANCH  26  27
ATOM     27  C   UNL     1      18.076 -32.191  20.639  1.00  0.00    -0.000 C 
BRANCH  27  28
ATOM     28  C   UNL     1      18.224 -33.723  20.563  1.00  0.00    -0.000 C 
BRANCH  28  29
ATOM     29  C   UNL     1      17.709 -34.357  19.257  1.00  0.00    -0.000 C 
BRANCH  29  30
ATOM     30  C   UNL     1      16.808 -35.592  19.484  1.00  0.00    -0.000 C 
BRANCH  30  31
ATOM     31  C   UNL     1      17.581 -36.921  19.491  1.00  0.00    -0.003 C 
ATOM     32  C   UNL     1      17.945 -37.372  20.905  1.00  0.00     0.004 C 
ENDBRANCH  30  31
ENDBRANCH  29  30
ENDBRANCH  28  29
ENDBRANCH  27  28
ENDBRANCH  26  27
ENDBRANCH  25  26
ENDBRANCH  24  25
ENDBRANCH  23  24
ENDBRANCH  22  23
ENDBRANCH  21  22
ENDBRANCH  20  21
ENDBRANCH  19  20
ENDBRANCH  18  19
ENDBRANCH   1  18
TORSDOF 28
ENDMDL
