MODEL 1
REMARK VINA RESULT:     2.244      0.000      0.000
REMARK INTER + INTRA:           7.036
REMARK INTER:                   5.129
REMARK INTRA:                   1.906
REMARK UNBOUND:                 1.906
REMARK SMILES CCCCCCCCCCCCCCCCCCCCCCCC(=O)[O-]
REMARK SMILES IDX 13 1 14 2 15 3 16 4 17 5 18 6 19 7 20 8 21 9 22 10 23 11
REMARK SMILES IDX 24 12 25 13 26 14 12 15 11 16 10 17 9 18 8 19 7 20 6 21 5 22
REMARK SMILES IDX 4 23 3 24 2 25 1 26
REMARK H PARENT
REMARK Flexibility Score: inf
ROOT
ATOM      1  C   UNL     1       5.125 -34.984  23.825  1.00  0.00     0.000 C 
ENDROOT
BRANCH   1   2
ATOM      2  C   UNL     1       5.089 -36.144  24.836  1.00  0.00     0.000 C 
BRANCH   2   3
ATOM      3  C   UNL     1       5.023 -37.555  24.218  1.00  0.00     0.000 C 
BRANCH   3   4
ATOM      4  C   UNL     1       4.790 -38.659  25.264  1.00  0.00     0.000 C 
BRANCH   4   5
ATOM      5  C   UNL     1       5.082 -40.071  24.721  1.00  0.00     0.000 C 
BRANCH   5   6
ATOM      6  C   UNL     1       5.032 -40.209  23.186  1.00  0.00     0.000 C 
BRANCH   6   7
ATOM      7  C   UNL     1       4.835 -38.890  22.412  1.00  0.00     0.000 C 
BRANCH   7   8
ATOM      8  C   UNL     1       4.792 -39.034  20.879  1.00  0.00     0.000 C 
BRANCH   8   9
ATOM      9  C   UNL     1       4.720 -37.680  20.154  1.00  0.00     0.000 C 
BRANCH   9  10
ATOM     10  C   UNL     1       3.845 -37.737  18.884  1.00  0.00     0.006 C 
BRANCH  10  11
ATOM     11  C   UNL     1       2.540 -36.931  18.998  1.00  0.00     0.053 C 
BRANCH  11  12
ATOM     12  C   UNL     1       1.340 -37.809  19.161  1.00  0.00     0.041 C 
ATOM     13  O   UNL     1       0.215 -37.305  19.419  1.00  0.00    -0.550 OA
ATOM     14  O   UNL     1       1.461 -39.187  19.022  1.00  0.00    -0.550 OA
ENDBRANCH  11  12
ENDBRANCH  10  11
ENDBRANCH   9  10
ENDBRANCH   8   9
ENDBRANCH   7   8
ENDBRANCH   6   7
ENDBRANCH   5   6
ENDBRANCH   4   5
ENDBRANCH   3   4
ENDBRANCH   2   3
ENDBRANCH   1   2
BRANCH   1  15
ATOM     15  C   UNL     1       4.783 -35.421  22.393  1.00  0.00     0.000 C 
BRANCH  15  16
ATOM     16  C   UNL     1       4.192 -34.253  21.592  1.00  0.00     0.000 C 
BRANCH  16  17
ATOM     17  C   UNL     1       5.125 -33.777  20.467  1.00  0.00     0.000 C 
BRANCH  17  18
ATOM     18  C   UNL     1       5.125 -34.731  19.258  1.00  0.00    -0.000 C 
BRANCH  18  19
ATOM     19  C   UNL     1       4.016 -34.385  18.243  1.00  0.00    -0.000 C 
BRANCH  19  20
ATOM     20  C   UNL     1       3.961 -35.337  17.034  1.00  0.00    -0.000 C 
BRANCH  20  21
ATOM     21  C   UNL     1       2.846 -34.982  16.041  1.00  0.00    -0.000 C 
BRANCH  21  22
ATOM     22  C   UNL     1       2.202 -36.245  15.453  1.00  0.00    -0.000 C 
BRANCH  22  23
ATOM     23  C   UNL     1       2.704 -36.565  14.032  1.00  0.00    -0.000 C 
BRANCH  23  24
ATOM     24  C   UNL     1       4.150 -37.097  13.956  1.00  0.00    -0.000 C 
BRANCH  24  25
ATOM     25  C   UNL     1       4.426 -38.350  14.805  1.00  0.00    -0.003 C 
ATOM     26  C   UNL     1       4.707 -39.592  13.958  1.00  0.00     0.004 C 
ENDBRANCH  24  25
ENDBRANCH  23  24
ENDBRANCH  22  23
ENDBRANCH  21  22
ENDBRANCH  20  21
ENDBRANCH  19  20
ENDBRANCH  18  19
ENDBRANCH  17  18
ENDBRANCH  16  17
ENDBRANCH  15  16
ENDBRANCH   1  15
TORSDOF 22
ENDMDL
MODEL 2
REMARK VINA RESULT:     3.868      2.586      8.378
REMARK INTER + INTRA:          10.749
REMARK INTER:                  10.241
REMARK INTRA:                   0.508
REMARK UNBOUND:                 1.906
REMARK SMILES CCCCCCCCCCCCCCCCCCCCCCCC(=O)[O-]
REMARK SMILES IDX 13 1 14 2 15 3 16 4 17 5 18 6 19 7 20 8 21 9 22 10 23 11
REMARK SMILES IDX 24 12 25 13 26 14 12 15 11 16 10 17 9 18 8 19 7 20 6 21 5 22
REMARK SMILES IDX 4 23 3 24 2 25 1 26
REMARK H PARENT
REMARK Flexibility Score: inf
ROOT
ATOM      1  C   UNL     1       3.934 -37.724  21.201  1.00  0.00     0.000 C 
ENDROOT
BRANCH   1   2
ATOM      2  C   UNL     1       4.309 -36.236  21.329  1.00  0.00     0.000 C 
BRANCH   2   3
ATOM      3  C   UNL     1       5.117 -35.656  20.151  1.00  0.00     0.000 C 
BRANCH   3   4
ATOM      4  C   UNL     1       4.635 -34.259  19.721  1.00  0.00     0.000 C 
BRANCH   4   5
ATOM      5  C   UNL     1       5.082 -33.884  18.295  1.00  0.00     0.000 C 
BRANCH   5   6
ATOM      6  C   UNL     1       4.855 -34.972  17.226  1.00  0.00     0.000 C 
BRANCH   6   7
ATOM      7  C   UNL     1       3.450 -34.987  16.591  1.00  0.00     0.000 C 
BRANCH   7   8
ATOM      8  C   UNL     1       3.207 -36.120  15.576  1.00  0.00     0.000 C 
BRANCH   8   9
ATOM      9  C   UNL     1       2.573 -37.368  16.215  1.00  0.00     0.000 C 
BRANCH   9  10
ATOM     10  C   UNL     1       3.090 -37.623  17.646  1.00  0.00     0.006 C 
BRANCH  10  11
ATOM     11  C   UNL     1       2.154 -37.091  18.744  1.00  0.00     0.053 C 
BRANCH  11  12
ATOM     12  C   UNL     1       0.799 -37.724  18.693  1.00  0.00     0.041 C 
ATOM     13  O   UNL     1      -0.220 -37.025  18.449  1.00  0.00    -0.550 OA
ATOM     14  O   UNL     1       0.661 -39.091  18.907  1.00  0.00    -0.550 OA
ENDBRANCH  11  12
ENDBRANCH  10  11
ENDBRANCH   9  10
ENDBRANCH   8   9
ENDBRANCH   7   8
ENDBRANCH   6   7
ENDBRANCH   5   6
ENDBRANCH   4   5
ENDBRANCH   3   4
ENDBRANCH   2   3
ENDBRANCH   1   2
BRANCH   1  15
ATOM     15  C   UNL     1       5.092 -38.670  21.552  1.00  0.00     0.000 C 
BRANCH  15  16
ATOM     16  C   UNL     1       4.789 -39.448  22.840  1.00  0.00     0.000 C 
BRANCH  16  17
ATOM     17  C   UNL     1       5.125 -38.644  24.107  1.00  0.00     0.000 C 
BRANCH  17  18
ATOM     18  C   UNL     1       4.792 -37.148  23.961  1.00  0.00    -0.000 C 
BRANCH  18  19
ATOM     19  C   UNL     1       5.034 -36.367  25.269  1.00  0.00    -0.000 C 
BRANCH  19  20
ATOM     20  C   UNL     1       4.380 -37.009  26.506  1.00  0.00    -0.000 C 
BRANCH  20  21
ATOM     21  C   UNL     1       3.072 -37.743  26.180  1.00  0.00    -0.000 C 
BRANCH  21  22
ATOM     22  C   UNL     1       1.930 -37.273  27.093  1.00  0.00    -0.000 C 
BRANCH  22  23
ATOM     23  C   UNL     1       2.319 -36.060  27.960  1.00  0.00    -0.000 C 
BRANCH  23  24
ATOM     24  C   UNL     1       1.142 -35.361  28.670  1.00  0.00    -0.000 C 
BRANCH  24  25
ATOM     25  C   UNL     1       1.392 -33.889  29.043  1.00  0.00    -0.003 C 
ATOM     26  C   UNL     1       1.954 -33.721  30.454  1.00  0.00     0.004 C 
ENDBRANCH  24  25
ENDBRANCH  23  24
ENDBRANCH  22  23
ENDBRANCH  21  22
ENDBRANCH  20  21
ENDBRANCH  19  20
ENDBRANCH  18  19
ENDBRANCH  17  18
ENDBRANCH  16  17
ENDBRANCH  15  16
ENDBRANCH   1  15
TORSDOF 22
ENDMDL
MODEL 3
REMARK VINA RESULT:     5.243      4.019      5.745
REMARK INTER + INTRA:          13.893
REMARK INTER:                  14.705
REMARK INTRA:                  -0.812
REMARK UNBOUND:                 1.906
REMARK SMILES CCCCCCCCCCCCCCCCCCCCCCCC(=O)[O-]
REMARK SMILES IDX 13 1 14 2 15 3 16 4 17 5 18 6 19 7 20 8 21 9 22 10 23 11
REMARK SMILES IDX 24 12 25 13 26 14 12 15 11 16 10 17 9 18 8 19 7 20 6 21 5 22
REMARK SMILES IDX 4 23 3 24 2 25 1 26
REMARK H PARENT
REMARK Flexibility Score: inf
ROOT
ATOM      1  C   UNL     1       3.252 -38.088  21.375  1.00  0.00     0.000 C 
ENDROOT
BRANCH   1   2
ATOM      2  C   UNL     1       4.684 -38.429  21.826  1.00  0.00     0.000 C 
BRANCH   2   3
ATOM      3  C   UNL     1       5.006 -38.111  23.299  1.00  0.00     0.000 C 
BRANCH   3   4
ATOM      4  C   UNL     1       5.069 -36.601  23.589  1.00  0.00     0.000 C 
BRANCH   4   5
ATOM      5  C   UNL     1       4.816 -36.265  25.070  1.00  0.00     0.000 C 
BRANCH   5   6
ATOM      6  C   UNL     1       4.943 -37.451  26.047  1.00  0.00     0.000 C 
BRANCH   6   7
ATOM      7  C   UNL     1       3.626 -38.191  26.358  1.00  0.00     0.000 C 
BRANCH   7   8
ATOM      8  C   UNL     1       2.502 -37.307  26.930  1.00  0.00     0.000 C 
BRANCH   8   9
ATOM      9  C   UNL     1       3.027 -36.204  27.865  1.00  0.00     0.000 C 
BRANCH   9  10
ATOM     10  C   UNL     1       2.139 -34.942  27.843  1.00  0.00     0.006 C 
BRANCH  10  11
ATOM     11  C   UNL     1       0.949 -35.009  28.815  1.00  0.00     0.053 C 
BRANCH  11  12
ATOM     12  C   UNL     1       1.043 -33.984  29.901  1.00  0.00     0.041 C 
ATOM     13  O   UNL     1       0.328 -32.947  29.858  1.00  0.00    -0.550 OA
ATOM     14  O   UNL     1       1.915 -34.176  30.966  1.00  0.00    -0.550 OA
ENDBRANCH  11  12
ENDBRANCH  10  11
ENDBRANCH   9  10
ENDBRANCH   8   9
ENDBRANCH   7   8
ENDBRANCH   6   7
ENDBRANCH   5   6
ENDBRANCH   4   5
ENDBRANCH   3   4
ENDBRANCH   2   3
ENDBRANCH   1   2
BRANCH   1  15
ATOM     15  C   UNL     1       3.152 -37.762  19.878  1.00  0.00     0.000 C 
BRANCH  15  16
ATOM     16  C   UNL     1       4.468 -37.164  19.360  1.00  0.00     0.000 C 
BRANCH  16  17
ATOM     17  C   UNL     1       4.913 -35.933  20.167  1.00  0.00     0.000 C 
BRANCH  17  18
ATOM     18  C   UNL     1       4.973 -34.656  19.309  1.00  0.00    -0.000 C 
BRANCH  18  19
ATOM     19  C   UNL     1       4.799 -34.956  17.806  1.00  0.00    -0.000 C 
BRANCH  19  20
ATOM     20  C   UNL     1       3.348 -34.819  17.309  1.00  0.00    -0.000 C 
BRANCH  20  21
ATOM     21  C   UNL     1       2.836 -36.079  16.598  1.00  0.00    -0.000 C 
BRANCH  21  22
ATOM     22  C   UNL     1       2.272 -35.742  15.210  1.00  0.00    -0.000 C 
BRANCH  22  23
ATOM     23  C   UNL     1       2.838 -36.648  14.100  1.00  0.00    -0.000 C 
BRANCH  23  24
ATOM     24  C   UNL     1       4.360 -36.534  13.879  1.00  0.00    -0.000 C 
BRANCH  24  25
ATOM     25  C   UNL     1       5.118 -37.873  13.884  1.00  0.00    -0.003 C 
ATOM     26  C   UNL     1       4.313 -39.010  14.514  1.00  0.00     0.004 C 
ENDBRANCH  24  25
ENDBRANCH  23  24
ENDBRANCH  22  23
ENDBRANCH  21  22
ENDBRANCH  20  21
ENDBRANCH  19  20
ENDBRANCH  18  19
ENDBRANCH  17  18
ENDBRANCH  16  17
ENDBRANCH  15  16
ENDBRANCH   1  15
TORSDOF 22
ENDMDL
