MODEL 1
REMARK VINA RESULT:    -8.406      0.000      0.000
REMARK INTER + INTRA:         -16.014
REMARK INTER:                 -13.812
REMARK INTRA:                  -2.202
REMARK UNBOUND:                -2.202
REMARK SMILES C[C@@H]1O[C@H](OC[C@H]2O[C@H](Oc3c(-c4ccc(O)c(O)c4)oc4cc(O)cc(O)c4c3=O)[C@@H](O)[C@H](O)[C@@H]2O)[C@H](O)[C@@H](O)[C@@H]1O
REMARK SMILES IDX 7 1 36 2 34 3 32 4 9 5 8 6 6 7 5 8 4 9 1 10 2 11 42 12 3 13
REMARK SMILES IDX 40 14 38 15 43 16 41 18 39 20 37 22 35 24 10 26 11 27 12 28
REMARK SMILES IDX 30 29 21 30 29 31 31 32 22 33 27 34 23 35 26 36 24 37 13 38
REMARK SMILES IDX 20 39 14 40 18 41 15 42 16 43 19 44 17 46 28 48 25 50 33 52
REMARK H PARENT 43 17 41 19 39 21 37 23 35 25 19 45 17 47 28 49 25 51 33 53
REMARK Flexibility Score: inf
ROOT
ATOM      1  C   UNL     1       6.670 -34.704  40.726  1.00  0.00     0.180 C 
ATOM      2  C   UNL     1       7.998 -34.719  39.939  1.00  0.00     0.177 C 
ATOM      3  C   UNL     1       8.171 -36.021  39.122  1.00  0.00     0.180 C 
ATOM      4  C   UNL     1       7.287 -37.162  39.671  1.00  0.00     0.214 C 
ATOM      5  C   UNL     1       5.820 -36.672  39.728  1.00  0.00     0.339 C 
ATOM      6  O   UNL     1       5.613 -35.292  40.006  1.00  0.00    -0.332 OA
ENDROOT
BRANCH   1   7
ATOM      7  C   UNL     1       6.229 -33.305  41.198  1.00  0.00     0.198 C 
BRANCH   7   8
ATOM      8  O   UNL     1       7.310 -32.662  41.838  1.00  0.00    -0.347 OA
BRANCH   8   9
ATOM      9  C   UNL     1       7.329 -32.878  43.239  1.00  0.00     0.281 C 
ATOM     10  C   UNL     1       9.564 -34.805  45.416  1.00  0.00     0.041 C 
ATOM     11  C   UNL     1       8.248 -34.165  44.950  1.00  0.00     0.150 C 
ATOM     12  C   UNL     1       7.760 -33.064  45.952  1.00  0.00     0.174 C 
ATOM     13  O   UNL     1       8.442 -33.674  43.623  1.00  0.00    -0.344 OA
ATOM     14  C   UNL     1       8.030 -31.656  45.380  1.00  0.00     0.179 C 
ATOM     15  C   UNL     1       7.437 -31.516  43.962  1.00  0.00     0.202 C 
BRANCH  12  16
ATOM     16  O   UNL     1       8.374 -33.195  47.216  1.00  0.00    -0.388 OA
ATOM     17  H   UNL     1       7.655 -33.276  47.903  1.00  0.00     0.211 HD
ENDBRANCH  12  16
BRANCH  14  18
ATOM     18  O   UNL     1       7.488 -30.647  46.205  1.00  0.00    -0.387 OA
ATOM     19  H   UNL     1       6.656 -30.334  45.785  1.00  0.00     0.211 HD
ENDBRANCH  14  18
BRANCH  15  20
ATOM     20  O   UNL     1       8.239 -30.636  43.201  1.00  0.00    -0.385 OA
ATOM     21  H   UNL     1       9.190 -30.894  43.379  1.00  0.00     0.211 HD
ENDBRANCH  15  20
ENDBRANCH   8   9
ENDBRANCH   7   8
ENDBRANCH   1   7
BRANCH   2  22
ATOM     22  O   UNL     1       9.059 -34.596  40.845  1.00  0.00    -0.387 OA
ATOM     23  H   UNL     1       8.901 -35.229  41.581  1.00  0.00     0.211 HD
ENDBRANCH   2  22
BRANCH   3  24
ATOM     24  O   UNL     1       9.519 -36.412  39.087  1.00  0.00    -0.387 OA
ATOM     25  H   UNL     1       9.795 -36.450  38.134  1.00  0.00     0.211 HD
ENDBRANCH   3  24
BRANCH   5  26
ATOM     26  O   UNL     1       4.895 -37.497  40.471  1.00  0.00    -0.454 OA
BRANCH  26  27
ATOM     27  C   UNL     1       3.547 -37.375  40.920  1.00  0.00     0.214 A 
ATOM     28  C   UNL     1       3.345 -37.509  42.303  1.00  0.00     0.180 A 
ATOM     29  C   UNL     1       2.406 -37.322  40.088  1.00  0.00     0.239 A 
ATOM     30  O   UNL     1       2.124 -37.691  42.799  1.00  0.00    -0.452 OA
ATOM     31  C   UNL     1       1.128 -37.549  40.645  1.00  0.00     0.111 A 
ATOM     32  O   UNL     1       2.498 -37.148  38.854  1.00  0.00    -0.285 OA
ATOM     33  C   UNL     1       1.038 -37.759  42.043  1.00  0.00     0.146 A 
ATOM     34  C   UNL     1      -0.047 -37.701  39.862  1.00  0.00     0.134 A 
ATOM     35  C   UNL     1      -0.187 -38.076  42.645  1.00  0.00     0.094 A 
ATOM     36  C   UNL     1      -1.242 -38.122  40.477  1.00  0.00     0.093 A 
ATOM     37  C   UNL     1      -1.297 -38.350  41.847  1.00  0.00     0.123 A 
BRANCH  28  38
ATOM     38  C   UNL     1       4.497 -37.603  43.217  1.00  0.00     0.025 A 
ATOM     39  C   UNL     1       4.695 -38.775  43.944  1.00  0.00     0.062 A 
ATOM     40  C   UNL     1       5.445 -36.576  43.296  1.00  0.00     0.016 A 
ATOM     41  C   UNL     1       5.861 -38.983  44.692  1.00  0.00     0.158 A 
ATOM     42  C   UNL     1       6.618 -36.765  44.036  1.00  0.00     0.051 A 
ATOM     43  C   UNL     1       6.852 -37.976  44.704  1.00  0.00     0.157 A 
BRANCH  41  44
ATOM     44  O   UNL     1       5.996 -40.199  45.358  1.00  0.00    -0.504 OA
ATOM     45  H   UNL     1       6.014 -41.095  44.898  1.00  0.00     0.293 HD
ENDBRANCH  41  44
BRANCH  43  46
ATOM     46  O   UNL     1       8.071 -38.131  45.362  1.00  0.00    -0.504 OA
ATOM     47  H   UNL     1       8.269 -37.716  46.262  1.00  0.00     0.293 HD
ENDBRANCH  43  46
ENDBRANCH  28  38
BRANCH  34  48
ATOM     48  O   UNL     1      -0.046 -37.477  38.484  1.00  0.00    -0.507 OA
ATOM     49  H   UNL     1      -0.021 -38.219  37.803  1.00  0.00     0.293 HD
ENDBRANCH  34  48
BRANCH  37  50
ATOM     50  O   UNL     1      -2.450 -38.874  42.418  1.00  0.00    -0.508 OA
ATOM     51  H   UNL     1      -3.010 -39.540  41.883  1.00  0.00     0.293 HD
ENDBRANCH  37  50
ENDBRANCH  26  27
ENDBRANCH   5  26
BRANCH   4  52
ATOM     52  O   UNL     1       7.358 -38.279  38.814  1.00  0.00    -0.384 OA
ATOM     53  H   UNL     1       6.426 -38.606  38.702  1.00  0.00     0.211 HD
ENDBRANCH   4  52
TORSDOF 16
ENDMDL
MODEL 2
REMARK VINA RESULT:    -8.396      1.492      8.793
REMARK INTER + INTRA:         -15.997
REMARK INTER:                 -13.431
REMARK INTRA:                  -2.566
REMARK UNBOUND:                -2.202
REMARK SMILES C[C@@H]1O[C@H](OC[C@H]2O[C@H](Oc3c(-c4ccc(O)c(O)c4)oc4cc(O)cc(O)c4c3=O)[C@@H](O)[C@H](O)[C@@H]2O)[C@H](O)[C@@H](O)[C@@H]1O
REMARK SMILES IDX 7 1 36 2 34 3 32 4 9 5 8 6 6 7 5 8 4 9 1 10 2 11 42 12 3 13
REMARK SMILES IDX 40 14 38 15 43 16 41 18 39 20 37 22 35 24 10 26 11 27 12 28
REMARK SMILES IDX 30 29 21 30 29 31 31 32 22 33 27 34 23 35 26 36 24 37 13 38
REMARK SMILES IDX 20 39 14 40 18 41 15 42 16 43 19 44 17 46 28 48 25 50 33 52
REMARK H PARENT 43 17 41 19 39 21 37 23 35 25 19 45 17 47 28 49 25 51 33 53
REMARK Flexibility Score: inf
ROOT
ATOM      1  C   UNL     1       4.404 -36.691  44.379  1.00  0.00     0.180 C 
ATOM      2  C   UNL     1       4.418 -38.139  44.916  1.00  0.00     0.177 C 
ATOM      3  C   UNL     1       5.836 -38.581  45.348  1.00  0.00     0.180 C 
ATOM      4  C   UNL     1       6.931 -37.720  44.682  1.00  0.00     0.214 C 
ATOM      5  C   UNL     1       6.643 -36.230  44.981  1.00  0.00     0.339 C 
ATOM      6  O   UNL     1       5.277 -35.846  45.089  1.00  0.00    -0.332 OA
ENDROOT
BRANCH   1   7
ATOM      7  C   UNL     1       3.007 -36.041  44.344  1.00  0.00     0.198 C 
BRANCH   7   8
ATOM      8  O   UNL     1       2.028 -37.040  44.156  1.00  0.00    -0.347 OA
BRANCH   8   9
ATOM      9  C   UNL     1       1.341 -36.914  42.922  1.00  0.00     0.281 C 
ATOM     10  C   UNL     1       2.287 -37.710  39.469  1.00  0.00     0.041 C 
ATOM     11  C   UNL     1       1.575 -36.959  40.605  1.00  0.00     0.150 C 
ATOM     12  C   UNL     1       0.020 -37.127  40.516  1.00  0.00     0.174 C 
ATOM     13  O   UNL     1       2.122 -37.411  41.844  1.00  0.00    -0.344 OA
ATOM     14  C   UNL     1      -0.477 -38.126  41.582  1.00  0.00     0.179 C 
ATOM     15  C   UNL     1       0.029 -37.729  42.985  1.00  0.00     0.202 C 
BRANCH  12  16
ATOM     16  O   UNL     1      -0.390 -37.549  39.233  1.00  0.00    -0.388 OA
ATOM     17  H   UNL     1      -0.476 -36.741  38.653  1.00  0.00     0.211 HD
ENDBRANCH  12  16
BRANCH  14  18
ATOM     18  O   UNL     1      -1.886 -38.202  41.607  1.00  0.00    -0.387 OA
ATOM     19  H   UNL     1      -2.195 -38.308  40.680  1.00  0.00     0.211 HD
ENDBRANCH  14  18
BRANCH  15  20
ATOM     20  O   UNL     1       0.229 -38.893  43.761  1.00  0.00    -0.385 OA
ATOM     21  H   UNL     1      -0.677 -39.293  43.909  1.00  0.00     0.211 HD
ENDBRANCH  15  20
ENDBRANCH   8   9
ENDBRANCH   7   8
ENDBRANCH   1   7
BRANCH   2  22
ATOM     22  O   UNL     1       3.950 -38.995  43.912  1.00  0.00    -0.387 OA
ATOM     23  H   UNL     1       4.444 -38.789  43.087  1.00  0.00     0.211 HD
ENDBRANCH   2  22
BRANCH   3  24
ATOM     24  O   UNL     1       6.039 -39.942  45.070  1.00  0.00    -0.387 OA
ATOM     25  H   UNL     1       5.594 -40.464  45.788  1.00  0.00     0.211 HD
ENDBRANCH   3  24
BRANCH   5  26
ATOM     26  O   UNL     1       7.395 -35.263  44.214  1.00  0.00    -0.454 OA
BRANCH  26  27
ATOM     27  C   UNL     1       7.301 -33.863  43.956  1.00  0.00     0.214 A 
ATOM     28  C   UNL     1       7.122 -33.496  42.612  1.00  0.00     0.180 A 
ATOM     29  C   UNL     1       7.559 -32.837  44.892  1.00  0.00     0.239 A 
ATOM     30  O   UNL     1       7.298 -32.237  42.221  1.00  0.00    -0.452 OA
ATOM     31  C   UNL     1       7.770 -31.517  44.437  1.00  0.00     0.111 A 
ATOM     32  O   UNL     1       7.675 -33.074  46.114  1.00  0.00    -0.285 OA
ATOM     33  C   UNL     1       7.649 -31.263  43.048  1.00  0.00     0.146 A 
ATOM     34  C   UNL     1       8.217 -30.464  45.279  1.00  0.00     0.134 A 
ATOM     35  C   UNL     1       7.931 -29.996  42.522  1.00  0.00     0.094 A 
ATOM     36  C   UNL     1       8.594 -29.232  44.711  1.00  0.00     0.093 A 
ATOM     37  C   UNL     1       8.494 -29.018  43.340  1.00  0.00     0.123 A 
BRANCH  28  38
ATOM     38  C   UNL     1       6.884 -34.526  41.586  1.00  0.00     0.025 A 
ATOM     39  C   UNL     1       7.972 -35.096  40.930  1.00  0.00     0.062 A 
ATOM     40  C   UNL     1       5.595 -35.006  41.327  1.00  0.00     0.016 A 
ATOM     41  C   UNL     1       7.816 -36.195  40.075  1.00  0.00     0.158 A 
ATOM     42  C   UNL     1       5.417 -36.104  40.478  1.00  0.00     0.051 A 
ATOM     43  C   UNL     1       6.522 -36.728  39.878  1.00  0.00     0.157 A 
BRANCH  41  44
ATOM     44  O   UNL     1       8.961 -36.729  39.489  1.00  0.00    -0.504 OA
ATOM     45  H   UNL     1       9.070 -37.701  39.248  1.00  0.00     0.293 HD
ENDBRANCH  41  44
BRANCH  43  46
ATOM     46  O   UNL     1       6.287 -37.862  39.102  1.00  0.00    -0.504 OA
ATOM     47  H   UNL     1       7.026 -38.473  38.782  1.00  0.00     0.293 HD
ENDBRANCH  43  46
ENDBRANCH  28  38
BRANCH  34  48
ATOM     48  O   UNL     1       8.328 -30.625  46.662  1.00  0.00    -0.507 OA
ATOM     49  H   UNL     1       7.720 -30.168  47.322  1.00  0.00     0.293 HD
ENDBRANCH  34  48
BRANCH  37  50
ATOM     50  O   UNL     1       8.976 -27.840  42.784  1.00  0.00    -0.508 OA
ATOM     51  H   UNL     1       9.980 -27.743  42.623  1.00  0.00     0.293 HD
ENDBRANCH  37  50
ENDBRANCH  26  27
ENDBRANCH   5  26
BRANCH   4  52
ATOM     52  O   UNL     1       8.193 -38.053  45.213  1.00  0.00    -0.384 OA
ATOM     53  H   UNL     1       8.066 -38.891  45.733  1.00  0.00     0.211 HD
ENDBRANCH   4  52
TORSDOF 16
ENDMDL
MODEL 3
REMARK VINA RESULT:    -8.347      3.239      9.358
REMARK INTER + INTRA:         -15.916
REMARK INTER:                 -13.857
REMARK INTRA:                  -2.059
REMARK UNBOUND:                -2.202
REMARK SMILES C[C@@H]1O[C@H](OC[C@H]2O[C@H](Oc3c(-c4ccc(O)c(O)c4)oc4cc(O)cc(O)c4c3=O)[C@@H](O)[C@H](O)[C@@H]2O)[C@H](O)[C@@H](O)[C@@H]1O
REMARK SMILES IDX 7 1 36 2 34 3 32 4 9 5 8 6 6 7 5 8 4 9 1 10 2 11 42 12 3 13
REMARK SMILES IDX 40 14 38 15 43 16 41 18 39 20 37 22 35 24 10 26 11 27 12 28
REMARK SMILES IDX 30 29 21 30 29 31 31 32 22 33 27 34 23 35 26 36 24 37 13 38
REMARK SMILES IDX 20 39 14 40 18 41 15 42 16 43 19 44 17 46 28 48 25 50 33 52
REMARK H PARENT 43 17 41 19 39 21 37 23 35 25 19 45 17 47 28 49 25 51 33 53
REMARK Flexibility Score: inf
ROOT
ATOM      1  C   UNL     1       7.648 -34.319  43.662  1.00  0.00     0.180 C 
ATOM      2  C   UNL     1       7.942 -34.699  45.130  1.00  0.00     0.177 C 
ATOM      3  C   UNL     1       8.000 -33.455  46.048  1.00  0.00     0.180 C 
ATOM      4  C   UNL     1       8.269 -32.163  45.245  1.00  0.00     0.214 C 
ATOM      5  C   UNL     1       7.208 -32.042  44.126  1.00  0.00     0.339 C 
ATOM      6  O   UNL     1       6.731 -33.256  43.557  1.00  0.00    -0.332 OA
ENDROOT
BRANCH   1   7
ATOM      7  C   UNL     1       7.150 -35.490  42.792  1.00  0.00     0.198 C 
BRANCH   7   8
ATOM      8  O   UNL     1       6.693 -36.533  43.625  1.00  0.00    -0.347 OA
BRANCH   8   9
ATOM      9  C   UNL     1       5.391 -36.980  43.285  1.00  0.00     0.281 C 
ATOM     10  C   UNL     1       3.952 -40.326  42.863  1.00  0.00     0.041 C 
ATOM     11  C   UNL     1       4.126 -38.819  42.619  1.00  0.00     0.150 C 
ATOM     12  C   UNL     1       2.852 -38.017  43.049  1.00  0.00     0.174 C 
ATOM     13  O   UNL     1       5.312 -38.398  43.293  1.00  0.00    -0.344 OA
ATOM     14  C   UNL     1       3.098 -37.289  44.387  1.00  0.00     0.179 C 
ATOM     15  C   UNL     1       4.380 -36.433  44.319  1.00  0.00     0.202 C 
BRANCH  12  16
ATOM     16  O   UNL     1       1.719 -38.851  43.157  1.00  0.00    -0.388 OA
ATOM     17  H   UNL     1       0.960 -38.301  43.502  1.00  0.00     0.211 HD
ENDBRANCH  12  16
BRANCH  14  18
ATOM     18  O   UNL     1       2.011 -36.460  44.736  1.00  0.00    -0.387 OA
ATOM     19  H   UNL     1       2.368 -35.561  44.912  1.00  0.00     0.211 HD
ENDBRANCH  14  18
BRANCH  15  20
ATOM     20  O   UNL     1       4.985 -36.387  45.596  1.00  0.00    -0.385 OA
ATOM     21  H   UNL     1       5.143 -35.419  45.799  1.00  0.00     0.211 HD
ENDBRANCH  15  20
ENDBRANCH   8   9
ENDBRANCH   7   8
ENDBRANCH   1   7
BRANCH   2  22
ATOM     22  O   UNL     1       9.169 -35.371  45.183  1.00  0.00    -0.387 OA
ATOM     23  H   UNL     1       9.854 -34.726  45.466  1.00  0.00     0.211 HD
ENDBRANCH   2  22
BRANCH   3  24
ATOM     24  O   UNL     1       8.965 -33.623  47.054  1.00  0.00    -0.387 OA
ATOM     25  H   UNL     1       9.502 -32.789  47.095  1.00  0.00     0.211 HD
ENDBRANCH   3  24
BRANCH   5  26
ATOM     26  O   UNL     1       7.461 -31.053  43.104  1.00  0.00    -0.454 OA
BRANCH  26  27
ATOM     27  C   UNL     1       8.375 -30.911  42.019  1.00  0.00     0.214 A 
ATOM     28  C   UNL     1       9.273 -29.834  42.108  1.00  0.00     0.180 A 
ATOM     29  C   UNL     1       8.327 -31.632  40.805  1.00  0.00     0.239 A 
ATOM     30  O   UNL     1       9.972 -29.441  41.047  1.00  0.00    -0.452 OA
ATOM     31  C   UNL     1       9.060 -31.167  39.691  1.00  0.00     0.111 A 
ATOM     32  O   UNL     1       7.597 -32.636  40.664  1.00  0.00    -0.285 OA
ATOM     33  C   UNL     1       9.873 -30.019  39.859  1.00  0.00     0.146 A 
ATOM     34  C   UNL     1       8.926 -31.714  38.387  1.00  0.00     0.134 A 
ATOM     35  C   UNL     1      10.556 -29.457  38.773  1.00  0.00     0.094 A 
ATOM     36  C   UNL     1       9.538 -31.068  37.296  1.00  0.00     0.093 A 
ATOM     37  C   UNL     1      10.308 -29.925  37.483  1.00  0.00     0.123 A 
BRANCH  28  38
ATOM     38  C   UNL     1       9.344 -29.025  43.337  1.00  0.00     0.025 A 
ATOM     39  C   UNL     1      10.479 -29.106  44.140  1.00  0.00     0.062 A 
ATOM     40  C   UNL     1       8.336 -28.108  43.660  1.00  0.00     0.016 A 
ATOM     41  C   UNL     1      10.673 -28.236  45.221  1.00  0.00     0.158 A 
ATOM     42  C   UNL     1       8.512 -27.229  44.735  1.00  0.00     0.051 A 
ATOM     43  C   UNL     1       9.690 -27.259  45.496  1.00  0.00     0.157 A 
BRANCH  41  44
ATOM     44  O   UNL     1      11.854 -28.361  45.950  1.00  0.00    -0.504 OA
ATOM     45  H   UNL     1      12.389 -29.212  46.014  1.00  0.00     0.293 HD
ENDBRANCH  41  44
BRANCH  43  46
ATOM     46  O   UNL     1       9.838 -26.310  46.506  1.00  0.00    -0.504 OA
ATOM     47  H   UNL     1      10.396 -26.468  47.333  1.00  0.00     0.293 HD
ENDBRANCH  43  46
ENDBRANCH  28  38
BRANCH  34  48
ATOM     48  O   UNL     1       8.171 -32.865  38.147  1.00  0.00    -0.507 OA
ATOM     49  H   UNL     1       8.096 -33.297  37.240  1.00  0.00     0.293 HD
ENDBRANCH  34  48
BRANCH  37  50
ATOM     50  O   UNL     1      10.809 -29.238  36.385  1.00  0.00    -0.508 OA
ATOM     51  H   UNL     1      10.949 -28.228  36.455  1.00  0.00     0.293 HD
ENDBRANCH  37  50
ENDBRANCH  26  27
ENDBRANCH   5  26
BRANCH   4  52
ATOM     52  O   UNL     1       8.165 -31.042  46.092  1.00  0.00    -0.384 OA
ATOM     53  H   UNL     1       8.259 -31.382  47.021  1.00  0.00     0.211 HD
ENDBRANCH   4  52
TORSDOF 16
ENDMDL
MODEL 4
REMARK VINA RESULT:    -8.295      2.329      3.990
REMARK INTER + INTRA:         -15.831
REMARK INTER:                 -13.189
REMARK INTRA:                  -2.642
REMARK UNBOUND:                -2.202
REMARK SMILES C[C@@H]1O[C@H](OC[C@H]2O[C@H](Oc3c(-c4ccc(O)c(O)c4)oc4cc(O)cc(O)c4c3=O)[C@@H](O)[C@H](O)[C@@H]2O)[C@H](O)[C@@H](O)[C@@H]1O
REMARK SMILES IDX 7 1 36 2 34 3 32 4 9 5 8 6 6 7 5 8 4 9 1 10 2 11 42 12 3 13
REMARK SMILES IDX 40 14 38 15 43 16 41 18 39 20 37 22 35 24 10 26 11 27 12 28
REMARK SMILES IDX 30 29 21 30 29 31 31 32 22 33 27 34 23 35 26 36 24 37 13 38
REMARK SMILES IDX 20 39 14 40 18 41 15 42 16 43 19 44 17 46 28 48 25 50 33 52
REMARK H PARENT 43 17 41 19 39 21 37 23 35 25 19 45 17 47 28 49 25 51 33 53
REMARK Flexibility Score: inf
ROOT
ATOM      1  C   UNL     1       9.207 -32.871  41.084  1.00  0.00     0.180 C 
ATOM      2  C   UNL     1       9.521 -32.371  39.658  1.00  0.00     0.177 C 
ATOM      3  C   UNL     1       8.439 -32.807  38.641  1.00  0.00     0.180 C 
ATOM      4  C   UNL     1       7.631 -34.019  39.151  1.00  0.00     0.214 C 
ATOM      5  C   UNL     1       7.051 -33.680  40.545  1.00  0.00     0.339 C 
ATOM      6  O   UNL     1       7.830 -32.828  41.377  1.00  0.00    -0.332 OA
ENDROOT
BRANCH   1   7
ATOM      7  C   UNL     1       9.972 -32.131  42.199  1.00  0.00     0.198 C 
BRANCH   7   8
ATOM      8  O   UNL     1       9.672 -30.754  42.141  1.00  0.00    -0.347 OA
BRANCH   8   9
ATOM      9  C   UNL     1       9.963 -30.075  43.351  1.00  0.00     0.281 C 
ATOM     10  C   UNL     1      10.919 -26.610  44.079  1.00  0.00     0.041 C 
ATOM     11  C   UNL     1      10.863 -28.133  44.272  1.00  0.00     0.150 C 
ATOM     12  C   UNL     1      10.150 -28.516  45.613  1.00  0.00     0.174 C 
ATOM     13  O   UNL     1      10.240 -28.701  43.119  1.00  0.00    -0.344 OA
ATOM     14  C   UNL     1       8.723 -29.032  45.337  1.00  0.00     0.179 C 
ATOM     15  C   UNL     1       8.742 -30.170  44.294  1.00  0.00     0.202 C 
BRANCH  12  16
ATOM     16  O   UNL     1      10.103 -27.428  46.511  1.00  0.00    -0.388 OA
ATOM     17  H   UNL     1      10.876 -26.828  46.313  1.00  0.00     0.211 HD
ENDBRANCH  12  16
BRANCH  14  18
ATOM     18  O   UNL     1       8.102 -29.501  46.515  1.00  0.00    -0.387 OA
ATOM     19  H   UNL     1       7.865 -28.717  47.058  1.00  0.00     0.211 HD
ENDBRANCH  14  18
BRANCH  15  20
ATOM     20  O   UNL     1       7.551 -30.133  43.534  1.00  0.00    -0.385 OA
ATOM     21  H   UNL     1       7.758 -29.605  42.708  1.00  0.00     0.211 HD
ENDBRANCH  15  20
ENDBRANCH   8   9
ENDBRANCH   7   8
ENDBRANCH   1   7
BRANCH   2  22
ATOM     22  O   UNL     1      10.762 -32.885  39.264  1.00  0.00    -0.387 OA
ATOM     23  H   UNL     1      10.860 -32.728  38.299  1.00  0.00     0.211 HD
ENDBRANCH   2  22
BRANCH   3  24
ATOM     24  O   UNL     1       9.015 -33.086  37.391  1.00  0.00    -0.387 OA
ATOM     25  H   UNL     1       9.187 -32.219  36.940  1.00  0.00     0.211 HD
ENDBRANCH   3  24
BRANCH   5  26
ATOM     26  O   UNL     1       6.503 -34.784  41.300  1.00  0.00    -0.454 OA
BRANCH  26  27
ATOM     27  C   UNL     1       5.205 -35.178  41.741  1.00  0.00     0.214 A 
ATOM     28  C   UNL     1       4.992 -35.147  43.130  1.00  0.00     0.180 A 
ATOM     29  C   UNL     1       4.206 -35.764  40.933  1.00  0.00     0.239 A 
ATOM     30  O   UNL     1       3.936 -35.747  43.670  1.00  0.00    -0.452 OA
ATOM     31  C   UNL     1       3.113 -36.419  41.543  1.00  0.00     0.111 A 
ATOM     32  O   UNL     1       4.293 -35.781  39.687  1.00  0.00    -0.285 OA
ATOM     33  C   UNL     1       3.032 -36.404  42.957  1.00  0.00     0.146 A 
ATOM     34  C   UNL     1       2.167 -37.193  40.821  1.00  0.00     0.134 A 
ATOM     35  C   UNL     1       2.023 -37.109  43.627  1.00  0.00     0.094 A 
ATOM     36  C   UNL     1       1.228 -37.975  41.521  1.00  0.00     0.093 A 
ATOM     37  C   UNL     1       1.188 -37.966  42.911  1.00  0.00     0.123 A 
BRANCH  28  38
ATOM     38  C   UNL     1       6.014 -34.578  44.026  1.00  0.00     0.025 A 
ATOM     39  C   UNL     1       5.784 -33.341  44.621  1.00  0.00     0.062 A 
ATOM     40  C   UNL     1       7.165 -35.301  44.363  1.00  0.00     0.016 A 
ATOM     41  C   UNL     1       6.637 -32.835  45.611  1.00  0.00     0.158 A 
ATOM     42  C   UNL     1       8.029 -34.814  45.350  1.00  0.00     0.051 A 
ATOM     43  C   UNL     1       7.755 -33.605  46.005  1.00  0.00     0.157 A 
BRANCH  41  44
ATOM     44  O   UNL     1       6.313 -31.607  46.182  1.00  0.00    -0.504 OA
ATOM     45  H   UNL     1       6.689 -30.725  45.873  1.00  0.00     0.293 HD
ENDBRANCH  41  44
BRANCH  43  46
ATOM     46  O   UNL     1       8.613 -33.210  47.030  1.00  0.00    -0.504 OA
ATOM     47  H   UNL     1       9.355 -32.536  46.900  1.00  0.00     0.293 HD
ENDBRANCH  43  46
ENDBRANCH  28  38
BRANCH  34  48
ATOM     48  O   UNL     1       2.159 -37.230  39.424  1.00  0.00    -0.507 OA
ATOM     49  H   UNL     1       1.592 -37.869  38.891  1.00  0.00     0.293 HD
ENDBRANCH  34  48
BRANCH  37  50
ATOM     50  O   UNL     1       0.334 -38.828  43.587  1.00  0.00    -0.508 OA
ATOM     51  H   UNL     1      -0.535 -39.120  43.135  1.00  0.00     0.293 HD
ENDBRANCH  37  50
ENDBRANCH  26  27
ENDBRANCH   5  26
BRANCH   4  52
ATOM     52  O   UNL     1       6.565 -34.290  38.271  1.00  0.00    -0.384 OA
ATOM     53  H   UNL     1       5.842 -33.646  38.499  1.00  0.00     0.211 HD
ENDBRANCH   4  52
TORSDOF 16
ENDMDL
MODEL 5
REMARK VINA RESULT:    -8.290      2.526      6.674
REMARK INTER + INTRA:         -15.823
REMARK INTER:                 -13.299
REMARK INTRA:                  -2.524
REMARK UNBOUND:                -2.202
REMARK SMILES C[C@@H]1O[C@H](OC[C@H]2O[C@H](Oc3c(-c4ccc(O)c(O)c4)oc4cc(O)cc(O)c4c3=O)[C@@H](O)[C@H](O)[C@@H]2O)[C@H](O)[C@@H](O)[C@@H]1O
REMARK SMILES IDX 7 1 36 2 34 3 32 4 9 5 8 6 6 7 5 8 4 9 1 10 2 11 42 12 3 13
REMARK SMILES IDX 40 14 38 15 43 16 41 18 39 20 37 22 35 24 10 26 11 27 12 28
REMARK SMILES IDX 30 29 21 30 29 31 31 32 22 33 27 34 23 35 26 36 24 37 13 38
REMARK SMILES IDX 20 39 14 40 18 41 15 42 16 43 19 44 17 46 28 48 25 50 33 52
REMARK H PARENT 43 17 41 19 39 21 37 23 35 25 19 45 17 47 28 49 25 51 33 53
REMARK Flexibility Score: inf
ROOT
ATOM      1  C   UNL     1       4.439 -36.647  43.899  1.00  0.00     0.180 C 
ATOM      2  C   UNL     1       3.161 -36.989  44.696  1.00  0.00     0.177 C 
ATOM      3  C   UNL     1       2.002 -37.428  43.770  1.00  0.00     0.180 C 
ATOM      4  C   UNL     1       2.209 -36.934  42.322  1.00  0.00     0.214 C 
ATOM      5  C   UNL     1       3.595 -37.411  41.827  1.00  0.00     0.339 C 
ATOM      6  O   UNL     1       4.630 -37.503  42.799  1.00  0.00    -0.332 OA
ENDROOT
BRANCH   1   7
ATOM      7  C   UNL     1       5.727 -36.630  44.743  1.00  0.00     0.198 C 
BRANCH   7   8
ATOM      8  O   UNL     1       5.744 -35.473  45.552  1.00  0.00    -0.347 OA
BRANCH   8   9
ATOM      9  C   UNL     1       6.832 -34.612  45.260  1.00  0.00     0.281 C 
ATOM     10  C   UNL     1       8.735 -33.982  42.189  1.00  0.00     0.041 C 
ATOM     11  C   UNL     1       8.486 -34.102  43.700  1.00  0.00     0.150 C 
ATOM     12  C   UNL     1       8.648 -32.721  44.420  1.00  0.00     0.174 C 
ATOM     13  O   UNL     1       7.198 -34.689  43.889  1.00  0.00    -0.344 OA
ATOM     14  C   UNL     1       7.267 -32.132  44.777  1.00  0.00     0.179 C 
ATOM     15  C   UNL     1       6.423 -33.154  45.569  1.00  0.00     0.202 C 
BRANCH  12  16
ATOM     16  O   UNL     1       9.373 -31.801  43.633  1.00  0.00    -0.388 OA
ATOM     17  H   UNL     1       8.804 -30.992  43.498  1.00  0.00     0.211 HD
ENDBRANCH  12  16
BRANCH  14  18
ATOM     18  O   UNL     1       7.386 -30.948  45.536  1.00  0.00    -0.387 OA
ATOM     19  H   UNL     1       6.487 -30.558  45.621  1.00  0.00     0.211 HD
ENDBRANCH  14  18
BRANCH  15  20
ATOM     20  O   UNL     1       5.055 -32.969  45.268  1.00  0.00    -0.385 OA
ATOM     21  H   UNL     1       5.003 -32.791  44.283  1.00  0.00     0.211 HD
ENDBRANCH  15  20
ENDBRANCH   8   9
ENDBRANCH   7   8
ENDBRANCH   1   7
BRANCH   2  22
ATOM     22  O   UNL     1       2.770 -35.861  45.426  1.00  0.00    -0.387 OA
ATOM     23  H   UNL     1       3.560 -35.287  45.539  1.00  0.00     0.211 HD
ENDBRANCH   2  22
BRANCH   3  24
ATOM     24  O   UNL     1       0.769 -36.985  44.272  1.00  0.00    -0.387 OA
ATOM     25  H   UNL     1       0.134 -37.746  44.222  1.00  0.00     0.211 HD
ENDBRANCH   3  24
BRANCH   5  26
ATOM     26  O   UNL     1       4.082 -36.815  40.603  1.00  0.00    -0.454 OA
BRANCH  26  27
ATOM     27  C   UNL     1       4.079 -35.510  40.028  1.00  0.00     0.214 A 
ATOM     28  C   UNL     1       3.668 -35.429  38.688  1.00  0.00     0.180 A 
ATOM     29  C   UNL     1       4.624 -34.350  40.622  1.00  0.00     0.239 A 
ATOM     30  O   UNL     1       3.886 -34.329  37.973  1.00  0.00    -0.452 OA
ATOM     31  C   UNL     1       4.870 -33.210  39.825  1.00  0.00     0.111 A 
ATOM     32  O   UNL     1       4.962 -34.322  41.825  1.00  0.00    -0.285 OA
ATOM     33  C   UNL     1       4.495 -33.258  38.460  1.00  0.00     0.146 A 
ATOM     34  C   UNL     1       5.582 -32.073  40.290  1.00  0.00     0.134 A 
ATOM     35  C   UNL     1       4.790 -32.195  37.596  1.00  0.00     0.094 A 
ATOM     36  C   UNL     1       5.958 -31.067  39.379  1.00  0.00     0.093 A 
ATOM     37  C   UNL     1       5.603 -31.152  38.037  1.00  0.00     0.123 A 
BRANCH  28  38
ATOM     38  C   UNL     1       3.123 -36.616  38.005  1.00  0.00     0.025 A 
ATOM     39  C   UNL     1       1.765 -36.902  38.119  1.00  0.00     0.062 A 
ATOM     40  C   UNL     1       3.924 -37.403  37.169  1.00  0.00     0.016 A 
ATOM     41  C   UNL     1       1.164 -37.912  37.356  1.00  0.00     0.158 A 
ATOM     42  C   UNL     1       3.343 -38.415  36.397  1.00  0.00     0.051 A 
ATOM     43  C   UNL     1       1.962 -38.652  36.454  1.00  0.00     0.157 A 
BRANCH  41  44
ATOM     44  O   UNL     1      -0.208 -38.108  37.503  1.00  0.00    -0.504 OA
ATOM     45  H   UNL     1      -0.809 -37.503  38.039  1.00  0.00     0.293 HD
ENDBRANCH  41  44
BRANCH  43  46
ATOM     46  O   UNL     1       1.432 -39.623  35.607  1.00  0.00    -0.504 OA
ATOM     47  H   UNL     1       0.584 -40.134  35.814  1.00  0.00     0.293 HD
ENDBRANCH  43  46
ENDBRANCH  28  38
BRANCH  34  48
ATOM     48  O   UNL     1       5.956 -31.936  41.629  1.00  0.00    -0.507 OA
ATOM     49  H   UNL     1       5.861 -31.076  42.144  1.00  0.00     0.293 HD
ENDBRANCH  34  48
BRANCH  37  50
ATOM     50  O   UNL     1       6.078 -30.211  37.132  1.00  0.00    -0.508 OA
ATOM     51  H   UNL     1       5.766 -30.257  36.161  1.00  0.00     0.293 HD
ENDBRANCH  37  50
ENDBRANCH  26  27
ENDBRANCH   5  26
BRANCH   4  52
ATOM     52  O   UNL     1       1.217 -37.478  41.483  1.00  0.00    -0.384 OA
ATOM     53  H   UNL     1       1.695 -37.999  40.784  1.00  0.00     0.211 HD
ENDBRANCH   4  52
TORSDOF 16
ENDMDL
MODEL 6
REMARK VINA RESULT:    -8.235      1.811      7.885
REMARK INTER + INTRA:         -15.732
REMARK INTER:                 -12.937
REMARK INTRA:                  -2.795
REMARK UNBOUND:                -2.202
REMARK SMILES C[C@@H]1O[C@H](OC[C@H]2O[C@H](Oc3c(-c4ccc(O)c(O)c4)oc4cc(O)cc(O)c4c3=O)[C@@H](O)[C@H](O)[C@@H]2O)[C@H](O)[C@@H](O)[C@@H]1O
REMARK SMILES IDX 7 1 36 2 34 3 32 4 9 5 8 6 6 7 5 8 4 9 1 10 2 11 42 12 3 13
REMARK SMILES IDX 40 14 38 15 43 16 41 18 39 20 37 22 35 24 10 26 11 27 12 28
REMARK SMILES IDX 30 29 21 30 29 31 31 32 22 33 27 34 23 35 26 36 24 37 13 38
REMARK SMILES IDX 20 39 14 40 18 41 15 42 16 43 19 44 17 46 28 48 25 50 33 52
REMARK H PARENT 43 17 41 19 39 21 37 23 35 25 19 45 17 47 28 49 25 51 33 53
REMARK Flexibility Score: inf
ROOT
ATOM      1  C   UNL     1       5.236 -37.140  39.925  1.00  0.00     0.180 C 
ATOM      2  C   UNL     1       5.610 -36.978  38.436  1.00  0.00     0.177 C 
ATOM      3  C   UNL     1       6.512 -35.743  38.198  1.00  0.00     0.180 C 
ATOM      4  C   UNL     1       6.392 -34.718  39.346  1.00  0.00     0.214 C 
ATOM      5  C   UNL     1       6.687 -35.435  40.686  1.00  0.00     0.339 C 
ATOM      6  O   UNL     1       6.297 -36.799  40.785  1.00  0.00    -0.332 OA
ENDROOT
BRANCH   1   7
ATOM      7  C   UNL     1       4.726 -38.545  40.301  1.00  0.00     0.198 C 
BRANCH   7   8
ATOM      8  O   UNL     1       4.021 -38.478  41.522  1.00  0.00    -0.347 OA
BRANCH   8   9
ATOM      9  C   UNL     1       2.766 -37.829  41.399  1.00  0.00     0.281 C 
ATOM     10  C   UNL     1       0.091 -38.064  38.902  1.00  0.00     0.041 C 
ATOM     11  C   UNL     1       0.980 -37.402  39.966  1.00  0.00     0.150 C 
ATOM     12  C   UNL     1       0.151 -36.984  41.227  1.00  0.00     0.174 C 
ATOM     13  O   UNL     1       2.051 -38.298  40.265  1.00  0.00    -0.344 OA
ATOM     14  C   UNL     1       0.406 -37.966  42.390  1.00  0.00     0.179 C 
ATOM     15  C   UNL     1       1.919 -38.118  42.659  1.00  0.00     0.202 C 
BRANCH  12  16
ATOM     16  O   UNL     1      -1.230 -36.918  40.949  1.00  0.00    -0.388 OA
ATOM     17  H   UNL     1      -1.673 -36.417  41.691  1.00  0.00     0.211 HD
ENDBRANCH  12  16
BRANCH  14  18
ATOM     18  O   UNL     1      -0.230 -37.544  43.577  1.00  0.00    -0.387 OA
ATOM     19  H   UNL     1      -1.146 -37.902  43.566  1.00  0.00     0.211 HD
ENDBRANCH  14  18
BRANCH  15  20
ATOM     20  O   UNL     1       2.186 -39.426  43.122  1.00  0.00    -0.385 OA
ATOM     21  H   UNL     1       1.734 -40.051  42.482  1.00  0.00     0.211 HD
ENDBRANCH  15  20
ENDBRANCH   8   9
ENDBRANCH   7   8
ENDBRANCH   1   7
BRANCH   2  22
ATOM     22  O   UNL     1       4.433 -36.844  37.689  1.00  0.00    -0.387 OA
ATOM     23  H   UNL     1       4.370 -35.908  37.394  1.00  0.00     0.211 HD
ENDBRANCH   2  22
BRANCH   3  24
ATOM     24  O   UNL     1       6.215 -35.141  36.964  1.00  0.00    -0.387 OA
ATOM     25  H   UNL     1       6.580 -34.218  36.987  1.00  0.00     0.211 HD
ENDBRANCH   3  24
BRANCH   5  26
ATOM     26  O   UNL     1       6.353 -34.710  41.890  1.00  0.00    -0.454 OA
BRANCH  26  27
ATOM     27  C   UNL     1       7.061 -33.904  42.830  1.00  0.00     0.214 A 
ATOM     28  C   UNL     1       6.995 -34.320  44.170  1.00  0.00     0.180 A 
ATOM     29  C   UNL     1       7.649 -32.649  42.557  1.00  0.00     0.239 A 
ATOM     30  O   UNL     1       7.374 -33.510  45.155  1.00  0.00    -0.452 OA
ATOM     31  C   UNL     1       8.012 -31.803  43.629  1.00  0.00     0.111 A 
ATOM     32  O   UNL     1       7.797 -32.231  41.389  1.00  0.00    -0.285 OA
ATOM     33  C   UNL     1       7.827 -32.282  44.949  1.00  0.00     0.146 A 
ATOM     34  C   UNL     1       8.432 -30.458  43.451  1.00  0.00     0.134 A 
ATOM     35  C   UNL     1       8.084 -31.461  46.054  1.00  0.00     0.094 A 
ATOM     36  C   UNL     1       8.582 -29.623  44.575  1.00  0.00     0.093 A 
ATOM     37  C   UNL     1       8.366 -30.109  45.860  1.00  0.00     0.123 A 
BRANCH  28  38
ATOM     38  C   UNL     1       6.363 -35.605  44.519  1.00  0.00     0.025 A 
ATOM     39  C   UNL     1       5.074 -35.607  45.046  1.00  0.00     0.062 A 
ATOM     40  C   UNL     1       6.996 -36.823  44.243  1.00  0.00     0.016 A 
ATOM     41  C   UNL     1       4.363 -36.800  45.233  1.00  0.00     0.158 A 
ATOM     42  C   UNL     1       6.303 -38.025  44.421  1.00  0.00     0.051 A 
ATOM     43  C   UNL     1       4.977 -38.022  44.878  1.00  0.00     0.157 A 
BRANCH  41  44
ATOM     44  O   UNL     1       3.064 -36.710  45.730  1.00  0.00    -0.504 OA
ATOM     45  H   UNL     1       2.274 -36.399  45.188  1.00  0.00     0.293 HD
ENDBRANCH  41  44
BRANCH  43  46
ATOM     46  O   UNL     1       4.315 -39.246  44.964  1.00  0.00    -0.504 OA
ATOM     47  H   UNL     1       3.400 -39.408  44.565  1.00  0.00     0.293 HD
ENDBRANCH  43  46
ENDBRANCH  28  38
BRANCH  34  48
ATOM     48  O   UNL     1       8.670 -29.923  42.183  1.00  0.00    -0.507 OA
ATOM     49  H   UNL     1       8.764 -30.487  41.354  1.00  0.00     0.293 HD
ENDBRANCH  34  48
BRANCH  37  50
ATOM     50  O   UNL     1       8.407 -29.245  46.946  1.00  0.00    -0.508 OA
ATOM     51  H   UNL     1       8.527 -28.245  46.779  1.00  0.00     0.293 HD
ENDBRANCH  37  50
ENDBRANCH  26  27
ENDBRANCH   5  26
BRANCH   4  52
ATOM     52  O   UNL     1       7.335 -33.686  39.168  1.00  0.00    -0.384 OA
ATOM     53  H   UNL     1       7.995 -34.021  38.504  1.00  0.00     0.211 HD
ENDBRANCH   4  52
TORSDOF 16
ENDMDL
MODEL 7
REMARK VINA RESULT:    -8.187      2.028      8.134
REMARK INTER + INTRA:         -15.653
REMARK INTER:                 -12.863
REMARK INTRA:                  -2.790
REMARK UNBOUND:                -2.202
REMARK SMILES C[C@@H]1O[C@H](OC[C@H]2O[C@H](Oc3c(-c4ccc(O)c(O)c4)oc4cc(O)cc(O)c4c3=O)[C@@H](O)[C@H](O)[C@@H]2O)[C@H](O)[C@@H](O)[C@@H]1O
REMARK SMILES IDX 7 1 36 2 34 3 32 4 9 5 8 6 6 7 5 8 4 9 1 10 2 11 42 12 3 13
REMARK SMILES IDX 40 14 38 15 43 16 41 18 39 20 37 22 35 24 10 26 11 27 12 28
REMARK SMILES IDX 30 29 21 30 29 31 31 32 22 33 27 34 23 35 26 36 24 37 13 38
REMARK SMILES IDX 20 39 14 40 18 41 15 42 16 43 19 44 17 46 28 48 25 50 33 52
REMARK H PARENT 43 17 41 19 39 21 37 23 35 25 19 45 17 47 28 49 25 51 33 53
REMARK Flexibility Score: inf
ROOT
ATOM      1  C   UNL     1       4.440 -35.917  39.418  1.00  0.00     0.180 C 
ATOM      2  C   UNL     1       3.781 -35.099  38.286  1.00  0.00     0.177 C 
ATOM      3  C   UNL     1       4.016 -33.580  38.458  1.00  0.00     0.180 C 
ATOM      4  C   UNL     1       4.370 -33.218  39.917  1.00  0.00     0.214 C 
ATOM      5  C   UNL     1       5.580 -34.073  40.363  1.00  0.00     0.339 C 
ATOM      6  O   UNL     1       5.680 -35.382  39.814  1.00  0.00    -0.332 OA
ENDROOT
BRANCH   1   7
ATOM      7  C   UNL     1       4.626 -37.412  39.095  1.00  0.00     0.198 C 
BRANCH   7   8
ATOM      8  O   UNL     1       4.173 -38.188  40.183  1.00  0.00    -0.347 OA
BRANCH   8   9
ATOM      9  C   UNL     1       2.927 -37.745  40.695  1.00  0.00     0.281 C 
ATOM     10  C   UNL     1      -0.514 -38.082  39.470  1.00  0.00     0.041 C 
ATOM     11  C   UNL     1       0.672 -37.431  40.198  1.00  0.00     0.150 C 
ATOM     12  C   UNL     1       0.414 -37.330  41.740  1.00  0.00     0.174 C 
ATOM     13  O   UNL     1       1.850 -38.169  39.871  1.00  0.00    -0.344 OA
ATOM     14  C   UNL     1       1.225 -38.403  42.495  1.00  0.00     0.179 C 
ATOM     15  C   UNL     1       2.717 -38.338  42.107  1.00  0.00     0.202 C 
BRANCH  12  16
ATOM     16  O   UNL     1      -0.957 -37.456  42.051  1.00  0.00    -0.388 OA
ATOM     17  H   UNL     1      -1.369 -36.547  42.013  1.00  0.00     0.211 HD
ENDBRANCH  12  16
BRANCH  14  18
ATOM     18  O   UNL     1       1.108 -38.256  43.894  1.00  0.00    -0.387 OA
ATOM     19  H   UNL     1       1.353 -37.330  44.117  1.00  0.00     0.211 HD
ENDBRANCH  14  18
BRANCH  15  20
ATOM     20  O   UNL     1       3.277 -39.634  42.166  1.00  0.00    -0.385 OA
ATOM     21  H   UNL     1       3.060 -40.076  41.294  1.00  0.00     0.211 HD
ENDBRANCH  15  20
ENDBRANCH   8   9
ENDBRANCH   7   8
ENDBRANCH   1   7
BRANCH   2  22
ATOM     22  O   UNL     1       2.405 -35.359  38.287  1.00  0.00    -0.387 OA
ATOM     23  H   UNL     1       2.008 -34.874  37.529  1.00  0.00     0.211 HD
ENDBRANCH   2  22
BRANCH   3  24
ATOM     24  O   UNL     1       2.897 -32.851  38.025  1.00  0.00    -0.387 OA
ATOM     25  H   UNL     1       2.904 -32.854  37.033  1.00  0.00     0.211 HD
ENDBRANCH   3  24
BRANCH   5  26
ATOM     26  O   UNL     1       5.879 -34.077  41.776  1.00  0.00    -0.454 OA
BRANCH  26  27
ATOM     27  C   UNL     1       6.723 -33.326  42.647  1.00  0.00     0.214 A 
ATOM     28  C   UNL     1       6.736 -33.731  43.992  1.00  0.00     0.180 A 
ATOM     29  C   UNL     1       7.381 -32.121  42.315  1.00  0.00     0.239 A 
ATOM     30  O   UNL     1       7.257 -32.950  44.934  1.00  0.00    -0.452 OA
ATOM     31  C   UNL     1       7.895 -31.302  43.344  1.00  0.00     0.111 A 
ATOM     32  O   UNL     1       7.462 -31.719  41.134  1.00  0.00    -0.285 OA
ATOM     33  C   UNL     1       7.784 -31.762  44.680  1.00  0.00     0.146 A 
ATOM     34  C   UNL     1       8.400 -29.994  43.120  1.00  0.00     0.134 A 
ATOM     35  C   UNL     1       8.194 -30.960  45.752  1.00  0.00     0.094 A 
ATOM     36  C   UNL     1       8.707 -29.170  44.220  1.00  0.00     0.093 A 
ATOM     37  C   UNL     1       8.562 -29.634  45.523  1.00  0.00     0.123 A 
BRANCH  28  38
ATOM     38  C   UNL     1       6.039 -34.962  44.404  1.00  0.00     0.025 A 
ATOM     39  C   UNL     1       4.685 -34.901  44.727  1.00  0.00     0.062 A 
ATOM     40  C   UNL     1       6.686 -36.203  44.384  1.00  0.00     0.016 A 
ATOM     41  C   UNL     1       3.935 -36.062  44.957  1.00  0.00     0.158 A 
ATOM     42  C   UNL     1       5.955 -37.375  44.609  1.00  0.00     0.051 A 
ATOM     43  C   UNL     1       4.575 -37.318  44.858  1.00  0.00     0.157 A 
BRANCH  41  44
ATOM     44  O   UNL     1       2.579 -35.913  45.237  1.00  0.00    -0.504 OA
ATOM     45  H   UNL     1       1.962 -35.303  44.726  1.00  0.00     0.293 HD
ENDBRANCH  41  44
BRANCH  43  46
ATOM     46  O   UNL     1       3.889 -38.522  45.000  1.00  0.00    -0.504 OA
ATOM     47  H   UNL     1       3.693 -38.943  45.898  1.00  0.00     0.293 HD
ENDBRANCH  43  46
ENDBRANCH  28  38
BRANCH  34  48
ATOM     48  O   UNL     1       8.573 -29.483  41.832  1.00  0.00    -0.507 OA
ATOM     49  H   UNL     1       9.407 -29.627  41.287  1.00  0.00     0.293 HD
ENDBRANCH  34  48
BRANCH  37  50
ATOM     50  O   UNL     1       8.760 -28.772  46.594  1.00  0.00    -0.508 OA
ATOM     51  H   UNL     1       8.499 -27.790  46.493  1.00  0.00     0.293 HD
ENDBRANCH  37  50
ENDBRANCH  26  27
ENDBRANCH   5  26
BRANCH   4  52
ATOM     52  O   UNL     1       4.722 -31.856  40.002  1.00  0.00    -0.384 OA
ATOM     53  H   UNL     1       3.884 -31.361  40.201  1.00  0.00     0.211 HD
ENDBRANCH   4  52
TORSDOF 16
ENDMDL
MODEL 8
REMARK VINA RESULT:    -8.175      3.259      6.223
REMARK INTER + INTRA:         -15.634
REMARK INTER:                 -13.664
REMARK INTRA:                  -1.971
REMARK UNBOUND:                -2.202
REMARK SMILES C[C@@H]1O[C@H](OC[C@H]2O[C@H](Oc3c(-c4ccc(O)c(O)c4)oc4cc(O)cc(O)c4c3=O)[C@@H](O)[C@H](O)[C@@H]2O)[C@H](O)[C@@H](O)[C@@H]1O
REMARK SMILES IDX 7 1 36 2 34 3 32 4 9 5 8 6 6 7 5 8 4 9 1 10 2 11 42 12 3 13
REMARK SMILES IDX 40 14 38 15 43 16 41 18 39 20 37 22 35 24 10 26 11 27 12 28
REMARK SMILES IDX 30 29 21 30 29 31 31 32 22 33 27 34 23 35 26 36 24 37 13 38
REMARK SMILES IDX 20 39 14 40 18 41 15 42 16 43 19 44 17 46 28 48 25 50 33 52
REMARK H PARENT 43 17 41 19 39 21 37 23 35 25 19 45 17 47 28 49 25 51 33 53
REMARK Flexibility Score: inf
ROOT
ATOM      1  C   UNL     1       7.760 -31.177  44.146  1.00  0.00     0.180 C 
ATOM      2  C   UNL     1       8.573 -31.571  45.399  1.00  0.00     0.177 C 
ATOM      3  C   UNL     1       8.376 -33.060  45.771  1.00  0.00     0.180 C 
ATOM      4  C   UNL     1       7.077 -33.634  45.165  1.00  0.00     0.214 C 
ATOM      5  C   UNL     1       7.089 -33.387  43.637  1.00  0.00     0.339 C 
ATOM      6  O   UNL     1       7.731 -32.202  43.182  1.00  0.00    -0.332 OA
ENDROOT
BRANCH   1   7
ATOM      7  C   UNL     1       8.229 -29.875  43.470  1.00  0.00     0.198 C 
BRANCH   7   8
ATOM      8  O   UNL     1       8.363 -28.862  44.443  1.00  0.00    -0.347 OA
BRANCH   8   9
ATOM      9  C   UNL     1       9.383 -27.928  44.130  1.00  0.00     0.281 C 
ATOM     10  C   UNL     1       9.320 -24.324  43.455  1.00  0.00     0.041 C 
ATOM     11  C   UNL     1       9.815 -25.775  43.353  1.00  0.00     0.150 C 
ATOM     12  C   UNL     1      11.264 -25.927  43.927  1.00  0.00     0.174 C 
ATOM     13  O   UNL     1       8.859 -26.614  44.002  1.00  0.00    -0.344 OA
ATOM     14  C   UNL     1      11.226 -26.598  45.316  1.00  0.00     0.179 C 
ATOM     15  C   UNL     1      10.432 -27.921  45.266  1.00  0.00     0.202 C 
BRANCH  12  16
ATOM     16  O   UNL     1      11.929 -24.685  44.012  1.00  0.00    -0.388 OA
ATOM     17  H   UNL     1      11.806 -24.208  43.143  1.00  0.00     0.211 HD
ENDBRANCH  12  16
BRANCH  14  18
ATOM     18  O   UNL     1      12.525 -26.861  45.803  1.00  0.00    -0.387 OA
ATOM     19  H   UNL     1      13.036 -26.023  45.754  1.00  0.00     0.211 HD
ENDBRANCH  14  18
BRANCH  15  20
ATOM     20  O   UNL     1       9.791 -28.133  46.507  1.00  0.00    -0.385 OA
ATOM     21  H   UNL     1       9.109 -27.405  46.601  1.00  0.00     0.211 HD
ENDBRANCH  15  20
ENDBRANCH   8   9
ENDBRANCH   7   8
ENDBRANCH   1   7
BRANCH   2  22
ATOM     22  O   UNL     1       8.165 -30.768  46.470  1.00  0.00    -0.387 OA
ATOM     23  H   UNL     1       8.948 -30.261  46.781  1.00  0.00     0.211 HD
ENDBRANCH   2  22
BRANCH   3  24
ATOM     24  O   UNL     1       8.390 -33.231  47.164  1.00  0.00    -0.387 OA
ATOM     25  H   UNL     1       9.288 -33.571  47.415  1.00  0.00     0.211 HD
ENDBRANCH   3  24
BRANCH   5  26
ATOM     26  O   UNL     1       5.841 -33.602  42.941  1.00  0.00    -0.454 OA
BRANCH  26  27
ATOM     27  C   UNL     1       4.996 -34.720  42.676  1.00  0.00     0.214 A 
ATOM     28  C   UNL     1       4.818 -35.049  41.322  1.00  0.00     0.180 A 
ATOM     29  C   UNL     1       4.193 -35.387  43.628  1.00  0.00     0.239 A 
ATOM     30  O   UNL     1       3.850 -35.879  40.944  1.00  0.00    -0.452 OA
ATOM     31  C   UNL     1       3.155 -36.238  43.189  1.00  0.00     0.111 A 
ATOM     32  O   UNL     1       4.328 -35.192  44.855  1.00  0.00    -0.285 OA
ATOM     33  C   UNL     1       3.003 -36.440  41.795  1.00  0.00     0.146 A 
ATOM     34  C   UNL     1       2.185 -36.798  44.061  1.00  0.00     0.134 A 
ATOM     35  C   UNL     1       1.941 -37.201  41.290  1.00  0.00     0.094 A 
ATOM     36  C   UNL     1       1.070 -37.470  43.523  1.00  0.00     0.093 A 
ATOM     37  C   UNL     1       0.929 -37.629  42.149  1.00  0.00     0.123 A 
BRANCH  28  38
ATOM     38  C   UNL     1       5.603 -34.363  40.281  1.00  0.00     0.025 A 
ATOM     39  C   UNL     1       6.856 -34.863  39.934  1.00  0.00     0.062 A 
ATOM     40  C   UNL     1       5.074 -33.279  39.570  1.00  0.00     0.016 A 
ATOM     41  C   UNL     1       7.568 -34.357  38.838  1.00  0.00     0.158 A 
ATOM     42  C   UNL     1       5.768 -32.760  38.471  1.00  0.00     0.051 A 
ATOM     43  C   UNL     1       6.994 -33.315  38.075  1.00  0.00     0.157 A 
BRANCH  41  44
ATOM     44  O   UNL     1       8.797 -34.940  38.538  1.00  0.00    -0.504 OA
ATOM     45  H   UNL     1       9.270 -35.596  39.137  1.00  0.00     0.293 HD
ENDBRANCH  41  44
BRANCH  43  46
ATOM     46  O   UNL     1       7.600 -32.804  36.929  1.00  0.00    -0.504 OA
ATOM     47  H   UNL     1       7.575 -33.274  36.035  1.00  0.00     0.293 HD
ENDBRANCH  43  46
ENDBRANCH  28  38
BRANCH  34  48
ATOM     48  O   UNL     1       2.285 -36.673  45.449  1.00  0.00    -0.507 OA
ATOM     49  H   UNL     1       1.509 -36.417  46.038  1.00  0.00     0.293 HD
ENDBRANCH  34  48
BRANCH  37  50
ATOM     50  O   UNL     1      -0.230 -38.193  41.631  1.00  0.00    -0.508 OA
ATOM     51  H   UNL     1      -0.270 -38.415  40.634  1.00  0.00     0.293 HD
ENDBRANCH  37  50
ENDBRANCH  26  27
ENDBRANCH   5  26
BRANCH   4  52
ATOM     52  O   UNL     1       7.011 -35.022  45.399  1.00  0.00    -0.384 OA
ATOM     53  H   UNL     1       7.347 -35.462  44.573  1.00  0.00     0.211 HD
ENDBRANCH   4  52
TORSDOF 16
ENDMDL
MODEL 9
REMARK VINA RESULT:    -8.002      3.102      6.117
REMARK INTER + INTRA:         -15.349
REMARK INTER:                 -13.192
REMARK INTRA:                  -2.157
REMARK UNBOUND:                -2.202
REMARK SMILES C[C@@H]1O[C@H](OC[C@H]2O[C@H](Oc3c(-c4ccc(O)c(O)c4)oc4cc(O)cc(O)c4c3=O)[C@@H](O)[C@H](O)[C@@H]2O)[C@H](O)[C@@H](O)[C@@H]1O
REMARK SMILES IDX 7 1 36 2 34 3 32 4 9 5 8 6 6 7 5 8 4 9 1 10 2 11 42 12 3 13
REMARK SMILES IDX 40 14 38 15 43 16 41 18 39 20 37 22 35 24 10 26 11 27 12 28
REMARK SMILES IDX 30 29 21 30 29 31 31 32 22 33 27 34 23 35 26 36 24 37 13 38
REMARK SMILES IDX 20 39 14 40 18 41 15 42 16 43 19 44 17 46 28 48 25 50 33 52
REMARK H PARENT 43 17 41 19 39 21 37 23 35 25 19 45 17 47 28 49 25 51 33 53
REMARK Flexibility Score: inf
ROOT
ATOM      1  C   UNL     1       7.748 -31.475  43.996  1.00  0.00     0.180 C 
ATOM      2  C   UNL     1       8.479 -31.772  45.323  1.00  0.00     0.177 C 
ATOM      3  C   UNL     1       8.225 -33.217  45.813  1.00  0.00     0.180 C 
ATOM      4  C   UNL     1       6.947 -33.816  45.185  1.00  0.00     0.214 C 
ATOM      5  C   UNL     1       7.051 -33.707  43.645  1.00  0.00     0.339 C 
ATOM      6  O   UNL     1       7.747 -32.580  43.125  1.00  0.00    -0.332 OA
ENDROOT
BRANCH   1   7
ATOM      7  C   UNL     1       8.287 -30.247  43.237  1.00  0.00     0.198 C 
BRANCH   7   8
ATOM      8  O   UNL     1       8.217 -29.110  44.070  1.00  0.00    -0.347 OA
BRANCH   8   9
ATOM      9  C   UNL     1       9.304 -28.220  43.881  1.00  0.00     0.281 C 
ATOM     10  C   UNL     1       9.467 -24.623  43.185  1.00  0.00     0.041 C 
ATOM     11  C   UNL     1       9.913 -26.093  43.152  1.00  0.00     0.150 C 
ATOM     12  C   UNL     1      11.273 -26.296  43.901  1.00  0.00     0.174 C 
ATOM     13  O   UNL     1       8.852 -26.888  43.682  1.00  0.00    -0.344 OA
ATOM     14  C   UNL     1      11.039 -26.952  45.278  1.00  0.00     0.179 C 
ATOM     15  C   UNL     1      10.205 -28.243  45.137  1.00  0.00     0.202 C 
BRANCH  12  16
ATOM     16  O   UNL     1      11.971 -25.080  44.061  1.00  0.00    -0.388 OA
ATOM     17  H   UNL     1      11.676 -24.663  44.918  1.00  0.00     0.211 HD
ENDBRANCH  12  16
BRANCH  14  18
ATOM     18  O   UNL     1      12.256 -27.260  45.922  1.00  0.00    -0.387 OA
ATOM     19  H   UNL     1      12.151 -27.044  46.876  1.00  0.00     0.211 HD
ENDBRANCH  14  18
BRANCH  15  20
ATOM     20  O   UNL     1       9.408 -28.418  46.290  1.00  0.00    -0.385 OA
ATOM     21  H   UNL     1       8.789 -29.181  46.094  1.00  0.00     0.211 HD
ENDBRANCH  15  20
ENDBRANCH   8   9
ENDBRANCH   7   8
ENDBRANCH   1   7
BRANCH   2  22
ATOM     22  O   UNL     1       8.032 -30.868  46.295  1.00  0.00    -0.387 OA
ATOM     23  H   UNL     1       7.842 -31.377  47.114  1.00  0.00     0.211 HD
ENDBRANCH   2  22
BRANCH   3  24
ATOM     24  O   UNL     1       8.156 -33.264  47.214  1.00  0.00    -0.387 OA
ATOM     25  H   UNL     1       8.282 -32.338  47.550  1.00  0.00     0.211 HD
ENDBRANCH   3  24
BRANCH   5  26
ATOM     26  O   UNL     1       5.838 -33.958  42.899  1.00  0.00    -0.454 OA
BRANCH  26  27
ATOM     27  C   UNL     1       5.519 -34.433  41.594  1.00  0.00     0.214 A 
ATOM     28  C   UNL     1       5.019 -35.744  41.521  1.00  0.00     0.180 A 
ATOM     29  C   UNL     1       5.837 -33.781  40.382  1.00  0.00     0.239 A 
ATOM     30  O   UNL     1       4.951 -36.384  40.357  1.00  0.00    -0.452 OA
ATOM     31  C   UNL     1       5.782 -34.501  39.168  1.00  0.00     0.111 A 
ATOM     32  O   UNL     1       6.234 -32.596  40.356  1.00  0.00    -0.285 OA
ATOM     33  C   UNL     1       5.344 -35.847  39.211  1.00  0.00     0.146 A 
ATOM     34  C   UNL     1       6.261 -33.986  37.934  1.00  0.00     0.134 A 
ATOM     35  C   UNL     1       5.350 -36.642  38.058  1.00  0.00     0.094 A 
ATOM     36  C   UNL     1       6.354 -34.836  36.815  1.00  0.00     0.093 A 
ATOM     37  C   UNL     1       5.944 -36.163  36.891  1.00  0.00     0.123 A 
BRANCH  28  38
ATOM     38  C   UNL     1       4.702 -36.488  42.753  1.00  0.00     0.025 A 
ATOM     39  C   UNL     1       5.572 -37.484  43.189  1.00  0.00     0.062 A 
ATOM     40  C   UNL     1       3.596 -36.147  43.540  1.00  0.00     0.016 A 
ATOM     41  C   UNL     1       5.411 -38.100  44.437  1.00  0.00     0.158 A 
ATOM     42  C   UNL     1       3.418 -36.749  44.791  1.00  0.00     0.051 A 
ATOM     43  C   UNL     1       4.338 -37.697  45.263  1.00  0.00     0.157 A 
BRANCH  41  44
ATOM     44  O   UNL     1       6.348 -39.060  44.812  1.00  0.00    -0.504 OA
ATOM     45  H   UNL     1       6.514 -39.914  44.303  1.00  0.00     0.293 HD
ENDBRANCH  41  44
BRANCH  43  46
ATOM     46  O   UNL     1       4.148 -38.206  46.547  1.00  0.00    -0.504 OA
ATOM     47  H   UNL     1       4.763 -37.996  47.321  1.00  0.00     0.293 HD
ENDBRANCH  43  46
ENDBRANCH  28  38
BRANCH  34  48
ATOM     48  O   UNL     1       6.677 -32.659  37.803  1.00  0.00    -0.507 OA
ATOM     49  H   UNL     1       7.589 -32.397  37.463  1.00  0.00     0.293 HD
ENDBRANCH  34  48
BRANCH  37  50
ATOM     50  O   UNL     1       6.149 -37.016  35.815  1.00  0.00    -0.508 OA
ATOM     51  H   UNL     1       5.398 -37.648  35.533  1.00  0.00     0.293 HD
ENDBRANCH  37  50
ENDBRANCH  26  27
ENDBRANCH   5  26
BRANCH   4  52
ATOM     52  O   UNL     1       6.833 -35.176  45.535  1.00  0.00    -0.384 OA
ATOM     53  H   UNL     1       6.263 -35.210  46.349  1.00  0.00     0.211 HD
ENDBRANCH   4  52
TORSDOF 16
ENDMDL
