MODEL 1
REMARK VINA RESULT:    -4.063      0.000      0.000
REMARK INTER + INTRA:         -10.292
REMARK INTER:                  -7.863
REMARK INTRA:                  -2.430
REMARK UNBOUND:                -2.430
REMARK SMILES CCCCCCCCCCCCCCCCCC(=O)[O-]
REMARK SMILES IDX 10 1 11 2 12 3 13 4 14 5 15 6 16 7 17 8 18 9 19 10 20 11
REMARK SMILES IDX 9 12 8 13 7 14 6 15 5 16 4 17 3 18 2 19 1 20
REMARK H PARENT
REMARK Flexibility Score: inf
ROOT
ATOM      1  C   UNL     1      52.805  -3.115  72.850  1.00  0.00     0.000 C 
ENDROOT
BRANCH   1   2
ATOM      2  C   UNL     1      51.571  -3.878  73.362  1.00  0.00     0.000 C 
BRANCH   2   3
ATOM      3  C   UNL     1      50.410  -3.871  72.354  1.00  0.00     0.000 C 
BRANCH   3   4
ATOM      4  C   UNL     1      49.360  -4.956  72.651  1.00  0.00     0.000 C 
BRANCH   4   5
ATOM      5  C   UNL     1      47.933  -4.387  72.731  1.00  0.00     0.000 C 
BRANCH   5   6
ATOM      6  C   UNL     1      46.862  -5.490  72.792  1.00  0.00     0.000 C 
BRANCH   6   7
ATOM      7  C   UNL     1      47.324  -6.736  73.571  1.00  0.00     0.006 C 
BRANCH   7   8
ATOM      8  C   UNL     1      46.306  -7.237  74.611  1.00  0.00     0.053 C 
BRANCH   8   9
ATOM      9  C   UNL     1      45.047  -7.755  73.987  1.00  0.00     0.041 C 
ATOM     10  O   UNL     1      43.931  -7.261  74.300  1.00  0.00    -0.550 OA
ATOM     11  O   UNL     1      45.101  -8.806  73.079  1.00  0.00    -0.550 OA
ENDBRANCH   8   9
ENDBRANCH   7   8
ENDBRANCH   6   7
ENDBRANCH   5   6
ENDBRANCH   4   5
ENDBRANCH   3   4
ENDBRANCH   2   3
ENDBRANCH   1   2
BRANCH   1  12
ATOM     12  C   UNL     1      52.835  -1.653  73.325  1.00  0.00     0.000 C 
BRANCH  12  13
ATOM     13  C   UNL     1      52.352  -0.670  72.244  1.00  0.00    -0.000 C 
BRANCH  13  14
ATOM     14  C   UNL     1      51.037   0.029  72.628  1.00  0.00    -0.000 C 
BRANCH  14  15
ATOM     15  C   UNL     1      49.817  -0.569  71.913  1.00  0.00    -0.000 C 
BRANCH  15  16
ATOM     16  C   UNL     1      48.623  -0.689  72.871  1.00  0.00    -0.000 C 
BRANCH  16  17
ATOM     17  C   UNL     1      49.084  -0.622  74.334  1.00  0.00    -0.000 C 
BRANCH  17  18
ATOM     18  C   UNL     1      48.290  -1.567  75.255  1.00  0.00    -0.000 C 
BRANCH  18  19
ATOM     19  C   UNL     1      49.094  -2.758  75.807  1.00  0.00    -0.003 C 
ATOM     20  C   UNL     1      50.445  -2.349  76.390  1.00  0.00     0.004 C 
ENDBRANCH  18  19
ENDBRANCH  17  18
ENDBRANCH  16  17
ENDBRANCH  15  16
ENDBRANCH  14  15
ENDBRANCH  13  14
ENDBRANCH  12  13
ENDBRANCH   1  12
TORSDOF 16
ENDMDL
MODEL 2
REMARK VINA RESULT:    -4.053      3.989      6.542
REMARK INTER + INTRA:         -10.273
REMARK INTER:                  -8.167
REMARK INTRA:                  -2.106
REMARK UNBOUND:                -2.430
REMARK SMILES CCCCCCCCCCCCCCCCCC(=O)[O-]
REMARK SMILES IDX 10 1 11 2 12 3 13 4 14 5 15 6 16 7 17 8 18 9 19 10 20 11
REMARK SMILES IDX 9 12 8 13 7 14 6 15 5 16 4 17 3 18 2 19 1 20
REMARK H PARENT
REMARK Flexibility Score: inf
ROOT
ATOM      1  C   UNL     1      49.873  -0.613  72.079  1.00  0.00     0.000 C 
ENDROOT
BRANCH   1   2
ATOM      2  C   UNL     1      51.134   0.159  72.505  1.00  0.00     0.000 C 
BRANCH   2   3
ATOM      3  C   UNL     1      52.430  -0.607  72.193  1.00  0.00     0.000 C 
BRANCH   3   4
ATOM      4  C   UNL     1      52.784  -1.641  73.277  1.00  0.00     0.000 C 
BRANCH   4   5
ATOM      5  C   UNL     1      52.890  -3.069  72.715  1.00  0.00     0.000 C 
BRANCH   5   6
ATOM      6  C   UNL     1      53.297  -4.094  73.786  1.00  0.00     0.000 C 
BRANCH   6   7
ATOM      7  C   UNL     1      54.796  -4.446  73.744  1.00  0.00     0.006 C 
BRANCH   7   8
ATOM      8  C   UNL     1      55.271  -5.307  74.929  1.00  0.00     0.053 C 
BRANCH   8   9
ATOM      9  C   UNL     1      55.980  -6.552  74.492  1.00  0.00     0.041 C 
ATOM     10  O   UNL     1      56.162  -7.499  75.304  1.00  0.00    -0.550 OA
ATOM     11  O   UNL     1      56.468  -6.657  73.196  1.00  0.00    -0.550 OA
ENDBRANCH   8   9
ENDBRANCH   7   8
ENDBRANCH   6   7
ENDBRANCH   5   6
ENDBRANCH   4   5
ENDBRANCH   3   4
ENDBRANCH   2   3
ENDBRANCH   1   2
BRANCH   1  12
ATOM     12  C   UNL     1      48.654  -0.285  72.957  1.00  0.00     0.000 C 
BRANCH  12  13
ATOM     13  C   UNL     1      48.997  -0.252  74.457  1.00  0.00    -0.000 C 
BRANCH  13  14
ATOM     14  C   UNL     1      48.686  -1.583  75.162  1.00  0.00    -0.000 C 
BRANCH  14  15
ATOM     15  C   UNL     1      49.879  -2.550  75.157  1.00  0.00    -0.000 C 
BRANCH  15  16
ATOM     16  C   UNL     1      49.437  -3.965  74.759  1.00  0.00    -0.000 C 
BRANCH  16  17
ATOM     17  C   UNL     1      49.427  -4.129  73.232  1.00  0.00    -0.000 C 
BRANCH  17  18
ATOM     18  C   UNL     1      48.006  -4.128  72.639  1.00  0.00    -0.000 C 
BRANCH  18  19
ATOM     19  C   UNL     1      47.298  -5.495  72.654  1.00  0.00    -0.003 C 
ATOM     20  C   UNL     1      46.160  -5.568  73.670  1.00  0.00     0.004 C 
ENDBRANCH  18  19
ENDBRANCH  17  18
ENDBRANCH  16  17
ENDBRANCH  15  16
ENDBRANCH  14  15
ENDBRANCH  13  14
ENDBRANCH  12  13
ENDBRANCH   1  12
TORSDOF 16
ENDMDL
MODEL 3
REMARK VINA RESULT:    -4.015      1.605      2.852
REMARK INTER + INTRA:         -10.200
REMARK INTER:                  -7.794
REMARK INTRA:                  -2.406
REMARK UNBOUND:                -2.430
REMARK SMILES CCCCCCCCCCCCCCCCCC(=O)[O-]
REMARK SMILES IDX 10 1 11 2 12 3 13 4 14 5 15 6 16 7 17 8 18 9 19 10 20 11
REMARK SMILES IDX 9 12 8 13 7 14 6 15 5 16 4 17 3 18 2 19 1 20
REMARK H PARENT
REMARK Flexibility Score: inf
ROOT
ATOM      1  C   UNL     1      51.581  -2.886  75.122  1.00  0.00     0.000 C 
ENDROOT
BRANCH   1   2
ATOM      2  C   UNL     1      50.094  -2.623  75.413  1.00  0.00     0.000 C 
BRANCH   2   3
ATOM      3  C   UNL     1      49.337  -3.895  75.825  1.00  0.00     0.000 C 
BRANCH   3   4
ATOM      4  C   UNL     1      47.997  -4.054  75.085  1.00  0.00     0.000 C 
BRANCH   4   5
ATOM      5  C   UNL     1      48.081  -3.610  73.614  1.00  0.00     0.000 C 
BRANCH   5   6
ATOM      6  C   UNL     1      48.464  -4.763  72.672  1.00  0.00     0.000 C 
BRANCH   6   7
ATOM      7  C   UNL     1      47.866  -6.116  73.102  1.00  0.00     0.006 C 
BRANCH   7   8
ATOM      8  C   UNL     1      46.614  -6.529  72.307  1.00  0.00     0.053 C 
BRANCH   8   9
ATOM      9  C   UNL     1      46.688  -7.936  71.798  1.00  0.00     0.041 C 
ATOM     10  O   UNL     1      46.208  -8.231  70.671  1.00  0.00    -0.550 OA
ATOM     11  O   UNL     1      47.260  -8.930  72.582  1.00  0.00    -0.550 OA
ENDBRANCH   8   9
ENDBRANCH   7   8
ENDBRANCH   6   7
ENDBRANCH   5   6
ENDBRANCH   4   5
ENDBRANCH   3   4
ENDBRANCH   2   3
ENDBRANCH   1   2
BRANCH   1  12
ATOM     12  C   UNL     1      51.797  -3.694  73.832  1.00  0.00     0.000 C 
BRANCH  12  13
ATOM     13  C   UNL     1      52.900  -3.100  72.939  1.00  0.00    -0.000 C 
BRANCH  13  14
ATOM     14  C   UNL     1      53.149  -1.609  73.223  1.00  0.00    -0.000 C 
BRANCH  14  15
ATOM     15  C   UNL     1      52.518  -0.690  72.167  1.00  0.00    -0.000 C 
BRANCH  15  16
ATOM     16  C   UNL     1      51.174  -0.133  72.656  1.00  0.00    -0.000 C 
BRANCH  16  17
ATOM     17  C   UNL     1      50.001  -0.848  71.969  1.00  0.00    -0.000 C 
BRANCH  17  18
ATOM     18  C   UNL     1      48.629  -0.325  72.431  1.00  0.00    -0.000 C 
BRANCH  18  19
ATOM     19  C   UNL     1      48.681   0.727  73.553  1.00  0.00    -0.003 C 
ATOM     20  C   UNL     1      47.946   0.290  74.819  1.00  0.00     0.004 C 
ENDBRANCH  18  19
ENDBRANCH  17  18
ENDBRANCH  16  17
ENDBRANCH  15  16
ENDBRANCH  14  15
ENDBRANCH  13  14
ENDBRANCH  12  13
ENDBRANCH   1  12
TORSDOF 16
ENDMDL
MODEL 4
REMARK VINA RESULT:    -3.979      3.294      6.792
REMARK INTER + INTRA:         -10.130
REMARK INTER:                  -8.033
REMARK INTRA:                  -2.097
REMARK UNBOUND:                -2.430
REMARK SMILES CCCCCCCCCCCCCCCCCC(=O)[O-]
REMARK SMILES IDX 10 1 11 2 12 3 13 4 14 5 15 6 16 7 17 8 18 9 19 10 20 11
REMARK SMILES IDX 9 12 8 13 7 14 6 15 5 16 4 17 3 18 2 19 1 20
REMARK H PARENT
REMARK Flexibility Score: inf
ROOT
ATOM      1  C   UNL     1      49.222  -2.125  73.912  1.00  0.00     0.000 C 
ENDROOT
BRANCH   1   2
ATOM      2  C   UNL     1      48.843  -1.707  72.480  1.00  0.00     0.000 C 
BRANCH   2   3
ATOM      3  C   UNL     1      49.624  -0.474  71.998  1.00  0.00     0.000 C 
BRANCH   3   4
ATOM      4  C   UNL     1      50.862  -0.179  72.863  1.00  0.00     0.000 C 
BRANCH   4   5
ATOM      5  C   UNL     1      52.126   0.060  72.020  1.00  0.00     0.000 C 
BRANCH   5   6
ATOM      6  C   UNL     1      53.289  -0.860  72.427  1.00  0.00     0.000 C 
BRANCH   6   7
ATOM      7  C   UNL     1      52.847  -2.315  72.676  1.00  0.00     0.006 C 
BRANCH   7   8
ATOM      8  C   UNL     1      53.192  -2.842  74.081  1.00  0.00     0.053 C 
BRANCH   8   9
ATOM      9  C   UNL     1      53.695  -4.253  74.063  1.00  0.00     0.041 C 
ATOM     10  O   UNL     1      52.961  -5.196  74.463  1.00  0.00    -0.550 OA
ATOM     11  O   UNL     1      54.988  -4.526  73.632  1.00  0.00    -0.550 OA
ENDBRANCH   8   9
ENDBRANCH   7   8
ENDBRANCH   6   7
ENDBRANCH   5   6
ENDBRANCH   4   5
ENDBRANCH   3   4
ENDBRANCH   2   3
ENDBRANCH   1   2
BRANCH   1  12
ATOM     12  C   UNL     1      49.601  -3.611  74.013  1.00  0.00     0.000 C 
BRANCH  12  13
ATOM     13  C   UNL     1      49.504  -4.340  72.661  1.00  0.00    -0.000 C 
BRANCH  13  14
ATOM     14  C   UNL     1      48.664  -5.625  72.743  1.00  0.00    -0.000 C 
BRANCH  14  15
ATOM     15  C   UNL     1      47.167  -5.371  72.516  1.00  0.00    -0.000 C 
BRANCH  15  16
ATOM     16  C   UNL     1      46.386  -5.482  73.833  1.00  0.00    -0.000 C 
BRANCH  16  17
ATOM     17  C   UNL     1      46.932  -6.625  74.701  1.00  0.00    -0.000 C 
BRANCH  17  18
ATOM     18  C   UNL     1      45.947  -7.802  74.829  1.00  0.00    -0.000 C 
BRANCH  18  19
ATOM     19  C   UNL     1      45.178  -8.145  73.541  1.00  0.00    -0.003 C 
ATOM     20  C   UNL     1      45.899  -9.174  72.671  1.00  0.00     0.004 C 
ENDBRANCH  18  19
ENDBRANCH  17  18
ENDBRANCH  16  17
ENDBRANCH  15  16
ENDBRANCH  14  15
ENDBRANCH  13  14
ENDBRANCH  12  13
ENDBRANCH   1  12
TORSDOF 16
ENDMDL
MODEL 5
REMARK VINA RESULT:    -3.968      1.322      2.823
REMARK INTER + INTRA:         -10.110
REMARK INTER:                  -7.574
REMARK INTRA:                  -2.536
REMARK UNBOUND:                -2.430
REMARK SMILES CCCCCCCCCCCCCCCCCC(=O)[O-]
REMARK SMILES IDX 10 1 11 2 12 3 13 4 14 5 15 6 16 7 17 8 18 9 19 10 20 11
REMARK SMILES IDX 9 12 8 13 7 14 6 15 5 16 4 17 3 18 2 19 1 20
REMARK H PARENT
REMARK Flexibility Score: inf
ROOT
ATOM      1  C   UNL     1      50.547  -0.815  73.207  1.00  0.00     0.000 C 
ENDROOT
BRANCH   1   2
ATOM      2  C   UNL     1      49.439  -1.559  72.442  1.00  0.00     0.000 C 
BRANCH   2   3
ATOM      3  C   UNL     1      49.904  -2.923  71.907  1.00  0.00     0.000 C 
BRANCH   3   4
ATOM      4  C   UNL     1      49.476  -4.092  72.812  1.00  0.00     0.000 C 
BRANCH   4   5
ATOM      5  C   UNL     1      48.075  -3.888  73.413  1.00  0.00     0.000 C 
BRANCH   5   6
ATOM      6  C   UNL     1      47.492  -5.185  74.000  1.00  0.00     0.000 C 
BRANCH   6   7
ATOM      7  C   UNL     1      46.297  -5.727  73.192  1.00  0.00     0.006 C 
BRANCH   7   8
ATOM      8  C   UNL     1      45.716  -7.043  73.741  1.00  0.00     0.053 C 
BRANCH   8   9
ATOM      9  C   UNL     1      46.014  -8.219  72.862  1.00  0.00     0.041 C 
ATOM     10  O   UNL     1      46.653  -8.064  71.787  1.00  0.00    -0.550 OA
ATOM     11  O   UNL     1      45.559  -9.484  73.213  1.00  0.00    -0.550 OA
ENDBRANCH   8   9
ENDBRANCH   7   8
ENDBRANCH   6   7
ENDBRANCH   5   6
ENDBRANCH   4   5
ENDBRANCH   3   4
ENDBRANCH   2   3
ENDBRANCH   1   2
BRANCH   1  12
ATOM     12  C   UNL     1      51.502  -0.054  72.273  1.00  0.00     0.000 C 
BRANCH  12  13
ATOM     13  C   UNL     1      52.897  -0.701  72.199  1.00  0.00    -0.000 C 
BRANCH  13  14
ATOM     14  C   UNL     1      53.122  -1.745  73.305  1.00  0.00    -0.000 C 
BRANCH  14  15
ATOM     15  C   UNL     1      53.407  -3.147  72.748  1.00  0.00    -0.000 C 
BRANCH  15  16
ATOM     16  C   UNL     1      53.104  -4.226  73.797  1.00  0.00    -0.000 C 
BRANCH  16  17
ATOM     17  C   UNL     1      52.415  -3.619  75.028  1.00  0.00    -0.000 C 
BRANCH  17  18
ATOM     18  C   UNL     1      51.595  -4.650  75.824  1.00  0.00    -0.000 C 
BRANCH  18  19
ATOM     19  C   UNL     1      50.287  -4.109  76.429  1.00  0.00    -0.003 C 
ATOM     20  C   UNL     1      50.199  -2.584  76.398  1.00  0.00     0.004 C 
ENDBRANCH  18  19
ENDBRANCH  17  18
ENDBRANCH  16  17
ENDBRANCH  15  16
ENDBRANCH  14  15
ENDBRANCH  13  14
ENDBRANCH  12  13
ENDBRANCH   1  12
TORSDOF 16
ENDMDL
MODEL 6
REMARK VINA RESULT:    -3.968      2.698      4.483
REMARK INTER + INTRA:         -10.108
REMARK INTER:                  -7.261
REMARK INTRA:                  -2.847
REMARK UNBOUND:                -2.430
REMARK SMILES CCCCCCCCCCCCCCCCCC(=O)[O-]
REMARK SMILES IDX 10 1 11 2 12 3 13 4 14 5 15 6 16 7 17 8 18 9 19 10 20 11
REMARK SMILES IDX 9 12 8 13 7 14 6 15 5 16 4 17 3 18 2 19 1 20
REMARK H PARENT
REMARK Flexibility Score: inf
ROOT
ATOM      1  C   UNL     1      53.195  -2.780  72.691  1.00  0.00     0.000 C 
ENDROOT
BRANCH   1   2
ATOM      2  C   UNL     1      52.659  -3.697  73.804  1.00  0.00     0.000 C 
BRANCH   2   3
ATOM      3  C   UNL     1      52.261  -2.921  75.069  1.00  0.00     0.000 C 
BRANCH   3   4
ATOM      4  C   UNL     1      50.947  -3.431  75.689  1.00  0.00     0.000 C 
BRANCH   4   5
ATOM      5  C   UNL     1      50.292  -2.392  76.616  1.00  0.00     0.000 C 
BRANCH   5   6
ATOM      6  C   UNL     1      49.075  -1.710  75.969  1.00  0.00     0.000 C 
BRANCH   6   7
ATOM      7  C   UNL     1      47.794  -2.562  76.051  1.00  0.00     0.006 C 
BRANCH   7   8
ATOM      8  C   UNL     1      46.699  -1.961  76.951  1.00  0.00     0.053 C 
BRANCH   8   9
ATOM      9  C   UNL     1      46.824  -2.391  78.380  1.00  0.00     0.041 C 
ATOM     10  O   UNL     1      47.277  -3.532  78.665  1.00  0.00    -0.550 OA
ATOM     11  O   UNL     1      46.412  -1.544  79.402  1.00  0.00    -0.550 OA
ENDBRANCH   8   9
ENDBRANCH   7   8
ENDBRANCH   6   7
ENDBRANCH   5   6
ENDBRANCH   4   5
ENDBRANCH   3   4
ENDBRANCH   2   3
ENDBRANCH   1   2
BRANCH   1  12
ATOM     12  C   UNL     1      53.135  -1.291  73.072  1.00  0.00     0.000 C 
BRANCH  12  13
ATOM     13  C   UNL     1      52.108  -0.508  72.235  1.00  0.00    -0.000 C 
BRANCH  13  14
ATOM     14  C   UNL     1      50.846  -0.148  73.037  1.00  0.00    -0.000 C 
BRANCH  14  15
ATOM     15  C   UNL     1      49.556  -0.643  72.367  1.00  0.00    -0.000 C 
BRANCH  15  16
ATOM     16  C   UNL     1      49.723  -2.077  71.847  1.00  0.00    -0.000 C 
BRANCH  16  17
ATOM     17  C   UNL     1      48.873  -3.061  72.664  1.00  0.00    -0.000 C 
BRANCH  17  18
ATOM     18  C   UNL     1      49.317  -4.525  72.488  1.00  0.00    -0.000 C 
BRANCH  18  19
ATOM     19  C   UNL     1      48.464  -5.556  73.248  1.00  0.00    -0.003 C 
ATOM     20  C   UNL     1      47.040  -5.074  73.514  1.00  0.00     0.004 C 
ENDBRANCH  18  19
ENDBRANCH  17  18
ENDBRANCH  16  17
ENDBRANCH  15  16
ENDBRANCH  14  15
ENDBRANCH  13  14
ENDBRANCH  12  13
ENDBRANCH   1  12
TORSDOF 16
ENDMDL
MODEL 7
REMARK VINA RESULT:    -3.946      3.269      5.282
REMARK INTER + INTRA:         -10.066
REMARK INTER:                  -7.461
REMARK INTRA:                  -2.606
REMARK UNBOUND:                -2.430
REMARK SMILES CCCCCCCCCCCCCCCCCC(=O)[O-]
REMARK SMILES IDX 10 1 11 2 12 3 13 4 14 5 15 6 16 7 17 8 18 9 19 10 20 11
REMARK SMILES IDX 9 12 8 13 7 14 6 15 5 16 4 17 3 18 2 19 1 20
REMARK H PARENT
REMARK Flexibility Score: inf
ROOT
ATOM      1  C   UNL     1      48.222  -3.778  73.243  1.00  0.00     0.000 C 
ENDROOT
BRANCH   1   2
ATOM      2  C   UNL     1      48.077  -3.822  74.774  1.00  0.00     0.000 C 
BRANCH   2   3
ATOM      3  C   UNL     1      48.327  -2.455  75.431  1.00  0.00     0.000 C 
BRANCH   3   4
ATOM      4  C   UNL     1      48.999  -2.574  76.811  1.00  0.00     0.000 C 
BRANCH   4   5
ATOM      5  C   UNL     1      50.324  -3.354  76.755  1.00  0.00     0.000 C 
BRANCH   5   6
ATOM      6  C   UNL     1      50.537  -4.242  77.992  1.00  0.00     0.000 C 
BRANCH   6   7
ATOM      7  C   UNL     1      49.397  -5.255  78.210  1.00  0.00     0.006 C 
BRANCH   7   8
ATOM      8  C   UNL     1      48.994  -5.437  79.684  1.00  0.00     0.053 C 
BRANCH   8   9
ATOM      9  C   UNL     1      48.269  -4.250  80.238  1.00  0.00     0.041 C 
ATOM     10  O   UNL     1      47.191  -3.860  79.714  1.00  0.00    -0.550 OA
ATOM     11  O   UNL     1      48.798  -3.551  81.317  1.00  0.00    -0.550 OA
ENDBRANCH   8   9
ENDBRANCH   7   8
ENDBRANCH   6   7
ENDBRANCH   5   6
ENDBRANCH   4   5
ENDBRANCH   3   4
ENDBRANCH   2   3
ENDBRANCH   1   2
BRANCH   1  12
ATOM     12  C   UNL     1      49.477  -4.514  72.747  1.00  0.00     0.000 C 
BRANCH  12  13
ATOM     13  C   UNL     1      50.563  -3.552  72.234  1.00  0.00    -0.000 C 
BRANCH  13  14
ATOM     14  C   UNL     1      51.704  -3.358  73.246  1.00  0.00    -0.000 C 
BRANCH  14  15
ATOM     15  C   UNL     1      51.842  -1.901  73.713  1.00  0.00    -0.000 C 
BRANCH  15  16
ATOM     16  C   UNL     1      52.287  -0.994  72.558  1.00  0.00    -0.000 C 
BRANCH  16  17
ATOM     17  C   UNL     1      51.237   0.089  72.273  1.00  0.00    -0.000 C 
BRANCH  17  18
ATOM     18  C   UNL     1      50.193   0.221  73.397  1.00  0.00    -0.000 C 
BRANCH  18  19
ATOM     19  C   UNL     1      48.738  -0.028  72.961  1.00  0.00    -0.003 C 
ATOM     20  C   UNL     1      48.625  -0.593  71.547  1.00  0.00     0.004 C 
ENDBRANCH  18  19
ENDBRANCH  17  18
ENDBRANCH  16  17
ENDBRANCH  15  16
ENDBRANCH  14  15
ENDBRANCH  13  14
ENDBRANCH  12  13
ENDBRANCH   1  12
TORSDOF 16
ENDMDL
MODEL 8
REMARK VINA RESULT:    -3.942      3.794      7.079
REMARK INTER + INTRA:         -10.059
REMARK INTER:                  -8.250
REMARK INTRA:                  -1.809
REMARK UNBOUND:                -2.430
REMARK SMILES CCCCCCCCCCCCCCCCCC(=O)[O-]
REMARK SMILES IDX 10 1 11 2 12 3 13 4 14 5 15 6 16 7 17 8 18 9 19 10 20 11
REMARK SMILES IDX 9 12 8 13 7 14 6 15 5 16 4 17 3 18 2 19 1 20
REMARK H PARENT
REMARK Flexibility Score: inf
ROOT
ATOM      1  C   UNL     1      48.162  -0.620  75.100  1.00  0.00     0.000 C 
ENDROOT
BRANCH   1   2
ATOM      2  C   UNL     1      48.910   0.178  74.018  1.00  0.00     0.000 C 
BRANCH   2   3
ATOM      3  C   UNL     1      48.595  -0.314  72.596  1.00  0.00     0.000 C 
BRANCH   3   4
ATOM      4  C   UNL     1      49.835  -0.866  71.871  1.00  0.00     0.000 C 
BRANCH   4   5
ATOM      5  C   UNL     1      51.109  -0.066  72.192  1.00  0.00     0.000 C 
BRANCH   5   6
ATOM      6  C   UNL     1      52.254  -0.960  72.697  1.00  0.00     0.000 C 
BRANCH   6   7
ATOM      7  C   UNL     1      51.760  -2.291  73.295  1.00  0.00     0.006 C 
BRANCH   7   8
ATOM      8  C   UNL     1      52.501  -2.715  74.576  1.00  0.00     0.053 C 
BRANCH   8   9
ATOM      9  C   UNL     1      53.864  -3.271  74.299  1.00  0.00     0.041 C 
ATOM     10  O   UNL     1      54.084  -3.922  73.243  1.00  0.00    -0.550 OA
ATOM     11  O   UNL     1      54.888  -3.096  75.223  1.00  0.00    -0.550 OA
ENDBRANCH   8   9
ENDBRANCH   7   8
ENDBRANCH   6   7
ENDBRANCH   5   6
ENDBRANCH   4   5
ENDBRANCH   3   4
ENDBRANCH   2   3
ENDBRANCH   1   2
BRANCH   1  12
ATOM     12  C   UNL     1      49.025  -1.733  75.716  1.00  0.00     0.000 C 
BRANCH  12  13
ATOM     13  C   UNL     1      48.365  -3.119  75.614  1.00  0.00    -0.000 C 
BRANCH  13  14
ATOM     14  C   UNL     1      48.491  -3.730  74.208  1.00  0.00    -0.000 C 
BRANCH  14  15
ATOM     15  C   UNL     1      47.228  -4.487  73.774  1.00  0.00    -0.000 C 
BRANCH  15  16
ATOM     16  C   UNL     1      47.518  -5.397  72.573  1.00  0.00    -0.000 C 
BRANCH  16  17
ATOM     17  C   UNL     1      46.619  -6.642  72.596  1.00  0.00    -0.000 C 
BRANCH  17  18
ATOM     18  C   UNL     1      47.272  -7.864  71.926  1.00  0.00    -0.000 C 
BRANCH  18  19
ATOM     19  C   UNL     1      46.287  -8.841  71.260  1.00  0.00    -0.003 C 
ATOM     20  C   UNL     1      45.891  -8.421  69.846  1.00  0.00     0.004 C 
ENDBRANCH  18  19
ENDBRANCH  17  18
ENDBRANCH  16  17
ENDBRANCH  15  16
ENDBRANCH  14  15
ENDBRANCH  13  14
ENDBRANCH  12  13
ENDBRANCH   1  12
TORSDOF 16
ENDMDL
MODEL 9
REMARK VINA RESULT:    -3.921      3.113      5.364
REMARK INTER + INTRA:         -10.018
REMARK INTER:                  -7.331
REMARK INTRA:                  -2.686
REMARK UNBOUND:                -2.430
REMARK SMILES CCCCCCCCCCCCCCCCCC(=O)[O-]
REMARK SMILES IDX 10 1 11 2 12 3 13 4 14 5 15 6 16 7 17 8 18 9 19 10 20 11
REMARK SMILES IDX 9 12 8 13 7 14 6 15 5 16 4 17 3 18 2 19 1 20
REMARK H PARENT
REMARK Flexibility Score: inf
ROOT
ATOM      1  C   UNL     1      48.618  -0.590  72.555  1.00  0.00     0.000 C 
ENDROOT
BRANCH   1   2
ATOM      2  C   UNL     1      48.492   0.605  73.516  1.00  0.00     0.000 C 
BRANCH   2   3
ATOM      3  C   UNL     1      48.333   0.172  74.982  1.00  0.00     0.000 C 
BRANCH   3   4
ATOM      4  C   UNL     1      48.872  -1.246  75.243  1.00  0.00     0.000 C 
BRANCH   4   5
ATOM      5  C   UNL     1      47.862  -2.131  75.993  1.00  0.00     0.000 C 
BRANCH   5   6
ATOM      6  C   UNL     1      48.477  -2.812  77.227  1.00  0.00     0.000 C 
BRANCH   6   7
ATOM      7  C   UNL     1      50.012  -2.917  77.153  1.00  0.00     0.006 C 
BRANCH   7   8
ATOM      8  C   UNL     1      50.553  -4.344  77.353  1.00  0.00     0.053 C 
BRANCH   8   9
ATOM      9  C   UNL     1      50.827  -4.664  78.791  1.00  0.00     0.041 C 
ATOM     10  O   UNL     1      51.118  -3.745  79.603  1.00  0.00    -0.550 OA
ATOM     11  O   UNL     1      50.791  -5.981  79.231  1.00  0.00    -0.550 OA
ENDBRANCH   8   9
ENDBRANCH   7   8
ENDBRANCH   6   7
ENDBRANCH   5   6
ENDBRANCH   4   5
ENDBRANCH   3   4
ENDBRANCH   2   3
ENDBRANCH   1   2
BRANCH   1  12
ATOM     12  C   UNL     1      49.903  -0.537  71.712  1.00  0.00     0.000 C 
BRANCH  12  13
ATOM     13  C   UNL     1      51.120  -0.051  72.518  1.00  0.00    -0.000 C 
BRANCH  13  14
ATOM     14  C   UNL     1      52.259  -1.084  72.547  1.00  0.00    -0.000 C 
BRANCH  14  15
ATOM     15  C   UNL     1      52.113  -2.095  73.694  1.00  0.00    -0.000 C 
BRANCH  15  16
ATOM     16  C   UNL     1      51.956  -3.522  73.152  1.00  0.00    -0.000 C 
BRANCH  16  17
ATOM     17  C   UNL     1      50.622  -4.137  73.600  1.00  0.00    -0.000 C 
BRANCH  17  18
ATOM     18  C   UNL     1      49.577  -4.188  72.470  1.00  0.00    -0.000 C 
BRANCH  18  19
ATOM     19  C   UNL     1      48.113  -4.191  72.943  1.00  0.00    -0.003 C 
ATOM     20  C   UNL     1      47.382  -5.493  72.618  1.00  0.00     0.004 C 
ENDBRANCH  18  19
ENDBRANCH  17  18
ENDBRANCH  16  17
ENDBRANCH  15  16
ENDBRANCH  14  15
ENDBRANCH  13  14
ENDBRANCH  12  13
ENDBRANCH   1  12
TORSDOF 16
ENDMDL
