MODEL 1
REMARK VINA RESULT:    -4.750      0.000      0.000
REMARK INTER + INTRA:         -10.255
REMARK INTER:                  -8.915
REMARK INTRA:                  -1.339
REMARK UNBOUND:                -1.339
REMARK SMILES CCCCCCCCC=CCCCCCCCC(=O)[O-]
REMARK SMILES IDX 10 1 9 2 11 3 12 4 13 5 14 6 15 7 16 8 17 9 18 10 19 11
REMARK SMILES IDX 20 12 8 13 7 14 6 15 5 16 4 17 3 18 2 19 1 20
REMARK H PARENT
REMARK Flexibility Score: inf
ROOT
ATOM      1  C   UNL     1      13.733  -1.016 -20.589  1.00  0.00    -0.031 C 
ATOM      2  C   UNL     1      13.239   0.148 -21.045  1.00  0.00    -0.031 C 
ENDROOT
BRANCH   1   3
ATOM      3  C   UNL     1      14.117  -1.280 -19.156  1.00  0.00     0.027 C 
BRANCH   3   4
ATOM      4  C   UNL     1      12.911  -1.799 -18.358  1.00  0.00     0.004 C 
BRANCH   4   5
ATOM      5  C   UNL     1      12.172  -0.676 -17.612  1.00  0.00     0.000 C 
BRANCH   5   6
ATOM      6  C   UNL     1      10.791  -0.382 -18.224  1.00  0.00     0.000 C 
BRANCH   6   7
ATOM      7  C   UNL     1      10.129  -1.633 -18.823  1.00  0.00     0.000 C 
BRANCH   7   8
ATOM      8  C   UNL     1       9.918  -1.524 -20.340  1.00  0.00     0.006 C 
BRANCH   8   9
ATOM      9  C   UNL     1       9.969  -2.905 -21.000  1.00  0.00     0.053 C 
BRANCH   9  10
ATOM     10  C   UNL     1      10.131  -2.775 -22.480  1.00  0.00     0.041 C 
ATOM     11  O   UNL     1      10.567  -1.705 -22.978  1.00  0.00    -0.550 OA
ATOM     12  O   UNL     1       9.847  -3.853 -23.309  1.00  0.00    -0.550 OA
ENDBRANCH   9  10
ENDBRANCH   8   9
ENDBRANCH   7   8
ENDBRANCH   6   7
ENDBRANCH   5   6
ENDBRANCH   4   5
ENDBRANCH   3   4
ENDBRANCH   1   3
BRANCH   2  13
ATOM     13  C   UNL     1      12.900   1.334 -20.175  1.00  0.00     0.027 C 
BRANCH  13  14
ATOM     14  C   UNL     1      13.274   2.669 -20.841  1.00  0.00     0.004 C 
BRANCH  14  15
ATOM     15  C   UNL     1      13.328   3.866 -19.875  1.00  0.00     0.000 C 
BRANCH  15  16
ATOM     16  C   UNL     1      13.598   5.198 -20.596  1.00  0.00     0.000 C 
BRANCH  16  17
ATOM     17  C   UNL     1      15.078   5.616 -20.543  1.00  0.00    -0.000 C 
BRANCH  17  18
ATOM     18  C   UNL     1      15.705   5.983 -21.901  1.00  0.00    -0.000 C 
BRANCH  18  19
ATOM     19  C   UNL     1      16.604   4.878 -22.494  1.00  0.00    -0.003 C 
ATOM     20  C   UNL     1      16.808   5.035 -24.002  1.00  0.00     0.004 C 
ENDBRANCH  18  19
ENDBRANCH  17  18
ENDBRANCH  16  17
ENDBRANCH  15  16
ENDBRANCH  14  15
ENDBRANCH  13  14
ENDBRANCH   2  13
TORSDOF 15
ENDMDL
MODEL 2
REMARK VINA RESULT:    -4.376      1.220      2.202
REMARK INTER + INTRA:          -9.552
REMARK INTER:                  -7.997
REMARK INTRA:                  -1.556
REMARK UNBOUND:                -1.339
REMARK SMILES CCCCCCCCC=CCCCCCCCC(=O)[O-]
REMARK SMILES IDX 10 1 9 2 11 3 12 4 13 5 14 6 15 7 16 8 17 9 18 10 19 11
REMARK SMILES IDX 20 12 8 13 7 14 6 15 5 16 4 17 3 18 2 19 1 20
REMARK H PARENT
REMARK Flexibility Score: inf
ROOT
ATOM      1  C   UNL     1      12.683   1.430 -17.084  1.00  0.00    -0.031 C 
ATOM      2  C   UNL     1      12.986   2.405 -17.957  1.00  0.00    -0.031 C 
ENDROOT
BRANCH   1   3
ATOM      3  C   UNL     1      11.920   0.178 -17.430  1.00  0.00     0.027 C 
BRANCH   3   4
ATOM      4  C   UNL     1      12.778  -1.070 -17.175  1.00  0.00     0.004 C 
BRANCH   4   5
ATOM      5  C   UNL     1      12.969  -1.922 -18.440  1.00  0.00     0.000 C 
BRANCH   5   6
ATOM      6  C   UNL     1      13.991  -1.305 -19.410  1.00  0.00     0.000 C 
BRANCH   6   7
ATOM      7  C   UNL     1      13.373  -0.938 -20.768  1.00  0.00     0.000 C 
BRANCH   7   8
ATOM      8  C   UNL     1      11.839  -0.993 -20.757  1.00  0.00     0.006 C 
BRANCH   8   9
ATOM      9  C   UNL     1      11.295  -1.366 -22.139  1.00  0.00     0.053 C 
BRANCH   9  10
ATOM     10  C   UNL     1      10.276  -2.455 -22.027  1.00  0.00     0.041 C 
ATOM     11  O   UNL     1       9.594  -2.579 -20.976  1.00  0.00    -0.550 OA
ATOM     12  O   UNL     1      10.043  -3.303 -23.102  1.00  0.00    -0.550 OA
ENDBRANCH   9  10
ENDBRANCH   8   9
ENDBRANCH   7   8
ENDBRANCH   6   7
ENDBRANCH   5   6
ENDBRANCH   4   5
ENDBRANCH   3   4
ENDBRANCH   1   3
BRANCH   2  13
ATOM     13  C   UNL     1      12.694   2.351 -19.438  1.00  0.00     0.027 C 
BRANCH  13  14
ATOM     14  C   UNL     1      13.408   3.472 -20.212  1.00  0.00     0.004 C 
BRANCH  14  15
ATOM     15  C   UNL     1      12.652   4.813 -20.227  1.00  0.00     0.000 C 
BRANCH  15  16
ATOM     16  C   UNL     1      13.549   5.996 -20.628  1.00  0.00     0.000 C 
BRANCH  16  17
ATOM     17  C   UNL     1      15.049   5.655 -20.566  1.00  0.00    -0.000 C 
BRANCH  17  18
ATOM     18  C   UNL     1      15.866   6.062 -21.806  1.00  0.00    -0.000 C 
BRANCH  18  19
ATOM     19  C   UNL     1      16.492   4.872 -22.562  1.00  0.00    -0.003 C 
ATOM     20  C   UNL     1      16.752   5.184 -24.036  1.00  0.00     0.004 C 
ENDBRANCH  18  19
ENDBRANCH  17  18
ENDBRANCH  16  17
ENDBRANCH  15  16
ENDBRANCH  14  15
ENDBRANCH  13  14
ENDBRANCH   2  13
TORSDOF 15
ENDMDL
MODEL 3
REMARK VINA RESULT:    -4.304      1.322      2.762
REMARK INTER + INTRA:          -9.418
REMARK INTER:                  -7.527
REMARK INTRA:                  -1.891
REMARK UNBOUND:                -1.339
REMARK SMILES CCCCCCCCC=CCCCCCCCC(=O)[O-]
REMARK SMILES IDX 10 1 9 2 11 3 12 4 13 5 14 6 15 7 16 8 17 9 18 10 19 11
REMARK SMILES IDX 20 12 8 13 7 14 6 15 5 16 4 17 3 18 2 19 1 20
REMARK H PARENT
REMARK Flexibility Score: inf
ROOT
ATOM      1  C   UNL     1      13.257  -2.062 -18.378  1.00  0.00    -0.031 C 
ATOM      2  C   UNL     1      12.472  -1.568 -17.404  1.00  0.00    -0.031 C 
ENDROOT
BRANCH   1   3
ATOM      3  C   UNL     1      14.330  -1.279 -19.090  1.00  0.00     0.027 C 
BRANCH   3   4
ATOM      4  C   UNL     1      14.050  -1.223 -20.599  1.00  0.00     0.004 C 
BRANCH   4   5
ATOM      5  C   UNL     1      13.216   0.005 -20.997  1.00  0.00     0.000 C 
BRANCH   5   6
ATOM      6  C   UNL     1      11.861  -0.385 -21.613  1.00  0.00     0.000 C 
BRANCH   6   7
ATOM      7  C   UNL     1      10.894  -0.991 -20.583  1.00  0.00     0.000 C 
BRANCH   7   8
ATOM      8  C   UNL     1      10.426  -2.402 -20.966  1.00  0.00     0.006 C 
BRANCH   8   9
ATOM      9  C   UNL     1      10.426  -2.584 -22.487  1.00  0.00     0.053 C 
BRANCH   9  10
ATOM     10  C   UNL     1       9.722  -3.848 -22.865  1.00  0.00     0.041 C 
ATOM     11  O   UNL     1       9.553  -4.758 -22.012  1.00  0.00    -0.550 OA
ATOM     12  O   UNL     1       9.208  -4.001 -24.146  1.00  0.00    -0.550 OA
ENDBRANCH   9  10
ENDBRANCH   8   9
ENDBRANCH   7   8
ENDBRANCH   6   7
ENDBRANCH   5   6
ENDBRANCH   4   5
ENDBRANCH   3   4
ENDBRANCH   1   3
BRANCH   2  13
ATOM     13  C   UNL     1      12.611  -0.188 -16.808  1.00  0.00     0.027 C 
BRANCH  13  14
ATOM     14  C   UNL     1      11.992   0.897 -17.706  1.00  0.00     0.004 C 
BRANCH  14  15
ATOM     15  C   UNL     1      12.887   2.131 -17.917  1.00  0.00     0.000 C 
BRANCH  15  16
ATOM     16  C   UNL     1      12.414   3.015 -19.084  1.00  0.00     0.000 C 
BRANCH  16  17
ATOM     17  C   UNL     1      13.577   3.534 -19.948  1.00  0.00    -0.000 C 
BRANCH  17  18
ATOM     18  C   UNL     1      13.438   4.991 -20.428  1.00  0.00    -0.000 C 
BRANCH  18  19
ATOM     19  C   UNL     1      14.756   5.791 -20.389  1.00  0.00    -0.003 C 
ATOM     20  C   UNL     1      15.720   5.388 -21.506  1.00  0.00     0.004 C 
ENDBRANCH  18  19
ENDBRANCH  17  18
ENDBRANCH  16  17
ENDBRANCH  15  16
ENDBRANCH  14  15
ENDBRANCH  13  14
ENDBRANCH   2  13
TORSDOF 15
ENDMDL
MODEL 4
REMARK VINA RESULT:    -4.241      1.197      2.159
REMARK INTER + INTRA:          -9.300
REMARK INTER:                  -7.886
REMARK INTRA:                  -1.414
REMARK UNBOUND:                -1.339
REMARK SMILES CCCCCCCCC=CCCCCCCCC(=O)[O-]
REMARK SMILES IDX 10 1 9 2 11 3 12 4 13 5 14 6 15 7 16 8 17 9 18 10 19 11
REMARK SMILES IDX 20 12 8 13 7 14 6 15 5 16 4 17 3 18 2 19 1 20
REMARK H PARENT
REMARK Flexibility Score: inf
ROOT
ATOM      1  C   UNL     1      11.365   0.137 -17.631  1.00  0.00    -0.031 C 
ATOM      2  C   UNL     1      11.518   1.250 -18.369  1.00  0.00    -0.031 C 
ENDROOT
BRANCH   1   3
ATOM      3  C   UNL     1      12.462  -0.514 -16.828  1.00  0.00     0.027 C 
BRANCH   3   4
ATOM      4  C   UNL     1      13.101  -1.667 -17.617  1.00  0.00     0.004 C 
BRANCH   4   5
ATOM      5  C   UNL     1      12.606  -1.729 -19.072  1.00  0.00     0.000 C 
BRANCH   5   6
ATOM      6  C   UNL     1      13.673  -1.248 -20.071  1.00  0.00     0.000 C 
BRANCH   6   7
ATOM      7  C   UNL     1      13.073  -0.824 -21.420  1.00  0.00     0.000 C 
BRANCH   7   8
ATOM      8  C   UNL     1      11.538  -0.809 -21.409  1.00  0.00     0.006 C 
BRANCH   8   9
ATOM      9  C   UNL     1      10.974  -1.721 -22.502  1.00  0.00     0.053 C 
BRANCH   9  10
ATOM     10  C   UNL     1      10.093  -2.772 -21.907  1.00  0.00     0.041 C 
ATOM     11  O   UNL     1       9.631  -2.628 -20.745  1.00  0.00    -0.550 OA
ATOM     12  O   UNL     1       9.739  -3.889 -22.654  1.00  0.00    -0.550 OA
ENDBRANCH   9  10
ENDBRANCH   8   9
ENDBRANCH   7   8
ENDBRANCH   6   7
ENDBRANCH   5   6
ENDBRANCH   4   5
ENDBRANCH   3   4
ENDBRANCH   1   3
BRANCH   2  13
ATOM     13  C   UNL     1      12.783   2.071 -18.430  1.00  0.00     0.027 C 
BRANCH  13  14
ATOM     14  C   UNL     1      13.027   2.661 -19.829  1.00  0.00     0.004 C 
BRANCH  14  15
ATOM     15  C   UNL     1      13.160   4.195 -19.856  1.00  0.00     0.000 C 
BRANCH  15  16
ATOM     16  C   UNL     1      14.131   4.687 -20.942  1.00  0.00     0.000 C 
BRANCH  16  17
ATOM     17  C   UNL     1      15.041   5.828 -20.455  1.00  0.00    -0.000 C 
BRANCH  17  18
ATOM     18  C   UNL     1      16.363   5.989 -21.229  1.00  0.00    -0.000 C 
BRANCH  18  19
ATOM     19  C   UNL     1      16.190   6.025 -22.762  1.00  0.00    -0.003 C 
ATOM     20  C   UNL     1      16.637   4.726 -23.433  1.00  0.00     0.004 C 
ENDBRANCH  18  19
ENDBRANCH  17  18
ENDBRANCH  16  17
ENDBRANCH  15  16
ENDBRANCH  14  15
ENDBRANCH  13  14
ENDBRANCH   2  13
TORSDOF 15
ENDMDL
MODEL 5
REMARK VINA RESULT:    -4.137      3.295      7.248
REMARK INTER + INTRA:          -9.104
REMARK INTER:                  -7.017
REMARK INTRA:                  -2.087
REMARK UNBOUND:                -1.339
REMARK SMILES CCCCCCCCC=CCCCCCCCC(=O)[O-]
REMARK SMILES IDX 10 1 9 2 11 3 12 4 13 5 14 6 15 7 16 8 17 9 18 10 19 11
REMARK SMILES IDX 20 12 8 13 7 14 6 15 5 16 4 17 3 18 2 19 1 20
REMARK H PARENT
REMARK Flexibility Score: inf
ROOT
ATOM      1  C   UNL     1      13.483  -1.908 -18.550  1.00  0.00    -0.031 C 
ATOM      2  C   UNL     1      12.732  -1.540 -17.499  1.00  0.00    -0.031 C 
ENDROOT
BRANCH   1   3
ATOM      3  C   UNL     1      14.251  -0.955 -19.429  1.00  0.00     0.027 C 
BRANCH   3   4
ATOM      4  C   UNL     1      13.757  -1.037 -20.881  1.00  0.00     0.004 C 
BRANCH   4   5
ATOM      5  C   UNL     1      13.075   0.261 -21.344  1.00  0.00     0.000 C 
BRANCH   5   6
ATOM      6  C   UNL     1      13.161   1.374 -20.286  1.00  0.00     0.000 C 
BRANCH   6   7
ATOM      7  C   UNL     1      13.091   2.782 -20.899  1.00  0.00     0.000 C 
BRANCH   7   8
ATOM      8  C   UNL     1      13.387   3.889 -19.878  1.00  0.00     0.006 C 
BRANCH   8   9
ATOM      9  C   UNL     1      13.652   5.224 -20.581  1.00  0.00     0.053 C 
BRANCH   9  10
ATOM     10  C   UNL     1      15.120   5.439 -20.767  1.00  0.00     0.041 C 
ATOM     11  O   UNL     1      15.669   5.149 -21.862  1.00  0.00    -0.550 OA
ATOM     12  O   UNL     1      15.874   6.006 -19.748  1.00  0.00    -0.550 OA
ENDBRANCH   9  10
ENDBRANCH   8   9
ENDBRANCH   7   8
ENDBRANCH   6   7
ENDBRANCH   5   6
ENDBRANCH   4   5
ENDBRANCH   3   4
ENDBRANCH   1   3
BRANCH   2  13
ATOM     13  C   UNL     1      12.620  -0.127 -16.978  1.00  0.00     0.027 C 
BRANCH  13  14
ATOM     14  C   UNL     1      11.289   0.534 -17.373  1.00  0.00     0.004 C 
BRANCH  14  15
ATOM     15  C   UNL     1      10.219  -0.449 -17.881  1.00  0.00     0.000 C 
BRANCH  15  16
ATOM     16  C   UNL     1      10.130  -0.489 -19.417  1.00  0.00     0.000 C 
BRANCH  16  17
ATOM     17  C   UNL     1       9.695  -1.863 -19.954  1.00  0.00    -0.000 C 
BRANCH  17  18
ATOM     18  C   UNL     1      10.676  -2.523 -20.941  1.00  0.00    -0.000 C 
BRANCH  18  19
ATOM     19  C   UNL     1      10.160  -2.577 -22.394  1.00  0.00    -0.003 C 
ATOM     20  C   UNL     1       9.800  -3.996 -22.836  1.00  0.00     0.004 C 
ENDBRANCH  18  19
ENDBRANCH  17  18
ENDBRANCH  16  17
ENDBRANCH  15  16
ENDBRANCH  14  15
ENDBRANCH  13  14
ENDBRANCH   2  13
TORSDOF 15
ENDMDL
MODEL 6
REMARK VINA RESULT:    -4.130      3.334      7.993
REMARK INTER + INTRA:          -9.091
REMARK INTER:                  -7.858
REMARK INTRA:                  -1.233
REMARK UNBOUND:                -1.339
REMARK SMILES CCCCCCCCC=CCCCCCCCC(=O)[O-]
REMARK SMILES IDX 10 1 9 2 11 3 12 4 13 5 14 6 15 7 16 8 17 9 18 10 19 11
REMARK SMILES IDX 20 12 8 13 7 14 6 15 5 16 4 17 3 18 2 19 1 20
REMARK H PARENT
REMARK Flexibility Score: inf
ROOT
ATOM      1  C   UNL     1      13.380   0.229 -21.073  1.00  0.00    -0.031 C 
ATOM      2  C   UNL     1      13.767  -0.977 -20.623  1.00  0.00    -0.031 C 
ENDROOT
BRANCH   1   3
ATOM      3  C   UNL     1      12.971   1.381 -20.191  1.00  0.00     0.027 C 
BRANCH   3   4
ATOM      4  C   UNL     1      13.241   2.722 -20.890  1.00  0.00     0.004 C 
BRANCH   4   5
ATOM      5  C   UNL     1      13.322   3.895 -19.901  1.00  0.00     0.000 C 
BRANCH   5   6
ATOM      6  C   UNL     1      13.514   5.246 -20.612  1.00  0.00     0.000 C 
BRANCH   6   7
ATOM      7  C   UNL     1      14.933   5.810 -20.440  1.00  0.00     0.000 C 
BRANCH   7   8
ATOM      8  C   UNL     1      15.642   6.052 -21.780  1.00  0.00     0.006 C 
BRANCH   8   9
ATOM      9  C   UNL     1      17.115   5.638 -21.702  1.00  0.00     0.053 C 
BRANCH   9  10
ATOM     10  C   UNL     1      17.662   5.385 -23.071  1.00  0.00     0.041 C 
ATOM     11  O   UNL     1      16.897   5.024 -24.002  1.00  0.00    -0.550 OA
ATOM     12  O   UNL     1      19.010   5.596 -23.330  1.00  0.00    -0.550 OA
ENDBRANCH   9  10
ENDBRANCH   8   9
ENDBRANCH   7   8
ENDBRANCH   6   7
ENDBRANCH   5   6
ENDBRANCH   4   5
ENDBRANCH   3   4
ENDBRANCH   1   3
BRANCH   2  13
ATOM     13  C   UNL     1      13.945  -1.331 -19.166  1.00  0.00     0.027 C 
BRANCH  13  14
ATOM     14  C   UNL     1      12.629  -1.784 -18.513  1.00  0.00     0.004 C 
BRANCH  14  15
ATOM     15  C   UNL     1      11.927  -0.696 -17.680  1.00  0.00     0.000 C 
BRANCH  15  16
ATOM     16  C   UNL     1      10.493  -0.414 -18.160  1.00  0.00     0.000 C 
BRANCH  16  17
ATOM     17  C   UNL     1      10.251  -0.862 -19.612  1.00  0.00    -0.000 C 
BRANCH  17  18
ATOM     18  C   UNL     1       9.604  -2.250 -19.772  1.00  0.00    -0.000 C 
BRANCH  18  19
ATOM     19  C   UNL     1       9.801  -2.876 -21.168  1.00  0.00    -0.003 C 
ATOM     20  C   UNL     1      10.723  -2.043 -22.059  1.00  0.00     0.004 C 
ENDBRANCH  18  19
ENDBRANCH  17  18
ENDBRANCH  16  17
ENDBRANCH  15  16
ENDBRANCH  14  15
ENDBRANCH  13  14
ENDBRANCH   2  13
TORSDOF 15
ENDMDL
MODEL 7
REMARK VINA RESULT:    -3.997      3.482      7.698
REMARK INTER + INTRA:          -8.841
REMARK INTER:                  -7.123
REMARK INTRA:                  -1.717
REMARK UNBOUND:                -1.339
REMARK SMILES CCCCCCCCC=CCCCCCCCC(=O)[O-]
REMARK SMILES IDX 10 1 9 2 11 3 12 4 13 5 14 6 15 7 16 8 17 9 18 10 19 11
REMARK SMILES IDX 20 12 8 13 7 14 6 15 5 16 4 17 3 18 2 19 1 20
REMARK H PARENT
REMARK Flexibility Score: inf
ROOT
ATOM      1  C   UNL     1      13.457   0.192 -20.995  1.00  0.00    -0.031 C 
ATOM      2  C   UNL     1      12.805  -0.770 -21.671  1.00  0.00    -0.031 C 
ENDROOT
BRANCH   1   3
ATOM      3  C   UNL     1      12.791   1.368 -20.328  1.00  0.00     0.027 C 
BRANCH   3   4
ATOM      4  C   UNL     1      13.245   2.687 -20.972  1.00  0.00     0.004 C 
BRANCH   4   5
ATOM      5  C   UNL     1      13.352   3.833 -19.954  1.00  0.00     0.000 C 
BRANCH   5   6
ATOM      6  C   UNL     1      13.632   5.187 -20.629  1.00  0.00     0.000 C 
BRANCH   6   7
ATOM      7  C   UNL     1      15.108   5.605 -20.530  1.00  0.00     0.000 C 
BRANCH   7   8
ATOM      8  C   UNL     1      15.709   5.989 -21.890  1.00  0.00     0.006 C 
BRANCH   8   9
ATOM      9  C   UNL     1      16.262   4.755 -22.610  1.00  0.00     0.053 C 
BRANCH   9  10
ATOM     10  C   UNL     1      17.326   5.149 -23.584  1.00  0.00     0.041 C 
ATOM     11  O   UNL     1      18.474   5.463 -23.175  1.00  0.00    -0.550 OA
ATOM     12  O   UNL     1      17.065   5.119 -24.948  1.00  0.00    -0.550 OA
ENDBRANCH   9  10
ENDBRANCH   8   9
ENDBRANCH   7   8
ENDBRANCH   6   7
ENDBRANCH   5   6
ENDBRANCH   4   5
ENDBRANCH   3   4
ENDBRANCH   1   3
BRANCH   2  13
ATOM     13  C   UNL     1      11.303  -0.873 -21.782  1.00  0.00     0.027 C 
BRANCH  13  14
ATOM     14  C   UNL     1      10.764  -2.182 -21.180  1.00  0.00     0.004 C 
BRANCH  14  15
ATOM     15  C   UNL     1       9.861  -1.988 -19.949  1.00  0.00     0.000 C 
BRANCH  15  16
ATOM     16  C   UNL     1      10.529  -1.145 -18.849  1.00  0.00     0.000 C 
BRANCH  16  17
ATOM     17  C   UNL     1      11.830  -1.775 -18.323  1.00  0.00    -0.000 C 
BRANCH  17  18
ATOM     18  C   UNL     1      12.698  -0.853 -17.446  1.00  0.00    -0.000 C 
BRANCH  18  19
ATOM     19  C   UNL     1      12.003   0.465 -17.044  1.00  0.00    -0.003 C 
ATOM     20  C   UNL     1      13.000   1.579 -16.723  1.00  0.00     0.004 C 
ENDBRANCH  18  19
ENDBRANCH  17  18
ENDBRANCH  16  17
ENDBRANCH  15  16
ENDBRANCH  14  15
ENDBRANCH  13  14
ENDBRANCH   2  13
TORSDOF 15
ENDMDL
MODEL 8
REMARK VINA RESULT:    -3.981      3.495      7.714
REMARK INTER + INTRA:          -8.812
REMARK INTER:                  -7.573
REMARK INTRA:                  -1.239
REMARK UNBOUND:                -1.339
REMARK SMILES CCCCCCCCC=CCCCCCCCC(=O)[O-]
REMARK SMILES IDX 10 1 9 2 11 3 12 4 13 5 14 6 15 7 16 8 17 9 18 10 19 11
REMARK SMILES IDX 20 12 8 13 7 14 6 15 5 16 4 17 3 18 2 19 1 20
REMARK H PARENT
REMARK Flexibility Score: inf
ROOT
ATOM      1  C   UNL     1      12.506   1.390 -17.760  1.00  0.00    -0.031 C 
ATOM      2  C   UNL     1      11.520   0.560 -17.381  1.00  0.00    -0.031 C 
ENDROOT
BRANCH   1   3
ATOM      3  C   UNL     1      12.703   1.899 -19.165  1.00  0.00     0.027 C 
BRANCH   3   4
ATOM      4  C   UNL     1      12.859   3.428 -19.172  1.00  0.00     0.004 C 
BRANCH   4   5
ATOM      5  C   UNL     1      13.564   3.941 -20.437  1.00  0.00     0.000 C 
BRANCH   5   6
ATOM      6  C   UNL     1      13.706   5.473 -20.444  1.00  0.00     0.000 C 
BRANCH   6   7
ATOM      7  C   UNL     1      15.161   5.933 -20.630  1.00  0.00     0.000 C 
BRANCH   7   8
ATOM      8  C   UNL     1      15.904   5.130 -21.707  1.00  0.00     0.006 C 
BRANCH   8   9
ATOM      9  C   UNL     1      16.170   5.993 -22.945  1.00  0.00     0.053 C 
BRANCH   9  10
ATOM     10  C   UNL     1      17.334   5.459 -23.716  1.00  0.00     0.041 C 
ATOM     11  O   UNL     1      18.477   5.418 -23.191  1.00  0.00    -0.550 OA
ATOM     12  O   UNL     1      17.149   4.960 -25.000  1.00  0.00    -0.550 OA
ENDBRANCH   9  10
ENDBRANCH   8   9
ENDBRANCH   7   8
ENDBRANCH   6   7
ENDBRANCH   5   6
ENDBRANCH   4   5
ENDBRANCH   3   4
ENDBRANCH   1   3
BRANCH   2  13
ATOM     13  C   UNL     1      10.402   0.089 -18.280  1.00  0.00     0.027 C 
BRANCH  13  14
ATOM     14  C   UNL     1      10.522  -1.406 -18.621  1.00  0.00     0.004 C 
BRANCH  14  15
ATOM     15  C   UNL     1       9.833  -1.813 -19.936  1.00  0.00     0.000 C 
BRANCH  15  16
ATOM     16  C   UNL     1      10.837  -2.191 -21.039  1.00  0.00     0.000 C 
BRANCH  16  17
ATOM     17  C   UNL     1      11.582  -0.971 -21.609  1.00  0.00    -0.000 C 
BRANCH  17  18
ATOM     18  C   UNL     1      13.067  -0.866 -21.214  1.00  0.00    -0.000 C 
BRANCH  18  19
ATOM     19  C   UNL     1      13.404  -1.535 -19.865  1.00  0.00    -0.003 C 
ATOM     20  C   UNL     1      14.858  -1.310 -19.447  1.00  0.00     0.004 C 
ENDBRANCH  18  19
ENDBRANCH  17  18
ENDBRANCH  16  17
ENDBRANCH  15  16
ENDBRANCH  14  15
ENDBRANCH  13  14
ENDBRANCH   2  13
TORSDOF 15
ENDMDL
MODEL 9
REMARK VINA RESULT:    -3.952      3.291      7.721
REMARK INTER + INTRA:          -8.756
REMARK INTER:                  -7.332
REMARK INTRA:                  -1.424
REMARK UNBOUND:                -1.339
REMARK SMILES CCCCCCCCC=CCCCCCCCC(=O)[O-]
REMARK SMILES IDX 10 1 9 2 11 3 12 4 13 5 14 6 15 7 16 8 17 9 18 10 19 11
REMARK SMILES IDX 20 12 8 13 7 14 6 15 5 16 4 17 3 18 2 19 1 20
REMARK H PARENT
REMARK Flexibility Score: inf
ROOT
ATOM      1  C   UNL     1      12.499   1.379 -16.892  1.00  0.00    -0.031 C 
ATOM      2  C   UNL     1      11.906   0.176 -16.976  1.00  0.00    -0.031 C 
ENDROOT
BRANCH   1   3
ATOM      3  C   UNL     1      13.354   1.989 -17.973  1.00  0.00     0.027 C 
BRANCH   3   4
ATOM      4  C   UNL     1      12.508   2.878 -18.896  1.00  0.00     0.004 C 
BRANCH   4   5
ATOM      5  C   UNL     1      13.272   3.311 -20.158  1.00  0.00     0.000 C 
BRANCH   5   6
ATOM      6  C   UNL     1      13.318   4.841 -20.315  1.00  0.00     0.000 C 
BRANCH   6   7
ATOM      7  C   UNL     1      14.747   5.402 -20.236  1.00  0.00     0.000 C 
BRANCH   7   8
ATOM      8  C   UNL     1      15.345   5.700 -21.618  1.00  0.00     0.006 C 
BRANCH   8   9
ATOM      9  C   UNL     1      16.835   5.348 -21.656  1.00  0.00     0.053 C 
BRANCH   9  10
ATOM     10  C   UNL     1      17.285   5.117 -23.064  1.00  0.00     0.041 C 
ATOM     11  O   UNL     1      16.510   4.579 -23.896  1.00  0.00    -0.550 OA
ATOM     12  O   UNL     1      18.544   5.542 -23.470  1.00  0.00    -0.550 OA
ENDBRANCH   9  10
ENDBRANCH   8   9
ENDBRANCH   7   8
ENDBRANCH   6   7
ENDBRANCH   5   6
ENDBRANCH   4   5
ENDBRANCH   3   4
ENDBRANCH   1   3
BRANCH   2  13
ATOM     13  C   UNL     1      11.924  -0.705 -18.202  1.00  0.00     0.027 C 
BRANCH  13  14
ATOM     14  C   UNL     1      13.240  -1.490 -18.334  1.00  0.00     0.004 C 
BRANCH  14  15
ATOM     15  C   UNL     1      13.905  -1.384 -19.719  1.00  0.00     0.000 C 
BRANCH  15  16
ATOM     16  C   UNL     1      13.214  -0.357 -20.632  1.00  0.00     0.000 C 
BRANCH  16  17
ATOM     17  C   UNL     1      12.415  -1.013 -21.771  1.00  0.00    -0.000 C 
BRANCH  17  18
ATOM     18  C   UNL     1      10.889  -1.047 -21.568  1.00  0.00    -0.000 C 
BRANCH  18  19
ATOM     19  C   UNL     1      10.352  -2.409 -21.083  1.00  0.00    -0.003 C 
ATOM     20  C   UNL     1       9.915  -3.312 -22.237  1.00  0.00     0.004 C 
ENDBRANCH  18  19
ENDBRANCH  17  18
ENDBRANCH  16  17
ENDBRANCH  15  16
ENDBRANCH  14  15
ENDBRANCH  13  14
ENDBRANCH   2  13
TORSDOF 15
ENDMDL
