MODEL 1
REMARK VINA RESULT:    -5.665      0.000      0.000
REMARK INTER + INTRA:          -6.956
REMARK INTER:                  -6.659
REMARK INTRA:                  -0.298
REMARK UNBOUND:                -0.298
REMARK SMILES O=c1c(O)c(-c2ccc(O)cc2)oc2cc(O)cc(O)c12
REMARK SMILES IDX 5 1 3 2 2 3 1 4 21 5 19 6 18 7 16 8 15 9 14 10 13 11 6 12
REMARK SMILES IDX 7 13 8 14 9 15 12 16 11 17 10 18 4 20 20 22 17 24
REMARK H PARENT 10 19 4 21 20 23 17 25
REMARK Flexibility Score: inf
ROOT
ATOM      1  C   UNL     1       2.502  37.619   6.214  1.00  0.00     0.180 A 
ATOM      2  C   UNL     1       2.883  38.492   5.179  1.00  0.00     0.208 A 
ATOM      3  C   UNL     1       4.108  39.171   5.279  1.00  0.00     0.238 A 
ATOM      4  O   UNL     1       4.468  39.909   4.324  1.00  0.00    -0.285 OA
ATOM      5  C   UNL     1       4.928  38.983   6.417  1.00  0.00     0.111 A 
ATOM      6  C   UNL     1       6.170  39.651   6.640  1.00  0.00     0.134 A 
ATOM      7  C   UNL     1       6.960  39.290   7.738  1.00  0.00     0.093 A 
ATOM      8  C   UNL     1       6.526  38.334   8.655  1.00  0.00     0.123 A 
ATOM      9  C   UNL     1       5.286  37.718   8.479  1.00  0.00     0.094 A 
ATOM     10  C   UNL     1       4.492  38.031   7.374  1.00  0.00     0.146 A 
ATOM     11  O   UNL     1       3.324  37.413   7.237  1.00  0.00    -0.452 OA
ENDROOT
BRANCH   1  12
ATOM     12  C   UNL     1       1.216  36.887   6.194  1.00  0.00     0.021 A 
ATOM     13  C   UNL     1       1.180  35.565   5.720  1.00  0.00     0.016 A 
ATOM     14  C   UNL     1      -0.020  34.847   5.714  1.00  0.00     0.047 A 
ATOM     15  C   UNL     1      -1.195  35.435   6.192  1.00  0.00     0.115 A 
ATOM     16  C   UNL     1       0.035  37.466   6.693  1.00  0.00     0.016 A 
ATOM     17  C   UNL     1      -1.164  36.746   6.686  1.00  0.00     0.047 A 
BRANCH  15  18
ATOM     18  O   UNL     1      -2.384  34.708   6.179  1.00  0.00    -0.508 OA
ATOM     19  H   UNL     1      -2.721  34.261   5.333  1.00  0.00     0.293 HD
ENDBRANCH  15  18
ENDBRANCH   1  12
BRANCH   2  20
ATOM     20  O   UNL     1       2.068  38.646   4.055  1.00  0.00    -0.502 OA
ATOM     21  H   UNL     1       1.686  39.543   3.779  1.00  0.00     0.293 HD
ENDBRANCH   2  20
BRANCH   6  22
ATOM     22  O   UNL     1       6.655  40.686   5.835  1.00  0.00    -0.507 OA
ATOM     23  H   UNL     1       7.520  41.180   5.993  1.00  0.00     0.293 HD
ENDBRANCH   6  22
BRANCH   8  24
ATOM     24  O   UNL     1       7.331  38.011   9.745  1.00  0.00    -0.508 OA
ATOM     25  H   UNL     1       7.116  37.227  10.350  1.00  0.00     0.293 HD
ENDBRANCH   8  24
TORSDOF 5
ENDMDL
MODEL 2
REMARK VINA RESULT:    -5.490      2.388      6.821
REMARK INTER + INTRA:          -6.750
REMARK INTER:                  -6.456
REMARK INTRA:                  -0.294
REMARK UNBOUND:                -0.298
REMARK SMILES O=c1c(O)c(-c2ccc(O)cc2)oc2cc(O)cc(O)c12
REMARK SMILES IDX 5 1 3 2 2 3 1 4 21 5 19 6 18 7 16 8 15 9 14 10 13 11 6 12
REMARK SMILES IDX 7 13 8 14 9 15 12 16 11 17 10 18 4 20 20 22 17 24
REMARK H PARENT 10 19 4 21 20 23 17 25
REMARK Flexibility Score: inf
ROOT
ATOM      1  C   UNL     1       2.214  38.223   6.848  1.00  0.00     0.180 A 
ATOM      2  C   UNL     1       1.639  37.177   6.104  1.00  0.00     0.208 A 
ATOM      3  C   UNL     1       0.240  37.095   6.014  1.00  0.00     0.238 A 
ATOM      4  O   UNL     1      -0.267  36.188   5.303  1.00  0.00    -0.285 OA
ATOM      5  C   UNL     1      -0.566  38.048   6.682  1.00  0.00     0.111 A 
ATOM      6  C   UNL     1      -1.993  38.037   6.692  1.00  0.00     0.134 A 
ATOM      7  C   UNL     1      -2.688  39.103   7.275  1.00  0.00     0.093 A 
ATOM      8  C   UNL     1      -2.010  40.146   7.906  1.00  0.00     0.123 A 
ATOM      9  C   UNL     1      -0.615  40.136   7.953  1.00  0.00     0.094 A 
ATOM     10  C   UNL     1       0.106  39.105   7.349  1.00  0.00     0.146 A 
ATOM     11  O   UNL     1       1.432  39.139   7.407  1.00  0.00    -0.452 OA
ENDROOT
BRANCH   1  12
ATOM     12  C   UNL     1       3.679  38.362   7.010  1.00  0.00     0.021 A 
ATOM     13  C   UNL     1       4.386  39.247   6.179  1.00  0.00     0.016 A 
ATOM     14  C   UNL     1       5.766  39.411   6.329  1.00  0.00     0.047 A 
ATOM     15  C   UNL     1       6.455  38.704   7.320  1.00  0.00     0.115 A 
ATOM     16  C   UNL     1       4.374  37.669   8.018  1.00  0.00     0.016 A 
ATOM     17  C   UNL     1       5.755  37.835   8.167  1.00  0.00     0.047 A 
BRANCH  15  18
ATOM     18  O   UNL     1       7.830  38.877   7.458  1.00  0.00    -0.508 OA
ATOM     19  H   UNL     1       8.445  38.893   6.652  1.00  0.00     0.293 HD
ENDBRANCH  15  18
ENDBRANCH   1  12
BRANCH   2  20
ATOM     20  O   UNL     1       2.454  36.260   5.436  1.00  0.00    -0.502 OA
ATOM     21  H   UNL     1       2.339  36.046   4.452  1.00  0.00     0.293 HD
ENDBRANCH   2  20
BRANCH   6  22
ATOM     22  O   UNL     1      -2.769  36.997   6.171  1.00  0.00    -0.507 OA
ATOM     23  H   UNL     1      -3.771  37.029   6.054  1.00  0.00     0.293 HD
ENDBRANCH   6  22
BRANCH   8  24
ATOM     24  O   UNL     1      -2.734  41.183   8.490  1.00  0.00    -0.508 OA
ATOM     25  H   UNL     1      -2.313  42.087   8.671  1.00  0.00     0.293 HD
ENDBRANCH   8  24
TORSDOF 5
ENDMDL
MODEL 3
REMARK VINA RESULT:    -5.214      3.938      5.761
REMARK INTER + INTRA:          -6.426
REMARK INTER:                  -6.450
REMARK INTRA:                   0.023
REMARK UNBOUND:                -0.298
REMARK SMILES O=c1c(O)c(-c2ccc(O)cc2)oc2cc(O)cc(O)c12
REMARK SMILES IDX 5 1 3 2 2 3 1 4 21 5 19 6 18 7 16 8 15 9 14 10 13 11 6 12
REMARK SMILES IDX 7 13 8 14 9 15 12 16 11 17 10 18 4 20 20 22 17 24
REMARK H PARENT 10 19 4 21 20 23 17 25
REMARK Flexibility Score: inf
ROOT
ATOM      1  C   UNL     1      -0.771  39.759   7.280  1.00  0.00     0.180 A 
ATOM      2  C   UNL     1       0.448  40.411   7.024  1.00  0.00     0.208 A 
ATOM      3  C   UNL     1       1.518  39.670   6.495  1.00  0.00     0.238 A 
ATOM      4  O   UNL     1       2.589  40.270   6.217  1.00  0.00    -0.285 OA
ATOM      5  C   UNL     1       1.361  38.286   6.244  1.00  0.00     0.111 A 
ATOM      6  C   UNL     1       2.389  37.430   5.746  1.00  0.00     0.134 A 
ATOM      7  C   UNL     1       2.084  36.105   5.412  1.00  0.00     0.093 A 
ATOM      8  C   UNL     1       0.806  35.586   5.619  1.00  0.00     0.123 A 
ATOM      9  C   UNL     1      -0.192  36.398   6.160  1.00  0.00     0.094 A 
ATOM     10  C   UNL     1       0.073  37.733   6.469  1.00  0.00     0.146 A 
ATOM     11  O   UNL     1      -0.907  38.475   6.973  1.00  0.00    -0.452 OA
ENDROOT
BRANCH   1  12
ATOM     12  C   UNL     1      -1.935  40.465   7.861  1.00  0.00     0.021 A 
ATOM     13  C   UNL     1      -2.426  41.622   7.233  1.00  0.00     0.016 A 
ATOM     14  C   UNL     1      -3.538  42.292   7.751  1.00  0.00     0.047 A 
ATOM     15  C   UNL     1      -4.182  41.808   8.894  1.00  0.00     0.115 A 
ATOM     16  C   UNL     1      -2.599  39.972   8.999  1.00  0.00     0.016 A 
ATOM     17  C   UNL     1      -3.712  40.644   9.515  1.00  0.00     0.047 A 
BRANCH  15  18
ATOM     18  O   UNL     1      -5.289  42.487   9.400  1.00  0.00    -0.508 OA
ATOM     19  H   UNL     1      -5.186  43.337   9.942  1.00  0.00     0.293 HD
ENDBRANCH  15  18
ENDBRANCH   1  12
BRANCH   2  20
ATOM     20  O   UNL     1       0.575  41.782   7.258  1.00  0.00    -0.502 OA
ATOM     21  H   UNL     1      -0.214  42.417   7.211  1.00  0.00     0.293 HD
ENDBRANCH   2  20
BRANCH   6  22
ATOM     22  O   UNL     1       3.722  37.822   5.589  1.00  0.00    -0.507 OA
ATOM     23  H   UNL     1       4.467  37.597   6.231  1.00  0.00     0.293 HD
ENDBRANCH   6  22
BRANCH   8  24
ATOM     24  O   UNL     1       0.542  34.259   5.289  1.00  0.00    -0.508 OA
ATOM     25  H   UNL     1      -0.290  33.785   5.622  1.00  0.00     0.293 HD
ENDBRANCH   8  24
TORSDOF 5
ENDMDL
MODEL 4
REMARK VINA RESULT:    -5.206      4.724      7.706
REMARK INTER + INTRA:          -6.417
REMARK INTER:                  -6.610
REMARK INTRA:                   0.193
REMARK UNBOUND:                -0.298
REMARK SMILES O=c1c(O)c(-c2ccc(O)cc2)oc2cc(O)cc(O)c12
REMARK SMILES IDX 5 1 3 2 2 3 1 4 21 5 19 6 18 7 16 8 15 9 14 10 13 11 6 12
REMARK SMILES IDX 7 13 8 14 9 15 12 16 11 17 10 18 4 20 20 22 17 24
REMARK H PARENT 10 19 4 21 20 23 17 25
REMARK Flexibility Score: inf
ROOT
ATOM      1  C   UNL     1      -2.630  39.606   7.920  1.00  0.00     0.180 A 
ATOM      2  C   UNL     1      -1.376  39.829   7.323  1.00  0.00     0.208 A 
ATOM      3  C   UNL     1      -0.672  38.736   6.791  1.00  0.00     0.238 A 
ATOM      4  O   UNL     1       0.424  38.950   6.210  1.00  0.00    -0.285 OA
ATOM      5  C   UNL     1      -1.221  37.434   6.877  1.00  0.00     0.111 A 
ATOM      6  C   UNL     1      -0.577  36.250   6.408  1.00  0.00     0.134 A 
ATOM      7  C   UNL     1      -1.270  35.034   6.427  1.00  0.00     0.093 A 
ATOM      8  C   UNL     1      -2.556  34.945   6.957  1.00  0.00     0.123 A 
ATOM      9  C   UNL     1      -3.173  36.086   7.473  1.00  0.00     0.094 A 
ATOM     10  C   UNL     1      -2.521  37.320   7.435  1.00  0.00     0.146 A 
ATOM     11  O   UNL     1      -3.147  38.384   7.926  1.00  0.00    -0.452 OA
ENDROOT
BRANCH   1  12
ATOM     12  C   UNL     1      -3.420  40.702   8.525  1.00  0.00     0.021 A 
ATOM     13  C   UNL     1      -3.522  41.933   7.855  1.00  0.00     0.016 A 
ATOM     14  C   UNL     1      -4.282  42.974   8.397  1.00  0.00     0.047 A 
ATOM     15  C   UNL     1      -4.960  42.794   9.606  1.00  0.00     0.115 A 
ATOM     16  C   UNL     1      -4.121  40.521   9.731  1.00  0.00     0.016 A 
ATOM     17  C   UNL     1      -4.881  41.564  10.271  1.00  0.00     0.047 A 
BRANCH  15  18
ATOM     18  O   UNL     1      -5.713  43.841  10.135  1.00  0.00    -0.508 OA
ATOM     19  H   UNL     1      -5.357  44.423  10.885  1.00  0.00     0.293 HD
ENDBRANCH  15  18
ENDBRANCH   1  12
BRANCH   2  20
ATOM     20  O   UNL     1      -0.863  41.125   7.229  1.00  0.00    -0.502 OA
ATOM     21  H   UNL     1      -1.453  41.933   7.068  1.00  0.00     0.293 HD
ENDBRANCH   2  20
BRANCH   6  22
ATOM     22  O   UNL     1       0.741  36.211   5.943  1.00  0.00    -0.507 OA
ATOM     23  H   UNL     1       1.334  37.019   5.827  1.00  0.00     0.293 HD
ENDBRANCH   6  22
BRANCH   8  24
ATOM     24  O   UNL     1      -3.210  33.715   6.974  1.00  0.00    -0.508 OA
ATOM     25  H   UNL     1      -2.701  32.843   6.878  1.00  0.00     0.293 HD
ENDBRANCH   8  24
TORSDOF 5
ENDMDL
MODEL 5
REMARK VINA RESULT:    -5.121      3.818      6.078
REMARK INTER + INTRA:          -6.317
REMARK INTER:                  -6.173
REMARK INTRA:                  -0.144
REMARK UNBOUND:                -0.298
REMARK SMILES O=c1c(O)c(-c2ccc(O)cc2)oc2cc(O)cc(O)c12
REMARK SMILES IDX 5 1 3 2 2 3 1 4 21 5 19 6 18 7 16 8 15 9 14 10 13 11 6 12
REMARK SMILES IDX 7 13 8 14 9 15 12 16 11 17 10 18 4 20 20 22 17 24
REMARK H PARENT 10 19 4 21 20 23 17 25
REMARK Flexibility Score: inf
ROOT
ATOM      1  C   UNL     1      -1.681  38.890   7.449  1.00  0.00     0.180 A 
ATOM      2  C   UNL     1      -2.141  37.659   6.949  1.00  0.00     0.208 A 
ATOM      3  C   UNL     1      -1.220  36.777   6.359  1.00  0.00     0.238 A 
ATOM      4  O   UNL     1      -1.629  35.655   5.963  1.00  0.00    -0.285 OA
ATOM      5  C   UNL     1       0.144  37.143   6.262  1.00  0.00     0.111 A 
ATOM      6  C   UNL     1       1.156  36.345   5.649  1.00  0.00     0.134 A 
ATOM      7  C   UNL     1       2.494  36.747   5.727  1.00  0.00     0.093 A 
ATOM      8  C   UNL     1       2.851  37.950   6.337  1.00  0.00     0.123 A 
ATOM      9  C   UNL     1       1.863  38.767   6.888  1.00  0.00     0.094 A 
ATOM     10  C   UNL     1       0.523  38.375   6.857  1.00  0.00     0.146 A 
ATOM     11  O   UNL     1      -0.385  39.176   7.403  1.00  0.00    -0.452 OA
ENDROOT
BRANCH   1  12
ATOM     12  C   UNL     1      -2.593  39.882   8.061  1.00  0.00     0.021 A 
ATOM     13  C   UNL     1      -3.200  39.595   9.295  1.00  0.00     0.016 A 
ATOM     14  C   UNL     1      -4.048  40.527   9.901  1.00  0.00     0.047 A 
ATOM     15  C   UNL     1      -4.288  41.762   9.291  1.00  0.00     0.115 A 
ATOM     16  C   UNL     1      -2.824  41.134   7.461  1.00  0.00     0.016 A 
ATOM     17  C   UNL     1      -3.671  42.065   8.071  1.00  0.00     0.047 A 
BRANCH  15  18
ATOM     18  O   UNL     1      -5.136  42.680   9.907  1.00  0.00    -0.508 OA
ATOM     19  H   UNL     1      -5.228  42.721  10.915  1.00  0.00     0.293 HD
ENDBRANCH  15  18
ENDBRANCH   1  12
BRANCH   2  20
ATOM     20  O   UNL     1      -3.487  37.308   7.074  1.00  0.00    -0.502 OA
ATOM     21  H   UNL     1      -3.878  36.950   7.938  1.00  0.00     0.293 HD
ENDBRANCH   2  20
BRANCH   6  22
ATOM     22  O   UNL     1       0.897  35.172   4.934  1.00  0.00    -0.507 OA
ATOM     23  H   UNL     1       1.570  34.439   4.769  1.00  0.00     0.293 HD
ENDBRANCH   6  22
BRANCH   8  24
ATOM     24  O   UNL     1       4.191  38.326   6.382  1.00  0.00    -0.508 OA
ATOM     25  H   UNL     1       4.479  39.216   6.774  1.00  0.00     0.293 HD
ENDBRANCH   8  24
TORSDOF 5
ENDMDL
MODEL 6
REMARK VINA RESULT:    -5.096     10.032     11.557
REMARK INTER + INTRA:          -6.287
REMARK INTER:                  -6.000
REMARK INTRA:                  -0.288
REMARK UNBOUND:                -0.298
REMARK SMILES O=c1c(O)c(-c2ccc(O)cc2)oc2cc(O)cc(O)c12
REMARK SMILES IDX 5 1 3 2 2 3 1 4 21 5 19 6 18 7 16 8 15 9 14 10 13 11 6 12
REMARK SMILES IDX 7 13 8 14 9 15 12 16 11 17 10 18 4 20 20 22 17 24
REMARK H PARENT 10 19 4 21 20 23 17 25
REMARK Flexibility Score: inf
ROOT
ATOM      1  C   UNL     1      -4.709  44.441   8.609  1.00  0.00     0.180 A 
ATOM      2  C   UNL     1      -5.727  44.852   7.730  1.00  0.00     0.208 A 
ATOM      3  C   UNL     1      -5.958  46.226   7.552  1.00  0.00     0.238 A 
ATOM      4  O   UNL     1      -6.833  46.589   6.724  1.00  0.00    -0.285 OA
ATOM      5  C   UNL     1      -5.181  47.170   8.266  1.00  0.00     0.111 A 
ATOM      6  C   UNL     1      -5.355  48.585   8.194  1.00  0.00     0.134 A 
ATOM      7  C   UNL     1      -4.444  49.427   8.842  1.00  0.00     0.093 A 
ATOM      8  C   UNL     1      -3.406  48.907   9.614  1.00  0.00     0.123 A 
ATOM      9  C   UNL     1      -3.261  47.524   9.740  1.00  0.00     0.094 A 
ATOM     10  C   UNL     1      -4.133  46.659   9.076  1.00  0.00     0.146 A 
ATOM     11  O   UNL     1      -3.954  45.350   9.213  1.00  0.00    -0.452 OA
ENDROOT
BRANCH   1  12
ATOM     12  C   UNL     1      -4.422  43.012   8.867  1.00  0.00     0.021 A 
ATOM     13  C   UNL     1      -3.517  42.326   8.040  1.00  0.00     0.016 A 
ATOM     14  C   UNL     1      -3.215  40.983   8.280  1.00  0.00     0.047 A 
ATOM     15  C   UNL     1      -3.801  40.311   9.357  1.00  0.00     0.115 A 
ATOM     16  C   UNL     1      -4.994  42.336   9.961  1.00  0.00     0.016 A 
ATOM     17  C   UNL     1      -4.689  40.992  10.200  1.00  0.00     0.047 A 
BRANCH  15  18
ATOM     18  O   UNL     1      -3.491  38.972   9.584  1.00  0.00    -0.508 OA
ATOM     19  H   UNL     1      -2.678  38.701  10.126  1.00  0.00     0.293 HD
ENDBRANCH  15  18
ENDBRANCH   1  12
BRANCH   2  20
ATOM     20  O   UNL     1      -6.467  43.905   7.019  1.00  0.00    -0.502 OA
ATOM     21  H   UNL     1      -7.198  43.350   7.449  1.00  0.00     0.293 HD
ENDBRANCH   2  20
BRANCH   6  22
ATOM     22  O   UNL     1      -6.414  49.207   7.525  1.00  0.00    -0.507 OA
ATOM     23  H   UNL     1      -6.736  50.145   7.706  1.00  0.00     0.293 HD
ENDBRANCH   6  22
BRANCH   8  24
ATOM     24  O   UNL     1      -2.527  49.775  10.259  1.00  0.00    -0.508 OA
ATOM     25  H   UNL     1      -2.148  50.590   9.790  1.00  0.00     0.293 HD
ENDBRANCH   8  24
TORSDOF 5
ENDMDL
MODEL 7
REMARK VINA RESULT:    -5.078      2.219      6.956
REMARK INTER + INTRA:          -6.266
REMARK INTER:                  -6.176
REMARK INTRA:                  -0.090
REMARK UNBOUND:                -0.298
REMARK SMILES O=c1c(O)c(-c2ccc(O)cc2)oc2cc(O)cc(O)c12
REMARK SMILES IDX 5 1 3 2 2 3 1 4 21 5 19 6 18 7 16 8 15 9 14 10 13 11 6 12
REMARK SMILES IDX 7 13 8 14 9 15 12 16 11 17 10 18 4 20 20 22 17 24
REMARK H PARENT 10 19 4 21 20 23 17 25
REMARK Flexibility Score: inf
ROOT
ATOM      1  C   UNL     1       1.541  38.502   6.945  1.00  0.00     0.180 A 
ATOM      2  C   UNL     1       0.749  39.661   7.029  1.00  0.00     0.208 A 
ATOM      3  C   UNL     1      -0.647  39.540   6.937  1.00  0.00     0.238 A 
ATOM      4  O   UNL     1      -1.352  40.574   7.067  1.00  0.00    -0.285 OA
ATOM      5  C   UNL     1      -1.232  38.265   6.746  1.00  0.00     0.111 A 
ATOM      6  C   UNL     1      -2.632  38.030   6.599  1.00  0.00     0.134 A 
ATOM      7  C   UNL     1      -3.110  36.715   6.547  1.00  0.00     0.093 A 
ATOM      8  C   UNL     1      -2.235  35.630   6.569  1.00  0.00     0.123 A 
ATOM      9  C   UNL     1      -0.860  35.850   6.653  1.00  0.00     0.094 A 
ATOM     10  C   UNL     1      -0.356  37.149   6.743  1.00  0.00     0.146 A 
ATOM     11  O   UNL     1       0.959  37.315   6.832  1.00  0.00    -0.452 OA
ENDROOT
BRANCH   1  12
ATOM     12  C   UNL     1       3.019  38.552   7.008  1.00  0.00     0.021 A 
ATOM     13  C   UNL     1       3.697  37.786   7.971  1.00  0.00     0.016 A 
ATOM     14  C   UNL     1       5.094  37.800   8.034  1.00  0.00     0.047 A 
ATOM     15  C   UNL     1       5.831  38.568   7.127  1.00  0.00     0.115 A 
ATOM     16  C   UNL     1       3.768  39.307   6.086  1.00  0.00     0.016 A 
ATOM     17  C   UNL     1       5.165  39.319   6.150  1.00  0.00     0.047 A 
BRANCH  15  18
ATOM     18  O   UNL     1       7.222  38.574   7.202  1.00  0.00    -0.508 OA
ATOM     19  H   UNL     1       7.722  39.294   7.711  1.00  0.00     0.293 HD
ENDBRANCH  15  18
ENDBRANCH   1  12
BRANCH   2  20
ATOM     20  O   UNL     1       1.347  40.907   7.240  1.00  0.00    -0.502 OA
ATOM     21  H   UNL     1       0.861  41.779   7.069  1.00  0.00     0.293 HD
ENDBRANCH   2  20
BRANCH   6  22
ATOM     22  O   UNL     1      -3.585  39.046   6.475  1.00  0.00    -0.507 OA
ATOM     23  H   UNL     1      -3.372  40.014   6.288  1.00  0.00     0.293 HD
ENDBRANCH   6  22
BRANCH   8  24
ATOM     24  O   UNL     1      -2.745  34.335   6.499  1.00  0.00    -0.508 OA
ATOM     25  H   UNL     1      -2.147  33.539   6.308  1.00  0.00     0.293 HD
ENDBRANCH   8  24
TORSDOF 5
ENDMDL
MODEL 8
REMARK VINA RESULT:    -4.978      6.491      9.322
REMARK INTER + INTRA:          -6.148
REMARK INTER:                  -5.920
REMARK INTRA:                  -0.228
REMARK UNBOUND:                -0.298
REMARK SMILES O=c1c(O)c(-c2ccc(O)cc2)oc2cc(O)cc(O)c12
REMARK SMILES IDX 5 1 3 2 2 3 1 4 21 5 19 6 18 7 16 8 15 9 14 10 13 11 6 12
REMARK SMILES IDX 7 13 8 14 9 15 12 16 11 17 10 18 4 20 20 22 17 24
REMARK H PARENT 10 19 4 21 20 23 17 25
REMARK Flexibility Score: inf
ROOT
ATOM      1  C   UNL     1      -2.624  40.744   8.227  1.00  0.00     0.180 A 
ATOM      2  C   UNL     1      -3.488  40.354   9.266  1.00  0.00     0.208 A 
ATOM      3  C   UNL     1      -4.474  41.252   9.705  1.00  0.00     0.238 A 
ATOM      4  O   UNL     1      -5.278  40.876  10.597  1.00  0.00    -0.285 OA
ATOM      5  C   UNL     1      -4.574  42.534   9.112  1.00  0.00     0.111 A 
ATOM      6  C   UNL     1      -5.509  43.538   9.505  1.00  0.00     0.134 A 
ATOM      7  C   UNL     1      -5.606  44.720   8.763  1.00  0.00     0.093 A 
ATOM      8  C   UNL     1      -4.758  44.964   7.683  1.00  0.00     0.123 A 
ATOM      9  C   UNL     1      -3.800  44.014   7.326  1.00  0.00     0.094 A 
ATOM     10  C   UNL     1      -3.704  42.810   8.026  1.00  0.00     0.146 A 
ATOM     11  O   UNL     1      -2.786  41.928   7.648  1.00  0.00    -0.452 OA
ENDROOT
BRANCH   1  12
ATOM     12  C   UNL     1      -1.544  39.864   7.728  1.00  0.00     0.021 A 
ATOM     13  C   UNL     1      -1.862  38.795   6.874  1.00  0.00     0.016 A 
ATOM     14  C   UNL     1      -0.856  37.964   6.372  1.00  0.00     0.047 A 
ATOM     15  C   UNL     1       0.482  38.199   6.705  1.00  0.00     0.115 A 
ATOM     16  C   UNL     1      -0.194  40.107   8.044  1.00  0.00     0.016 A 
ATOM     17  C   UNL     1       0.811  39.275   7.540  1.00  0.00     0.047 A 
BRANCH  15  18
ATOM     18  O   UNL     1       1.475  37.363   6.199  1.00  0.00    -0.508 OA
ATOM     19  H   UNL     1       2.328  37.737   5.800  1.00  0.00     0.293 HD
ENDBRANCH  15  18
ENDBRANCH   1  12
BRANCH   2  20
ATOM     20  O   UNL     1      -3.386  39.076   9.822  1.00  0.00    -0.502 OA
ATOM     21  H   UNL     1      -2.521  38.720  10.212  1.00  0.00     0.293 HD
ENDBRANCH   2  20
BRANCH   6  22
ATOM     22  O   UNL     1      -6.340  43.434  10.625  1.00  0.00    -0.507 OA
ATOM     23  H   UNL     1      -6.025  43.207  11.556  1.00  0.00     0.293 HD
ENDBRANCH   6  22
BRANCH   8  24
ATOM     24  O   UNL     1      -4.872  46.159   6.976  1.00  0.00    -0.508 OA
ATOM     25  H   UNL     1      -5.016  47.044   7.449  1.00  0.00     0.293 HD
ENDBRANCH   8  24
TORSDOF 5
ENDMDL
MODEL 9
REMARK VINA RESULT:    -4.967      3.623      8.443
REMARK INTER + INTRA:          -6.135
REMARK INTER:                  -5.843
REMARK INTRA:                  -0.292
REMARK UNBOUND:                -0.298
REMARK SMILES O=c1c(O)c(-c2ccc(O)cc2)oc2cc(O)cc(O)c12
REMARK SMILES IDX 5 1 3 2 2 3 1 4 21 5 19 6 18 7 16 8 15 9 14 10 13 11 6 12
REMARK SMILES IDX 7 13 8 14 9 15 12 16 11 17 10 18 4 20 20 22 17 24
REMARK H PARENT 10 19 4 21 20 23 17 25
REMARK Flexibility Score: inf
ROOT
ATOM      1  C   UNL     1      -1.614  35.319   7.342  1.00  0.00     0.180 A 
ATOM      2  C   UNL     1      -2.909  35.278   6.796  1.00  0.00     0.208 A 
ATOM      3  C   UNL     1      -3.958  34.756   7.570  1.00  0.00     0.238 A 
ATOM      4  O   UNL     1      -5.124  34.772   7.097  1.00  0.00    -0.285 OA
ATOM      5  C   UNL     1      -3.696  34.266   8.873  1.00  0.00     0.111 A 
ATOM      6  C   UNL     1      -4.675  33.678   9.729  1.00  0.00     0.134 A 
ATOM      7  C   UNL     1      -4.331  33.348  11.046  1.00  0.00     0.093 A 
ATOM      8  C   UNL     1      -3.030  33.523  11.516  1.00  0.00     0.123 A 
ATOM      9  C   UNL     1      -2.050  34.041  10.668  1.00  0.00     0.094 A 
ATOM     10  C   UNL     1      -2.372  34.413   9.361  1.00  0.00     0.146 A 
ATOM     11  O   UNL     1      -1.413  34.913   8.590  1.00  0.00    -0.452 OA
ENDROOT
BRANCH   1  12
ATOM     12  C   UNL     1      -0.454  35.832   6.579  1.00  0.00     0.021 A 
ATOM     13  C   UNL     1      -0.125  37.196   6.653  1.00  0.00     0.016 A 
ATOM     14  C   UNL     1       0.980  37.697   5.959  1.00  0.00     0.047 A 
ATOM     15  C   UNL     1       1.778  36.841   5.194  1.00  0.00     0.115 A 
ATOM     16  C   UNL     1       0.365  34.972   5.823  1.00  0.00     0.016 A 
ATOM     17  C   UNL     1       1.470  35.476   5.130  1.00  0.00     0.047 A 
BRANCH  15  18
ATOM     18  O   UNL     1       2.876  37.355   4.506  1.00  0.00    -0.508 OA
ATOM     19  H   UNL     1       3.357  36.813   3.797  1.00  0.00     0.293 HD
ENDBRANCH  15  18
ENDBRANCH   1  12
BRANCH   2  20
ATOM     20  O   UNL     1      -3.149  35.787   5.517  1.00  0.00    -0.502 OA
ATOM     21  H   UNL     1      -3.908  36.430   5.321  1.00  0.00     0.293 HD
ENDBRANCH   2  20
BRANCH   6  22
ATOM     22  O   UNL     1      -5.980  33.376   9.331  1.00  0.00    -0.507 OA
ATOM     23  H   UNL     1      -6.279  33.272   8.373  1.00  0.00     0.293 HD
ENDBRANCH   6  22
BRANCH   8  24
ATOM     24  O   UNL     1      -2.720  33.168  12.827  1.00  0.00    -0.508 OA
ATOM     25  H   UNL     1      -2.465  32.219  13.074  1.00  0.00     0.293 HD
ENDBRANCH   8  24
TORSDOF 5
ENDMDL
