MODEL 1
REMARK VINA RESULT:    -1.736      0.000      0.000
REMARK INTER + INTRA:          -4.727
REMARK INTER:                  -2.954
REMARK INTRA:                  -1.772
REMARK UNBOUND:                -1.772
REMARK SMILES CCCCCCCCCCCCCC(=O)[O-]
REMARK SMILES IDX 8 1 9 2 10 3 11 4 12 5 13 6 14 7 15 8 16 9 7 10 6 11 5 12
REMARK SMILES IDX 4 13 3 14 2 15 1 16
REMARK H PARENT
REMARK Flexibility Score: inf
ROOT
ATOM      1  C   UNL     1      21.628  26.496  13.571  1.00  0.00     0.000 C 
ENDROOT
BRANCH   1   2
ATOM      2  C   UNL     1      22.648  25.651  14.349  1.00  0.00     0.000 C 
BRANCH   2   3
ATOM      3  C   UNL     1      23.689  24.991  13.431  1.00  0.00     0.000 C 
BRANCH   3   4
ATOM      4  C   UNL     1      23.718  23.456  13.561  1.00  0.00     0.000 C 
BRANCH   4   5
ATOM      5  C   UNL     1      25.062  22.862  14.028  1.00  0.00     0.006 C 
BRANCH   5   6
ATOM      6  C   UNL     1      25.867  23.766  14.974  1.00  0.00     0.053 C 
BRANCH   6   7
ATOM      7  C   UNL     1      25.558  23.491  16.414  1.00  0.00     0.041 C 
ATOM      8  O   UNL     1      25.104  22.369  16.760  1.00  0.00    -0.550 OA
ATOM      9  O   UNL     1      25.739  24.484  17.367  1.00  0.00    -0.550 OA
ENDBRANCH   6   7
ENDBRANCH   5   6
ENDBRANCH   4   5
ENDBRANCH   3   4
ENDBRANCH   2   3
ENDBRANCH   1   2
BRANCH   1  10
ATOM     10  C   UNL     1      22.148  26.933  12.190  1.00  0.00     0.000 C 
BRANCH  10  11
ATOM     11  C   UNL     1      22.781  28.332  12.214  1.00  0.00    -0.000 C 
BRANCH  11  12
ATOM     12  C   UNL     1      24.291  28.302  11.919  1.00  0.00    -0.000 C 
BRANCH  12  13
ATOM     13  C   UNL     1      25.128  28.878  13.071  1.00  0.00    -0.000 C 
BRANCH  13  14
ATOM     14  C   UNL     1      24.271  29.260  14.291  1.00  0.00    -0.000 C 
BRANCH  14  15
ATOM     15  C   UNL     1      24.654  28.469  15.551  1.00  0.00    -0.003 C 
ATOM     16  C   UNL     1      25.774  27.460  15.295  1.00  0.00     0.004 C 
ENDBRANCH  14  15
ENDBRANCH  13  14
ENDBRANCH  12  13
ENDBRANCH  11  12
ENDBRANCH  10  11
ENDBRANCH   1  10
TORSDOF 12
ENDMDL
MODEL 2
REMARK VINA RESULT:    -1.736      2.907      5.627
REMARK INTER + INTRA:          -4.727
REMARK INTER:                  -2.934
REMARK INTRA:                  -1.793
REMARK UNBOUND:                -1.772
REMARK SMILES CCCCCCCCCCCCCC(=O)[O-]
REMARK SMILES IDX 8 1 9 2 10 3 11 4 12 5 13 6 14 7 15 8 16 9 7 10 6 11 5 12
REMARK SMILES IDX 4 13 3 14 2 15 1 16
REMARK H PARENT
REMARK Flexibility Score: inf
ROOT
ATOM      1  C   UNL     1      23.653  25.204  13.584  1.00  0.00     0.000 C 
ENDROOT
BRANCH   1   2
ATOM      2  C   UNL     1      22.355  25.703  14.237  1.00  0.00     0.000 C 
BRANCH   2   3
ATOM      3  C   UNL     1      22.542  27.039  14.975  1.00  0.00     0.000 C 
BRANCH   3   4
ATOM      4  C   UNL     1      23.982  27.249  15.479  1.00  0.00     0.000 C 
BRANCH   4   5
ATOM      5  C   UNL     1      24.555  28.663  15.258  1.00  0.00     0.006 C 
BRANCH   5   6
ATOM      6  C   UNL     1      23.858  29.470  14.152  1.00  0.00     0.053 C 
BRANCH   6   7
ATOM      7  C   UNL     1      24.663  29.504  12.889  1.00  0.00     0.041 C 
ATOM      8  O   UNL     1      24.230  30.119  11.879  1.00  0.00    -0.550 OA
ATOM      9  O   UNL     1      25.874  28.828  12.816  1.00  0.00    -0.550 OA
ENDBRANCH   6   7
ENDBRANCH   5   6
ENDBRANCH   4   5
ENDBRANCH   3   4
ENDBRANCH   2   3
ENDBRANCH   1   2
BRANCH   1  10
ATOM     10  C   UNL     1      23.627  23.694  13.287  1.00  0.00     0.000 C 
BRANCH  10  11
ATOM     11  C   UNL     1      24.814  22.949  13.916  1.00  0.00    -0.000 C 
BRANCH  11  12
ATOM     12  C   UNL     1      25.511  23.770  15.015  1.00  0.00    -0.000 C 
BRANCH  12  13
ATOM     13  C   UNL     1      25.210  23.242  16.426  1.00  0.00    -0.000 C 
BRANCH  13  14
ATOM     14  C   UNL     1      24.029  23.972  17.090  1.00  0.00    -0.000 C 
BRANCH  14  15
ATOM     15  C   UNL     1      22.692  23.247  16.874  1.00  0.00    -0.003 C 
ATOM     16  C   UNL     1      21.512  23.991  17.499  1.00  0.00     0.004 C 
ENDBRANCH  14  15
ENDBRANCH  13  14
ENDBRANCH  12  13
ENDBRANCH  11  12
ENDBRANCH  10  11
ENDBRANCH   1  10
TORSDOF 12
ENDMDL
MODEL 3
REMARK VINA RESULT:    -1.699     22.794     24.560
REMARK INTER + INTRA:          -4.663
REMARK INTER:                  -2.481
REMARK INTRA:                  -2.182
REMARK UNBOUND:                -1.772
REMARK SMILES CCCCCCCCCCCCCC(=O)[O-]
REMARK SMILES IDX 8 1 9 2 10 3 11 4 12 5 13 6 14 7 15 8 16 9 7 10 6 11 5 12
REMARK SMILES IDX 4 13 3 14 2 15 1 16
REMARK H PARENT
REMARK Flexibility Score: inf
ROOT
ATOM      1  C   UNL     1       7.606  13.697  25.572  1.00  0.00     0.000 C 
ENDROOT
BRANCH   1   2
ATOM      2  C   UNL     1       9.029  14.101  25.988  1.00  0.00     0.000 C 
BRANCH   2   3
ATOM      3  C   UNL     1      10.109  13.435  25.120  1.00  0.00     0.000 C 
BRANCH   3   4
ATOM      4  C   UNL     1       9.529  12.418  24.118  1.00  0.00     0.000 C 
BRANCH   4   5
ATOM      5  C   UNL     1      10.082  10.983  24.245  1.00  0.00     0.006 C 
BRANCH   5   6
ATOM      6  C   UNL     1       9.052   9.875  23.978  1.00  0.00     0.053 C 
BRANCH   6   7
ATOM      7  C   UNL     1       8.216  10.164  22.769  1.00  0.00     0.041 C 
ATOM      8  O   UNL     1       6.980  10.374  22.890  1.00  0.00    -0.550 OA
ATOM      9  O   UNL     1       8.795  10.168  21.507  1.00  0.00    -0.550 OA
ENDBRANCH   6   7
ENDBRANCH   5   6
ENDBRANCH   4   5
ENDBRANCH   3   4
ENDBRANCH   2   3
ENDBRANCH   1   2
BRANCH   1  10
ATOM     10  C   UNL     1       6.575  13.915  26.694  1.00  0.00     0.000 C 
BRANCH  10  11
ATOM     11  C   UNL     1       5.888  12.610  27.125  1.00  0.00    -0.000 C 
BRANCH  11  12
ATOM     12  C   UNL     1       6.159  11.450  26.152  1.00  0.00    -0.000 C 
BRANCH  12  13
ATOM     13  C   UNL     1       6.921  10.291  26.813  1.00  0.00    -0.000 C 
BRANCH  13  14
ATOM     14  C   UNL     1       7.791  10.754  27.994  1.00  0.00    -0.000 C 
BRANCH  14  15
ATOM     15  C   UNL     1       9.281  10.438  27.789  1.00  0.00    -0.003 C 
ATOM     16  C   UNL     1      10.196  11.522  28.357  1.00  0.00     0.004 C 
ENDBRANCH  14  15
ENDBRANCH  13  14
ENDBRANCH  12  13
ENDBRANCH  11  12
ENDBRANCH  10  11
ENDBRANCH   1  10
TORSDOF 12
ENDMDL
MODEL 4
REMARK VINA RESULT:    -1.694     22.945     24.701
REMARK INTER + INTRA:          -4.655
REMARK INTER:                  -2.656
REMARK INTRA:                  -2.000
REMARK UNBOUND:                -1.772
REMARK SMILES CCCCCCCCCCCCCC(=O)[O-]
REMARK SMILES IDX 8 1 9 2 10 3 11 4 12 5 13 6 14 7 15 8 16 9 7 10 6 11 5 12
REMARK SMILES IDX 4 13 3 14 2 15 1 16
REMARK H PARENT
REMARK Flexibility Score: inf
ROOT
ATOM      1  C   UNL     1       9.069  14.180  25.562  1.00  0.00     0.000 C 
ENDROOT
BRANCH   1   2
ATOM      2  C   UNL     1       9.363  13.247  24.377  1.00  0.00     0.000 C 
BRANCH   2   3
ATOM      3  C   UNL     1      10.490  12.246  24.679  1.00  0.00     0.000 C 
BRANCH   3   4
ATOM      4  C   UNL     1       9.978  10.806  24.871  1.00  0.00     0.000 C 
BRANCH   4   5
ATOM      5  C   UNL     1      10.414  10.124  26.184  1.00  0.00     0.006 C 
BRANCH   5   6
ATOM      6  C   UNL     1      10.556  11.075  27.382  1.00  0.00     0.053 C 
BRANCH   6   7
ATOM      7  C   UNL     1      10.889  10.342  28.646  1.00  0.00     0.041 C 
ATOM      8  O   UNL     1      12.090  10.119  28.950  1.00  0.00    -0.550 OA
ATOM      9  O   UNL     1       9.872   9.876  29.469  1.00  0.00    -0.550 OA
ENDBRANCH   6   7
ENDBRANCH   5   6
ENDBRANCH   4   5
ENDBRANCH   3   4
ENDBRANCH   2   3
ENDBRANCH   1   2
BRANCH   1  10
ATOM     10  C   UNL     1       7.594  14.135  26.002  1.00  0.00     0.000 C 
BRANCH  10  11
ATOM     11  C   UNL     1       7.402  13.409  27.343  1.00  0.00    -0.000 C 
BRANCH  11  12
ATOM     12  C   UNL     1       6.359  12.281  27.259  1.00  0.00    -0.000 C 
BRANCH  12  13
ATOM     13  C   UNL     1       6.985  10.887  27.414  1.00  0.00    -0.000 C 
BRANCH  13  14
ATOM     14  C   UNL     1       6.694   9.972  26.212  1.00  0.00    -0.000 C 
BRANCH  14  15
ATOM     15  C   UNL     1       6.017  10.720  25.052  1.00  0.00    -0.003 C 
ATOM     16  C   UNL     1       6.405  10.160  23.684  1.00  0.00     0.004 C 
ENDBRANCH  14  15
ENDBRANCH  13  14
ENDBRANCH  12  13
ENDBRANCH  11  12
ENDBRANCH  10  11
ENDBRANCH   1  10
TORSDOF 12
ENDMDL
MODEL 5
REMARK VINA RESULT:    -1.685      2.038      4.334
REMARK INTER + INTRA:          -4.639
REMARK INTER:                  -2.785
REMARK INTRA:                  -1.854
REMARK UNBOUND:                -1.772
REMARK SMILES CCCCCCCCCCCCCC(=O)[O-]
REMARK SMILES IDX 8 1 9 2 10 3 11 4 12 5 13 6 14 7 15 8 16 9 7 10 6 11 5 12
REMARK SMILES IDX 4 13 3 14 2 15 1 16
REMARK H PARENT
REMARK Flexibility Score: inf
ROOT
ATOM      1  C   UNL     1      21.751  28.220  13.247  1.00  0.00     0.000 C 
ENDROOT
BRANCH   1   2
ATOM      2  C   UNL     1      22.778  28.475  12.132  1.00  0.00     0.000 C 
BRANCH   2   3
ATOM      3  C   UNL     1      23.892  29.440  12.567  1.00  0.00     0.000 C 
BRANCH   3   4
ATOM      4  C   UNL     1      25.218  28.722  12.883  1.00  0.00     0.000 C 
BRANCH   4   5
ATOM      5  C   UNL     1      25.386  28.269  14.347  1.00  0.00     0.006 C 
BRANCH   5   6
ATOM      6  C   UNL     1      24.511  29.028  15.356  1.00  0.00     0.053 C 
BRANCH   6   7
ATOM      7  C   UNL     1      24.651  28.481  16.744  1.00  0.00     0.041 C 
ATOM      8  O   UNL     1      25.733  28.618  17.372  1.00  0.00    -0.550 OA
ATOM      9  O   UNL     1      23.597  27.791  17.330  1.00  0.00    -0.550 OA
ENDBRANCH   6   7
ENDBRANCH   5   6
ENDBRANCH   4   5
ENDBRANCH   3   4
ENDBRANCH   2   3
ENDBRANCH   1   2
BRANCH   1  10
ATOM     10  C   UNL     1      21.785  26.772  13.767  1.00  0.00     0.000 C 
BRANCH  10  11
ATOM     11  C   UNL     1      22.390  25.794  12.748  1.00  0.00    -0.000 C 
BRANCH  11  12
ATOM     12  C   UNL     1      23.514  24.935  13.349  1.00  0.00    -0.000 C 
BRANCH  12  13
ATOM     13  C   UNL     1      23.715  25.192  14.850  1.00  0.00    -0.000 C 
BRANCH  13  14
ATOM     14  C   UNL     1      24.776  24.266  15.471  1.00  0.00    -0.000 C 
BRANCH  14  15
ATOM     15  C   UNL     1      26.012  25.034  15.965  1.00  0.00    -0.003 C 
ATOM     16  C   UNL     1      26.097  25.093  17.490  1.00  0.00     0.004 C 
ENDBRANCH  14  15
ENDBRANCH  13  14
ENDBRANCH  12  13
ENDBRANCH  11  12
ENDBRANCH  10  11
ENDBRANCH   1  10
TORSDOF 12
ENDMDL
MODEL 6
REMARK VINA RESULT:    -1.627      1.667      3.363
REMARK INTER + INTRA:          -4.541
REMARK INTER:                  -2.477
REMARK INTRA:                  -2.064
REMARK UNBOUND:                -1.772
REMARK SMILES CCCCCCCCCCCCCC(=O)[O-]
REMARK SMILES IDX 8 1 9 2 10 3 11 4 12 5 13 6 14 7 15 8 16 9 7 10 6 11 5 12
REMARK SMILES IDX 4 13 3 14 2 15 1 16
REMARK H PARENT
REMARK Flexibility Score: inf
ROOT
ATOM      1  C   UNL     1      25.099  26.106  15.421  1.00  0.00     0.000 C 
ENDROOT
BRANCH   1   2
ATOM      2  C   UNL     1      24.438  25.656  16.734  1.00  0.00     0.000 C 
BRANCH   2   3
ATOM      3  C   UNL     1      23.122  24.896  16.500  1.00  0.00     0.000 C 
BRANCH   3   4
ATOM      4  C   UNL     1      22.726  24.825  15.013  1.00  0.00     0.000 C 
BRANCH   4   5
ATOM      5  C   UNL     1      22.867  23.434  14.362  1.00  0.00     0.006 C 
BRANCH   5   6
ATOM      6  C   UNL     1      23.992  23.327  13.321  1.00  0.00     0.053 C 
BRANCH   6   7
ATOM      7  C   UNL     1      25.167  22.554  13.840  1.00  0.00     0.041 C 
ATOM      8  O   UNL     1      25.897  21.904  13.046  1.00  0.00    -0.550 OA
ATOM      9  O   UNL     1      25.434  22.525  15.202  1.00  0.00    -0.550 OA
ENDBRANCH   6   7
ENDBRANCH   5   6
ENDBRANCH   4   5
ENDBRANCH   3   4
ENDBRANCH   2   3
ENDBRANCH   1   2
BRANCH   1  10
ATOM     10  C   UNL     1      25.705  27.518  15.515  1.00  0.00     0.000 C 
BRANCH  10  11
ATOM     11  C   UNL     1      24.757  28.522  16.189  1.00  0.00    -0.000 C 
BRANCH  11  12
ATOM     12  C   UNL     1      23.943  29.340  15.172  1.00  0.00    -0.000 C 
BRANCH  12  13
ATOM     13  C   UNL     1      22.461  28.934  15.141  1.00  0.00    -0.000 C 
BRANCH  13  14
ATOM     14  C   UNL     1      22.068  28.239  13.825  1.00  0.00    -0.000 C 
BRANCH  14  15
ATOM     15  C   UNL     1      23.172  28.325  12.760  1.00  0.00    -0.003 C 
ATOM     16  C   UNL     1      23.437  26.983  12.078  1.00  0.00     0.004 C 
ENDBRANCH  14  15
ENDBRANCH  13  14
ENDBRANCH  12  13
ENDBRANCH  11  12
ENDBRANCH  10  11
ENDBRANCH   1  10
TORSDOF 12
ENDMDL
MODEL 7
REMARK VINA RESULT:    -1.572      2.435      3.810
REMARK INTER + INTRA:          -4.448
REMARK INTER:                  -2.404
REMARK INTRA:                  -2.044
REMARK UNBOUND:                -1.772
REMARK SMILES CCCCCCCCCCCCCC(=O)[O-]
REMARK SMILES IDX 8 1 9 2 10 3 11 4 12 5 13 6 14 7 15 8 16 9 7 10 6 11 5 12
REMARK SMILES IDX 4 13 3 14 2 15 1 16
REMARK H PARENT
REMARK Flexibility Score: inf
ROOT
ATOM      1  C   UNL     1      21.908  27.565  16.498  1.00  0.00     0.000 C 
ENDROOT
BRANCH   1   2
ATOM      2  C   UNL     1      21.858  26.475  15.415  1.00  0.00     0.000 C 
BRANCH   2   3
ATOM      3  C   UNL     1      23.106  25.578  15.424  1.00  0.00     0.000 C 
BRANCH   3   4
ATOM      4  C   UNL     1      24.416  26.370  15.252  1.00  0.00     0.000 C 
BRANCH   4   5
ATOM      5  C   UNL     1      25.445  26.191  16.386  1.00  0.00     0.006 C 
BRANCH   5   6
ATOM      6  C   UNL     1      26.095  27.495  16.872  1.00  0.00     0.053 C 
BRANCH   6   7
ATOM      7  C   UNL     1      25.701  27.831  18.278  1.00  0.00     0.041 C 
ATOM      8  O   UNL     1      25.012  28.857  18.515  1.00  0.00    -0.550 OA
ATOM      9  O   UNL     1      26.125  27.028  19.330  1.00  0.00    -0.550 OA
ENDBRANCH   6   7
ENDBRANCH   5   6
ENDBRANCH   4   5
ENDBRANCH   3   4
ENDBRANCH   2   3
ENDBRANCH   1   2
BRANCH   1  10
ATOM     10  C   UNL     1      21.611  28.970  15.941  1.00  0.00     0.000 C 
BRANCH  10  11
ATOM     11  C   UNL     1      22.686  29.996  16.331  1.00  0.00    -0.000 C 
BRANCH  11  12
ATOM     12  C   UNL     1      23.872  30.011  15.353  1.00  0.00    -0.000 C 
BRANCH  12  13
ATOM     13  C   UNL     1      23.443  29.746  13.902  1.00  0.00    -0.000 C 
BRANCH  13  14
ATOM     14  C   UNL     1      24.625  29.348  13.000  1.00  0.00    -0.000 C 
BRANCH  14  15
ATOM     15  C   UNL     1      24.254  28.248  11.993  1.00  0.00    -0.003 C 
ATOM     16  C   UNL     1      22.794  27.810  12.111  1.00  0.00     0.004 C 
ENDBRANCH  14  15
ENDBRANCH  13  14
ENDBRANCH  12  13
ENDBRANCH  11  12
ENDBRANCH  10  11
ENDBRANCH   1  10
TORSDOF 12
ENDMDL
MODEL 8
REMARK VINA RESULT:    -1.491     23.055     24.758
REMARK INTER + INTRA:          -4.309
REMARK INTER:                  -2.392
REMARK INTRA:                  -1.917
REMARK UNBOUND:                -1.772
REMARK SMILES CCCCCCCCCCCCCC(=O)[O-]
REMARK SMILES IDX 8 1 9 2 10 3 11 4 12 5 13 6 14 7 15 8 16 9 7 10 6 11 5 12
REMARK SMILES IDX 4 13 3 14 2 15 1 16
REMARK H PARENT
REMARK Flexibility Score: inf
ROOT
ATOM      1  C   UNL     1       8.331  14.173  25.113  1.00  0.00     0.000 C 
ENDROOT
BRANCH   1   2
ATOM      2  C   UNL     1       9.123  14.385  26.412  1.00  0.00     0.000 C 
BRANCH   2   3
ATOM      3  C   UNL     1      10.143  13.265  26.671  1.00  0.00     0.000 C 
BRANCH   3   4
ATOM      4  C   UNL     1      10.422  13.041  28.169  1.00  0.00     0.000 C 
BRANCH   4   5
ATOM      5  C   UNL     1      11.753  12.332  28.490  1.00  0.00     0.006 C 
BRANCH   5   6
ATOM      6  C   UNL     1      11.666  10.799  28.538  1.00  0.00     0.053 C 
BRANCH   6   7
ATOM      7  C   UNL     1      10.774  10.321  29.644  1.00  0.00     0.041 C 
ATOM      8  O   UNL     1       9.626   9.875  29.382  1.00  0.00    -0.550 OA
ATOM      9  O   UNL     1      11.197  10.401  30.964  1.00  0.00    -0.550 OA
ENDBRANCH   6   7
ENDBRANCH   5   6
ENDBRANCH   4   5
ENDBRANCH   3   4
ENDBRANCH   2   3
ENDBRANCH   1   2
BRANCH   1  10
ATOM     10  C   UNL     1       6.810  14.116  25.347  1.00  0.00     0.000 C 
BRANCH  10  11
ATOM     11  C   UNL     1       6.449  13.910  26.826  1.00  0.00    -0.000 C 
BRANCH  11  12
ATOM     12  C   UNL     1       5.918  12.496  27.113  1.00  0.00    -0.000 C 
BRANCH  12  13
ATOM     13  C   UNL     1       7.002  11.560  27.670  1.00  0.00    -0.000 C 
BRANCH  13  14
ATOM     14  C   UNL     1       7.119  10.250  26.872  1.00  0.00    -0.000 C 
BRANCH  14  15
ATOM     15  C   UNL     1       8.358  10.222  25.964  1.00  0.00    -0.003 C 
ATOM     16  C   UNL     1       8.028  10.538  24.506  1.00  0.00     0.004 C 
ENDBRANCH  14  15
ENDBRANCH  13  14
ENDBRANCH  12  13
ENDBRANCH  11  12
ENDBRANCH  10  11
ENDBRANCH   1  10
TORSDOF 12
ENDMDL
