MODEL 1
REMARK VINA RESULT:    -5.983      0.000      0.000
REMARK INTER + INTRA:         -11.482
REMARK INTER:                 -10.879
REMARK INTRA:                  -0.603
REMARK UNBOUND:                -0.603
REMARK SMILES CCCCCCCCCCCCCCCC(=O)[O-]
REMARK SMILES IDX 9 1 10 2 11 3 12 4 13 5 14 6 15 7 16 8 17 9 18 10 8 11 7 12
REMARK SMILES IDX 6 13 5 14 4 15 3 16 2 17 1 18
REMARK H PARENT
REMARK Flexibility Score: inf
ROOT
ATOM      1  C   UNL     1      89.031 326.416 195.526  1.00  0.00     0.000 C 
ENDROOT
BRANCH   1   2
ATOM      2  C   UNL     1      88.179 325.908 196.701  1.00  0.00     0.000 C 
BRANCH   2   3
ATOM      3  C   UNL     1      88.496 326.649 198.013  1.00  0.00     0.000 C 
BRANCH   3   4
ATOM      4  C   UNL     1      88.948 325.710 199.155  1.00  0.00     0.000 C 
BRANCH   4   5
ATOM      5  C   UNL     1      89.647 326.443 200.315  1.00  0.00     0.000 C 
BRANCH   5   6
ATOM      6  C   UNL     1      88.997 326.231 201.696  1.00  0.00     0.006 C 
BRANCH   6   7
ATOM      7  C   UNL     1      89.910 326.576 202.884  1.00  0.00     0.053 C 
BRANCH   7   8
ATOM      8  C   UNL     1      89.201 326.424 204.195  1.00  0.00     0.041 C 
ATOM      9  O   UNL     1      88.527 325.389 204.435  1.00  0.00    -0.550 OA
ATOM     10  O   UNL     1      89.261 327.440 205.139  1.00  0.00    -0.550 OA
ENDBRANCH   7   8
ENDBRANCH   6   7
ENDBRANCH   5   6
ENDBRANCH   4   5
ENDBRANCH   3   4
ENDBRANCH   2   3
ENDBRANCH   1   2
BRANCH   1  11
ATOM     11  C   UNL     1      88.192 326.720 194.275  1.00  0.00     0.000 C 
BRANCH  11  12
ATOM     12  C   UNL     1      86.757 326.181 194.378  1.00  0.00    -0.000 C 
BRANCH  12  13
ATOM     13  C   UNL     1      86.481 325.143 193.284  1.00  0.00    -0.000 C 
BRANCH  13  14
ATOM     14  C   UNL     1      87.761 324.392 192.900  1.00  0.00    -0.000 C 
BRANCH  14  15
ATOM     15  C   UNL     1      87.954 324.377 191.376  1.00  0.00    -0.000 C 
BRANCH  15  16
ATOM     16  C   UNL     1      87.451 323.076 190.729  1.00  0.00    -0.000 C 
BRANCH  16  17
ATOM     17  C   UNL     1      87.906 322.929 189.269  1.00  0.00    -0.003 C 
ATOM     18  C   UNL     1      89.231 323.649 189.032  1.00  0.00     0.004 C 
ENDBRANCH  16  17
ENDBRANCH  15  16
ENDBRANCH  14  15
ENDBRANCH  13  14
ENDBRANCH  12  13
ENDBRANCH  11  12
ENDBRANCH   1  11
TORSDOF 14
ENDMDL
MODEL 2
REMARK VINA RESULT:    -5.918     19.423     20.547
REMARK INTER + INTRA:         -11.365
REMARK INTER:                 -10.122
REMARK INTRA:                  -1.243
REMARK UNBOUND:                -0.603
REMARK SMILES CCCCCCCCCCCCCCCC(=O)[O-]
REMARK SMILES IDX 9 1 10 2 11 3 12 4 13 5 14 6 15 7 16 8 17 9 18 10 8 11 7 12
REMARK SMILES IDX 6 13 5 14 4 15 3 16 2 17 1 18
REMARK H PARENT
REMARK Flexibility Score: inf
ROOT
ATOM      1  C   UNL     1     104.059 311.810 192.883  1.00  0.00     0.000 C 
ENDROOT
BRANCH   1   2
ATOM      2  C   UNL     1     105.420 311.204 193.264  1.00  0.00     0.000 C 
BRANCH   2   3
ATOM      3  C   UNL     1     105.846 311.583 194.694  1.00  0.00     0.000 C 
BRANCH   3   4
ATOM      4  C   UNL     1     104.751 312.336 195.483  1.00  0.00     0.000 C 
BRANCH   4   5
ATOM      5  C   UNL     1     104.186 311.535 196.671  1.00  0.00     0.000 C 
BRANCH   5   6
ATOM      6  C   UNL     1     103.815 312.384 197.903  1.00  0.00     0.006 C 
BRANCH   6   7
ATOM      7  C   UNL     1     103.399 311.562 199.134  1.00  0.00     0.053 C 
BRANCH   7   8
ATOM      8  C   UNL     1     103.753 312.256 200.413  1.00  0.00     0.041 C 
ATOM      9  O   UNL     1     103.756 313.513 200.473  1.00  0.00    -0.550 OA
ATOM     10  O   UNL     1     104.110 311.514 201.531  1.00  0.00    -0.550 OA
ENDBRANCH   7   8
ENDBRANCH   6   7
ENDBRANCH   5   6
ENDBRANCH   4   5
ENDBRANCH   3   4
ENDBRANCH   2   3
ENDBRANCH   1   2
BRANCH   1  11
ATOM     11  C   UNL     1     104.186 312.961 191.874  1.00  0.00     0.000 C 
BRANCH  11  12
ATOM     12  C   UNL     1     103.830 314.326 192.482  1.00  0.00    -0.000 C 
BRANCH  12  13
ATOM     13  C   UNL     1     104.581 315.457 191.770  1.00  0.00    -0.000 C 
BRANCH  13  14
ATOM     14  C   UNL     1     105.758 314.910 190.954  1.00  0.00    -0.000 C 
BRANCH  14  15
ATOM     15  C   UNL     1     105.852 315.607 189.589  1.00  0.00    -0.000 C 
BRANCH  15  16
ATOM     16  C   UNL     1     104.497 316.149 189.106  1.00  0.00    -0.000 C 
BRANCH  16  17
ATOM     17  C   UNL     1     103.895 315.309 187.970  1.00  0.00    -0.003 C 
ATOM     18  C   UNL     1     102.692 314.508 188.459  1.00  0.00     0.004 C 
ENDBRANCH  16  17
ENDBRANCH  15  16
ENDBRANCH  14  15
ENDBRANCH  13  14
ENDBRANCH  12  13
ENDBRANCH  11  12
ENDBRANCH   1  11
TORSDOF 14
ENDMDL
MODEL 3
REMARK VINA RESULT:    -5.917     19.610     20.496
REMARK INTER + INTRA:         -11.362
REMARK INTER:                 -10.712
REMARK INTRA:                  -0.650
REMARK UNBOUND:                -0.603
REMARK SMILES CCCCCCCCCCCCCCCC(=O)[O-]
REMARK SMILES IDX 9 1 10 2 11 3 12 4 13 5 14 6 15 7 16 8 17 9 18 10 8 11 7 12
REMARK SMILES IDX 6 13 5 14 4 15 3 16 2 17 1 18
REMARK H PARENT
REMARK Flexibility Score: inf
ROOT
ATOM      1  C   UNL     1     104.311 312.348 195.667  1.00  0.00     0.000 C 
ENDROOT
BRANCH   1   2
ATOM      2  C   UNL     1     104.127 311.549 196.968  1.00  0.00     0.000 C 
BRANCH   2   3
ATOM      3  C   UNL     1     103.670 312.440 198.138  1.00  0.00     0.000 C 
BRANCH   3   4
ATOM      4  C   UNL     1     103.514 311.672 199.470  1.00  0.00     0.000 C 
BRANCH   4   5
ATOM      5  C   UNL     1     104.513 312.112 200.557  1.00  0.00     0.000 C 
BRANCH   5   6
ATOM      6  C   UNL     1     103.891 312.354 201.945  1.00  0.00     0.006 C 
BRANCH   6   7
ATOM      7  C   UNL     1     103.898 311.122 202.865  1.00  0.00     0.053 C 
BRANCH   7   8
ATOM      8  C   UNL     1     102.511 310.653 203.179  1.00  0.00     0.041 C 
ATOM      9  O   UNL     1     101.613 310.693 202.298  1.00  0.00    -0.550 OA
ATOM     10  O   UNL     1     102.202 310.200 204.455  1.00  0.00    -0.550 OA
ENDBRANCH   7   8
ENDBRANCH   6   7
ENDBRANCH   5   6
ENDBRANCH   4   5
ENDBRANCH   3   4
ENDBRANCH   2   3
ENDBRANCH   1   2
BRANCH   1  11
ATOM     11  C   UNL     1     103.416 311.836 194.527  1.00  0.00     0.000 C 
BRANCH  11  12
ATOM     12  C   UNL     1     104.209 311.491 193.259  1.00  0.00    -0.000 C 
BRANCH  12  13
ATOM     13  C   UNL     1     105.535 312.260 193.215  1.00  0.00    -0.000 C 
BRANCH  13  14
ATOM     14  C   UNL     1     105.545 313.278 192.069  1.00  0.00    -0.000 C 
BRANCH  14  15
ATOM     15  C   UNL     1     104.206 313.273 191.317  1.00  0.00    -0.000 C 
BRANCH  15  16
ATOM     16  C   UNL     1     103.891 314.626 190.659  1.00  0.00    -0.000 C 
BRANCH  16  17
ATOM     17  C   UNL     1     103.216 314.473 189.287  1.00  0.00    -0.003 C 
ATOM     18  C   UNL     1     103.983 315.236 188.211  1.00  0.00     0.004 C 
ENDBRANCH  16  17
ENDBRANCH  15  16
ENDBRANCH  14  15
ENDBRANCH  13  14
ENDBRANCH  12  13
ENDBRANCH  11  12
ENDBRANCH   1  11
TORSDOF 14
ENDMDL
MODEL 4
REMARK VINA RESULT:    -5.903     19.911     20.762
REMARK INTER + INTRA:         -11.337
REMARK INTER:                 -10.376
REMARK INTRA:                  -0.960
REMARK UNBOUND:                -0.603
REMARK SMILES CCCCCCCCCCCCCCCC(=O)[O-]
REMARK SMILES IDX 9 1 10 2 11 3 12 4 13 5 14 6 15 7 16 8 17 9 18 10 8 11 7 12
REMARK SMILES IDX 6 13 5 14 4 15 3 16 2 17 1 18
REMARK H PARENT
REMARK Flexibility Score: inf
ROOT
ATOM      1  C   UNL     1     104.052 311.456 197.004  1.00  0.00     0.000 C 
ENDROOT
BRANCH   1   2
ATOM      2  C   UNL     1     103.745 312.521 198.071  1.00  0.00     0.000 C 
BRANCH   2   3
ATOM      3  C   UNL     1     103.821 311.952 199.499  1.00  0.00     0.000 C 
BRANCH   3   4
ATOM      4  C   UNL     1     102.446 311.867 200.200  1.00  0.00     0.000 C 
BRANCH   4   5
ATOM      5  C   UNL     1     102.536 311.485 201.690  1.00  0.00     0.000 C 
BRANCH   5   6
ATOM      6  C   UNL     1     103.963 311.480 202.270  1.00  0.00     0.006 C 
BRANCH   6   7
ATOM      7  C   UNL     1     104.163 310.515 203.449  1.00  0.00     0.053 C 
BRANCH   7   8
ATOM      8  C   UNL     1     104.122 311.227 204.766  1.00  0.00     0.041 C 
ATOM      9  O   UNL     1     103.168 311.032 205.563  1.00  0.00    -0.550 OA
ATOM     10  O   UNL     1     105.124 312.130 205.100  1.00  0.00    -0.550 OA
ENDBRANCH   7   8
ENDBRANCH   6   7
ENDBRANCH   5   6
ENDBRANCH   4   5
ENDBRANCH   3   4
ENDBRANCH   2   3
ENDBRANCH   1   2
BRANCH   1  11
ATOM     11  C   UNL     1     104.362 312.069 195.629  1.00  0.00     0.000 C 
BRANCH  11  12
ATOM     12  C   UNL     1     103.450 311.527 194.519  1.00  0.00    -0.000 C 
BRANCH  12  13
ATOM     13  C   UNL     1     104.222 311.366 193.205  1.00  0.00    -0.000 C 
BRANCH  13  14
ATOM     14  C   UNL     1     105.607 312.016 193.295  1.00  0.00    -0.000 C 
BRANCH  14  15
ATOM     15  C   UNL     1     105.732 313.183 192.305  1.00  0.00    -0.000 C 
BRANCH  15  16
ATOM     16  C   UNL     1     104.458 313.394 191.472  1.00  0.00    -0.000 C 
BRANCH  16  17
ATOM     17  C   UNL     1     103.821 314.772 191.702  1.00  0.00    -0.003 C 
ATOM     18  C   UNL     1     103.687 315.072 193.193  1.00  0.00     0.004 C 
ENDBRANCH  16  17
ENDBRANCH  15  16
ENDBRANCH  14  15
ENDBRANCH  13  14
ENDBRANCH  12  13
ENDBRANCH  11  12
ENDBRANCH   1  11
TORSDOF 14
ENDMDL
MODEL 5
REMARK VINA RESULT:    -5.875      1.479      2.343
REMARK INTER + INTRA:         -11.285
REMARK INTER:                 -10.166
REMARK INTRA:                  -1.119
REMARK UNBOUND:                -0.603
REMARK SMILES CCCCCCCCCCCCCCCC(=O)[O-]
REMARK SMILES IDX 9 1 10 2 11 3 12 4 13 5 14 6 15 7 16 8 17 9 18 10 8 11 7 12
REMARK SMILES IDX 6 13 5 14 4 15 3 16 2 17 1 18
REMARK H PARENT
REMARK Flexibility Score: inf
ROOT
ATOM      1  C   UNL     1      88.133 325.955 196.496  1.00  0.00     0.000 C 
ENDROOT
BRANCH   1   2
ATOM      2  C   UNL     1      88.464 326.626 197.840  1.00  0.00     0.000 C 
BRANCH   2   3
ATOM      3  C   UNL     1      88.937 325.611 198.896  1.00  0.00     0.000 C 
BRANCH   3   4
ATOM      4  C   UNL     1      89.476 326.271 200.185  1.00  0.00     0.000 C 
BRANCH   4   5
ATOM      5  C   UNL     1      88.739 325.824 201.462  1.00  0.00     0.000 C 
BRANCH   5   6
ATOM      6  C   UNL     1      89.169 326.559 202.746  1.00  0.00     0.006 C 
BRANCH   6   7
ATOM      7  C   UNL     1      89.340 325.645 203.971  1.00  0.00     0.053 C 
BRANCH   7   8
ATOM      8  C   UNL     1      88.970 326.342 205.243  1.00  0.00     0.041 C 
ATOM      9  O   UNL     1      87.984 325.947 205.919  1.00  0.00    -0.550 OA
ATOM     10  O   UNL     1      89.696 327.447 205.667  1.00  0.00    -0.550 OA
ENDBRANCH   7   8
ENDBRANCH   6   7
ENDBRANCH   5   6
ENDBRANCH   4   5
ENDBRANCH   3   4
ENDBRANCH   2   3
ENDBRANCH   1   2
BRANCH   1  11
ATOM     11  C   UNL     1      88.973 326.511 195.336  1.00  0.00     0.000 C 
BRANCH  11  12
ATOM     12  C   UNL     1      88.145 326.747 194.064  1.00  0.00    -0.000 C 
BRANCH  12  13
ATOM     13  C   UNL     1      86.713 326.227 194.237  1.00  0.00    -0.000 C 
BRANCH  13  14
ATOM     14  C   UNL     1      86.409 325.104 193.239  1.00  0.00    -0.000 C 
BRANCH  14  15
ATOM     15  C   UNL     1      87.681 324.666 192.499  1.00  0.00    -0.000 C 
BRANCH  15  16
ATOM     16  C   UNL     1      88.060 323.204 192.786  1.00  0.00    -0.000 C 
BRANCH  16  17
ATOM     17  C   UNL     1      88.693 323.019 194.172  1.00  0.00    -0.003 C 
ATOM     18  C   UNL     1      87.714 322.359 195.140  1.00  0.00     0.004 C 
ENDBRANCH  16  17
ENDBRANCH  15  16
ENDBRANCH  14  15
ENDBRANCH  13  14
ENDBRANCH  12  13
ENDBRANCH  11  12
ENDBRANCH   1  11
TORSDOF 14
ENDMDL
MODEL 6
REMARK VINA RESULT:    -5.865      1.318      2.901
REMARK INTER + INTRA:         -11.268
REMARK INTER:                 -10.479
REMARK INTRA:                  -0.788
REMARK UNBOUND:                -0.603
REMARK SMILES CCCCCCCCCCCCCCCC(=O)[O-]
REMARK SMILES IDX 9 1 10 2 11 3 12 4 13 5 14 6 15 7 16 8 17 9 18 10 8 11 7 12
REMARK SMILES IDX 6 13 5 14 4 15 3 16 2 17 1 18
REMARK H PARENT
REMARK Flexibility Score: inf
ROOT
ATOM      1  C   UNL     1      88.934 324.752 198.560  1.00  0.00     0.000 C 
ENDROOT
BRANCH   1   2
ATOM      2  C   UNL     1      88.944 326.184 199.120  1.00  0.00     0.000 C 
BRANCH   2   3
ATOM      3  C   UNL     1      89.761 326.295 200.420  1.00  0.00     0.000 C 
BRANCH   3   4
ATOM      4  C   UNL     1      88.886 326.331 201.694  1.00  0.00     0.000 C 
BRANCH   4   5
ATOM      5  C   UNL     1      89.408 325.427 202.827  1.00  0.00     0.000 C 
BRANCH   5   6
ATOM      6  C   UNL     1      88.886 325.786 204.231  1.00  0.00     0.006 C 
BRANCH   6   7
ATOM      7  C   UNL     1      89.237 327.210 204.691  1.00  0.00     0.053 C 
BRANCH   7   8
ATOM      8  C   UNL     1      90.298 327.209 205.748  1.00  0.00     0.041 C 
ATOM      9  O   UNL     1      90.115 326.593 206.830  1.00  0.00    -0.550 OA
ATOM     10  O   UNL     1      91.478 327.915 205.550  1.00  0.00    -0.550 OA
ENDBRANCH   7   8
ENDBRANCH   6   7
ENDBRANCH   5   6
ENDBRANCH   4   5
ENDBRANCH   3   4
ENDBRANCH   2   3
ENDBRANCH   1   2
BRANCH   1  11
ATOM     11  C   UNL     1      88.371 324.680 197.132  1.00  0.00     0.000 C 
BRANCH  11  12
ATOM     12  C   UNL     1      87.998 326.060 196.571  1.00  0.00    -0.000 C 
BRANCH  12  13
ATOM     13  C   UNL     1      88.988 326.497 195.485  1.00  0.00    -0.000 C 
BRANCH  13  14
ATOM     14  C   UNL     1      88.275 326.730 194.149  1.00  0.00    -0.000 C 
BRANCH  14  15
ATOM     15  C   UNL     1      86.862 326.129 194.167  1.00  0.00    -0.000 C 
BRANCH  15  16
ATOM     16  C   UNL     1      86.708 324.949 193.195  1.00  0.00    -0.000 C 
BRANCH  16  17
ATOM     17  C   UNL     1      88.022 324.591 192.485  1.00  0.00    -0.003 C 
ATOM     18  C   UNL     1      87.757 323.809 191.202  1.00  0.00     0.004 C 
ENDBRANCH  16  17
ENDBRANCH  15  16
ENDBRANCH  14  15
ENDBRANCH  13  14
ENDBRANCH  12  13
ENDBRANCH  11  12
ENDBRANCH   1  11
TORSDOF 14
ENDMDL
MODEL 7
REMARK VINA RESULT:    -5.813     19.480     20.512
REMARK INTER + INTRA:         -11.174
REMARK INTER:                  -9.689
REMARK INTRA:                  -1.486
REMARK UNBOUND:                -0.603
REMARK SMILES CCCCCCCCCCCCCCCC(=O)[O-]
REMARK SMILES IDX 9 1 10 2 11 3 12 4 13 5 14 6 15 7 16 8 17 9 18 10 8 11 7 12
REMARK SMILES IDX 6 13 5 14 4 15 3 16 2 17 1 18
REMARK H PARENT
REMARK Flexibility Score: inf
ROOT
ATOM      1  C   UNL     1     103.566 311.631 194.596  1.00  0.00     0.000 C 
ENDROOT
BRANCH   1   2
ATOM      2  C   UNL     1     104.648 311.882 195.659  1.00  0.00     0.000 C 
BRANCH   2   3
ATOM      3  C   UNL     1     104.091 311.789 197.091  1.00  0.00     0.000 C 
BRANCH   3   4
ATOM      4  C   UNL     1     103.453 313.106 197.589  1.00  0.00     0.000 C 
BRANCH   4   5
ATOM      5  C   UNL     1     103.363 313.206 199.124  1.00  0.00     0.000 C 
BRANCH   5   6
ATOM      6  C   UNL     1     103.280 311.852 199.855  1.00  0.00     0.006 C 
BRANCH   6   7
ATOM      7  C   UNL     1     104.151 311.761 201.119  1.00  0.00     0.053 C 
BRANCH   7   8
ATOM      8  C   UNL     1     103.406 311.152 202.267  1.00  0.00     0.041 C 
ATOM      9  O   UNL     1     102.159 310.993 202.201  1.00  0.00    -0.550 OA
ATOM     10  O   UNL     1     104.086 310.789 203.422  1.00  0.00    -0.550 OA
ENDBRANCH   7   8
ENDBRANCH   6   7
ENDBRANCH   5   6
ENDBRANCH   4   5
ENDBRANCH   3   4
ENDBRANCH   2   3
ENDBRANCH   1   2
BRANCH   1  11
ATOM     11  C   UNL     1     104.156 311.355 193.205  1.00  0.00     0.000 C 
BRANCH  11  12
ATOM     12  C   UNL     1     105.589 311.888 193.053  1.00  0.00    -0.000 C 
BRANCH  12  13
ATOM     13  C   UNL     1     105.628 313.094 192.107  1.00  0.00    -0.000 C 
BRANCH  13  14
ATOM     14  C   UNL     1     104.227 313.433 191.586  1.00  0.00    -0.000 C 
BRANCH  14  15
ATOM     15  C   UNL     1     103.884 314.907 191.846  1.00  0.00    -0.000 C 
BRANCH  15  16
ATOM     16  C   UNL     1     104.436 315.416 193.187  1.00  0.00    -0.000 C 
BRANCH  16  17
ATOM     17  C   UNL     1     103.486 315.138 194.361  1.00  0.00    -0.003 C 
ATOM     18  C   UNL     1     103.765 316.081 195.528  1.00  0.00     0.004 C 
ENDBRANCH  16  17
ENDBRANCH  15  16
ENDBRANCH  14  15
ENDBRANCH  13  14
ENDBRANCH  12  13
ENDBRANCH  11  12
ENDBRANCH   1  11
TORSDOF 14
ENDMDL
MODEL 8
REMARK VINA RESULT:    -5.768     19.411     21.664
REMARK INTER + INTRA:         -11.091
REMARK INTER:                  -8.861
REMARK INTRA:                  -2.230
REMARK UNBOUND:                -0.603
REMARK SMILES CCCCCCCCCCCCCCCC(=O)[O-]
REMARK SMILES IDX 9 1 10 2 11 3 12 4 13 5 14 6 15 7 16 8 17 9 18 10 8 11 7 12
REMARK SMILES IDX 6 13 5 14 4 15 3 16 2 17 1 18
REMARK H PARENT
REMARK Flexibility Score: inf
ROOT
ATOM      1  C   UNL     1     105.611 311.516 193.751  1.00  0.00     0.000 C 
ENDROOT
BRANCH   1   2
ATOM      2  C   UNL     1     104.259 311.489 193.018  1.00  0.00     0.000 C 
BRANCH   2   3
ATOM      3  C   UNL     1     104.090 312.684 192.063  1.00  0.00     0.000 C 
BRANCH   3   4
ATOM      4  C   UNL     1     105.420 313.402 191.736  1.00  0.00     0.000 C 
BRANCH   4   5
ATOM      5  C   UNL     1     105.306 314.413 190.579  1.00  0.00     0.000 C 
BRANCH   5   6
ATOM      6  C   UNL     1     103.877 314.623 190.044  1.00  0.00     0.006 C 
BRANCH   6   7
ATOM      7  C   UNL     1     103.814 315.152 188.602  1.00  0.00     0.053 C 
BRANCH   7   8
ATOM      8  C   UNL     1     104.724 316.323 188.396  1.00  0.00     0.041 C 
ATOM      9  O   UNL     1     105.707 316.232 187.614  1.00  0.00    -0.550 OA
ATOM     10  O   UNL     1     104.505 317.505 189.091  1.00  0.00    -0.550 OA
ENDBRANCH   7   8
ENDBRANCH   6   7
ENDBRANCH   5   6
ENDBRANCH   4   5
ENDBRANCH   3   4
ENDBRANCH   2   3
ENDBRANCH   1   2
BRANCH   1  11
ATOM     11  C   UNL     1     105.470 311.881 195.237  1.00  0.00     0.000 C 
BRANCH  11  12
ATOM     12  C   UNL     1     104.009 311.891 195.710  1.00  0.00    -0.000 C 
BRANCH  12  13
ATOM     13  C   UNL     1     103.642 313.243 196.331  1.00  0.00    -0.000 C 
BRANCH  13  14
ATOM     14  C   UNL     1     104.238 314.402 195.523  1.00  0.00    -0.000 C 
BRANCH  14  15
ATOM     15  C   UNL     1     103.136 315.212 194.826  1.00  0.00    -0.000 C 
BRANCH  15  16
ATOM     16  C   UNL     1     103.655 315.997 193.611  1.00  0.00    -0.000 C 
BRANCH  16  17
ATOM     17  C   UNL     1     105.115 316.442 193.775  1.00  0.00    -0.003 C 
ATOM     18  C   UNL     1     105.498 317.472 192.716  1.00  0.00     0.004 C 
ENDBRANCH  16  17
ENDBRANCH  15  16
ENDBRANCH  14  15
ENDBRANCH  13  14
ENDBRANCH  12  13
ENDBRANCH  11  12
ENDBRANCH   1  11
TORSDOF 14
ENDMDL
MODEL 9
REMARK VINA RESULT:    -5.744     20.198     22.720
REMARK INTER + INTRA:         -11.047
REMARK INTER:                 -10.331
REMARK INTRA:                  -0.717
REMARK UNBOUND:                -0.603
REMARK SMILES CCCCCCCCCCCCCCCC(=O)[O-]
REMARK SMILES IDX 9 1 10 2 11 3 12 4 13 5 14 6 15 7 16 8 17 9 18 10 8 11 7 12
REMARK SMILES IDX 6 13 5 14 4 15 3 16 2 17 1 18
REMARK H PARENT
REMARK Flexibility Score: inf
ROOT
ATOM      1  C   UNL     1     103.459 311.746 194.715  1.00  0.00     0.000 C 
ENDROOT
BRANCH   1   2
ATOM      2  C   UNL     1     104.011 311.320 193.344  1.00  0.00     0.000 C 
BRANCH   2   3
ATOM      3  C   UNL     1     105.416 311.891 193.080  1.00  0.00     0.000 C 
BRANCH   3   4
ATOM      4  C   UNL     1     105.428 313.039 192.045  1.00  0.00     0.000 C 
BRANCH   4   5
ATOM      5  C   UNL     1     104.118 313.161 191.243  1.00  0.00     0.000 C 
BRANCH   5   6
ATOM      6  C   UNL     1     103.759 314.594 190.807  1.00  0.00     0.006 C 
BRANCH   6   7
ATOM      7  C   UNL     1     103.516 314.753 189.297  1.00  0.00     0.053 C 
BRANCH   7   8
ATOM      8  C   UNL     1     104.653 315.453 188.619  1.00  0.00     0.041 C 
ATOM      9  O   UNL     1     105.715 315.697 189.251  1.00  0.00    -0.550 OA
ATOM     10  O   UNL     1     104.529 315.864 187.299  1.00  0.00    -0.550 OA
ENDBRANCH   7   8
ENDBRANCH   6   7
ENDBRANCH   5   6
ENDBRANCH   4   5
ENDBRANCH   3   4
ENDBRANCH   2   3
ENDBRANCH   1   2
BRANCH   1  11
ATOM     11  C   UNL     1     104.560 311.888 195.778  1.00  0.00     0.000 C 
BRANCH  11  12
ATOM     12  C   UNL     1     104.090 311.466 197.178  1.00  0.00    -0.000 C 
BRANCH  12  13
ATOM     13  C   UNL     1     103.770 312.692 198.041  1.00  0.00    -0.000 C 
BRANCH  13  14
ATOM     14  C   UNL     1     103.929 312.374 199.532  1.00  0.00    -0.000 C 
BRANCH  14  15
ATOM     15  C   UNL     1     102.571 312.061 200.176  1.00  0.00    -0.000 C 
BRANCH  15  16
ATOM     16  C   UNL     1     102.705 311.265 201.485  1.00  0.00    -0.000 C 
BRANCH  16  17
ATOM     17  C   UNL     1     103.985 311.612 202.259  1.00  0.00    -0.003 C 
ATOM     18  C   UNL     1     104.119 310.751 203.512  1.00  0.00     0.004 C 
ENDBRANCH  16  17
ENDBRANCH  15  16
ENDBRANCH  14  15
ENDBRANCH  13  14
ENDBRANCH  12  13
ENDBRANCH  11  12
ENDBRANCH   1  11
TORSDOF 14
ENDMDL
