MODEL 1
REMARK VINA RESULT:    -5.265      0.000      0.000
REMARK INTER + INTRA:          -5.844
REMARK INTER:                  -5.726
REMARK INTRA:                  -0.118
REMARK UNBOUND:                -0.118
REMARK SMILES C[C@H]1[C@@H](C)CC[C@@]2(C(=O)[O-])CC[C@@]3(C)C(=CC[C@@H]4[C@@]5(C)CC[C@H](O)C(C)(C)[C@@H]5CC[C@@]43C)[C@@H]12
REMARK SMILES IDX 7 1 6 2 11 3 33 4 5 5 12 6 15 7 2 8 3 9 13 10 16 11 1 12
REMARK SMILES IDX 4 13 14 14 31 15 17 16 18 17 30 18 32 19 19 20 29 21 28 22
REMARK SMILES IDX 21 23 20 24 25 25 22 26 23 27 26 28 27 29 8 30 9 31 10 32
REMARK SMILES IDX 24 33
REMARK H PARENT 24 34
REMARK Flexibility Score: inf
ROOT
ATOM      1  C   UNL     1      65.237  52.698  32.223  1.00  0.00     0.017 C 
ATOM      2  C   UNL     1      64.844  53.036  30.743  1.00  0.00     0.014 C 
ATOM      3  C   UNL     1      65.629  53.981  32.994  1.00  0.00     0.014 C 
ATOM      4  C   UNL     1      64.084  52.011  33.030  1.00  0.00     0.030 C 
ATOM      5  C   UNL     1      63.432  52.601  30.340  1.00  0.00     0.004 C 
ATOM      6  C   UNL     1      66.264  53.661  34.358  1.00  0.00     0.013 C 
ATOM      7  C   UNL     1      64.408  51.856  34.532  1.00  0.00    -0.063 C 
ATOM      8  C   UNL     1      62.616  52.547  32.748  1.00  0.00    -0.003 C 
ATOM      9  C   UNL     1      62.383  53.134  31.312  1.00  0.00    -0.011 C 
ATOM     10  C   UNL     1      65.360  52.789  35.319  1.00  0.00    -0.006 C 
ATOM     11  C   UNL     1      63.776  50.865  35.196  1.00  0.00    -0.027 C 
ATOM     12  C   UNL     1      61.980  53.430  33.838  1.00  0.00     0.008 C 
ATOM     13  C   UNL     1      62.298  54.672  31.207  1.00  0.00     0.008 C 
ATOM     14  C   UNL     1      64.486  53.834  36.083  1.00  0.00     0.017 C 
ATOM     15  C   UNL     1      66.258  51.883  36.328  1.00  0.00    -0.020 C 
ATOM     16  C   UNL     1      63.907  50.695  36.683  1.00  0.00     0.032 C 
ATOM     17  C   UNL     1      65.380  50.814  37.155  1.00  0.00     0.006 C 
ATOM     18  C   UNL     1      67.095  52.797  37.278  1.00  0.00     0.008 C 
ATOM     19  C   UNL     1      67.304  51.037  35.521  1.00  0.00     0.012 C 
ATOM     20  C   UNL     1      65.564  50.836  38.728  1.00  0.00    -0.025 C 
ATOM     21  C   UNL     1      67.893  52.049  38.340  1.00  0.00     0.005 C 
ATOM     22  C   UNL     1      67.123  50.876  39.021  1.00  0.00     0.003 C 
ATOM     23  C   UNL     1      65.032  49.498  39.326  1.00  0.00     0.010 C 
ATOM     24  C   UNL     1      64.712  51.984  39.365  1.00  0.00     0.012 C 
ATOM     25  C   UNL     1      67.599  50.598  40.497  1.00  0.00    -0.006 C 
ATOM     26  C   UNL     1      65.331  49.352  40.820  1.00  0.00     0.033 C 
ATOM     27  C   UNL     1      66.846  49.347  41.074  1.00  0.00     0.120 C 
ATOM     28  C   UNL     1      69.111  50.222  40.463  1.00  0.00     0.014 C 
ATOM     29  C   UNL     1      67.441  51.856  41.419  1.00  0.00     0.014 C 
ENDROOT
BRANCH   1  30
ATOM     30  C   UNL     1      66.460  51.787  32.119  1.00  0.00     0.048 C 
ATOM     31  O   UNL     1      66.352  50.526  32.129  1.00  0.00    -0.550 OA
ATOM     32  O   UNL     1      67.716  52.345  31.875  1.00  0.00    -0.550 OA
ENDBRANCH   1  30
BRANCH  27  33
ATOM     33  O   UNL     1      67.151  49.138  42.433  1.00  0.00    -0.393 OA
ATOM     34  H   UNL     1      68.138  49.099  42.559  1.00  0.00     0.210 HD
ENDBRANCH  27  33
TORSDOF 2
ENDMDL
MODEL 2
REMARK VINA RESULT:    -5.263      6.260      9.668
REMARK INTER + INTRA:          -5.843
REMARK INTER:                  -5.795
REMARK INTRA:                  -0.048
REMARK UNBOUND:                -0.118
REMARK SMILES C[C@H]1[C@@H](C)CC[C@@]2(C(=O)[O-])CC[C@@]3(C)C(=CC[C@@H]4[C@@]5(C)CC[C@H](O)C(C)(C)[C@@H]5CC[C@@]43C)[C@@H]12
REMARK SMILES IDX 7 1 6 2 11 3 33 4 5 5 12 6 15 7 2 8 3 9 13 10 16 11 1 12
REMARK SMILES IDX 4 13 14 14 31 15 17 16 18 17 30 18 32 19 19 20 29 21 28 22
REMARK SMILES IDX 21 23 20 24 25 25 22 26 23 27 26 28 27 29 8 30 9 31 10 32
REMARK SMILES IDX 24 33
REMARK H PARENT 24 34
REMARK Flexibility Score: inf
ROOT
ATOM      1  C   UNL     1      56.049  55.498  31.572  1.00  0.00     0.017 C 
ATOM      2  C   UNL     1      54.974  56.603  31.859  1.00  0.00     0.014 C 
ATOM      3  C   UNL     1      56.784  55.780  30.240  1.00  0.00     0.014 C 
ATOM      4  C   UNL     1      57.143  55.392  32.688  1.00  0.00     0.030 C 
ATOM      5  C   UNL     1      55.156  57.345  33.186  1.00  0.00     0.004 C 
ATOM      6  C   UNL     1      57.655  54.590  29.801  1.00  0.00     0.013 C 
ATOM      7  C   UNL     1      58.300  54.441  32.310  1.00  0.00    -0.063 C 
ATOM      8  C   UNL     1      57.628  56.763  33.326  1.00  0.00    -0.003 C 
ATOM      9  C   UNL     1      56.565  57.917  33.317  1.00  0.00    -0.011 C 
ATOM     10  C   UNL     1      58.744  54.143  30.857  1.00  0.00    -0.006 C 
ATOM     11  C   UNL     1      58.988  53.879  33.326  1.00  0.00    -0.027 C 
ATOM     12  C   UNL     1      59.023  57.266  32.907  1.00  0.00     0.008 C 
ATOM     13  C   UNL     1      56.780  59.038  32.277  1.00  0.00     0.008 C 
ATOM     14  C   UNL     1      59.983  55.040  30.540  1.00  0.00     0.017 C 
ATOM     15  C   UNL     1      59.084  52.558  30.733  1.00  0.00    -0.020 C 
ATOM     16  C   UNL     1      60.213  53.042  33.090  1.00  0.00     0.032 C 
ATOM     17  C   UNL     1      60.009  52.022  31.940  1.00  0.00     0.006 C 
ATOM     18  C   UNL     1      59.718  52.246  29.341  1.00  0.00     0.008 C 
ATOM     19  C   UNL     1      57.767  51.708  30.801  1.00  0.00     0.012 C 
ATOM     20  C   UNL     1      61.321  51.244  31.514  1.00  0.00    -0.025 C 
ATOM     21  C   UNL     1      60.177  50.803  29.159  1.00  0.00     0.005 C 
ATOM     22  C   UNL     1      60.907  50.196  30.396  1.00  0.00     0.003 C 
ATOM     23  C   UNL     1      61.845  50.418  32.728  1.00  0.00     0.010 C 
ATOM     24  C   UNL     1      62.456  52.250  31.130  1.00  0.00     0.012 C 
ATOM     25  C   UNL     1      61.953  49.083  30.012  1.00  0.00    -0.006 C 
ATOM     26  C   UNL     1      63.008  49.493  32.361  1.00  0.00     0.033 C 
ATOM     27  C   UNL     1      62.571  48.458  31.313  1.00  0.00     0.120 C 
ATOM     28  C   UNL     1      61.198  47.927  29.287  1.00  0.00     0.014 C 
ATOM     29  C   UNL     1      63.058  49.617  29.035  1.00  0.00     0.014 C 
ENDROOT
BRANCH   1  30
ATOM     30  C   UNL     1      55.264  54.193  31.441  1.00  0.00     0.048 C 
ATOM     31  O   UNL     1      54.971  53.488  32.450  1.00  0.00    -0.550 OA
ATOM     32  O   UNL     1      54.739  53.827  30.199  1.00  0.00    -0.550 OA
ENDBRANCH   1  30
BRANCH  27  33
ATOM     33  O   UNL     1      63.601  47.545  31.012  1.00  0.00    -0.393 OA
ATOM     34  H   UNL     1      64.294  47.566  31.726  1.00  0.00     0.210 HD
ENDBRANCH  27  33
TORSDOF 2
ENDMDL
MODEL 3
REMARK VINA RESULT:    -5.207      2.306      8.497
REMARK INTER + INTRA:          -5.782
REMARK INTER:                  -5.659
REMARK INTRA:                  -0.123
REMARK UNBOUND:                -0.118
REMARK SMILES C[C@H]1[C@@H](C)CC[C@@]2(C(=O)[O-])CC[C@@]3(C)C(=CC[C@@H]4[C@@]5(C)CC[C@H](O)C(C)(C)[C@@H]5CC[C@@]43C)[C@@H]12
REMARK SMILES IDX 7 1 6 2 11 3 33 4 5 5 12 6 15 7 2 8 3 9 13 10 16 11 1 12
REMARK SMILES IDX 4 13 14 14 31 15 17 16 18 17 30 18 32 19 19 20 29 21 28 22
REMARK SMILES IDX 21 23 20 24 25 25 22 26 23 27 26 28 27 29 8 30 9 31 10 32
REMARK SMILES IDX 24 33
REMARK H PARENT 24 34
REMARK Flexibility Score: inf
ROOT
ATOM      1  C   UNL     1      68.330  50.409  41.831  1.00  0.00     0.017 C 
ATOM      2  C   UNL     1      69.112  49.802  43.048  1.00  0.00     0.014 C 
ATOM      3  C   UNL     1      69.216  51.413  41.055  1.00  0.00     0.014 C 
ATOM      4  C   UNL     1      67.850  49.330  40.802  1.00  0.00     0.030 C 
ATOM      5  C   UNL     1      69.227  48.275  43.038  1.00  0.00     0.004 C 
ATOM      6  C   UNL     1      68.406  52.215  40.021  1.00  0.00     0.013 C 
ATOM      7  C   UNL     1      67.252  49.945  39.517  1.00  0.00    -0.063 C 
ATOM      8  C   UNL     1      68.851  48.129  40.527  1.00  0.00    -0.003 C 
ATOM      9  C   UNL     1      69.804  47.766  41.719  1.00  0.00    -0.011 C 
ATOM     10  C   UNL     1      67.644  51.333  38.952  1.00  0.00    -0.006 C 
ATOM     11  C   UNL     1      66.369  49.191  38.830  1.00  0.00    -0.027 C 
ATOM     12  C   UNL     1      69.599  48.146  39.180  1.00  0.00     0.008 C 
ATOM     13  C   UNL     1      71.276  48.212  41.579  1.00  0.00     0.008 C 
ATOM     14  C   UNL     1      68.690  51.111  37.814  1.00  0.00     0.017 C 
ATOM     15  C   UNL     1      66.298  52.072  38.416  1.00  0.00    -0.020 C 
ATOM     16  C   UNL     1      65.820  49.623  37.500  1.00  0.00     0.032 C 
ATOM     17  C   UNL     1      65.377  51.109  37.509  1.00  0.00     0.006 C 
ATOM     18  C   UNL     1      66.667  53.390  37.665  1.00  0.00     0.008 C 
ATOM     19  C   UNL     1      65.394  52.508  39.622  1.00  0.00     0.012 C 
ATOM     20  C   UNL     1      64.969  51.680  36.088  1.00  0.00    -0.025 C 
ATOM     21  C   UNL     1      65.484  54.110  37.025  1.00  0.00     0.005 C 
ATOM     22  C   UNL     1      64.469  53.170  36.303  1.00  0.00     0.003 C 
ATOM     23  C   UNL     1      63.750  50.875  35.543  1.00  0.00     0.010 C 
ATOM     24  C   UNL     1      66.134  51.483  35.062  1.00  0.00     0.012 C 
ATOM     25  C   UNL     1      63.720  53.872  35.108  1.00  0.00    -0.006 C 
ATOM     26  C   UNL     1      63.172  51.469  34.257  1.00  0.00     0.033 C 
ATOM     27  C   UNL     1      62.652  52.894  34.500  1.00  0.00     0.120 C 
ATOM     28  C   UNL     1      62.927  55.090  35.672  1.00  0.00     0.014 C 
ATOM     29  C   UNL     1      64.711  54.410  34.019  1.00  0.00     0.014 C 
ENDROOT
BRANCH   1  30
ATOM     30  C   UNL     1      67.147  51.158  42.442  1.00  0.00     0.048 C 
ATOM     31  O   UNL     1      66.000  50.630  42.532  1.00  0.00    -0.550 OA
ATOM     32  O   UNL     1      67.354  52.403  43.039  1.00  0.00    -0.550 OA
ENDBRANCH   1  30
BRANCH  27  33
ATOM     33  O   UNL     1      62.046  53.438  33.350  1.00  0.00    -0.393 OA
ATOM     34  H   UNL     1      62.564  53.183  32.539  1.00  0.00     0.210 HD
ENDBRANCH  27  33
TORSDOF 2
ENDMDL
MODEL 4
REMARK VINA RESULT:    -5.184      2.669      8.045
REMARK INTER + INTRA:          -5.756
REMARK INTER:                  -5.631
REMARK INTRA:                  -0.126
REMARK UNBOUND:                -0.118
REMARK SMILES C[C@H]1[C@@H](C)CC[C@@]2(C(=O)[O-])CC[C@@]3(C)C(=CC[C@@H]4[C@@]5(C)CC[C@H](O)C(C)(C)[C@@H]5CC[C@@]43C)[C@@H]12
REMARK SMILES IDX 7 1 6 2 11 3 33 4 5 5 12 6 15 7 2 8 3 9 13 10 16 11 1 12
REMARK SMILES IDX 4 13 14 14 31 15 17 16 18 17 30 18 32 19 19 20 29 21 28 22
REMARK SMILES IDX 21 23 20 24 25 25 22 26 23 27 26 28 27 29 8 30 9 31 10 32
REMARK SMILES IDX 24 33
REMARK H PARENT 24 34
REMARK Flexibility Score: inf
ROOT
ATOM      1  C   UNL     1      67.947  49.960  40.639  1.00  0.00     0.017 C 
ATOM      2  C   UNL     1      68.763  48.941  41.509  1.00  0.00     0.014 C 
ATOM      3  C   UNL     1      68.765  51.250  40.391  1.00  0.00     0.014 C 
ATOM      4  C   UNL     1      67.545  49.394  39.235  1.00  0.00     0.030 C 
ATOM      5  C   UNL     1      68.982  47.573  40.856  1.00  0.00     0.004 C 
ATOM      6  C   UNL     1      67.907  52.364  39.769  1.00  0.00     0.013 C 
ATOM      7  C   UNL     1      66.913  50.460  38.313  1.00  0.00    -0.063 C 
ATOM      8  C   UNL     1      68.627  48.486  38.509  1.00  0.00    -0.003 C 
ATOM      9  C   UNL     1      69.597  47.709  39.466  1.00  0.00    -0.011 C 
ATOM     10  C   UNL     1      67.211  51.977  38.403  1.00  0.00    -0.006 C 
ATOM     11  C   UNL     1      66.085  50.018  37.343  1.00  0.00    -0.027 C 
ATOM     12  C   UNL     1      69.378  49.119  37.322  1.00  0.00     0.008 C 
ATOM     13  C   UNL     1      71.036  48.258  39.575  1.00  0.00     0.008 C 
ATOM     14  C   UNL     1      68.274  52.323  37.313  1.00  0.00     0.017 C 
ATOM     15  C   UNL     1      65.820  52.792  38.187  1.00  0.00    -0.020 C 
ATOM     16  C   UNL     1      65.514  50.941  36.304  1.00  0.00     0.032 C 
ATOM     17  C   UNL     1      64.971  52.253  36.928  1.00  0.00     0.006 C 
ATOM     18  C   UNL     1      66.102  54.324  38.078  1.00  0.00     0.008 C 
ATOM     19  C   UNL     1      64.884  52.619  39.434  1.00  0.00     0.012 C 
ATOM     20  C   UNL     1      64.530  53.348  35.870  1.00  0.00    -0.025 C 
ATOM     21  C   UNL     1      64.875  55.175  37.765  1.00  0.00     0.005 C 
ATOM     22  C   UNL     1      63.930  54.573  36.680  1.00  0.00     0.003 C 
ATOM     23  C   UNL     1      63.371  52.780  34.996  1.00  0.00     0.010 C 
ATOM     24  C   UNL     1      65.710  53.677  34.896  1.00  0.00     0.012 C 
ATOM     25  C   UNL     1      63.139  55.670  35.872  1.00  0.00    -0.006 C 
ATOM     26  C   UNL     1      62.759  53.829  34.065  1.00  0.00     0.033 C 
ATOM     27  C   UNL     1      62.143  54.982  34.872  1.00  0.00     0.120 C 
ATOM     28  C   UNL     1      62.263  56.483  36.872  1.00  0.00     0.014 C 
ATOM     29  C   UNL     1      64.096  56.679  35.147  1.00  0.00     0.014 C 
ENDROOT
BRANCH   1  30
ATOM     30  C   UNL     1      66.713  50.305  41.471  1.00  0.00     0.048 C 
ATOM     31  O   UNL     1      65.606  49.716  41.296  1.00  0.00    -0.550 OA
ATOM     32  O   UNL     1      66.831  51.196  42.540  1.00  0.00    -0.550 OA
ENDBRANCH   1  30
BRANCH  27  33
ATOM     33  O   UNL     1      61.506  55.925  34.042  1.00  0.00    -0.393 OA
ATOM     34  H   UNL     1      60.540  55.701  33.950  1.00  0.00     0.210 HD
ENDBRANCH  27  33
TORSDOF 2
ENDMDL
MODEL 5
REMARK VINA RESULT:    -5.110      2.218      8.019
REMARK INTER + INTRA:          -5.676
REMARK INTER:                  -5.549
REMARK INTRA:                  -0.127
REMARK UNBOUND:                -0.118
REMARK SMILES C[C@H]1[C@@H](C)CC[C@@]2(C(=O)[O-])CC[C@@]3(C)C(=CC[C@@H]4[C@@]5(C)CC[C@H](O)C(C)(C)[C@@H]5CC[C@@]43C)[C@@H]12
REMARK SMILES IDX 7 1 6 2 11 3 33 4 5 5 12 6 15 7 2 8 3 9 13 10 16 11 1 12
REMARK SMILES IDX 4 13 14 14 31 15 17 16 18 17 30 18 32 19 19 20 29 21 28 22
REMARK SMILES IDX 21 23 20 24 25 25 22 26 23 27 26 28 27 29 8 30 9 31 10 32
REMARK SMILES IDX 24 33
REMARK H PARENT 24 34
REMARK Flexibility Score: inf
ROOT
ATOM      1  C   UNL     1      66.950  52.185  39.472  1.00  0.00     0.017 C 
ATOM      2  C   UNL     1      67.655  51.843  40.830  1.00  0.00     0.014 C 
ATOM      3  C   UNL     1      67.995  52.501  38.375  1.00  0.00     0.014 C 
ATOM      4  C   UNL     1      66.052  51.022  38.930  1.00  0.00     0.030 C 
ATOM      5  C   UNL     1      67.310  50.465  41.402  1.00  0.00     0.004 C 
ATOM      6  C   UNL     1      67.343  53.088  37.112  1.00  0.00     0.013 C 
ATOM      7  C   UNL     1      65.515  51.288  37.506  1.00  0.00    -0.063 C 
ATOM      8  C   UNL     1      66.610  49.550  39.135  1.00  0.00    -0.003 C 
ATOM      9  C   UNL     1      67.548  49.358  40.378  1.00  0.00    -0.011 C 
ATOM     10  C   UNL     1      66.231  52.174  36.456  1.00  0.00    -0.006 C 
ATOM     11  C   UNL     1      64.372  50.662  37.154  1.00  0.00    -0.027 C 
ATOM     12  C   UNL     1      67.164  48.839  37.885  1.00  0.00     0.008 C 
ATOM     13  C   UNL     1      69.057  49.226  40.083  1.00  0.00     0.008 C 
ATOM     14  C   UNL     1      67.020  51.234  35.491  1.00  0.00     0.017 C 
ATOM     15  C   UNL     1      65.112  53.059  35.675  1.00  0.00    -0.020 C 
ATOM     16  C   UNL     1      63.822  50.736  35.758  1.00  0.00     0.032 C 
ATOM     17  C   UNL     1      63.845  52.183  35.200  1.00  0.00     0.006 C 
ATOM     18  C   UNL     1      65.763  53.824  34.480  1.00  0.00     0.008 C 
ATOM     19  C   UNL     1      64.529  54.166  36.622  1.00  0.00     0.012 C 
ATOM     20  C   UNL     1      63.458  52.300  33.668  1.00  0.00    -0.025 C 
ATOM     21  C   UNL     1      64.780  54.601  33.611  1.00  0.00     0.005 C 
ATOM     22  C   UNL     1      63.454  53.843  33.298  1.00  0.00     0.003 C 
ATOM     23  C   UNL     1      61.999  51.788  33.466  1.00  0.00     0.010 C 
ATOM     24  C   UNL     1      64.381  51.384  32.797  1.00  0.00     0.012 C 
ATOM     25  C   UNL     1      62.809  54.266  31.924  1.00  0.00    -0.006 C 
ATOM     26  C   UNL     1      61.474  52.029  32.049  1.00  0.00     0.033 C 
ATOM     27  C   UNL     1      61.435  53.532  31.731  1.00  0.00     0.120 C 
ATOM     28  C   UNL     1      62.488  55.790  31.980  1.00  0.00     0.014 C 
ATOM     29  C   UNL     1      63.778  54.027  30.715  1.00  0.00     0.014 C 
ENDROOT
BRANCH   1  30
ATOM     30  C   UNL     1      66.124  53.441  39.749  1.00  0.00     0.048 C 
ATOM     31  O   UNL     1      64.877  53.384  39.953  1.00  0.00    -0.550 OA
ATOM     32  O   UNL     1      66.771  54.667  39.914  1.00  0.00    -0.550 OA
ENDBRANCH   1  30
BRANCH  27  33
ATOM     33  O   UNL     1      60.885  53.786  30.459  1.00  0.00    -0.393 OA
ATOM     34  H   UNL     1      59.892  53.831  30.519  1.00  0.00     0.210 HD
ENDBRANCH  27  33
TORSDOF 2
ENDMDL
MODEL 6
REMARK VINA RESULT:    -5.027      4.439      9.051
REMARK INTER + INTRA:          -5.585
REMARK INTER:                  -5.457
REMARK INTRA:                  -0.129
REMARK UNBOUND:                -0.118
REMARK SMILES C[C@H]1[C@@H](C)CC[C@@]2(C(=O)[O-])CC[C@@]3(C)C(=CC[C@@H]4[C@@]5(C)CC[C@H](O)C(C)(C)[C@@H]5CC[C@@]43C)[C@@H]12
REMARK SMILES IDX 7 1 6 2 11 3 33 4 5 5 12 6 15 7 2 8 3 9 13 10 16 11 1 12
REMARK SMILES IDX 4 13 14 14 31 15 17 16 18 17 30 18 32 19 19 20 29 21 28 22
REMARK SMILES IDX 21 23 20 24 25 25 22 26 23 27 26 28 27 29 8 30 9 31 10 32
REMARK SMILES IDX 24 33
REMARK H PARENT 24 34
REMARK Flexibility Score: inf
ROOT
ATOM      1  C   UNL     1      64.778  54.076  34.674  1.00  0.00     0.017 C 
ATOM      2  C   UNL     1      66.206  53.555  35.060  1.00  0.00     0.014 C 
ATOM      3  C   UNL     1      64.803  54.776  33.294  1.00  0.00     0.014 C 
ATOM      4  C   UNL     1      63.704  52.939  34.593  1.00  0.00     0.030 C 
ATOM      5  C   UNL     1      66.287  52.050  35.329  1.00  0.00     0.004 C 
ATOM      6  C   UNL     1      63.489  55.521  33.003  1.00  0.00     0.013 C 
ATOM      7  C   UNL     1      62.351  53.426  34.028  1.00  0.00    -0.063 C 
ATOM      8  C   UNL     1      64.190  51.558  33.978  1.00  0.00    -0.003 C 
ATOM      9  C   UNL     1      65.714  51.242  34.168  1.00  0.00    -0.011 C 
ATOM     10  C   UNL     1      62.192  54.617  33.051  1.00  0.00    -0.006 C 
ATOM     11  C   UNL     1      61.251  52.729  34.384  1.00  0.00    -0.027 C 
ATOM     12  C   UNL     1      63.709  51.228  32.552  1.00  0.00     0.008 C 
ATOM     13  C   UNL     1      66.608  51.404  32.919  1.00  0.00     0.008 C 
ATOM     14  C   UNL     1      62.069  54.038  31.605  1.00  0.00     0.017 C 
ATOM     15  C   UNL     1      60.880  55.473  33.485  1.00  0.00    -0.020 C 
ATOM     16  C   UNL     1      59.899  53.022  33.798  1.00  0.00     0.032 C 
ATOM     17  C   UNL     1      59.595  54.543  33.772  1.00  0.00     0.006 C 
ATOM     18  C   UNL     1      60.570  56.569  32.417  1.00  0.00     0.008 C 
ATOM     19  C   UNL     1      61.148  56.247  34.824  1.00  0.00     0.012 C 
ATOM     20  C   UNL     1      58.271  54.933  32.993  1.00  0.00    -0.025 C 
ATOM     21  C   UNL     1      59.292  57.362  32.672  1.00  0.00     0.005 C 
ATOM     22  C   UNL     1      58.079  56.500  33.141  1.00  0.00     0.003 C 
ATOM     23  C   UNL     1      57.048  54.265  33.694  1.00  0.00     0.010 C 
ATOM     24  C   UNL     1      58.310  54.377  31.530  1.00  0.00     0.012 C 
ATOM     25  C   UNL     1      56.689  57.112  32.725  1.00  0.00    -0.006 C 
ATOM     26  C   UNL     1      55.707  54.728  33.120  1.00  0.00     0.033 C 
ATOM     27  C   UNL     1      55.524  56.241  33.317  1.00  0.00     0.120 C 
ATOM     28  C   UNL     1      56.556  58.521  33.377  1.00  0.00     0.014 C 
ATOM     29  C   UNL     1      56.559  57.290  31.173  1.00  0.00     0.014 C 
ENDROOT
BRANCH   1  30
ATOM     30  C   UNL     1      64.417  55.103  35.747  1.00  0.00     0.048 C 
ATOM     31  O   UNL     1      63.677  54.806  36.730  1.00  0.00    -0.550 OA
ATOM     32  O   UNL     1      65.019  56.363  35.723  1.00  0.00    -0.550 OA
ENDBRANCH   1  30
BRANCH  27  33
ATOM     33  O   UNL     1      54.264  56.682  32.865  1.00  0.00    -0.393 OA
ATOM     34  H   UNL     1      53.694  55.901  32.627  1.00  0.00     0.210 HD
ENDBRANCH  27  33
TORSDOF 2
ENDMDL
MODEL 7
REMARK VINA RESULT:    -5.000      5.073     10.396
REMARK INTER + INTRA:          -5.556
REMARK INTER:                  -5.440
REMARK INTRA:                  -0.117
REMARK UNBOUND:                -0.118
REMARK SMILES C[C@H]1[C@@H](C)CC[C@@]2(C(=O)[O-])CC[C@@]3(C)C(=CC[C@@H]4[C@@]5(C)CC[C@H](O)C(C)(C)[C@@H]5CC[C@@]43C)[C@@H]12
REMARK SMILES IDX 7 1 6 2 11 3 33 4 5 5 12 6 15 7 2 8 3 9 13 10 16 11 1 12
REMARK SMILES IDX 4 13 14 14 31 15 17 16 18 17 30 18 32 19 19 20 29 21 28 22
REMARK SMILES IDX 21 23 20 24 25 25 22 26 23 27 26 28 27 29 8 30 9 31 10 32
REMARK SMILES IDX 24 33
REMARK H PARENT 24 34
REMARK Flexibility Score: inf
ROOT
ATOM      1  C   UNL     1      62.988  52.895  33.090  1.00  0.00     0.017 C 
ATOM      2  C   UNL     1      64.126  53.339  34.073  1.00  0.00     0.014 C 
ATOM      3  C   UNL     1      63.161  53.570  31.708  1.00  0.00     0.014 C 
ATOM      4  C   UNL     1      62.948  51.348  32.845  1.00  0.00     0.030 C 
ATOM      5  C   UNL     1      64.961  52.191  34.647  1.00  0.00     0.004 C 
ATOM      6  C   UNL     1      61.930  53.363  30.809  1.00  0.00     0.013 C 
ATOM      7  C   UNL     1      61.956  50.938  31.735  1.00  0.00    -0.063 C 
ATOM      8  C   UNL     1      64.355  50.619  32.742  1.00  0.00    -0.003 C 
ATOM      9  C   UNL     1      65.521  51.299  33.542  1.00  0.00    -0.011 C 
ATOM     10  C   UNL     1      61.546  51.850  30.552  1.00  0.00    -0.006 C 
ATOM     11  C   UNL     1      61.459  49.684  31.789  1.00  0.00    -0.027 C 
ATOM     12  C   UNL     1      64.806  50.180  31.336  1.00  0.00     0.008 C 
ATOM     13  C   UNL     1      66.559  52.080  32.708  1.00  0.00     0.008 C 
ATOM     14  C   UNL     1      62.399  51.439  29.310  1.00  0.00     0.017 C 
ATOM     15  C   UNL     1      59.951  51.673  30.290  1.00  0.00    -0.020 C 
ATOM     16  C   UNL     1      60.590  49.126  30.698  1.00  0.00     0.032 C 
ATOM     17  C   UNL     1      59.492  50.128  30.259  1.00  0.00     0.006 C 
ATOM     18  C   UNL     1      59.529  52.425  28.988  1.00  0.00     0.008 C 
ATOM     19  C   UNL     1      59.127  52.335  31.449  1.00  0.00     0.012 C 
ATOM     20  C   UNL     1      58.665  49.677  28.984  1.00  0.00    -0.025 C 
ATOM     21  C   UNL     1      58.070  52.233  28.587  1.00  0.00     0.005 C 
ATOM     22  C   UNL     1      57.544  50.773  28.736  1.00  0.00     0.003 C 
ATOM     23  C   UNL     1      57.923  48.343  29.299  1.00  0.00     0.010 C 
ATOM     24  C   UNL     1      59.624  49.386  27.782  1.00  0.00     0.012 C 
ATOM     25  C   UNL     1      56.391  50.424  27.721  1.00  0.00    -0.006 C 
ATOM     26  C   UNL     1      56.957  47.922  28.190  1.00  0.00     0.033 C 
ATOM     27  C   UNL     1      55.854  48.975  28.000  1.00  0.00     0.120 C 
ATOM     28  C   UNL     1      55.197  51.391  27.982  1.00  0.00     0.014 C 
ATOM     29  C   UNL     1      56.836  50.609  26.229  1.00  0.00     0.014 C 
ENDROOT
BRANCH   1  30
ATOM     30  C   UNL     1      61.688  53.388  33.726  1.00  0.00     0.048 C 
ATOM     31  O   UNL     1      60.902  52.601  34.330  1.00  0.00    -0.550 OA
ATOM     32  O   UNL     1      61.416  54.757  33.762  1.00  0.00    -0.550 OA
ENDBRANCH   1  30
BRANCH  27  33
ATOM     33  O   UNL     1      54.907  48.578  27.035  1.00  0.00    -0.393 OA
ATOM     34  H   UNL     1      55.062  47.629  26.776  1.00  0.00     0.210 HD
ENDBRANCH  27  33
TORSDOF 2
ENDMDL
MODEL 8
REMARK VINA RESULT:    -4.987      4.152      9.408
REMARK INTER + INTRA:          -5.542
REMARK INTER:                  -5.414
REMARK INTRA:                  -0.128
REMARK UNBOUND:                -0.118
REMARK SMILES C[C@H]1[C@@H](C)CC[C@@]2(C(=O)[O-])CC[C@@]3(C)C(=CC[C@@H]4[C@@]5(C)CC[C@H](O)C(C)(C)[C@@H]5CC[C@@]43C)[C@@H]12
REMARK SMILES IDX 7 1 6 2 11 3 33 4 5 5 12 6 15 7 2 8 3 9 13 10 16 11 1 12
REMARK SMILES IDX 4 13 14 14 31 15 17 16 18 17 30 18 32 19 19 20 29 21 28 22
REMARK SMILES IDX 21 23 20 24 25 25 22 26 23 27 26 28 27 29 8 30 9 31 10 32
REMARK SMILES IDX 24 33
REMARK H PARENT 24 34
REMARK Flexibility Score: inf
ROOT
ATOM      1  C   UNL     1      64.291  51.328  32.012  1.00  0.00     0.017 C 
ATOM      2  C   UNL     1      65.752  50.783  32.180  1.00  0.00     0.014 C 
ATOM      3  C   UNL     1      63.277  50.417  32.745  1.00  0.00     0.014 C 
ATOM      4  C   UNL     1      64.100  52.776  32.578  1.00  0.00     0.030 C 
ATOM      5  C   UNL     1      66.733  51.768  32.821  1.00  0.00     0.004 C 
ATOM      6  C   UNL     1      61.823  50.771  32.388  1.00  0.00     0.013 C 
ATOM      7  C   UNL     1      62.624  53.232  32.585  1.00  0.00    -0.063 C 
ATOM      8  C   UNL     1      64.876  53.111  33.923  1.00  0.00    -0.003 C 
ATOM      9  C   UNL     1      66.202  52.304  34.148  1.00  0.00    -0.011 C 
ATOM     10  C   UNL     1      61.415  52.270  32.688  1.00  0.00    -0.006 C 
ATOM     11  C   UNL     1      62.393  54.561  32.543  1.00  0.00    -0.027 C 
ATOM     12  C   UNL     1      64.029  53.192  35.208  1.00  0.00     0.008 C 
ATOM     13  C   UNL     1      66.143  51.168  35.191  1.00  0.00     0.008 C 
ATOM     14  C   UNL     1      60.942  52.252  34.176  1.00  0.00     0.017 C 
ATOM     15  C   UNL     1      60.252  52.788  31.678  1.00  0.00    -0.020 C 
ATOM     16  C   UNL     1      61.009  55.132  32.677  1.00  0.00     0.032 C 
ATOM     17  C   UNL     1      59.980  54.372  31.800  1.00  0.00     0.006 C 
ATOM     18  C   UNL     1      58.943  51.963  31.888  1.00  0.00     0.008 C 
ATOM     19  C   UNL     1      60.672  52.545  30.186  1.00  0.00     0.012 C 
ATOM     20  C   UNL     1      58.473  54.800  32.040  1.00  0.00    -0.025 C 
ATOM     21  C   UNL     1      57.751  52.439  31.065  1.00  0.00     0.005 C 
ATOM     22  C   UNL     1      57.582  53.988  31.008  1.00  0.00     0.003 C 
ATOM     23  C   UNL     1      58.305  56.309  31.684  1.00  0.00     0.010 C 
ATOM     24  C   UNL     1      58.093  54.648  33.550  1.00  0.00     0.012 C 
ATOM     25  C   UNL     1      56.085  54.440  30.819  1.00  0.00    -0.006 C 
ATOM     26  C   UNL     1      56.846  56.768  31.713  1.00  0.00     0.033 C 
ATOM     27  C   UNL     1      56.012  56.002  30.675  1.00  0.00     0.120 C 
ATOM     28  C   UNL     1      55.559  53.851  29.475  1.00  0.00     0.014 C 
ATOM     29  C   UNL     1      55.155  53.912  31.966  1.00  0.00     0.014 C 
ENDROOT
BRANCH   1  30
ATOM     30  C   UNL     1      64.010  51.279  30.510  1.00  0.00     0.048 C 
ATOM     31  O   UNL     1      64.118  52.307  29.780  1.00  0.00    -0.550 OA
ATOM     32  O   UNL     1      63.756  50.050  29.898  1.00  0.00    -0.550 OA
ENDBRANCH   1  30
BRANCH  27  33
ATOM     33  O   UNL     1      54.680  56.458  30.628  1.00  0.00    -0.393 OA
ATOM     34  H   UNL     1      54.621  57.283  30.075  1.00  0.00     0.210 HD
ENDBRANCH  27  33
TORSDOF 2
ENDMDL
MODEL 9
REMARK VINA RESULT:    -4.983      5.893     11.320
REMARK INTER + INTRA:          -5.538
REMARK INTER:                  -5.430
REMARK INTRA:                  -0.108
REMARK UNBOUND:                -0.118
REMARK SMILES C[C@H]1[C@@H](C)CC[C@@]2(C(=O)[O-])CC[C@@]3(C)C(=CC[C@@H]4[C@@]5(C)CC[C@H](O)C(C)(C)[C@@H]5CC[C@@]43C)[C@@H]12
REMARK SMILES IDX 7 1 6 2 11 3 33 4 5 5 12 6 15 7 2 8 3 9 13 10 16 11 1 12
REMARK SMILES IDX 4 13 14 14 31 15 17 16 18 17 30 18 32 19 19 20 29 21 28 22
REMARK SMILES IDX 21 23 20 24 25 25 22 26 23 27 26 28 27 29 8 30 9 31 10 32
REMARK SMILES IDX 24 33
REMARK H PARENT 24 34
REMARK Flexibility Score: inf
ROOT
ATOM      1  C   UNL     1      62.161  52.173  32.441  1.00  0.00     0.017 C 
ATOM      2  C   UNL     1      63.366  52.438  33.408  1.00  0.00     0.014 C 
ATOM      3  C   UNL     1      62.263  53.063  31.179  1.00  0.00     0.014 C 
ATOM      4  C   UNL     1      62.075  50.688  31.950  1.00  0.00     0.030 C 
ATOM      5  C   UNL     1      64.210  51.203  33.734  1.00  0.00     0.004 C 
ATOM      6  C   UNL     1      60.975  53.019  30.338  1.00  0.00     0.013 C 
ATOM      7  C   UNL     1      61.007  50.476  30.854  1.00  0.00    -0.063 C 
ATOM      8  C   UNL     1      63.457  49.970  31.641  1.00  0.00    -0.003 C 
ATOM      9  C   UNL     1      64.683  50.498  32.465  1.00  0.00    -0.011 C 
ATOM     10  C   UNL     1      60.545  51.573  29.864  1.00  0.00    -0.006 C 
ATOM     11  C   UNL     1      60.489  49.235  30.735  1.00  0.00    -0.027 C 
ATOM     12  C   UNL     1      63.811  49.762  30.156  1.00  0.00     0.008 C 
ATOM     13  C   UNL     1      65.684  51.393  31.704  1.00  0.00     0.008 C 
ATOM     14  C   UNL     1      61.311  51.361  28.520  1.00  0.00     0.017 C 
ATOM     15  C   UNL     1      58.934  51.458  29.678  1.00  0.00    -0.020 C 
ATOM     16  C   UNL     1      59.543  48.872  29.625  1.00  0.00     0.032 C 
ATOM     17  C   UNL     1      58.441  49.944  29.426  1.00  0.00     0.006 C 
ATOM     18  C   UNL     1      58.449  52.417  28.546  1.00  0.00     0.008 C 
ATOM     19  C   UNL     1      58.196  51.931  30.980  1.00  0.00     0.012 C 
ATOM     20  C   UNL     1      57.529  49.717  28.150  1.00  0.00    -0.025 C 
ATOM     21  C   UNL     1      56.964  52.310  28.213  1.00  0.00     0.005 C 
ATOM     22  C   UNL     1      56.418  50.850  28.155  1.00  0.00     0.003 C 
ATOM     23  C   UNL     1      56.780  48.357  28.291  1.00  0.00     0.010 C 
ATOM     24  C   UNL     1      58.406  49.616  26.858  1.00  0.00     0.012 C 
ATOM     25  C   UNL     1      55.198  50.685  27.173  1.00  0.00    -0.006 C 
ATOM     26  C   UNL     1      55.739  48.134  27.192  1.00  0.00     0.033 C 
ATOM     27  C   UNL     1      54.649  49.216  27.246  1.00  0.00     0.120 C 
ATOM     28  C   UNL     1      54.042  51.609  27.664  1.00  0.00     0.014 C 
ATOM     29  C   UNL     1      55.555  51.106  25.706  1.00  0.00     0.014 C 
ENDROOT
BRANCH   1  30
ATOM     30  C   UNL     1      60.913  52.569  33.230  1.00  0.00     0.048 C 
ATOM     31  O   UNL     1      60.137  51.702  33.726  1.00  0.00    -0.550 OA
ATOM     32  O   UNL     1      60.686  53.914  33.528  1.00  0.00    -0.550 OA
ENDBRANCH   1  30
BRANCH  27  33
ATOM     33  O   UNL     1      53.637  48.992  26.292  1.00  0.00    -0.393 OA
ATOM     34  H   UNL     1      53.376  48.031  26.291  1.00  0.00     0.210 HD
ENDBRANCH  27  33
TORSDOF 2
ENDMDL
