MODEL 1
REMARK VINA RESULT:    -5.560      0.000      0.000
REMARK INTER + INTRA:          -5.885
REMARK INTER:                  -5.885
REMARK INTRA:                   0.000
REMARK UNBOUND:                 0.000
REMARK SMILES O=c1ccc2cc(O)c(O)cc2o1
REMARK SMILES IDX 4 1 3 2 2 3 1 4 13 5 12 6 11 7 9 8 7 9 6 10 5 11 8 12 10 14
REMARK H PARENT 8 13 10 15
REMARK Flexibility Score: inf
ROOT
ATOM      1  C   UNL     1     -13.800  24.687 -28.750  1.00  0.00     0.019 A 
ATOM      2  C   UNL     1     -14.287  25.174 -27.538  1.00  0.00     0.094 A 
ATOM      3  C   UNL     1     -15.245  24.427 -26.843  1.00  0.00     0.336 A 
ATOM      4  O   UNL     1     -15.697  24.850 -25.746  1.00  0.00    -0.246 OA
ATOM      5  O   UNL     1     -15.683  23.271 -27.334  1.00  0.00    -0.423 OA
ATOM      6  C   UNL     1     -15.246  22.770 -28.487  1.00  0.00     0.142 A 
ATOM      7  C   UNL     1     -15.743  21.549 -28.953  1.00  0.00     0.098 A 
ATOM      8  C   UNL     1     -15.284  21.018 -30.168  1.00  0.00     0.161 A 
ATOM      9  C   UNL     1     -14.325  21.711 -30.919  1.00  0.00     0.158 A 
ATOM     10  C   UNL     1     -13.822  22.936 -30.456  1.00  0.00     0.062 A 
ATOM     11  C   UNL     1     -14.279  23.468 -29.243  1.00  0.00     0.022 A 
ENDROOT
BRANCH   9  12
ATOM     12  O   UNL     1     -13.874  21.176 -32.125  1.00  0.00    -0.504 OA
ATOM     13  H   UNL     1     -13.792  21.744 -32.959  1.00  0.00     0.293 HD
ENDBRANCH   9  12
BRANCH   8  14
ATOM     14  O   UNL     1     -15.778  19.801 -30.634  1.00  0.00    -0.504 OA
ATOM     15  H   UNL     1     -16.138  19.096 -30.001  1.00  0.00     0.293 HD
ENDBRANCH   8  14
TORSDOF 2
ENDMDL
MODEL 2
REMARK VINA RESULT:    -5.406      1.587      4.356
REMARK INTER + INTRA:          -5.722
REMARK INTER:                  -5.722
REMARK INTRA:                   0.000
REMARK UNBOUND:                 0.000
REMARK SMILES O=c1ccc2cc(O)c(O)cc2o1
REMARK SMILES IDX 4 1 3 2 2 3 1 4 13 5 12 6 11 7 9 8 7 9 6 10 5 11 8 12 10 14
REMARK H PARENT 8 13 10 15
REMARK Flexibility Score: inf
ROOT
ATOM      1  C   UNL     1     -14.620  21.421 -31.030  1.00  0.00     0.019 A 
ATOM      2  C   UNL     1     -15.261  20.198 -30.837  1.00  0.00     0.094 A 
ATOM      3  C   UNL     1     -15.913  19.958 -29.622  1.00  0.00     0.336 A 
ATOM      4  O   UNL     1     -16.498  18.860 -29.430  1.00  0.00    -0.246 OA
ATOM      5  O   UNL     1     -15.919  20.884 -28.667  1.00  0.00    -0.423 OA
ATOM      6  C   UNL     1     -15.320  22.063 -28.809  1.00  0.00     0.142 A 
ATOM      7  C   UNL     1     -15.359  22.998 -27.770  1.00  0.00     0.098 A 
ATOM      8  C   UNL     1     -14.728  24.243 -27.916  1.00  0.00     0.161 A 
ATOM      9  C   UNL     1     -14.055  24.553 -29.106  1.00  0.00     0.158 A 
ATOM     10  C   UNL     1     -14.012  23.620 -30.152  1.00  0.00     0.062 A 
ATOM     11  C   UNL     1     -14.642  22.376 -30.008  1.00  0.00     0.022 A 
ENDROOT
BRANCH   9  12
ATOM     12  O   UNL     1     -13.432  25.793 -29.243  1.00  0.00    -0.504 OA
ATOM     13  H   UNL     1     -13.010  26.080 -30.117  1.00  0.00     0.293 HD
ENDBRANCH   9  12
BRANCH   8  14
ATOM     14  O   UNL     1     -14.767  25.176 -26.881  1.00  0.00    -0.504 OA
ATOM     15  H   UNL     1     -15.633  25.413 -26.412  1.00  0.00     0.293 HD
ENDBRANCH   8  14
TORSDOF 2
ENDMDL
MODEL 3
REMARK VINA RESULT:    -5.267      6.838     10.010
REMARK INTER + INTRA:          -5.575
REMARK INTER:                  -5.575
REMARK INTRA:                   0.000
REMARK UNBOUND:                 0.000
REMARK SMILES O=c1ccc2cc(O)c(O)cc2o1
REMARK SMILES IDX 4 1 3 2 2 3 1 4 13 5 12 6 11 7 9 8 7 9 6 10 5 11 8 12 10 14
REMARK H PARENT 8 13 10 15
REMARK Flexibility Score: inf
ROOT
ATOM      1  C   UNL     1     -10.881  26.350 -22.592  1.00  0.00     0.019 A 
ATOM      2  C   UNL     1     -11.454  25.721 -23.697  1.00  0.00     0.094 A 
ATOM      3  C   UNL     1     -12.747  25.197 -23.584  1.00  0.00     0.336 A 
ATOM      4  O   UNL     1     -13.281  24.625 -24.570  1.00  0.00    -0.246 OA
ATOM      5  O   UNL     1     -13.417  25.299 -22.439  1.00  0.00    -0.423 OA
ATOM      6  C   UNL     1     -12.908  25.891 -21.361  1.00  0.00     0.142 A 
ATOM      7  C   UNL     1     -13.660  25.969 -20.185  1.00  0.00     0.098 A 
ATOM      8  C   UNL     1     -13.126  26.592 -19.047  1.00  0.00     0.161 A 
ATOM      9  C   UNL     1     -11.836  27.140 -19.086  1.00  0.00     0.158 A 
ATOM     10  C   UNL     1     -11.078  27.065 -20.263  1.00  0.00     0.062 A 
ATOM     11  C   UNL     1     -11.609  26.443 -21.401  1.00  0.00     0.022 A 
ENDROOT
BRANCH   9  12
ATOM     12  O   UNL     1     -11.315  27.758 -17.950  1.00  0.00    -0.504 OA
ATOM     13  H   UNL     1     -11.282  27.283 -17.056  1.00  0.00     0.293 HD
ENDBRANCH   9  12
BRANCH   8  14
ATOM     14  O   UNL     1     -13.874  26.671 -17.873  1.00  0.00    -0.504 OA
ATOM     15  H   UNL     1     -13.441  26.872 -16.979  1.00  0.00     0.293 HD
ENDBRANCH   8  14
TORSDOF 2
ENDMDL
MODEL 4
REMARK VINA RESULT:    -5.235     14.327     15.998
REMARK INTER + INTRA:          -5.541
REMARK INTER:                  -5.541
REMARK INTRA:                   0.000
REMARK UNBOUND:                 0.000
REMARK SMILES O=c1ccc2cc(O)c(O)cc2o1
REMARK SMILES IDX 4 1 3 2 2 3 1 4 13 5 12 6 11 7 9 8 7 9 6 10 5 11 8 12 10 14
REMARK H PARENT 8 13 10 15
REMARK Flexibility Score: inf
ROOT
ATOM      1  C   UNL     1     -24.745  28.509 -19.049  1.00  0.00     0.019 A 
ATOM      2  C   UNL     1     -24.915  29.065 -17.782  1.00  0.00     0.094 A 
ATOM      3  C   UNL     1     -26.186  29.042 -17.197  1.00  0.00     0.336 A 
ATOM      4  O   UNL     1     -26.360  29.538 -16.053  1.00  0.00    -0.246 OA
ATOM      5  O   UNL     1     -27.215  28.499 -17.842  1.00  0.00    -0.423 OA
ATOM      6  C   UNL     1     -27.097  27.959 -19.053  1.00  0.00     0.142 A 
ATOM      7  C   UNL     1     -28.214  27.402 -19.683  1.00  0.00     0.098 A 
ATOM      8  C   UNL     1     -28.093  26.832 -20.959  1.00  0.00     0.161 A 
ATOM      9  C   UNL     1     -26.850  26.819 -21.607  1.00  0.00     0.158 A 
ATOM     10  C   UNL     1     -25.726  27.375 -20.980  1.00  0.00     0.062 A 
ATOM     11  C   UNL     1     -25.845  27.945 -19.706  1.00  0.00     0.022 A 
ENDROOT
BRANCH   9  12
ATOM     12  O   UNL     1     -26.739  26.249 -22.875  1.00  0.00    -0.504 OA
ATOM     13  H   UNL     1     -27.263  26.607 -23.665  1.00  0.00     0.293 HD
ENDBRANCH   9  12
BRANCH   8  14
ATOM     14  O   UNL     1     -29.206  26.276 -21.589  1.00  0.00    -0.504 OA
ATOM     15  H   UNL     1     -29.256  25.287 -21.802  1.00  0.00     0.293 HD
ENDBRANCH   8  14
TORSDOF 2
ENDMDL
MODEL 5
REMARK VINA RESULT:    -5.147     18.615     19.793
REMARK INTER + INTRA:          -5.448
REMARK INTER:                  -5.448
REMARK INTRA:                   0.000
REMARK UNBOUND:                 0.000
REMARK SMILES O=c1ccc2cc(O)c(O)cc2o1
REMARK SMILES IDX 4 1 3 2 2 3 1 4 13 5 12 6 11 7 9 8 7 9 6 10 5 11 8 12 10 14
REMARK H PARENT 8 13 10 15
REMARK Flexibility Score: inf
ROOT
ATOM      1  C   UNL     1     -21.213  32.021 -11.875  1.00  0.00     0.019 A 
ATOM      2  C   UNL     1     -22.464  32.590 -12.108  1.00  0.00     0.094 A 
ATOM      3  C   UNL     1     -22.581  33.606 -13.063  1.00  0.00     0.336 A 
ATOM      4  O   UNL     1     -23.703  34.131 -13.288  1.00  0.00    -0.246 OA
ATOM      5  O   UNL     1     -21.512  34.021 -13.738  1.00  0.00    -0.423 OA
ATOM      6  C   UNL     1     -20.300  33.506 -13.547  1.00  0.00     0.142 A 
ATOM      7  C   UNL     1     -19.213  33.983 -14.286  1.00  0.00     0.098 A 
ATOM      8  C   UNL     1     -17.933  33.443 -14.087  1.00  0.00     0.161 A 
ATOM      9  C   UNL     1     -17.741  32.422 -13.146  1.00  0.00     0.158 A 
ATOM     10  C   UNL     1     -18.827  31.940 -12.402  1.00  0.00     0.062 A 
ATOM     11  C   UNL     1     -20.106  32.478 -12.599  1.00  0.00     0.022 A 
ENDROOT
BRANCH   9  12
ATOM     12  O   UNL     1     -16.465  31.891 -12.955  1.00  0.00    -0.504 OA
ATOM     13  H   UNL     1     -15.679  32.477 -12.704  1.00  0.00     0.293 HD
ENDBRANCH   9  12
BRANCH   8  14
ATOM     14  O   UNL     1     -16.848  33.916 -14.823  1.00  0.00    -0.504 OA
ATOM     15  H   UNL     1     -15.897  33.653 -14.596  1.00  0.00     0.293 HD
ENDBRANCH   8  14
TORSDOF 2
ENDMDL
MODEL 6
REMARK VINA RESULT:    -5.121     18.155     19.206
REMARK INTER + INTRA:          -5.420
REMARK INTER:                  -5.420
REMARK INTRA:                   0.000
REMARK UNBOUND:                 0.000
REMARK SMILES O=c1ccc2cc(O)c(O)cc2o1
REMARK SMILES IDX 4 1 3 2 2 3 1 4 13 5 12 6 11 7 9 8 7 9 6 10 5 11 8 12 10 14
REMARK H PARENT 8 13 10 15
REMARK Flexibility Score: inf
ROOT
ATOM      1  C   UNL     1     -21.387  31.883 -14.979  1.00  0.00     0.019 A 
ATOM      2  C   UNL     1     -22.473  31.261 -14.364  1.00  0.00     0.094 A 
ATOM      3  C   UNL     1     -22.390  30.943 -13.003  1.00  0.00     0.336 A 
ATOM      4  O   UNL     1     -23.360  30.382 -12.429  1.00  0.00    -0.246 OA
ATOM      5  O   UNL     1     -21.292  31.231 -12.310  1.00  0.00    -0.423 OA
ATOM      6  C   UNL     1     -20.233  31.823 -12.858  1.00  0.00     0.142 A 
ATOM      7  C   UNL     1     -19.106  32.101 -12.079  1.00  0.00     0.098 A 
ATOM      8  C   UNL     1     -17.988  32.725 -12.653  1.00  0.00     0.161 A 
ATOM      9  C   UNL     1     -17.999  33.073 -14.012  1.00  0.00     0.158 A 
ATOM     10  C   UNL     1     -19.127  32.797 -14.797  1.00  0.00     0.062 A 
ATOM     11  C   UNL     1     -20.244  32.174 -14.226  1.00  0.00     0.022 A 
ENDROOT
BRANCH   9  12
ATOM     12  O   UNL     1     -16.884  33.694 -14.574  1.00  0.00    -0.504 OA
ATOM     13  H   UNL     1     -16.964  34.565 -15.084  1.00  0.00     0.293 HD
ENDBRANCH   9  12
BRANCH   8  14
ATOM     14  O   UNL     1     -16.863  33.003 -11.879  1.00  0.00    -0.504 OA
ATOM     15  H   UNL     1     -16.165  33.674 -12.178  1.00  0.00     0.293 HD
ENDBRANCH   8  14
TORSDOF 2
ENDMDL
MODEL 7
REMARK VINA RESULT:    -5.096     14.455     16.595
REMARK INTER + INTRA:          -5.394
REMARK INTER:                  -5.394
REMARK INTRA:                   0.000
REMARK UNBOUND:                 0.000
REMARK SMILES O=c1ccc2cc(O)c(O)cc2o1
REMARK SMILES IDX 4 1 3 2 2 3 1 4 13 5 12 6 11 7 9 8 7 9 6 10 5 11 8 12 10 14
REMARK H PARENT 8 13 10 15
REMARK Flexibility Score: inf
ROOT
ATOM      1  C   UNL     1     -29.517  27.785 -19.240  1.00  0.00     0.019 A 
ATOM      2  C   UNL     1     -29.617  28.468 -18.029  1.00  0.00     0.094 A 
ATOM      3  C   UNL     1     -28.456  28.984 -17.443  1.00  0.00     0.336 A 
ATOM      4  O   UNL     1     -28.526  29.604 -16.350  1.00  0.00    -0.246 OA
ATOM      5  O   UNL     1     -27.275  28.825 -18.035  1.00  0.00    -0.423 OA
ATOM      6  C   UNL     1     -27.135  28.180 -19.191  1.00  0.00     0.142 A 
ATOM      7  C   UNL     1     -25.868  28.043 -19.766  1.00  0.00     0.098 A 
ATOM      8  C   UNL     1     -25.716  27.364 -20.985  1.00  0.00     0.161 A 
ATOM      9  C   UNL     1     -26.835  26.820 -21.629  1.00  0.00     0.158 A 
ATOM     10  C   UNL     1     -28.108  26.954 -21.057  1.00  0.00     0.062 A 
ATOM     11  C   UNL     1     -28.262  27.632 -19.840  1.00  0.00     0.022 A 
ENDROOT
BRANCH   9  12
ATOM     12  O   UNL     1     -26.675  26.147 -22.840  1.00  0.00    -0.504 OA
ATOM     13  H   UNL     1     -25.802  25.694 -23.083  1.00  0.00     0.293 HD
ENDBRANCH   9  12
BRANCH   8  14
ATOM     14  O   UNL     1     -24.453  27.227 -21.560  1.00  0.00    -0.504 OA
ATOM     15  H   UNL     1     -23.609  27.459 -21.050  1.00  0.00     0.293 HD
ENDBRANCH   8  14
TORSDOF 2
ENDMDL
MODEL 8
REMARK VINA RESULT:    -5.012     13.238     15.420
REMARK INTER + INTRA:          -5.305
REMARK INTER:                  -5.305
REMARK INTRA:                   0.000
REMARK UNBOUND:                 0.000
REMARK SMILES O=c1ccc2cc(O)c(O)cc2o1
REMARK SMILES IDX 4 1 3 2 2 3 1 4 13 5 12 6 11 7 9 8 7 9 6 10 5 11 8 12 10 14
REMARK H PARENT 8 13 10 15
REMARK Flexibility Score: inf
ROOT
ATOM      1  C   UNL     1     -15.410  18.998 -15.614  1.00  0.00     0.019 A 
ATOM      2  C   UNL     1     -16.225  18.470 -16.613  1.00  0.00     0.094 A 
ATOM      3  C   UNL     1     -17.540  18.935 -16.732  1.00  0.00     0.336 A 
ATOM      4  O   UNL     1     -18.292  18.471 -17.629  1.00  0.00    -0.246 OA
ATOM      5  O   UNL     1     -18.002  19.867 -15.903  1.00  0.00    -0.423 OA
ATOM      6  C   UNL     1     -17.257  20.397 -14.935  1.00  0.00     0.142 A 
ATOM      7  C   UNL     1     -17.797  21.374 -14.093  1.00  0.00     0.098 A 
ATOM      8  C   UNL     1     -17.016  21.935 -13.072  1.00  0.00     0.161 A 
ATOM      9  C   UNL     1     -15.690  21.517 -12.892  1.00  0.00     0.158 A 
ATOM     10  C   UNL     1     -15.143  20.538 -13.734  1.00  0.00     0.062 A 
ATOM     11  C   UNL     1     -15.921  19.976 -14.755  1.00  0.00     0.022 A 
ENDROOT
BRANCH   9  12
ATOM     12  O   UNL     1     -14.920  22.081 -11.875  1.00  0.00    -0.504 OA
ATOM     13  H   UNL     1     -15.343  22.436 -11.026  1.00  0.00     0.293 HD
ENDBRANCH   9  12
BRANCH   8  14
ATOM     14  O   UNL     1     -17.552  22.910 -12.231  1.00  0.00    -0.504 OA
ATOM     15  H   UNL     1     -17.408  23.898 -12.404  1.00  0.00     0.293 HD
ENDBRANCH   8  14
TORSDOF 2
ENDMDL
MODEL 9
REMARK VINA RESULT:    -4.796     10.900     12.413
REMARK INTER + INTRA:          -5.077
REMARK INTER:                  -5.077
REMARK INTRA:                   0.000
REMARK UNBOUND:                 0.000
REMARK SMILES O=c1ccc2cc(O)c(O)cc2o1
REMARK SMILES IDX 4 1 3 2 2 3 1 4 13 5 12 6 11 7 9 8 7 9 6 10 5 11 8 12 10 14
REMARK H PARENT 8 13 10 15
REMARK Flexibility Score: inf
ROOT
ATOM      1  C   UNL     1     -21.414  31.842 -21.488  1.00  0.00     0.019 A 
ATOM      2  C   UNL     1     -22.453  31.318 -22.255  1.00  0.00     0.094 A 
ATOM      3  C   UNL     1     -22.351  30.005 -22.729  1.00  0.00     0.336 A 
ATOM      4  O   UNL     1     -23.280  29.514 -23.423  1.00  0.00    -0.246 OA
ATOM      5  O   UNL     1     -21.277  29.270 -22.451  1.00  0.00    -0.423 OA
ATOM      6  C   UNL     1     -20.263  29.732 -21.724  1.00  0.00     0.142 A 
ATOM      7  C   UNL     1     -19.159  28.913 -21.464  1.00  0.00     0.098 A 
ATOM      8  C   UNL     1     -18.088  29.395 -20.698  1.00  0.00     0.161 A 
ATOM      9  C   UNL     1     -18.120  30.702 -20.189  1.00  0.00     0.158 A 
ATOM     10  C   UNL     1     -19.225  31.527 -20.446  1.00  0.00     0.062 A 
ATOM     11  C   UNL     1     -20.296  31.047 -21.212  1.00  0.00     0.022 A 
ENDROOT
BRANCH   9  12
ATOM     12  O   UNL     1     -17.051  31.172 -19.428  1.00  0.00    -0.504 OA
ATOM     13  H   UNL     1     -16.615  30.599 -18.716  1.00  0.00     0.293 HD
ENDBRANCH   9  12
BRANCH   8  14
ATOM     14  O   UNL     1     -16.987  28.581 -20.437  1.00  0.00    -0.504 OA
ATOM     15  H   UNL     1     -16.074  28.971 -20.236  1.00  0.00     0.293 HD
ENDBRANCH   8  14
TORSDOF 2
ENDMDL
