MODEL 1
REMARK VINA RESULT:    -3.535      0.000      0.000
REMARK INTER + INTRA:          -6.977
REMARK INTER:                  -5.188
REMARK INTRA:                  -1.790
REMARK UNBOUND:                -1.790
REMARK SMILES O=c1c(O[C@@H]2O[C@@H](CO)[C@H](O)[C@H](O)[C@H]2O)c(-c2ccc(O)c(O)c2)oc2cc(O)cc(O)c12
REMARK SMILES IDX 4 1 3 2 16 3 25 4 2 5 26 6 1 7 33 8 27 9 31 10 28 11 30 12
REMARK SMILES IDX 17 13 18 14 19 15 20 16 24 17 22 18 21 19 23 21 32 23 29 25
REMARK SMILES IDX 5 27 14 28 6 29 12 30 7 31 10 32 15 33 13 35 8 37 9 38 11 40
REMARK H PARENT 21 20 23 22 32 24 29 26 15 34 13 36 9 39 11 41
REMARK Flexibility Score: inf
ROOT
ATOM      1  O   UNL     1      20.322  33.309  41.918  1.00  0.00    -0.454 OA
ENDROOT
BRANCH   1   2
ATOM      2  C   UNL     1      21.018  33.595  40.727  1.00  0.00     0.214 A 
ATOM      3  C   UNL     1      22.416  33.430  40.718  1.00  0.00     0.180 A 
ATOM      4  O   UNL     1      23.101  33.615  39.596  1.00  0.00    -0.452 OA
ATOM      5  C   UNL     1      20.381  33.992  39.531  1.00  0.00     0.239 A 
ATOM      6  C   UNL     1      22.546  34.006  38.457  1.00  0.00     0.146 A 
ATOM      7  O   UNL     1      19.126  34.036  39.483  1.00  0.00    -0.285 OA
ATOM      8  C   UNL     1      21.155  34.267  38.379  1.00  0.00     0.111 A 
ATOM      9  C   UNL     1      23.362  34.149  37.332  1.00  0.00     0.094 A 
ATOM     10  C   UNL     1      20.621  34.737  37.141  1.00  0.00     0.134 A 
ATOM     11  C   UNL     1      22.817  34.546  36.110  1.00  0.00     0.123 A 
ATOM     12  C   UNL     1      21.456  34.834  36.020  1.00  0.00     0.093 A 
BRANCH   3  13
ATOM     13  C   UNL     1      23.163  33.027  41.931  1.00  0.00     0.025 A 
ATOM     14  C   UNL     1      23.456  31.671  42.145  1.00  0.00     0.016 A 
ATOM     15  C   UNL     1      24.170  31.272  43.278  1.00  0.00     0.051 A 
ATOM     16  C   UNL     1      24.615  32.220  44.203  1.00  0.00     0.157 A 
ATOM     17  C   UNL     1      23.633  33.982  42.851  1.00  0.00     0.062 A 
ATOM     18  C   UNL     1      24.349  33.583  43.989  1.00  0.00     0.158 A 
BRANCH  16  19
ATOM     19  O   UNL     1      25.324  31.791  45.325  1.00  0.00    -0.504 OA
ATOM     20  H   UNL     1      24.897  31.222  46.047  1.00  0.00     0.293 HD
ENDBRANCH  16  19
BRANCH  18  21
ATOM     21  O   UNL     1      24.798  34.535  44.903  1.00  0.00    -0.504 OA
ATOM     22  H   UNL     1      25.459  34.299  45.633  1.00  0.00     0.293 HD
ENDBRANCH  18  21
ENDBRANCH   3  13
BRANCH  10  23
ATOM     23  O   UNL     1      19.296  35.147  36.971  1.00  0.00    -0.507 OA
ATOM     24  H   UNL     1      18.902  35.987  37.370  1.00  0.00     0.293 HD
ENDBRANCH  10  23
BRANCH  11  25
ATOM     25  O   UNL     1      23.621  34.667  34.979  1.00  0.00    -0.508 OA
ATOM     26  H   UNL     1      24.626  34.779  35.053  1.00  0.00     0.293 HD
ENDBRANCH  11  25
ENDBRANCH   1   2
BRANCH   1  27
ATOM     27  C   UNL     1      19.935  34.238  42.929  1.00  0.00     0.339 C 
ATOM     28  C   UNL     1      18.404  34.159  43.077  1.00  0.00     0.214 C 
ATOM     29  O   UNL     1      20.582  33.892  44.146  1.00  0.00    -0.332 OA
ATOM     30  C   UNL     1      17.923  35.079  44.209  1.00  0.00     0.180 C 
ATOM     31  C   UNL     1      20.255  34.770  45.217  1.00  0.00     0.179 C 
ATOM     32  C   UNL     1      18.729  34.815  45.497  1.00  0.00     0.177 C 
BRANCH  28  33
ATOM     33  O   UNL     1      17.767  34.486  41.865  1.00  0.00    -0.384 OA
ATOM     34  H   UNL     1      16.988  33.880  41.758  1.00  0.00     0.211 HD
ENDBRANCH  28  33
BRANCH  30  35
ATOM     35  O   UNL     1      16.553  34.866  44.434  1.00  0.00    -0.387 OA
ATOM     36  H   UNL     1      16.402  33.887  44.368  1.00  0.00     0.211 HD
ENDBRANCH  30  35
BRANCH  31  37
ATOM     37  C   UNL     1      20.888  36.167  45.045  1.00  0.00     0.191 C 
BRANCH  37  38
ATOM     38  O   UNL     1      22.248  36.119  45.381  1.00  0.00    -0.394 OA
ATOM     39  H   UNL     1      22.584  35.246  45.048  1.00  0.00     0.210 HD
ENDBRANCH  37  38
ENDBRANCH  31  37
BRANCH  32  40
ATOM     40  O   UNL     1      18.298  33.629  46.125  1.00  0.00    -0.387 OA
ATOM     41  H   UNL     1      18.435  33.729  47.102  1.00  0.00     0.211 HD
ENDBRANCH  32  40
ENDBRANCH   1  27
TORSDOF 12
ENDMDL
MODEL 2
REMARK VINA RESULT:    -3.513      2.430      3.796
REMARK INTER + INTRA:          -6.946
REMARK INTER:                  -5.417
REMARK INTRA:                  -1.529
REMARK UNBOUND:                -1.790
REMARK SMILES O=c1c(O[C@@H]2O[C@@H](CO)[C@H](O)[C@H](O)[C@H]2O)c(-c2ccc(O)c(O)c2)oc2cc(O)cc(O)c12
REMARK SMILES IDX 4 1 3 2 16 3 25 4 2 5 26 6 1 7 33 8 27 9 31 10 28 11 30 12
REMARK SMILES IDX 17 13 18 14 19 15 20 16 24 17 22 18 21 19 23 21 32 23 29 25
REMARK SMILES IDX 5 27 14 28 6 29 12 30 7 31 10 32 15 33 13 35 8 37 9 38 11 40
REMARK H PARENT 21 20 23 22 32 24 29 26 15 34 13 36 9 39 11 41
REMARK Flexibility Score: inf
ROOT
ATOM      1  O   UNL     1      19.020  33.727  41.727  1.00  0.00    -0.454 OA
ENDROOT
BRANCH   1   2
ATOM      2  C   UNL     1      18.806  34.244  40.434  1.00  0.00     0.214 A 
ATOM      3  C   UNL     1      19.649  33.806  39.395  1.00  0.00     0.180 A 
ATOM      4  O   UNL     1      19.433  34.208  38.148  1.00  0.00    -0.452 OA
ATOM      5  C   UNL     1      17.759  35.138  40.117  1.00  0.00     0.239 A 
ATOM      6  C   UNL     1      18.476  35.062  37.810  1.00  0.00     0.146 A 
ATOM      7  O   UNL     1      16.925  35.453  41.003  1.00  0.00    -0.285 OA
ATOM      8  C   UNL     1      17.616  35.615  38.793  1.00  0.00     0.111 A 
ATOM      9  C   UNL     1      18.327  35.399  36.463  1.00  0.00     0.094 A 
ATOM     10  C   UNL     1      16.638  36.568  38.380  1.00  0.00     0.134 A 
ATOM     11  C   UNL     1      17.325  36.283  36.063  1.00  0.00     0.123 A 
ATOM     12  C   UNL     1      16.488  36.859  37.017  1.00  0.00     0.093 A 
BRANCH   3  13
ATOM     13  C   UNL     1      20.776  32.878  39.641  1.00  0.00     0.025 A 
ATOM     14  C   UNL     1      20.537  31.495  39.681  1.00  0.00     0.016 A 
ATOM     15  C   UNL     1      21.590  30.602  39.901  1.00  0.00     0.051 A 
ATOM     16  C   UNL     1      22.894  31.074  40.068  1.00  0.00     0.157 A 
ATOM     17  C   UNL     1      22.093  33.350  39.785  1.00  0.00     0.062 A 
ATOM     18  C   UNL     1      23.150  32.455  40.007  1.00  0.00     0.158 A 
BRANCH  16  19
ATOM     19  O   UNL     1      23.924  30.159  40.288  1.00  0.00    -0.504 OA
ATOM     20  H   UNL     1      24.863  30.312  39.941  1.00  0.00     0.293 HD
ENDBRANCH  16  19
BRANCH  18  21
ATOM     21  O   UNL     1      24.450  32.933  40.164  1.00  0.00    -0.504 OA
ATOM     22  H   UNL     1      25.232  32.512  39.676  1.00  0.00     0.293 HD
ENDBRANCH  18  21
ENDBRANCH   3  13
BRANCH  10  23
ATOM     23  O   UNL     1      15.819  37.276  39.264  1.00  0.00    -0.507 OA
ATOM     24  H   UNL     1      14.850  37.501  39.090  1.00  0.00     0.293 HD
ENDBRANCH  10  23
BRANCH  11  25
ATOM     25  O   UNL     1      17.157  36.604  34.718  1.00  0.00    -0.508 OA
ATOM     26  H   UNL     1      17.888  37.064  34.187  1.00  0.00     0.293 HD
ENDBRANCH  11  25
ENDBRANCH   1   2
BRANCH   1  27
ATOM     27  C   UNL     1      20.008  34.151  42.666  1.00  0.00     0.339 C 
ATOM     28  C   UNL     1      19.273  34.754  43.877  1.00  0.00     0.214 C 
ATOM     29  O   UNL     1      20.789  33.029  43.051  1.00  0.00    -0.332 OA
ATOM     30  C   UNL     1      20.276  35.161  44.968  1.00  0.00     0.180 C 
ATOM     31  C   UNL     1      21.807  33.358  43.989  1.00  0.00     0.179 C 
ATOM     32  C   UNL     1      21.231  33.992  45.285  1.00  0.00     0.177 C 
BRANCH  28  33
ATOM     33  O   UNL     1      18.487  35.854  43.489  1.00  0.00    -0.384 OA
ATOM     34  H   UNL     1      17.533  35.600  43.596  1.00  0.00     0.211 HD
ENDBRANCH  28  33
BRANCH  30  35
ATOM     35  O   UNL     1      19.577  35.551  46.123  1.00  0.00    -0.387 OA
ATOM     36  H   UNL     1      18.667  35.162  46.050  1.00  0.00     0.211 HD
ENDBRANCH  30  35
BRANCH  31  37
ATOM     37  C   UNL     1      22.945  34.185  43.356  1.00  0.00     0.191 C 
BRANCH  37  38
ATOM     38  O   UNL     1      23.759  34.724  44.361  1.00  0.00    -0.394 OA
ATOM     39  H   UNL     1      23.959  33.976  44.984  1.00  0.00     0.210 HD
ENDBRANCH  37  38
ENDBRANCH  31  37
BRANCH  32  40
ATOM     40  O   UNL     1      20.590  33.020  46.078  1.00  0.00    -0.387 OA
ATOM     41  H   UNL     1      20.348  32.255  45.495  1.00  0.00     0.211 HD
ENDBRANCH  32  40
ENDBRANCH   1  27
TORSDOF 12
ENDMDL
MODEL 3
REMARK VINA RESULT:    -3.442      2.132      2.711
REMARK INTER + INTRA:          -6.842
REMARK INTER:                  -5.508
REMARK INTRA:                  -1.334
REMARK UNBOUND:                -1.790
REMARK SMILES O=c1c(O[C@@H]2O[C@@H](CO)[C@H](O)[C@H](O)[C@H]2O)c(-c2ccc(O)c(O)c2)oc2cc(O)cc(O)c12
REMARK SMILES IDX 4 1 3 2 16 3 25 4 2 5 26 6 1 7 33 8 27 9 31 10 28 11 30 12
REMARK SMILES IDX 17 13 18 14 19 15 20 16 24 17 22 18 21 19 23 21 32 23 29 25
REMARK SMILES IDX 5 27 14 28 6 29 12 30 7 31 10 32 15 33 13 35 8 37 9 38 11 40
REMARK H PARENT 21 20 23 22 32 24 29 26 15 34 13 36 9 39 11 41
REMARK Flexibility Score: inf
ROOT
ATOM      1  O   UNL     1      22.588  32.760  41.942  1.00  0.00    -0.454 OA
ENDROOT
BRANCH   1   2
ATOM      2  C   UNL     1      23.347  32.852  40.758  1.00  0.00     0.214 A 
ATOM      3  C   UNL     1      24.643  32.300  40.755  1.00  0.00     0.180 A 
ATOM      4  O   UNL     1      25.362  32.296  39.640  1.00  0.00    -0.452 OA
ATOM      5  C   UNL     1      22.858  33.423  39.563  1.00  0.00     0.239 A 
ATOM      6  C   UNL     1      24.950  32.839  38.502  1.00  0.00     0.146 A 
ATOM      7  O   UNL     1      21.667  33.818  39.509  1.00  0.00    -0.285 OA
ATOM      8  C   UNL     1      23.689  33.481  38.419  1.00  0.00     0.111 A 
ATOM      9  C   UNL     1      25.783  32.759  37.384  1.00  0.00     0.094 A 
ATOM     10  C   UNL     1      23.319  34.095  37.184  1.00  0.00     0.134 A 
ATOM     11  C   UNL     1      25.383  33.305  36.164  1.00  0.00     0.123 A 
ATOM     12  C   UNL     1      24.158  33.964  36.069  1.00  0.00     0.093 A 
BRANCH   3  13
ATOM     13  C   UNL     1      25.236  31.691  41.968  1.00  0.00     0.025 A 
ATOM     14  C   UNL     1      25.174  30.300  42.145  1.00  0.00     0.016 A 
ATOM     15  C   UNL     1      25.738  29.705  43.277  1.00  0.00     0.051 A 
ATOM     16  C   UNL     1      26.384  30.487  44.238  1.00  0.00     0.157 A 
ATOM     17  C   UNL     1      25.908  32.473  42.924  1.00  0.00     0.062 A 
ATOM     18  C   UNL     1      26.473  31.878  44.061  1.00  0.00     0.158 A 
BRANCH  16  19
ATOM     19  O   UNL     1      26.935  29.865  45.358  1.00  0.00    -0.504 OA
ATOM     20  H   UNL     1      27.445  30.382  46.065  1.00  0.00     0.293 HD
ENDBRANCH  16  19
BRANCH  18  21
ATOM     21  O   UNL     1      27.124  32.663  45.012  1.00  0.00    -0.504 OA
ATOM     22  H   UNL     1      27.774  32.261  45.677  1.00  0.00     0.293 HD
ENDBRANCH  18  21
ENDBRANCH   3  13
BRANCH  10  23
ATOM     23  O   UNL     1      22.164  34.862  37.011  1.00  0.00    -0.507 OA
ATOM     24  H   UNL     1      21.226  34.490  37.006  1.00  0.00     0.293 HD
ENDBRANCH  10  23
BRANCH  11  25
ATOM     25  O   UNL     1      26.199  33.206  35.039  1.00  0.00    -0.508 OA
ATOM     26  H   UNL     1      26.959  32.538  34.994  1.00  0.00     0.293 HD
ENDBRANCH  11  25
ENDBRANCH   1   2
BRANCH   1  27
ATOM     27  C   UNL     1      22.591  33.677  43.035  1.00  0.00     0.339 C 
ATOM     28  C   UNL     1      21.248  34.431  43.018  1.00  0.00     0.214 C 
ATOM     29  O   UNL     1      22.752  32.951  44.245  1.00  0.00    -0.332 OA
ATOM     30  C   UNL     1      21.148  35.382  44.220  1.00  0.00     0.180 C 
ATOM     31  C   UNL     1      22.769  33.788  45.396  1.00  0.00     0.179 C 
ATOM     32  C   UNL     1      21.473  34.634  45.528  1.00  0.00     0.177 C 
BRANCH  28  33
ATOM     33  O   UNL     1      21.084  35.134  41.810  1.00  0.00    -0.384 OA
ATOM     34  H   UNL     1      20.110  35.260  41.661  1.00  0.00     0.211 HD
ENDBRANCH  28  33
BRANCH  30  35
ATOM     35  O   UNL     1      19.856  35.930  44.275  1.00  0.00    -0.387 OA
ATOM     36  H   UNL     1      19.333  35.367  44.904  1.00  0.00     0.211 HD
ENDBRANCH  30  35
BRANCH  31  37
ATOM     37  C   UNL     1      24.061  34.628  45.493  1.00  0.00     0.191 C 
BRANCH  37  38
ATOM     38  O   UNL     1      23.789  35.849  46.125  1.00  0.00    -0.394 OA
ATOM     39  H   UNL     1      23.147  36.326  45.537  1.00  0.00     0.210 HD
ENDBRANCH  37  38
ENDBRANCH  31  37
BRANCH  32  40
ATOM     40  O   UNL     1      20.388  33.831  45.930  1.00  0.00    -0.387 OA
ATOM     41  H   UNL     1      20.392  33.778  46.921  1.00  0.00     0.211 HD
ENDBRANCH  32  40
ENDBRANCH   1  27
TORSDOF 12
ENDMDL
MODEL 4
REMARK VINA RESULT:    -3.442      1.945      5.311
REMARK INTER + INTRA:          -6.842
REMARK INTER:                  -6.162
REMARK INTRA:                  -0.679
REMARK UNBOUND:                -1.790
REMARK SMILES O=c1c(O[C@@H]2O[C@@H](CO)[C@H](O)[C@H](O)[C@H]2O)c(-c2ccc(O)c(O)c2)oc2cc(O)cc(O)c12
REMARK SMILES IDX 4 1 3 2 16 3 25 4 2 5 26 6 1 7 33 8 27 9 31 10 28 11 30 12
REMARK SMILES IDX 17 13 18 14 19 15 20 16 24 17 22 18 21 19 23 21 32 23 29 25
REMARK SMILES IDX 5 27 14 28 6 29 12 30 7 31 10 32 15 33 13 35 8 37 9 38 11 40
REMARK H PARENT 21 20 23 22 32 24 29 26 15 34 13 36 9 39 11 41
REMARK Flexibility Score: inf
ROOT
ATOM      1  O   UNL     1      20.008  33.124  43.031  1.00  0.00    -0.454 OA
ENDROOT
BRANCH   1   2
ATOM      2  C   UNL     1      20.188  33.458  41.674  1.00  0.00     0.214 A 
ATOM      3  C   UNL     1      19.061  33.866  40.935  1.00  0.00     0.180 A 
ATOM      4  O   UNL     1      19.198  34.262  39.676  1.00  0.00    -0.452 OA
ATOM      5  C   UNL     1      21.445  33.451  41.031  1.00  0.00     0.239 A 
ATOM      6  C   UNL     1      20.355  34.252  39.028  1.00  0.00     0.146 A 
ATOM      7  O   UNL     1      22.480  33.202  41.699  1.00  0.00    -0.285 OA
ATOM      8  C   UNL     1      21.538  33.794  39.662  1.00  0.00     0.111 A 
ATOM      9  C   UNL     1      20.386  34.712  37.710  1.00  0.00     0.094 A 
ATOM     10  C   UNL     1      22.745  33.756  38.901  1.00  0.00     0.134 A 
ATOM     11  C   UNL     1      21.585  34.731  36.996  1.00  0.00     0.123 A 
ATOM     12  C   UNL     1      22.753  34.259  37.593  1.00  0.00     0.093 A 
BRANCH   3  13
ATOM     13  C   UNL     1      17.705  33.892  41.529  1.00  0.00     0.025 A 
ATOM     14  C   UNL     1      17.009  35.108  41.612  1.00  0.00     0.016 A 
ATOM     15  C   UNL     1      15.723  35.151  42.159  1.00  0.00     0.051 A 
ATOM     16  C   UNL     1      15.109  33.982  42.614  1.00  0.00     0.157 A 
ATOM     17  C   UNL     1      17.075  32.712  41.965  1.00  0.00     0.062 A 
ATOM     18  C   UNL     1      15.786  32.754  42.515  1.00  0.00     0.158 A 
BRANCH  16  19
ATOM     19  O   UNL     1      13.826  34.057  43.157  1.00  0.00    -0.504 OA
ATOM     20  H   UNL     1      13.101  33.390  42.919  1.00  0.00     0.293 HD
ENDBRANCH  16  19
BRANCH  18  21
ATOM     21  O   UNL     1      15.175  31.581  42.958  1.00  0.00    -0.504 OA
ATOM     22  H   UNL     1      15.707  30.840  43.397  1.00  0.00     0.293 HD
ENDBRANCH  18  21
ENDBRANCH   3  13
BRANCH  10  23
ATOM     23  O   UNL     1      23.944  33.211  39.369  1.00  0.00    -0.507 OA
ATOM     24  H   UNL     1      24.488  33.594  40.128  1.00  0.00     0.293 HD
ENDBRANCH  10  23
BRANCH  11  25
ATOM     25  O   UNL     1      21.626  35.211  35.689  1.00  0.00    -0.508 OA
ATOM     26  H   UNL     1      20.807  35.609  35.245  1.00  0.00     0.293 HD
ENDBRANCH  11  25
ENDBRANCH   1   2
BRANCH   1  27
ATOM     27  C   UNL     1      20.037  34.017  44.144  1.00  0.00     0.339 C 
ATOM     28  C   UNL     1      21.508  34.388  44.409  1.00  0.00     0.214 C 
ATOM     29  O   UNL     1      19.270  35.171  43.829  1.00  0.00    -0.332 OA
ATOM     30  C   UNL     1      21.608  35.414  45.548  1.00  0.00     0.180 C 
ATOM     31  C   UNL     1      19.239  36.122  44.887  1.00  0.00     0.179 C 
ATOM     32  C   UNL     1      20.660  36.602  45.289  1.00  0.00     0.177 C 
BRANCH  28  33
ATOM     33  O   UNL     1      22.268  33.241  44.703  1.00  0.00    -0.384 OA
ATOM     34  H   UNL     1      22.810  33.021  43.901  1.00  0.00     0.211 HD
ENDBRANCH  28  33
BRANCH  30  35
ATOM     35  O   UNL     1      22.935  35.860  45.659  1.00  0.00    -0.387 OA
ATOM     36  H   UNL     1      23.079  36.094  46.613  1.00  0.00     0.211 HD
ENDBRANCH  30  35
BRANCH  31  37
ATOM     37  C   UNL     1      18.393  35.640  46.085  1.00  0.00     0.191 C 
BRANCH  37  38
ATOM     38  O   UNL     1      17.187  35.092  45.628  1.00  0.00    -0.394 OA
ATOM     39  H   UNL     1      16.471  35.710  45.930  1.00  0.00     0.210 HD
ENDBRANCH  37  38
ENDBRANCH  31  37
BRANCH  32  40
ATOM     40  O   UNL     1      21.193  37.466  44.312  1.00  0.00    -0.387 OA
ATOM     41  H   UNL     1      20.976  38.398  44.572  1.00  0.00     0.211 HD
ENDBRANCH  32  40
ENDBRANCH   1  27
TORSDOF 12
ENDMDL
MODEL 5
REMARK VINA RESULT:    -3.394      2.386      3.705
REMARK INTER + INTRA:          -6.770
REMARK INTER:                  -5.284
REMARK INTRA:                  -1.487
REMARK UNBOUND:                -1.790
REMARK SMILES O=c1c(O[C@@H]2O[C@@H](CO)[C@H](O)[C@H](O)[C@H]2O)c(-c2ccc(O)c(O)c2)oc2cc(O)cc(O)c12
REMARK SMILES IDX 4 1 3 2 16 3 25 4 2 5 26 6 1 7 33 8 27 9 31 10 28 11 30 12
REMARK SMILES IDX 17 13 18 14 19 15 20 16 24 17 22 18 21 19 23 21 32 23 29 25
REMARK SMILES IDX 5 27 14 28 6 29 12 30 7 31 10 32 15 33 13 35 8 37 9 38 11 40
REMARK H PARENT 21 20 23 22 32 24 29 26 15 34 13 36 9 39 11 41
REMARK Flexibility Score: inf
ROOT
ATOM      1  O   UNL     1      19.487  33.103  42.789  1.00  0.00    -0.454 OA
ENDROOT
BRANCH   1   2
ATOM      2  C   UNL     1      19.271  33.676  41.521  1.00  0.00     0.214 A 
ATOM      3  C   UNL     1      20.237  33.458  40.520  1.00  0.00     0.180 A 
ATOM      4  O   UNL     1      20.037  33.915  39.290  1.00  0.00    -0.452 OA
ATOM      5  C   UNL     1      18.115  34.416  41.187  1.00  0.00     0.239 A 
ATOM      6  C   UNL     1      18.976  34.630  38.939  1.00  0.00     0.146 A 
ATOM      7  O   UNL     1      17.188  34.526  42.029  1.00  0.00    -0.285 OA
ATOM      8  C   UNL     1      17.979  34.964  39.890  1.00  0.00     0.111 A 
ATOM      9  C   UNL     1      18.858  35.042  37.610  1.00  0.00     0.094 A 
ATOM     10  C   UNL     1      16.886  35.780  39.470  1.00  0.00     0.134 A 
ATOM     11  C   UNL     1      17.752  35.784  37.196  1.00  0.00     0.123 A 
ATOM     12  C   UNL     1      16.775  36.146  38.122  1.00  0.00     0.093 A 
BRANCH   3  13
ATOM     13  C   UNL     1      21.483  32.703  40.787  1.00  0.00     0.025 A 
ATOM     14  C   UNL     1      21.542  31.335  40.481  1.00  0.00     0.016 A 
ATOM     15  C   UNL     1      22.712  30.608  40.716  1.00  0.00     0.051 A 
ATOM     16  C   UNL     1      23.843  31.238  41.242  1.00  0.00     0.157 A 
ATOM     17  C   UNL     1      22.629  33.341  41.294  1.00  0.00     0.062 A 
ATOM     18  C   UNL     1      23.804  32.613  41.531  1.00  0.00     0.158 A 
BRANCH  16  19
ATOM     19  O   UNL     1      24.995  30.486  41.467  1.00  0.00    -0.504 OA
ATOM     20  H   UNL     1      25.143  29.970  42.327  1.00  0.00     0.293 HD
ENDBRANCH  16  19
BRANCH  18  21
ATOM     21  O   UNL     1      24.931  33.251  42.048  1.00  0.00    -0.504 OA
ATOM     22  H   UNL     1      25.377  32.932  42.899  1.00  0.00     0.293 HD
ENDBRANCH  18  21
ENDBRANCH   3  13
BRANCH  10  23
ATOM     23  O   UNL     1      15.909  36.279  40.335  1.00  0.00    -0.507 OA
ATOM     24  H   UNL     1      15.017  35.838  40.506  1.00  0.00     0.293 HD
ENDBRANCH  10  23
BRANCH  11  25
ATOM     25  O   UNL     1      17.618  36.177  35.865  1.00  0.00    -0.508 OA
ATOM     26  H   UNL     1      18.398  36.560  35.345  1.00  0.00     0.293 HD
ENDBRANCH  11  25
ENDBRANCH   1   2
BRANCH   1  27
ATOM     27  C   UNL     1      20.058  33.740  43.931  1.00  0.00     0.339 C 
ATOM     28  C   UNL     1      21.112  32.785  44.521  1.00  0.00     0.214 C 
ATOM     29  O   UNL     1      20.651  34.966  43.527  1.00  0.00    -0.332 OA
ATOM     30  C   UNL     1      21.828  33.441  45.712  1.00  0.00     0.180 C 
ATOM     31  C   UNL     1      21.248  35.676  44.607  1.00  0.00     0.179 C 
ATOM     32  C   UNL     1      22.343  34.843  45.325  1.00  0.00     0.177 C 
BRANCH  28  33
ATOM     33  O   UNL     1      20.525  31.565  44.904  1.00  0.00    -0.384 OA
ATOM     34  H   UNL     1      20.700  30.904  44.184  1.00  0.00     0.211 HD
ENDBRANCH  28  33
BRANCH  30  35
ATOM     35  O   UNL     1      22.893  32.623  46.125  1.00  0.00    -0.387 OA
ATOM     36  H   UNL     1      22.619  32.210  46.985  1.00  0.00     0.211 HD
ENDBRANCH  30  35
BRANCH  31  37
ATOM     37  C   UNL     1      20.198  36.269  45.571  1.00  0.00     0.191 C 
BRANCH  37  38
ATOM     38  O   UNL     1      20.682  37.463  46.125  1.00  0.00    -0.394 OA
ATOM     39  H   UNL     1      21.134  37.210  46.972  1.00  0.00     0.210 HD
ENDBRANCH  37  38
ENDBRANCH  31  37
BRANCH  32  40
ATOM     40  O   UNL     1      23.505  34.750  44.533  1.00  0.00    -0.387 OA
ATOM     41  H   UNL     1      24.293  34.849  45.127  1.00  0.00     0.211 HD
ENDBRANCH  32  40
ENDBRANCH   1  27
TORSDOF 12
ENDMDL
MODEL 6
REMARK VINA RESULT:    -3.365      3.093      5.715
REMARK INTER + INTRA:          -6.728
REMARK INTER:                  -5.548
REMARK INTRA:                  -1.181
REMARK UNBOUND:                -1.790
REMARK SMILES O=c1c(O[C@@H]2O[C@@H](CO)[C@H](O)[C@H](O)[C@H]2O)c(-c2ccc(O)c(O)c2)oc2cc(O)cc(O)c12
REMARK SMILES IDX 4 1 3 2 16 3 25 4 2 5 26 6 1 7 33 8 27 9 31 10 28 11 30 12
REMARK SMILES IDX 17 13 18 14 19 15 20 16 24 17 22 18 21 19 23 21 32 23 29 25
REMARK SMILES IDX 5 27 14 28 6 29 12 30 7 31 10 32 15 33 13 35 8 37 9 38 11 40
REMARK H PARENT 21 20 23 22 32 24 29 26 15 34 13 36 9 39 11 41
REMARK Flexibility Score: inf
ROOT
ATOM      1  O   UNL     1      17.951  33.376  42.135  1.00  0.00    -0.454 OA
ENDROOT
BRANCH   1   2
ATOM      2  C   UNL     1      17.318  34.269  41.248  1.00  0.00     0.214 A 
ATOM      3  C   UNL     1      17.886  34.456  39.974  1.00  0.00     0.180 A 
ATOM      4  O   UNL     1      17.280  35.229  39.081  1.00  0.00    -0.452 OA
ATOM      5  C   UNL     1      16.117  34.948  41.554  1.00  0.00     0.239 A 
ATOM      6  C   UNL     1      16.164  35.899  39.333  1.00  0.00     0.146 A 
ATOM      7  O   UNL     1      15.531  34.709  42.640  1.00  0.00    -0.285 OA
ATOM      8  C   UNL     1      15.549  35.833  40.608  1.00  0.00     0.111 A 
ATOM      9  C   UNL     1      15.601  36.667  38.310  1.00  0.00     0.094 A 
ATOM     10  C   UNL     1      14.378  36.617  40.839  1.00  0.00     0.134 A 
ATOM     11  C   UNL     1      14.420  37.377  38.528  1.00  0.00     0.123 A 
ATOM     12  C   UNL     1      13.816  37.347  39.784  1.00  0.00     0.093 A 
BRANCH   3  13
ATOM     13  C   UNL     1      19.148  33.792  39.576  1.00  0.00     0.025 A 
ATOM     14  C   UNL     1      19.135  32.432  39.227  1.00  0.00     0.016 A 
ATOM     15  C   UNL     1      20.313  31.790  38.838  1.00  0.00     0.051 A 
ATOM     16  C   UNL     1      21.517  32.498  38.776  1.00  0.00     0.157 A 
ATOM     17  C   UNL     1      20.356  34.508  39.490  1.00  0.00     0.062 A 
ATOM     18  C   UNL     1      21.540  33.865  39.101  1.00  0.00     0.158 A 
BRANCH  16  19
ATOM     19  O   UNL     1      22.677  31.829  38.386  1.00  0.00    -0.504 OA
ATOM     20  H   UNL     1      22.756  31.367  37.488  1.00  0.00     0.293 HD
ENDBRANCH  16  19
BRANCH  18  21
ATOM     21  O   UNL     1      22.735  34.580  39.032  1.00  0.00    -0.504 OA
ATOM     22  H   UNL     1      22.846  35.472  39.498  1.00  0.00     0.293 HD
ENDBRANCH  18  21
ENDBRANCH   3  13
BRANCH  10  23
ATOM     23  O   UNL     1      13.754  36.736  42.084  1.00  0.00    -0.507 OA
ATOM     24  H   UNL     1      14.110  36.341  42.942  1.00  0.00     0.293 HD
ENDBRANCH  10  23
BRANCH  11  25
ATOM     25  O   UNL     1      13.842  38.125  37.504  1.00  0.00    -0.508 OA
ATOM     26  H   UNL     1      13.795  37.775  36.554  1.00  0.00     0.293 HD
ENDBRANCH  11  25
ENDBRANCH   1   2
BRANCH   1  27
ATOM     27  C   UNL     1      18.756  33.716  43.264  1.00  0.00     0.339 C 
ATOM     28  C   UNL     1      20.216  33.370  42.918  1.00  0.00     0.214 C 
ATOM     29  O   UNL     1      18.611  35.103  43.532  1.00  0.00    -0.332 OA
ATOM     30  C   UNL     1      21.154  33.785  44.063  1.00  0.00     0.180 C 
ATOM     31  C   UNL     1      19.380  35.534  44.649  1.00  0.00     0.179 C 
ATOM     32  C   UNL     1      20.896  35.251  44.466  1.00  0.00     0.177 C 
BRANCH  28  33
ATOM     33  O   UNL     1      20.352  31.998  42.635  1.00  0.00    -0.384 OA
ATOM     34  H   UNL     1      20.369  31.891  41.648  1.00  0.00     0.211 HD
ENDBRANCH  28  33
BRANCH  30  35
ATOM     35  O   UNL     1      22.488  33.614  43.658  1.00  0.00    -0.387 OA
ATOM     36  H   UNL     1      22.533  32.745  43.180  1.00  0.00     0.211 HD
ENDBRANCH  30  35
BRANCH  31  37
ATOM     37  C   UNL     1      18.816  35.012  45.988  1.00  0.00     0.191 C 
BRANCH  37  38
ATOM     38  O   UNL     1      17.427  35.194  46.023  1.00  0.00    -0.394 OA
ATOM     39  H   UNL     1      17.262  35.929  46.670  1.00  0.00     0.210 HD
ENDBRANCH  37  38
ENDBRANCH  31  37
BRANCH  32  40
ATOM     40  O   UNL     1      21.463  36.137  43.529  1.00  0.00    -0.387 OA
ATOM     41  H   UNL     1      21.597  37.013  43.973  1.00  0.00     0.211 HD
ENDBRANCH  32  40
ENDBRANCH   1  27
TORSDOF 12
ENDMDL
MODEL 7
REMARK VINA RESULT:    -3.313      1.567      1.959
REMARK INTER + INTRA:          -6.652
REMARK INTER:                  -4.987
REMARK INTRA:                  -1.665
REMARK UNBOUND:                -1.790
REMARK SMILES O=c1c(O[C@@H]2O[C@@H](CO)[C@H](O)[C@H](O)[C@H]2O)c(-c2ccc(O)c(O)c2)oc2cc(O)cc(O)c12
REMARK SMILES IDX 4 1 3 2 16 3 25 4 2 5 26 6 1 7 33 8 27 9 31 10 28 11 30 12
REMARK SMILES IDX 17 13 18 14 19 15 20 16 24 17 22 18 21 19 23 21 32 23 29 25
REMARK SMILES IDX 5 27 14 28 6 29 12 30 7 31 10 32 15 33 13 35 8 37 9 38 11 40
REMARK H PARENT 21 20 23 22 32 24 29 26 15 34 13 36 9 39 11 41
REMARK Flexibility Score: inf
ROOT
ATOM      1  O   UNL     1      18.866  33.535  41.537  1.00  0.00    -0.454 OA
ENDROOT
BRANCH   1   2
ATOM      2  C   UNL     1      19.279  33.972  40.263  1.00  0.00     0.214 A 
ATOM      3  C   UNL     1      20.648  33.894  39.944  1.00  0.00     0.180 A 
ATOM      4  O   UNL     1      21.068  34.222  38.728  1.00  0.00    -0.452 OA
ATOM      5  C   UNL     1      18.384  34.438  39.274  1.00  0.00     0.239 A 
ATOM      6  C   UNL     1      20.266  34.683  37.777  1.00  0.00     0.146 A 
ATOM      7  O   UNL     1      17.148  34.409  39.495  1.00  0.00    -0.285 OA
ATOM      8  C   UNL     1      18.881  34.864  38.020  1.00  0.00     0.111 A 
ATOM      9  C   UNL     1      20.815  34.978  36.527  1.00  0.00     0.094 A 
ATOM     10  C   UNL     1      18.076  35.413  36.977  1.00  0.00     0.134 A 
ATOM     11  C   UNL     1      20.005  35.452  35.494  1.00  0.00     0.123 A 
ATOM     12  C   UNL     1      18.646  35.663  35.722  1.00  0.00     0.093 A 
BRANCH   3  13
ATOM     13  C   UNL     1      21.653  33.427  40.925  1.00  0.00     0.025 A 
ATOM     14  C   UNL     1      22.099  32.097  40.880  1.00  0.00     0.016 A 
ATOM     15  C   UNL     1      23.056  31.640  41.790  1.00  0.00     0.051 A 
ATOM     16  C   UNL     1      23.592  32.507  42.746  1.00  0.00     0.157 A 
ATOM     17  C   UNL     1      22.213  34.304  41.872  1.00  0.00     0.062 A 
ATOM     18  C   UNL     1      23.172  33.847  42.787  1.00  0.00     0.158 A 
BRANCH  16  19
ATOM     19  O   UNL     1      24.545  32.022  43.642  1.00  0.00    -0.504 OA
ATOM     20  H   UNL     1      24.723  32.470  44.533  1.00  0.00     0.293 HD
ENDBRANCH  16  19
BRANCH  18  21
ATOM     21  O   UNL     1      23.710  34.720  43.731  1.00  0.00    -0.504 OA
ATOM     22  H   UNL     1      24.334  34.394  44.460  1.00  0.00     0.293 HD
ENDBRANCH  18  21
ENDBRANCH   3  13
BRANCH  10  23
ATOM     23  O   UNL     1      16.730  35.756  37.131  1.00  0.00    -0.507 OA
ATOM     24  H   UNL     1      16.201  35.627  37.981  1.00  0.00     0.293 HD
ENDBRANCH  10  23
BRANCH  11  25
ATOM     25  O   UNL     1      20.543  35.725  34.238  1.00  0.00    -0.508 OA
ATOM     26  H   UNL     1      21.232  36.455  34.104  1.00  0.00     0.293 HD
ENDBRANCH  11  25
ENDBRANCH   1   2
BRANCH   1  27
ATOM     27  C   UNL     1      18.617  34.349  42.683  1.00  0.00     0.339 C 
ATOM     28  C   UNL     1      17.204  34.015  43.195  1.00  0.00     0.214 C 
ATOM     29  O   UNL     1      19.597  34.065  43.671  1.00  0.00    -0.332 OA
ATOM     30  C   UNL     1      16.897  34.799  44.481  1.00  0.00     0.180 C 
ATOM     31  C   UNL     1      19.428  34.836  44.856  1.00  0.00     0.179 C 
ATOM     32  C   UNL     1      18.035  34.620  45.506  1.00  0.00     0.177 C 
BRANCH  28  33
ATOM     33  O   UNL     1      16.238  34.280  42.207  1.00  0.00    -0.384 OA
ATOM     34  H   UNL     1      15.385  33.859  42.494  1.00  0.00     0.211 HD
ENDBRANCH  28  33
BRANCH  30  35
ATOM     35  O   UNL     1      15.677  34.356  45.018  1.00  0.00    -0.387 OA
ATOM     36  H   UNL     1      15.874  34.010  45.927  1.00  0.00     0.211 HD
ENDBRANCH  30  35
BRANCH  31  37
ATOM     37  C   UNL     1      19.782  36.323  44.644  1.00  0.00     0.191 C 
BRANCH  37  38
ATOM     38  O   UNL     1      21.141  36.450  44.326  1.00  0.00    -0.394 OA
ATOM     39  H   UNL     1      21.299  37.417  44.171  1.00  0.00     0.210 HD
ENDBRANCH  37  38
ENDBRANCH  31  37
BRANCH  32  40
ATOM     40  O   UNL     1      17.959  33.356  46.124  1.00  0.00    -0.387 OA
ATOM     41  H   UNL     1      18.829  32.897  45.998  1.00  0.00     0.211 HD
ENDBRANCH  32  40
ENDBRANCH   1  27
TORSDOF 12
ENDMDL
MODEL 8
REMARK VINA RESULT:    -3.242      2.180      4.906
REMARK INTER + INTRA:          -6.548
REMARK INTER:                  -5.059
REMARK INTRA:                  -1.489
REMARK UNBOUND:                -1.790
REMARK SMILES O=c1c(O[C@@H]2O[C@@H](CO)[C@H](O)[C@H](O)[C@H]2O)c(-c2ccc(O)c(O)c2)oc2cc(O)cc(O)c12
REMARK SMILES IDX 4 1 3 2 16 3 25 4 2 5 26 6 1 7 33 8 27 9 31 10 28 11 30 12
REMARK SMILES IDX 17 13 18 14 19 15 20 16 24 17 22 18 21 19 23 21 32 23 29 25
REMARK SMILES IDX 5 27 14 28 6 29 12 30 7 31 10 32 15 33 13 35 8 37 9 38 11 40
REMARK H PARENT 21 20 23 22 32 24 29 26 15 34 13 36 9 39 11 41
REMARK Flexibility Score: inf
ROOT
ATOM      1  O   UNL     1      20.767  32.894  43.328  1.00  0.00    -0.454 OA
ENDROOT
BRANCH   1   2
ATOM      2  C   UNL     1      20.377  32.976  41.976  1.00  0.00     0.214 A 
ATOM      3  C   UNL     1      19.123  32.449  41.613  1.00  0.00     0.180 A 
ATOM      4  O   UNL     1      18.685  32.574  40.366  1.00  0.00    -0.452 OA
ATOM      5  C   UNL     1      21.157  33.602  40.979  1.00  0.00     0.239 A 
ATOM      6  C   UNL     1      19.392  33.135  39.395  1.00  0.00     0.146 A 
ATOM      7  O   UNL     1      22.226  34.179  41.301  1.00  0.00    -0.285 OA
ATOM      8  C   UNL     1      20.695  33.636  39.642  1.00  0.00     0.111 A 
ATOM      9  C   UNL     1      18.822  33.231  38.123  1.00  0.00     0.094 A 
ATOM     10  C   UNL     1      21.432  34.182  38.548  1.00  0.00     0.134 A 
ATOM     11  C   UNL     1      19.526  33.827  37.077  1.00  0.00     0.123 A 
ATOM     12  C   UNL     1      20.819  34.299  37.293  1.00  0.00     0.093 A 
BRANCH   3  13
ATOM     13  C   UNL     1      18.248  31.768  42.593  1.00  0.00     0.025 A 
ATOM     14  C   UNL     1      18.445  30.406  42.868  1.00  0.00     0.016 A 
ATOM     15  C   UNL     1      17.636  29.748  43.799  1.00  0.00     0.051 A 
ATOM     16  C   UNL     1      16.632  30.443  44.479  1.00  0.00     0.157 A 
ATOM     17  C   UNL     1      17.252  32.471  43.296  1.00  0.00     0.062 A 
ATOM     18  C   UNL     1      16.439  31.812  44.230  1.00  0.00     0.158 A 
BRANCH  16  19
ATOM     19  O   UNL     1      15.840  29.759  45.401  1.00  0.00    -0.504 OA
ATOM     20  H   UNL     1      16.220  29.378  46.260  1.00  0.00     0.293 HD
ENDBRANCH  16  19
BRANCH  18  21
ATOM     21  O   UNL     1      15.446  32.514  44.911  1.00  0.00    -0.504 OA
ATOM     22  H   UNL     1      15.588  32.853  45.855  1.00  0.00     0.293 HD
ENDBRANCH  18  21
ENDBRANCH   3  13
BRANCH  10  23
ATOM     23  O   UNL     1      22.765  34.591  38.633  1.00  0.00    -0.507 OA
ATOM     24  H   UNL     1      23.456  34.165  39.233  1.00  0.00     0.293 HD
ENDBRANCH  10  23
BRANCH  11  25
ATOM     25  O   UNL     1      18.952  33.947  35.812  1.00  0.00    -0.508 OA
ATOM     26  H   UNL     1      19.453  34.374  35.042  1.00  0.00     0.293 HD
ENDBRANCH  11  25
ENDBRANCH   1   2
BRANCH   1  27
ATOM     27  C   UNL     1      20.539  33.868  44.345  1.00  0.00     0.339 C 
ATOM     28  C   UNL     1      21.901  34.486  44.715  1.00  0.00     0.214 C 
ATOM     29  O   UNL     1      19.650  34.857  43.847  1.00  0.00    -0.332 OA
ATOM     30  C   UNL     1      21.721  35.605  45.753  1.00  0.00     0.180 C 
ATOM     31  C   UNL     1      19.362  35.874  44.799  1.00  0.00     0.179 C 
ATOM     32  C   UNL     1      20.642  36.604  45.288  1.00  0.00     0.177 C 
BRANCH  28  33
ATOM     33  O   UNL     1      22.785  33.501  45.192  1.00  0.00    -0.384 OA
ATOM     34  H   UNL     1      23.026  32.913  44.428  1.00  0.00     0.211 HD
ENDBRANCH  28  33
BRANCH  30  35
ATOM     35  O   UNL     1      22.947  36.261  45.948  1.00  0.00    -0.387 OA
ATOM     36  H   UNL     1      23.547  35.617  46.406  1.00  0.00     0.211 HD
ENDBRANCH  30  35
BRANCH  31  37
ATOM     37  C   UNL     1      18.469  35.365  45.950  1.00  0.00     0.191 C 
BRANCH  37  38
ATOM     38  O   UNL     1      17.173  35.120  45.476  1.00  0.00    -0.394 OA
ATOM     39  H   UNL     1      16.662  34.755  46.245  1.00  0.00     0.210 HD
ENDBRANCH  37  38
ENDBRANCH  31  37
BRANCH  32  40
ATOM     40  O   UNL     1      21.147  37.458  44.288  1.00  0.00    -0.387 OA
ATOM     41  H   UNL     1      20.742  37.195  43.422  1.00  0.00     0.211 HD
ENDBRANCH  32  40
ENDBRANCH   1  27
TORSDOF 12
ENDMDL
MODEL 9
REMARK VINA RESULT:    -2.552      3.221      6.176
REMARK INTER + INTRA:          -5.535
REMARK INTER:                  -3.928
REMARK INTRA:                  -1.607
REMARK UNBOUND:                -1.790
REMARK SMILES O=c1c(O[C@@H]2O[C@@H](CO)[C@H](O)[C@H](O)[C@H]2O)c(-c2ccc(O)c(O)c2)oc2cc(O)cc(O)c12
REMARK SMILES IDX 4 1 3 2 16 3 25 4 2 5 26 6 1 7 33 8 27 9 31 10 28 11 30 12
REMARK SMILES IDX 17 13 18 14 19 15 20 16 24 17 22 18 21 19 23 21 32 23 29 25
REMARK SMILES IDX 5 27 14 28 6 29 12 30 7 31 10 32 15 33 13 35 8 37 9 38 11 40
REMARK H PARENT 21 20 23 22 32 24 29 26 15 34 13 36 9 39 11 41
REMARK Flexibility Score: inf
ROOT
ATOM      1  O   UNL     1      20.498  34.441  42.488  1.00  0.00    -0.454 OA
ENDROOT
BRANCH   1   2
ATOM      2  C   UNL     1      20.417  33.147  41.937  1.00  0.00     0.214 A 
ATOM      3  C   UNL     1      19.258  32.804  41.215  1.00  0.00     0.180 A 
ATOM      4  O   UNL     1      19.173  31.622  40.615  1.00  0.00    -0.452 OA
ATOM      5  C   UNL     1      21.457  32.196  42.029  1.00  0.00     0.239 A 
ATOM      6  C   UNL     1      20.116  30.694  40.693  1.00  0.00     0.146 A 
ATOM      7  O   UNL     1      22.545  32.520  42.568  1.00  0.00    -0.285 OA
ATOM      8  C   UNL     1      21.293  30.915  41.452  1.00  0.00     0.111 A 
ATOM      9  C   UNL     1      19.930  29.494  40.003  1.00  0.00     0.094 A 
ATOM     10  C   UNL     1      22.251  29.860  41.543  1.00  0.00     0.134 A 
ATOM     11  C   UNL     1      20.903  28.495  40.046  1.00  0.00     0.123 A 
ATOM     12  C   UNL     1      22.054  28.683  40.810  1.00  0.00     0.093 A 
BRANCH   3  13
ATOM     13  C   UNL     1      18.117  33.737  41.079  1.00  0.00     0.025 A 
ATOM     14  C   UNL     1      17.039  33.647  41.973  1.00  0.00     0.016 A 
ATOM     15  C   UNL     1      15.957  34.526  41.868  1.00  0.00     0.051 A 
ATOM     16  C   UNL     1      15.944  35.516  40.881  1.00  0.00     0.157 A 
ATOM     17  C   UNL     1      18.113  34.749  40.102  1.00  0.00     0.062 A 
ATOM     18  C   UNL     1      17.028  35.631  39.994  1.00  0.00     0.158 A 
BRANCH  16  19
ATOM     19  O   UNL     1      14.850  36.378  40.799  1.00  0.00    -0.504 OA
ATOM     20  H   UNL     1      14.509  36.892  41.603  1.00  0.00     0.293 HD
ENDBRANCH  16  19
BRANCH  18  21
ATOM     21  O   UNL     1      17.026  36.622  39.013  1.00  0.00    -0.504 OA
ATOM     22  H   UNL     1      17.889  36.995  38.635  1.00  0.00     0.293 HD
ENDBRANCH  18  21
ENDBRANCH   3  13
BRANCH  10  23
ATOM     23  O   UNL     1      23.385  29.907  42.358  1.00  0.00    -0.507 OA
ATOM     24  H   UNL     1      23.423  30.359  43.260  1.00  0.00     0.293 HD
ENDBRANCH  10  23
BRANCH  11  25
ATOM     25  O   UNL     1      20.732  27.306  39.340  1.00  0.00    -0.508 OA
ATOM     26  H   UNL     1      20.111  27.248  38.542  1.00  0.00     0.293 HD
ENDBRANCH  11  25
ENDBRANCH   1   2
BRANCH   1  27
ATOM     27  C   UNL     1      20.270  34.810  43.847  1.00  0.00     0.339 C 
ATOM     28  C   UNL     1      21.500  35.601  44.331  1.00  0.00     0.214 C 
ATOM     29  O   UNL     1      19.094  35.604  43.919  1.00  0.00    -0.332 OA
ATOM     30  C   UNL     1      21.289  36.101  45.768  1.00  0.00     0.180 C 
ATOM     31  C   UNL     1      18.785  36.018  45.244  1.00  0.00     0.179 C 
ATOM     32  C   UNL     1      19.937  36.834  45.891  1.00  0.00     0.177 C 
BRANCH  28  33
ATOM     33  O   UNL     1      22.665  34.818  44.242  1.00  0.00    -0.384 OA
ATOM     34  H   UNL     1      23.042  34.726  45.156  1.00  0.00     0.211 HD
ENDBRANCH  28  33
BRANCH  30  35
ATOM     35  O   UNL     1      22.345  36.955  46.125  1.00  0.00    -0.387 OA
ATOM     36  H   UNL     1      22.991  36.941  45.371  1.00  0.00     0.211 HD
ENDBRANCH  30  35
BRANCH  31  37
ATOM     37  C   UNL     1      18.292  34.850  46.125  1.00  0.00     0.191 C 
BRANCH  37  38
ATOM     38  O   UNL     1      17.134  34.290  45.569  1.00  0.00    -0.394 OA
ATOM     39  H   UNL     1      17.324  34.167  44.602  1.00  0.00     0.210 HD
ENDBRANCH  37  38
ENDBRANCH  31  37
BRANCH  32  40
ATOM     40  O   UNL     1      20.014  38.125  45.333  1.00  0.00    -0.387 OA
ATOM     41  H   UNL     1      19.569  38.758  45.954  1.00  0.00     0.211 HD
ENDBRANCH  32  40
ENDBRANCH   1  27
TORSDOF 12
ENDMDL
