MODEL 1
REMARK VINA RESULT:    -6.519      0.000      0.000
REMARK INTER + INTRA:          -7.926
REMARK INTER:                  -7.663
REMARK INTRA:                  -0.263
REMARK UNBOUND:                -0.263
REMARK SMILES O=c1c(O)c(-c2ccc(O)cc2)oc2cc(O)cc(O)c12
REMARK SMILES IDX 5 1 3 2 2 3 1 4 21 5 19 6 18 7 16 8 15 9 14 10 13 11 6 12
REMARK SMILES IDX 7 13 8 14 9 15 12 16 11 17 10 18 4 20 20 22 17 24
REMARK H PARENT 10 19 4 21 20 23 17 25
REMARK Flexibility Score: inf
ROOT
ATOM      1  C   UNL     1     121.676 124.460 139.800  1.00  0.00     0.180 A 
ATOM      2  C   UNL     1     120.633 125.040 140.546  1.00  0.00     0.208 A 
ATOM      3  C   UNL     1     120.330 124.512 141.812  1.00  0.00     0.238 A 
ATOM      4  O   UNL     1     119.405 125.031 142.494  1.00  0.00    -0.285 OA
ATOM      5  C   UNL     1     121.057 123.406 142.298  1.00  0.00     0.111 A 
ATOM      6  C   UNL     1     120.812 122.814 143.560  1.00  0.00     0.134 A 
ATOM      7  C   UNL     1     121.573 121.709 143.968  1.00  0.00     0.093 A 
ATOM      8  C   UNL     1     122.571 121.186 143.143  1.00  0.00     0.123 A 
ATOM      9  C   UNL     1     122.818 121.768 141.896  1.00  0.00     0.094 A 
ATOM     10  C   UNL     1     122.072 122.871 141.471  1.00  0.00     0.146 A 
ATOM     11  O   UNL     1     122.330 123.408 140.283  1.00  0.00    -0.452 OA
ENDROOT
BRANCH   1  12
ATOM     12  C   UNL     1     122.067 124.970 138.466  1.00  0.00     0.021 A 
ATOM     13  C   UNL     1     123.201 125.787 138.297  1.00  0.00     0.016 A 
ATOM     14  C   UNL     1     123.566 126.236 137.024  1.00  0.00     0.047 A 
ATOM     15  C   UNL     1     122.814 125.868 135.905  1.00  0.00     0.115 A 
ATOM     16  C   UNL     1     121.329 124.587 137.334  1.00  0.00     0.016 A 
ATOM     17  C   UNL     1     121.695 125.039 136.062  1.00  0.00     0.047 A 
BRANCH  15  18
ATOM     18  O   UNL     1     123.188 126.325 134.644  1.00  0.00    -0.508 OA
ATOM     19  H   UNL     1     123.799 127.126 134.531  1.00  0.00     0.293 HD
ENDBRANCH  15  18
ENDBRANCH   1  12
BRANCH   2  20
ATOM     20  O   UNL     1     119.895 126.104 140.021  1.00  0.00    -0.502 OA
ATOM     21  H   UNL     1     119.994 126.412 139.062  1.00  0.00     0.293 HD
ENDBRANCH   2  20
BRANCH   6  22
ATOM     22  O   UNL     1     119.821 123.311 144.408  1.00  0.00    -0.507 OA
ATOM     23  H   UNL     1     118.928 122.846 144.514  1.00  0.00     0.293 HD
ENDBRANCH   6  22
BRANCH   8  24
ATOM     24  O   UNL     1     123.312 120.087 143.573  1.00  0.00    -0.508 OA
ATOM     25  H   UNL     1     123.551 119.330 142.943  1.00  0.00     0.293 HD
ENDBRANCH   8  24
TORSDOF 5
ENDMDL
MODEL 2
REMARK VINA RESULT:    -6.444      2.317      6.344
REMARK INTER + INTRA:          -7.837
REMARK INTER:                  -7.563
REMARK INTRA:                  -0.274
REMARK UNBOUND:                -0.263
REMARK SMILES O=c1c(O)c(-c2ccc(O)cc2)oc2cc(O)cc(O)c12
REMARK SMILES IDX 5 1 3 2 2 3 1 4 21 5 19 6 18 7 16 8 15 9 14 10 13 11 6 12
REMARK SMILES IDX 7 13 8 14 9 15 12 16 11 17 10 18 4 20 20 22 17 24
REMARK H PARENT 10 19 4 21 20 23 17 25
REMARK Flexibility Score: inf
ROOT
ATOM      1  C   UNL     1     123.320 122.921 142.594  1.00  0.00     0.180 A 
ATOM      2  C   UNL     1     122.237 123.289 143.413  1.00  0.00     0.208 A 
ATOM      3  C   UNL     1     121.227 124.105 142.878  1.00  0.00     0.238 A 
ATOM      4  O   UNL     1     120.246 124.431 143.600  1.00  0.00    -0.285 OA
ATOM      5  C   UNL     1     121.329 124.555 141.546  1.00  0.00     0.111 A 
ATOM      6  C   UNL     1     120.357 125.382 140.933  1.00  0.00     0.134 A 
ATOM      7  C   UNL     1     120.535 125.797 139.605  1.00  0.00     0.093 A 
ATOM      8  C   UNL     1     121.660 125.402 138.880  1.00  0.00     0.123 A 
ATOM      9  C   UNL     1     122.623 124.583 139.480  1.00  0.00     0.094 A 
ATOM     10  C   UNL     1     122.464 124.158 140.801  1.00  0.00     0.146 A 
ATOM     11  O   UNL     1     123.391 123.378 141.346  1.00  0.00    -0.452 OA
ENDROOT
BRANCH   1  12
ATOM     12  C   UNL     1     124.414 122.049 143.078  1.00  0.00     0.021 A 
ATOM     13  C   UNL     1     125.487 122.566 143.829  1.00  0.00     0.016 A 
ATOM     14  C   UNL     1     126.495 121.719 144.297  1.00  0.00     0.047 A 
ATOM     15  C   UNL     1     126.442 120.347 144.035  1.00  0.00     0.115 A 
ATOM     16  C   UNL     1     124.356 120.666 142.836  1.00  0.00     0.016 A 
ATOM     17  C   UNL     1     125.367 119.821 143.304  1.00  0.00     0.047 A 
BRANCH  15  18
ATOM     18  O   UNL     1     127.455 119.516 144.506  1.00  0.00    -0.508 OA
ATOM     19  H   UNL     1     127.968 118.902 143.884  1.00  0.00     0.293 HD
ENDBRANCH  15  18
ENDBRANCH   1  12
BRANCH   2  20
ATOM     20  O   UNL     1     122.184 122.869 144.745  1.00  0.00    -0.502 OA
ATOM     21  H   UNL     1     121.709 122.021 145.029  1.00  0.00     0.293 HD
ENDBRANCH   2  20
BRANCH   6  22
ATOM     22  O   UNL     1     119.221 125.796 141.631  1.00  0.00    -0.507 OA
ATOM     23  H   UNL     1     118.650 125.144 142.154  1.00  0.00     0.293 HD
ENDBRANCH   6  22
BRANCH   8  24
ATOM     24  O   UNL     1     121.813 125.828 137.562  1.00  0.00    -0.508 OA
ATOM     25  H   UNL     1     122.716 126.108 137.197  1.00  0.00     0.293 HD
ENDBRANCH   8  24
TORSDOF 5
ENDMDL
MODEL 3
REMARK VINA RESULT:    -6.377     13.277     17.369
REMARK INTER + INTRA:          -7.758
REMARK INTER:                  -7.483
REMARK INTRA:                  -0.275
REMARK UNBOUND:                -0.263
REMARK SMILES O=c1c(O)c(-c2ccc(O)cc2)oc2cc(O)cc(O)c12
REMARK SMILES IDX 5 1 3 2 2 3 1 4 21 5 19 6 18 7 16 8 15 9 14 10 13 11 6 12
REMARK SMILES IDX 7 13 8 14 9 15 12 16 11 17 10 18 4 20 20 22 17 24
REMARK H PARENT 10 19 4 21 20 23 17 25
REMARK Flexibility Score: inf
ROOT
ATOM      1  C   UNL     1     132.684 133.059 132.866  1.00  0.00     0.180 A 
ATOM      2  C   UNL     1     134.037 133.130 132.484  1.00  0.00     0.208 A 
ATOM      3  C   UNL     1     134.778 134.274 132.821  1.00  0.00     0.238 A 
ATOM      4  O   UNL     1     135.994 134.343 132.494  1.00  0.00    -0.285 OA
ATOM      5  C   UNL     1     134.152 135.331 133.512  1.00  0.00     0.111 A 
ATOM      6  C   UNL     1     134.826 136.518 133.886  1.00  0.00     0.134 A 
ATOM      7  C   UNL     1     134.130 137.529 134.564  1.00  0.00     0.093 A 
ATOM      8  C   UNL     1     132.778 137.378 134.876  1.00  0.00     0.123 A 
ATOM      9  C   UNL     1     132.106 136.207 134.510  1.00  0.00     0.094 A 
ATOM     10  C   UNL     1     132.782 135.186 133.835  1.00  0.00     0.146 A 
ATOM     11  O   UNL     1     132.122 134.082 133.504  1.00  0.00    -0.452 OA
ENDROOT
BRANCH   1  12
ATOM     12  C   UNL     1     131.842 131.879 132.564  1.00  0.00     0.021 A 
ATOM     13  C   UNL     1     131.225 131.721 131.308  1.00  0.00     0.016 A 
ATOM     14  C   UNL     1     130.454 130.586 131.038  1.00  0.00     0.047 A 
ATOM     15  C   UNL     1     130.299 129.592 132.008  1.00  0.00     0.115 A 
ATOM     16  C   UNL     1     131.698 130.866 133.527  1.00  0.00     0.016 A 
ATOM     17  C   UNL     1     130.925 129.733 133.254  1.00  0.00     0.047 A 
BRANCH  15  18
ATOM     18  O   UNL     1     129.526 128.469 131.724  1.00  0.00    -0.508 OA
ATOM     19  H   UNL     1     129.894 127.531 131.838  1.00  0.00     0.293 HD
ENDBRANCH  15  18
ENDBRANCH   1  12
BRANCH   2  20
ATOM     20  O   UNL     1     134.622 132.090 131.757  1.00  0.00    -0.502 OA
ATOM     21  H   UNL     1     134.851 131.197 132.175  1.00  0.00     0.293 HD
ENDBRANCH   2  20
BRANCH   6  22
ATOM     22  O   UNL     1     136.178 136.702 133.588  1.00  0.00    -0.507 OA
ATOM     23  H   UNL     1     136.641 136.165 132.865  1.00  0.00     0.293 HD
ENDBRANCH   6  22
BRANCH   8  24
ATOM     24  O   UNL     1     132.109 138.398 135.550  1.00  0.00    -0.508 OA
ATOM     25  H   UNL     1     131.809 139.240 135.073  1.00  0.00     0.293 HD
ENDBRANCH   8  24
TORSDOF 5
ENDMDL
MODEL 4
REMARK VINA RESULT:    -6.152      3.219      4.244
REMARK INTER + INTRA:          -7.494
REMARK INTER:                  -7.212
REMARK INTRA:                  -0.281
REMARK UNBOUND:                -0.263
REMARK SMILES O=c1c(O)c(-c2ccc(O)cc2)oc2cc(O)cc(O)c12
REMARK SMILES IDX 5 1 3 2 2 3 1 4 21 5 19 6 18 7 16 8 15 9 14 10 13 11 6 12
REMARK SMILES IDX 7 13 8 14 9 15 12 16 11 17 10 18 4 20 20 22 17 24
REMARK H PARENT 10 19 4 21 20 23 17 25
REMARK Flexibility Score: inf
ROOT
ATOM      1  C   UNL     1     123.583 123.681 142.334  1.00  0.00     0.180 A 
ATOM      2  C   UNL     1     123.455 124.497 143.474  1.00  0.00     0.208 A 
ATOM      3  C   UNL     1     124.165 124.155 144.635  1.00  0.00     0.238 A 
ATOM      4  O   UNL     1     124.067 124.885 145.659  1.00  0.00    -0.285 OA
ATOM      5  C   UNL     1     124.971 122.998 144.645  1.00  0.00     0.111 A 
ATOM      6  C   UNL     1     125.715 122.583 145.775  1.00  0.00     0.134 A 
ATOM      7  C   UNL     1     126.486 121.413 145.709  1.00  0.00     0.093 A 
ATOM      8  C   UNL     1     126.528 120.652 144.538  1.00  0.00     0.123 A 
ATOM      9  C   UNL     1     125.796 121.059 143.418  1.00  0.00     0.094 A 
ATOM     10  C   UNL     1     125.023 122.222 143.463  1.00  0.00     0.146 A 
ATOM     11  O   UNL     1     124.341 122.588 142.384  1.00  0.00    -0.452 OA
ENDROOT
BRANCH   1  12
ATOM     12  C   UNL     1     122.882 123.984 141.065  1.00  0.00     0.021 A 
ATOM     13  C   UNL     1     121.549 123.585 140.851  1.00  0.00     0.016 A 
ATOM     14  C   UNL     1     120.899 123.905 139.655  1.00  0.00     0.047 A 
ATOM     15  C   UNL     1     121.564 124.634 138.665  1.00  0.00     0.115 A 
ATOM     16  C   UNL     1     123.536 124.735 140.075  1.00  0.00     0.016 A 
ATOM     17  C   UNL     1     122.884 125.051 138.879  1.00  0.00     0.047 A 
BRANCH  15  18
ATOM     18  O   UNL     1     120.904 124.943 137.479  1.00  0.00    -0.508 OA
ATOM     19  H   UNL     1     119.894 125.021 137.439  1.00  0.00     0.293 HD
ENDBRANCH  15  18
ENDBRANCH   1  12
BRANCH   2  20
ATOM     20  O   UNL     1     122.612 125.611 143.454  1.00  0.00    -0.502 OA
ATOM     21  H   UNL     1     121.605 125.529 143.394  1.00  0.00     0.293 HD
ENDBRANCH   2  20
BRANCH   6  22
ATOM     22  O   UNL     1     125.694 123.319 146.961  1.00  0.00    -0.507 OA
ATOM     23  H   UNL     1     126.229 123.037 147.773  1.00  0.00     0.293 HD
ENDBRANCH   6  22
BRANCH   8  24
ATOM     24  O   UNL     1     127.302 119.494 144.498  1.00  0.00    -0.508 OA
ATOM     25  H   UNL     1     128.148 119.441 143.943  1.00  0.00     0.293 HD
ENDBRANCH   8  24
TORSDOF 5
ENDMDL
MODEL 5
REMARK VINA RESULT:    -6.094      1.296      1.355
REMARK INTER + INTRA:          -7.426
REMARK INTER:                  -7.134
REMARK INTRA:                  -0.292
REMARK UNBOUND:                -0.263
REMARK SMILES O=c1c(O)c(-c2ccc(O)cc2)oc2cc(O)cc(O)c12
REMARK SMILES IDX 5 1 3 2 2 3 1 4 21 5 19 6 18 7 16 8 15 9 14 10 13 11 6 12
REMARK SMILES IDX 7 13 8 14 9 15 12 16 11 17 10 18 4 20 20 22 17 24
REMARK H PARENT 10 19 4 21 20 23 17 25
REMARK Flexibility Score: inf
ROOT
ATOM      1  C   UNL     1     121.826 124.963 139.799  1.00  0.00     0.180 A 
ATOM      2  C   UNL     1     120.853 125.170 140.794  1.00  0.00     0.208 A 
ATOM      3  C   UNL     1     120.988 124.507 142.024  1.00  0.00     0.238 A 
ATOM      4  O   UNL     1     120.128 124.694 142.927  1.00  0.00    -0.285 OA
ATOM      5  C   UNL     1     122.079 123.637 142.230  1.00  0.00     0.111 A 
ATOM      6  C   UNL     1     122.286 122.930 143.439  1.00  0.00     0.134 A 
ATOM      7  C   UNL     1     123.390 122.075 143.563  1.00  0.00     0.093 A 
ATOM      8  C   UNL     1     124.289 121.913 142.507  1.00  0.00     0.123 A 
ATOM      9  C   UNL     1     124.090 122.610 141.311  1.00  0.00     0.094 A 
ATOM     10  C   UNL     1     122.997 123.469 141.168  1.00  0.00     0.146 A 
ATOM     11  O   UNL     1     122.833 124.123 140.023  1.00  0.00    -0.452 OA
ENDROOT
BRANCH   1  12
ATOM     12  C   UNL     1     121.764 125.638 138.483  1.00  0.00     0.021 A 
ATOM     13  C   UNL     1     122.442 126.849 138.247  1.00  0.00     0.016 A 
ATOM     14  C   UNL     1     122.388 127.456 136.988  1.00  0.00     0.047 A 
ATOM     15  C   UNL     1     121.670 126.859 135.948  1.00  0.00     0.115 A 
ATOM     16  C   UNL     1     121.061 125.033 137.427  1.00  0.00     0.016 A 
ATOM     17  C   UNL     1     121.008 125.644 136.169  1.00  0.00     0.047 A 
BRANCH  15  18
ATOM     18  O   UNL     1     121.625 127.476 134.701  1.00  0.00    -0.508 OA
ATOM     19  H   UNL     1     120.932 127.218 134.007  1.00  0.00     0.293 HD
ENDBRANCH  15  18
ENDBRANCH   1  12
BRANCH   2  20
ATOM     20  O   UNL     1     119.755 125.999 140.547  1.00  0.00    -0.502 OA
ATOM     21  H   UNL     1     119.492 126.752 141.171  1.00  0.00     0.293 HD
ENDBRANCH   2  20
BRANCH   6  22
ATOM     22  O   UNL     1     121.405 123.068 144.513  1.00  0.00    -0.507 OA
ATOM     23  H   UNL     1     121.173 123.975 144.898  1.00  0.00     0.293 HD
ENDBRANCH   6  22
BRANCH   8  24
ATOM     24  O   UNL     1     125.379 121.057 142.656  1.00  0.00    -0.508 OA
ATOM     25  H   UNL     1     126.200 121.137 142.068  1.00  0.00     0.293 HD
ENDBRANCH   8  24
TORSDOF 5
ENDMDL
MODEL 6
REMARK VINA RESULT:    -6.093      3.518      6.688
REMARK INTER + INTRA:          -7.425
REMARK INTER:                  -7.151
REMARK INTRA:                  -0.274
REMARK UNBOUND:                -0.263
REMARK SMILES O=c1c(O)c(-c2ccc(O)cc2)oc2cc(O)cc(O)c12
REMARK SMILES IDX 5 1 3 2 2 3 1 4 21 5 19 6 18 7 16 8 15 9 14 10 13 11 6 12
REMARK SMILES IDX 7 13 8 14 9 15 12 16 11 17 10 18 4 20 20 22 17 24
REMARK H PARENT 10 19 4 21 20 23 17 25
REMARK Flexibility Score: inf
ROOT
ATOM      1  C   UNL     1     123.347 123.221 143.069  1.00  0.00     0.180 A 
ATOM      2  C   UNL     1     122.146 122.802 142.466  1.00  0.00     0.208 A 
ATOM      3  C   UNL     1     121.247 123.774 142.000  1.00  0.00     0.238 A 
ATOM      4  O   UNL     1     120.173 123.410 141.448  1.00  0.00    -0.285 OA
ATOM      5  C   UNL     1     121.552 125.140 142.162  1.00  0.00     0.111 A 
ATOM      6  C   UNL     1     120.698 126.181 141.724  1.00  0.00     0.134 A 
ATOM      7  C   UNL     1     121.067 127.518 141.931  1.00  0.00     0.093 A 
ATOM      8  C   UNL     1     122.270 127.835 142.565  1.00  0.00     0.123 A 
ATOM      9  C   UNL     1     123.119 126.811 143.000  1.00  0.00     0.094 A 
ATOM     10  C   UNL     1     122.769 125.472 142.802  1.00  0.00     0.146 A 
ATOM     11  O   UNL     1     123.595 124.519 143.220  1.00  0.00    -0.452 OA
ENDROOT
BRANCH   1  12
ATOM     12  C   UNL     1     124.355 122.258 143.570  1.00  0.00     0.021 A 
ATOM     13  C   UNL     1     124.226 121.653 144.835  1.00  0.00     0.016 A 
ATOM     14  C   UNL     1     125.177 120.728 145.275  1.00  0.00     0.047 A 
ATOM     15  C   UNL     1     126.259 120.385 144.458  1.00  0.00     0.115 A 
ATOM     16  C   UNL     1     125.433 121.893 142.746  1.00  0.00     0.016 A 
ATOM     17  C   UNL     1     126.383 120.968 143.190  1.00  0.00     0.047 A 
BRANCH  15  18
ATOM     18  O   UNL     1     127.199 119.464 144.912  1.00  0.00    -0.508 OA
ATOM     19  H   UNL     1     127.037 118.465 144.844  1.00  0.00     0.293 HD
ENDBRANCH  15  18
ENDBRANCH   1  12
BRANCH   2  20
ATOM     20  O   UNL     1     121.846 121.441 142.361  1.00  0.00    -0.502 OA
ATOM     21  H   UNL     1     120.980 121.106 141.955  1.00  0.00     0.293 HD
ENDBRANCH   2  20
BRANCH   6  22
ATOM     22  O   UNL     1     119.488 125.898 141.087  1.00  0.00    -0.507 OA
ATOM     23  H   UNL     1     118.809 125.264 141.491  1.00  0.00     0.293 HD
ENDBRANCH   6  22
BRANCH   8  24
ATOM     24  O   UNL     1     122.614 129.171 142.759  1.00  0.00    -0.508 OA
ATOM     25  H   UNL     1     123.288 129.447 143.464  1.00  0.00     0.293 HD
ENDBRANCH   8  24
TORSDOF 5
ENDMDL
MODEL 7
REMARK VINA RESULT:    -6.073      7.391      8.626
REMARK INTER + INTRA:          -7.401
REMARK INTER:                  -7.112
REMARK INTRA:                  -0.289
REMARK UNBOUND:                -0.263
REMARK SMILES O=c1c(O)c(-c2ccc(O)cc2)oc2cc(O)cc(O)c12
REMARK SMILES IDX 5 1 3 2 2 3 1 4 21 5 19 6 18 7 16 8 15 9 14 10 13 11 6 12
REMARK SMILES IDX 7 13 8 14 9 15 12 16 11 17 10 18 4 20 20 22 17 24
REMARK H PARENT 10 19 4 21 20 23 17 25
REMARK Flexibility Score: inf
ROOT
ATOM      1  C   UNL     1     125.812 126.691 135.000  1.00  0.00     0.180 A 
ATOM      2  C   UNL     1     125.556 128.004 135.438  1.00  0.00     0.208 A 
ATOM      3  C   UNL     1     124.251 128.511 135.333  1.00  0.00     0.238 A 
ATOM      4  O   UNL     1     124.008 129.682 135.732  1.00  0.00    -0.285 OA
ATOM      5  C   UNL     1     123.234 127.709 134.777  1.00  0.00     0.111 A 
ATOM      6  C   UNL     1     121.895 128.146 134.633  1.00  0.00     0.134 A 
ATOM      7  C   UNL     1     120.942 127.291 134.061  1.00  0.00     0.093 A 
ATOM      8  C   UNL     1     121.299 126.012 133.631  1.00  0.00     0.123 A 
ATOM      9  C   UNL     1     122.620 125.574 133.771  1.00  0.00     0.094 A 
ATOM     10  C   UNL     1     123.585 126.410 134.340  1.00  0.00     0.146 A 
ATOM     11  O   UNL     1     124.831 125.968 134.467  1.00  0.00    -0.452 OA
ENDROOT
BRANCH   1  12
ATOM     12  C   UNL     1     127.157 126.078 135.094  1.00  0.00     0.021 A 
ATOM     13  C   UNL     1     127.520 125.271 136.189  1.00  0.00     0.016 A 
ATOM     14  C   UNL     1     128.787 124.683 136.243  1.00  0.00     0.047 A 
ATOM     15  C   UNL     1     129.701 124.880 135.204  1.00  0.00     0.115 A 
ATOM     16  C   UNL     1     128.072 126.254 134.043  1.00  0.00     0.016 A 
ATOM     17  C   UNL     1     129.340 125.665 134.101  1.00  0.00     0.047 A 
BRANCH  15  18
ATOM     18  O   UNL     1     130.960 124.288 135.273  1.00  0.00    -0.508 OA
ATOM     19  H   UNL     1     131.494 124.280 136.134  1.00  0.00     0.293 HD
ENDBRANCH  15  18
ENDBRANCH   1  12
BRANCH   2  20
ATOM     20  O   UNL     1     126.592 128.796 135.940  1.00  0.00    -0.502 OA
ATOM     21  H   UNL     1     127.566 128.611 135.733  1.00  0.00     0.293 HD
ENDBRANCH   2  20
BRANCH   6  22
ATOM     22  O   UNL     1     121.505 129.419 135.052  1.00  0.00    -0.507 OA
ATOM     23  H   UNL     1     120.590 129.794 134.836  1.00  0.00     0.293 HD
ENDBRANCH   6  22
BRANCH   8  24
ATOM     24  O   UNL     1     120.334 125.182 133.065  1.00  0.00    -0.508 OA
ATOM     25  H   UNL     1     119.878 125.418 132.191  1.00  0.00     0.293 HD
ENDBRANCH   8  24
TORSDOF 5
ENDMDL
MODEL 8
REMARK VINA RESULT:    -5.957     15.680     17.921
REMARK INTER + INTRA:          -7.265
REMARK INTER:                  -6.970
REMARK INTRA:                  -0.295
REMARK UNBOUND:                -0.263
REMARK SMILES O=c1c(O)c(-c2ccc(O)cc2)oc2cc(O)cc(O)c12
REMARK SMILES IDX 5 1 3 2 2 3 1 4 21 5 19 6 18 7 16 8 15 9 14 10 13 11 6 12
REMARK SMILES IDX 7 13 8 14 9 15 12 16 11 17 10 18 4 20 20 22 17 24
REMARK H PARENT 10 19 4 21 20 23 17 25
REMARK Flexibility Score: inf
ROOT
ATOM      1  C   UNL     1     133.646 135.212 135.009  1.00  0.00     0.180 A 
ATOM      2  C   UNL     1     134.988 134.889 134.736  1.00  0.00     0.208 A 
ATOM      3  C   UNL     1     135.268 133.911 133.769  1.00  0.00     0.238 A 
ATOM      4  O   UNL     1     136.467 133.623 133.507  1.00  0.00    -0.285 OA
ATOM      5  C   UNL     1     134.205 133.260 133.109  1.00  0.00     0.111 A 
ATOM      6  C   UNL     1     134.402 132.261 132.125  1.00  0.00     0.134 A 
ATOM      7  C   UNL     1     133.292 131.653 131.521  1.00  0.00     0.093 A 
ATOM      8  C   UNL     1     131.994 132.021 131.880  1.00  0.00     0.123 A 
ATOM      9  C   UNL     1     131.794 133.008 132.851  1.00  0.00     0.094 A 
ATOM     10  C   UNL     1     132.886 133.628 133.463  1.00  0.00     0.146 A 
ATOM     11  O   UNL     1     132.669 134.566 134.379  1.00  0.00    -0.452 OA
ENDROOT
BRANCH   1  12
ATOM     12  C   UNL     1     133.270 136.244 136.002  1.00  0.00     0.021 A 
ATOM     13  C   UNL     1     133.059 137.584 135.623  1.00  0.00     0.016 A 
ATOM     14  C   UNL     1     132.680 138.536 136.573  1.00  0.00     0.047 A 
ATOM     15  C   UNL     1     132.495 138.164 137.908  1.00  0.00     0.115 A 
ATOM     16  C   UNL     1     133.061 135.874 137.341  1.00  0.00     0.016 A 
ATOM     17  C   UNL     1     132.684 136.829 138.290  1.00  0.00     0.047 A 
BRANCH  15  18
ATOM     18  O   UNL     1     132.120 139.125 138.844  1.00  0.00    -0.508 OA
ATOM     19  H   UNL     1     132.376 140.100 138.734  1.00  0.00     0.293 HD
ENDBRANCH  15  18
ENDBRANCH   1  12
BRANCH   2  20
ATOM     20  O   UNL     1     136.022 135.515 135.438  1.00  0.00    -0.502 OA
ATOM     21  H   UNL     1     136.998 135.295 135.279  1.00  0.00     0.293 HD
ENDBRANCH   2  20
BRANCH   6  22
ATOM     22  O   UNL     1     135.686 131.869 131.745  1.00  0.00    -0.507 OA
ATOM     23  H   UNL     1     135.961 130.894 131.721  1.00  0.00     0.293 HD
ENDBRANCH   6  22
BRANCH   8  24
ATOM     24  O   UNL     1     130.908 131.401 131.265  1.00  0.00    -0.508 OA
ATOM     25  H   UNL     1     130.187 131.937 130.798  1.00  0.00     0.293 HD
ENDBRANCH   8  24
TORSDOF 5
ENDMDL
MODEL 9
REMARK VINA RESULT:    -5.908      2.064      7.257
REMARK INTER + INTRA:          -7.207
REMARK INTER:                  -6.925
REMARK INTRA:                  -0.283
REMARK UNBOUND:                -0.263
REMARK SMILES O=c1c(O)c(-c2ccc(O)cc2)oc2cc(O)cc(O)c12
REMARK SMILES IDX 5 1 3 2 2 3 1 4 21 5 19 6 18 7 16 8 15 9 14 10 13 11 6 12
REMARK SMILES IDX 7 13 8 14 9 15 12 16 11 17 10 18 4 20 20 22 17 24
REMARK H PARENT 10 19 4 21 20 23 17 25
REMARK Flexibility Score: inf
ROOT
ATOM      1  C   UNL     1     121.605 125.903 139.104  1.00  0.00     0.180 A 
ATOM      2  C   UNL     1     122.478 127.006 139.043  1.00  0.00     0.208 A 
ATOM      3  C   UNL     1     122.804 127.544 137.788  1.00  0.00     0.238 A 
ATOM      4  O   UNL     1     123.575 128.539 137.723  1.00  0.00    -0.285 OA
ATOM      5  C   UNL     1     122.271 126.960 136.621  1.00  0.00     0.111 A 
ATOM      6  C   UNL     1     122.553 127.440 135.319  1.00  0.00     0.134 A 
ATOM      7  C   UNL     1     121.992 126.799 134.205  1.00  0.00     0.093 A 
ATOM      8  C   UNL     1     121.158 125.691 134.366  1.00  0.00     0.123 A 
ATOM      9  C   UNL     1     120.875 125.213 135.650  1.00  0.00     0.094 A 
ATOM     10  C   UNL     1     121.423 125.839 136.773  1.00  0.00     0.146 A 
ATOM     11  O   UNL     1     121.134 125.368 137.981  1.00  0.00    -0.452 OA
ENDROOT
BRANCH   1  12
ATOM     12  C   UNL     1     121.199 125.290 140.390  1.00  0.00     0.021 A 
ATOM     13  C   UNL     1     121.895 124.192 140.931  1.00  0.00     0.016 A 
ATOM     14  C   UNL     1     121.508 123.647 142.159  1.00  0.00     0.047 A 
ATOM     15  C   UNL     1     120.434 124.194 142.867  1.00  0.00     0.115 A 
ATOM     16  C   UNL     1     120.134 125.848 141.117  1.00  0.00     0.016 A 
ATOM     17  C   UNL     1     119.749 125.299 142.344  1.00  0.00     0.047 A 
BRANCH  15  18
ATOM     18  O   UNL     1     120.060 123.638 144.087  1.00  0.00    -0.508 OA
ATOM     19  H   UNL     1     119.357 124.073 144.674  1.00  0.00     0.293 HD
ENDBRANCH  15  18
ENDBRANCH   1  12
BRANCH   2  20
ATOM     20  O   UNL     1     123.030 127.535 140.213  1.00  0.00    -0.502 OA
ATOM     21  H   UNL     1     122.901 127.102 141.119  1.00  0.00     0.293 HD
ENDBRANCH   2  20
BRANCH   6  22
ATOM     22  O   UNL     1     123.384 128.544 135.123  1.00  0.00    -0.507 OA
ATOM     23  H   UNL     1     124.392 128.471 135.189  1.00  0.00     0.293 HD
ENDBRANCH   6  22
BRANCH   8  24
ATOM     24  O   UNL     1     120.614 125.071 133.243  1.00  0.00    -0.508 OA
ATOM     25  H   UNL     1     120.478 124.068 133.205  1.00  0.00     0.293 HD
ENDBRANCH   8  24
TORSDOF 5
ENDMDL
