MODEL 1
REMARK VINA RESULT:    -4.416      0.000      0.000
REMARK INTER + INTRA:          -9.731
REMARK INTER:                  -8.030
REMARK INTRA:                  -1.701
REMARK UNBOUND:                -1.701
REMARK SMILES CCCCCCCCCCCCCCCC(=O)[O-]
REMARK SMILES IDX 9 1 10 2 11 3 12 4 13 5 14 6 15 7 16 8 17 9 18 10 8 11 7 12
REMARK SMILES IDX 6 13 5 14 4 15 3 16 2 17 1 18
REMARK H PARENT
REMARK Flexibility Score: inf
ROOT
ATOM      1  C   UNL     1      12.891  -0.013 -17.081  1.00  0.00     0.000 C 
ENDROOT
BRANCH   1   2
ATOM      2  C   UNL     1      11.604   0.707 -17.523  1.00  0.00     0.000 C 
BRANCH   2   3
ATOM      3  C   UNL     1      10.358  -0.190 -17.647  1.00  0.00     0.000 C 
BRANCH   3   4
ATOM      4  C   UNL     1       9.913  -0.398 -19.105  1.00  0.00     0.000 C 
BRANCH   4   5
ATOM      5  C   UNL     1       9.570  -1.866 -19.413  1.00  0.00     0.000 C 
BRANCH   5   6
ATOM      6  C   UNL     1      10.444  -2.454 -20.535  1.00  0.00     0.006 C 
BRANCH   6   7
ATOM      7  C   UNL     1       9.648  -3.383 -21.460  1.00  0.00     0.053 C 
BRANCH   7   8
ATOM      8  C   UNL     1       9.924  -3.103 -22.906  1.00  0.00     0.041 C 
ATOM      9  O   UNL     1       9.716  -3.991 -23.774  1.00  0.00    -0.550 OA
ATOM     10  O   UNL     1      10.440  -1.872 -23.291  1.00  0.00    -0.550 OA
ENDBRANCH   7   8
ENDBRANCH   6   7
ENDBRANCH   5   6
ENDBRANCH   4   5
ENDBRANCH   3   4
ENDBRANCH   2   3
ENDBRANCH   1   2
BRANCH   1  11
ATOM     11  C   UNL     1      12.794  -1.544 -17.202  1.00  0.00     0.000 C 
BRANCH  11  12
ATOM     12  C   UNL     1      13.232  -2.057 -18.583  1.00  0.00    -0.000 C 
BRANCH  12  13
ATOM     13  C   UNL     1      14.354  -1.203 -19.200  1.00  0.00    -0.000 C 
BRANCH  13  14
ATOM     14  C   UNL     1      14.090  -0.858 -20.676  1.00  0.00    -0.000 C 
BRANCH  14  15
ATOM     15  C   UNL     1      12.867   0.055 -20.860  1.00  0.00    -0.000 C 
BRANCH  15  16
ATOM     16  C   UNL     1      13.247   1.536 -21.039  1.00  0.00    -0.000 C 
BRANCH  16  17
ATOM     17  C   UNL     1      12.959   2.432 -19.822  1.00  0.00    -0.003 C 
ATOM     18  C   UNL     1      13.133   3.921 -20.118  1.00  0.00     0.004 C 
ENDBRANCH  16  17
ENDBRANCH  15  16
ENDBRANCH  14  15
ENDBRANCH  13  14
ENDBRANCH  12  13
ENDBRANCH  11  12
ENDBRANCH   1  11
TORSDOF 14
ENDMDL
MODEL 2
REMARK VINA RESULT:    -4.110      0.764      2.581
REMARK INTER + INTRA:          -9.174
REMARK INTER:                  -8.046
REMARK INTRA:                  -1.128
REMARK UNBOUND:                -1.701
REMARK SMILES CCCCCCCCCCCCCCCC(=O)[O-]
REMARK SMILES IDX 9 1 10 2 11 3 12 4 13 5 14 6 15 7 16 8 17 9 18 10 8 11 7 12
REMARK SMILES IDX 6 13 5 14 4 15 3 16 2 17 1 18
REMARK H PARENT
REMARK Flexibility Score: inf
ROOT
ATOM      1  C   UNL     1      12.496   1.107 -16.367  1.00  0.00     0.000 C 
ENDROOT
BRANCH   1   2
ATOM      2  C   UNL     1      11.859  -0.211 -16.846  1.00  0.00     0.000 C 
BRANCH   2   3
ATOM      3  C   UNL     1      10.376  -0.117 -17.246  1.00  0.00     0.000 C 
BRANCH   3   4
ATOM      4  C   UNL     1      10.150  -0.293 -18.758  1.00  0.00     0.000 C 
BRANCH   4   5
ATOM      5  C   UNL     1       9.969  -1.767 -19.159  1.00  0.00     0.000 C 
BRANCH   5   6
ATOM      6  C   UNL     1      10.583  -2.085 -20.534  1.00  0.00     0.006 C 
BRANCH   6   7
ATOM      7  C   UNL     1       9.803  -3.178 -21.277  1.00  0.00     0.053 C 
BRANCH   7   8
ATOM      8  C   UNL     1       9.941  -3.050 -22.764  1.00  0.00     0.041 C 
ATOM      9  O   UNL     1       9.545  -3.978 -23.518  1.00  0.00    -0.550 OA
ATOM     10  O   UNL     1      10.534  -1.921 -23.314  1.00  0.00    -0.550 OA
ENDBRANCH   7   8
ENDBRANCH   6   7
ENDBRANCH   5   6
ENDBRANCH   4   5
ENDBRANCH   3   4
ENDBRANCH   2   3
ENDBRANCH   1   2
BRANCH   1  11
ATOM     11  C   UNL     1      13.275   1.835 -17.477  1.00  0.00     0.000 C 
BRANCH  11  12
ATOM     12  C   UNL     1      12.366   2.311 -18.622  1.00  0.00    -0.000 C 
BRANCH  12  13
ATOM     13  C   UNL     1      13.163   2.822 -19.835  1.00  0.00    -0.000 C 
BRANCH  13  14
ATOM     14  C   UNL     1      13.178   1.816 -20.998  1.00  0.00    -0.000 C 
BRANCH  14  15
ATOM     15  C   UNL     1      12.824   0.389 -20.550  1.00  0.00    -0.000 C 
BRANCH  15  16
ATOM     16  C   UNL     1      13.956  -0.621 -20.816  1.00  0.00    -0.000 C 
BRANCH  16  17
ATOM     17  C   UNL     1      14.608  -1.212 -19.554  1.00  0.00    -0.003 C 
ATOM     18  C   UNL     1      13.609  -1.921 -18.640  1.00  0.00     0.004 C 
ENDBRANCH  16  17
ENDBRANCH  15  16
ENDBRANCH  14  15
ENDBRANCH  13  14
ENDBRANCH  12  13
ENDBRANCH  11  12
ENDBRANCH   1  11
TORSDOF 14
ENDMDL
MODEL 3
REMARK VINA RESULT:    -3.952      1.186      2.764
REMARK INTER + INTRA:          -8.887
REMARK INTER:                  -7.651
REMARK INTRA:                  -1.235
REMARK UNBOUND:                -1.701
REMARK SMILES CCCCCCCCCCCCCCCC(=O)[O-]
REMARK SMILES IDX 9 1 10 2 11 3 12 4 13 5 14 6 15 7 16 8 17 9 18 10 8 11 7 12
REMARK SMILES IDX 6 13 5 14 4 15 3 16 2 17 1 18
REMARK H PARENT
REMARK Flexibility Score: inf
ROOT
ATOM      1  C   UNL     1      14.308  -1.148 -19.046  1.00  0.00     0.000 C 
ENDROOT
BRANCH   1   2
ATOM      2  C   UNL     1      14.256  -0.999 -20.578  1.00  0.00     0.000 C 
BRANCH   2   3
ATOM      3  C   UNL     1      13.253   0.045 -21.103  1.00  0.00     0.000 C 
BRANCH   3   4
ATOM      4  C   UNL     1      11.983  -0.589 -21.695  1.00  0.00     0.000 C 
BRANCH   4   5
ATOM      5  C   UNL     1      11.014  -1.091 -20.611  1.00  0.00     0.000 C 
BRANCH   5   6
ATOM      6  C   UNL     1      10.273  -2.374 -21.028  1.00  0.00     0.006 C 
BRANCH   6   7
ATOM      7  C   UNL     1      10.255  -2.562 -22.551  1.00  0.00     0.053 C 
BRANCH   7   8
ATOM      8  C   UNL     1       9.585  -3.842 -22.948  1.00  0.00     0.041 C 
ATOM      9  O   UNL     1       9.491  -4.789 -22.123  1.00  0.00    -0.550 OA
ATOM     10  O   UNL     1       9.094  -4.000 -24.237  1.00  0.00    -0.550 OA
ENDBRANCH   7   8
ENDBRANCH   6   7
ENDBRANCH   5   6
ENDBRANCH   4   5
ENDBRANCH   3   4
ENDBRANCH   2   3
ENDBRANCH   1   2
BRANCH   1  11
ATOM     11  C   UNL     1      13.286  -2.164 -18.507  1.00  0.00     0.000 C 
BRANCH  11  12
ATOM     12  C   UNL     1      12.565  -1.663 -17.244  1.00  0.00    -0.000 C 
BRANCH  12  13
ATOM     13  C   UNL     1      12.052  -0.220 -17.392  1.00  0.00    -0.000 C 
BRANCH  13  14
ATOM     14  C   UNL     1      12.792   0.767 -16.473  1.00  0.00    -0.000 C 
BRANCH  14  15
ATOM     15  C   UNL     1      13.248   2.035 -17.213  1.00  0.00    -0.000 C 
BRANCH  15  16
ATOM     16  C   UNL     1      12.424   2.317 -18.483  1.00  0.00    -0.000 C 
BRANCH  16  17
ATOM     17  C   UNL     1      13.249   2.725 -19.716  1.00  0.00    -0.003 C 
ATOM     18  C   UNL     1      13.206   4.227 -19.995  1.00  0.00     0.004 C 
ENDBRANCH  16  17
ENDBRANCH  15  16
ENDBRANCH  14  15
ENDBRANCH  13  14
ENDBRANCH  12  13
ENDBRANCH  11  12
ENDBRANCH   1  11
TORSDOF 14
ENDMDL
MODEL 4
REMARK VINA RESULT:    -3.941      1.102      2.908
REMARK INTER + INTRA:          -8.867
REMARK INTER:                  -7.409
REMARK INTRA:                  -1.458
REMARK UNBOUND:                -1.701
REMARK SMILES CCCCCCCCCCCCCCCC(=O)[O-]
REMARK SMILES IDX 9 1 10 2 11 3 12 4 13 5 14 6 15 7 16 8 17 9 18 10 8 11 7 12
REMARK SMILES IDX 6 13 5 14 4 15 3 16 2 17 1 18
REMARK H PARENT
REMARK Flexibility Score: inf
ROOT
ATOM      1  C   UNL     1      13.180  -2.135 -18.528  1.00  0.00     0.000 C 
ENDROOT
BRANCH   1   2
ATOM      2  C   UNL     1      14.360  -1.321 -19.090  1.00  0.00     0.000 C 
BRANCH   2   3
ATOM      3  C   UNL     1      14.279  -0.997 -20.593  1.00  0.00     0.000 C 
BRANCH   3   4
ATOM      4  C   UNL     1      13.117  -0.051 -20.940  1.00  0.00     0.000 C 
BRANCH   4   5
ATOM      5  C   UNL     1      12.064  -0.716 -21.843  1.00  0.00     0.000 C 
BRANCH   5   6
ATOM      6  C   UNL     1      10.755  -1.025 -21.096  1.00  0.00     0.006 C 
BRANCH   6   7
ATOM      7  C   UNL     1      10.496  -2.533 -20.982  1.00  0.00     0.053 C 
BRANCH   7   8
ATOM      8  C   UNL     1       9.984  -3.110 -22.267  1.00  0.00     0.041 C 
ATOM      9  O   UNL     1      10.001  -2.422 -23.321  1.00  0.00    -0.550 OA
ATOM     10  O   UNL     1       9.458  -4.395 -22.292  1.00  0.00    -0.550 OA
ENDBRANCH   7   8
ENDBRANCH   6   7
ENDBRANCH   5   6
ENDBRANCH   4   5
ENDBRANCH   3   4
ENDBRANCH   2   3
ENDBRANCH   1   2
BRANCH   1  11
ATOM     11  C   UNL     1      12.533  -1.480 -17.296  1.00  0.00     0.000 C 
BRANCH  11  12
ATOM     12  C   UNL     1      11.881  -0.126 -17.620  1.00  0.00    -0.000 C 
BRANCH  12  13
ATOM     13  C   UNL     1      12.446   1.021 -16.763  1.00  0.00    -0.000 C 
BRANCH  13  14
ATOM     14  C   UNL     1      13.235   2.046 -17.596  1.00  0.00    -0.000 C 
BRANCH  14  15
ATOM     15  C   UNL     1      12.438   2.566 -18.803  1.00  0.00    -0.000 C 
BRANCH  15  16
ATOM     16  C   UNL     1      13.337   3.164 -19.902  1.00  0.00    -0.000 C 
BRANCH  16  17
ATOM     17  C   UNL     1      13.283   4.697 -20.022  1.00  0.00    -0.003 C 
ATOM     18  C   UNL     1      14.548   5.295 -20.636  1.00  0.00     0.004 C 
ENDBRANCH  16  17
ENDBRANCH  15  16
ENDBRANCH  14  15
ENDBRANCH  13  14
ENDBRANCH  12  13
ENDBRANCH  11  12
ENDBRANCH   1  11
TORSDOF 14
ENDMDL
MODEL 5
REMARK VINA RESULT:    -3.932      3.415      5.766
REMARK INTER + INTRA:          -8.851
REMARK INTER:                  -7.073
REMARK INTRA:                  -1.778
REMARK UNBOUND:                -1.701
REMARK SMILES CCCCCCCCCCCCCCCC(=O)[O-]
REMARK SMILES IDX 9 1 10 2 11 3 12 4 13 5 14 6 15 7 16 8 17 9 18 10 8 11 7 12
REMARK SMILES IDX 6 13 5 14 4 15 3 16 2 17 1 18
REMARK H PARENT
REMARK Flexibility Score: inf
ROOT
ATOM      1  C   UNL     1      12.993  -1.911 -18.341  1.00  0.00     0.000 C 
ENDROOT
BRANCH   1   2
ATOM      2  C   UNL     1      11.908  -0.908 -17.907  1.00  0.00     0.000 C 
BRANCH   2   3
ATOM      3  C   UNL     1      12.196  -0.157 -16.594  1.00  0.00     0.000 C 
BRANCH   3   4
ATOM      4  C   UNL     1      12.538   1.327 -16.815  1.00  0.00     0.000 C 
BRANCH   4   5
ATOM      5  C   UNL     1      12.254   1.789 -18.255  1.00  0.00     0.000 C 
BRANCH   5   6
ATOM      6  C   UNL     1      13.306   2.787 -18.773  1.00  0.00     0.006 C 
BRANCH   6   7
ATOM      7  C   UNL     1      12.909   3.394 -20.125  1.00  0.00     0.053 C 
BRANCH   7   8
ATOM      8  C   UNL     1      13.391   4.806 -20.267  1.00  0.00     0.041 C 
ATOM      9  O   UNL     1      14.625   5.058 -20.245  1.00  0.00    -0.550 OA
ATOM     10  O   UNL     1      12.478   5.845 -20.390  1.00  0.00    -0.550 OA
ENDBRANCH   7   8
ENDBRANCH   6   7
ENDBRANCH   5   6
ENDBRANCH   4   5
ENDBRANCH   3   4
ENDBRANCH   2   3
ENDBRANCH   1   2
BRANCH   1  11
ATOM     11  C   UNL     1      14.170  -1.242 -19.073  1.00  0.00     0.000 C 
BRANCH  11  12
ATOM     12  C   UNL     1      14.011  -1.276 -20.602  1.00  0.00    -0.000 C 
BRANCH  12  13
ATOM     13  C   UNL     1      13.326  -0.013 -21.152  1.00  0.00    -0.000 C 
BRANCH  13  14
ATOM     14  C   UNL     1      11.818  -0.210 -21.379  1.00  0.00    -0.000 C 
BRANCH  14  15
ATOM     15  C   UNL     1      11.480  -1.605 -21.932  1.00  0.00    -0.000 C 
BRANCH  15  16
ATOM     16  C   UNL     1      10.495  -2.381 -21.039  1.00  0.00    -0.000 C 
BRANCH  16  17
ATOM     17  C   UNL     1       9.445  -3.211 -21.799  1.00  0.00    -0.003 C 
ATOM     18  C   UNL     1      10.017  -3.923 -23.024  1.00  0.00     0.004 C 
ENDBRANCH  16  17
ENDBRANCH  15  16
ENDBRANCH  14  15
ENDBRANCH  13  14
ENDBRANCH  12  13
ENDBRANCH  11  12
ENDBRANCH   1  11
TORSDOF 14
ENDMDL
MODEL 6
REMARK VINA RESULT:    -3.895      1.635      3.446
REMARK INTER + INTRA:          -8.784
REMARK INTER:                  -8.085
REMARK INTRA:                  -0.699
REMARK UNBOUND:                -1.701
REMARK SMILES CCCCCCCCCCCCCCCC(=O)[O-]
REMARK SMILES IDX 9 1 10 2 11 3 12 4 13 5 14 6 15 7 16 8 17 9 18 10 8 11 7 12
REMARK SMILES IDX 6 13 5 14 4 15 3 16 2 17 1 18
REMARK H PARENT
REMARK Flexibility Score: inf
ROOT
ATOM      1  C   UNL     1      14.042  -1.009 -20.478  1.00  0.00     0.000 C 
ENDROOT
BRANCH   1   2
ATOM      2  C   UNL     1      13.867  -1.077 -18.950  1.00  0.00     0.000 C 
BRANCH   2   3
ATOM      3  C   UNL     1      12.660  -1.900 -18.463  1.00  0.00     0.000 C 
BRANCH   3   4
ATOM      4  C   UNL     1      11.420  -1.034 -18.179  1.00  0.00     0.000 C 
BRANCH   4   5
ATOM      5  C   UNL     1      10.271  -1.309 -19.163  1.00  0.00     0.000 C 
BRANCH   5   6
ATOM      6  C   UNL     1      10.764  -1.890 -20.501  1.00  0.00     0.006 C 
BRANCH   6   7
ATOM      7  C   UNL     1       9.781  -2.914 -21.083  1.00  0.00     0.053 C 
BRANCH   7   8
ATOM      8  C   UNL     1       9.995  -3.121 -22.552  1.00  0.00     0.041 C 
ATOM      9  O   UNL     1      10.292  -2.146 -23.291  1.00  0.00    -0.550 OA
ATOM     10  O   UNL     1       9.833  -4.383 -23.108  1.00  0.00    -0.550 OA
ENDBRANCH   7   8
ENDBRANCH   6   7
ENDBRANCH   5   6
ENDBRANCH   4   5
ENDBRANCH   3   4
ENDBRANCH   2   3
ENDBRANCH   1   2
BRANCH   1  11
ATOM     11  C   UNL     1      13.249   0.142 -21.122  1.00  0.00     0.000 C 
BRANCH  11  12
ATOM     12  C   UNL     1      13.024   1.317 -20.157  1.00  0.00    -0.000 C 
BRANCH  12  13
ATOM     13  C   UNL     1      13.154   2.684 -20.851  1.00  0.00    -0.000 C 
BRANCH  13  14
ATOM     14  C   UNL     1      13.255   3.848 -19.851  1.00  0.00    -0.000 C 
BRANCH  14  15
ATOM     15  C   UNL     1      13.495   5.201 -20.540  1.00  0.00    -0.000 C 
BRANCH  15  16
ATOM     16  C   UNL     1      14.971   5.640 -20.501  1.00  0.00    -0.000 C 
BRANCH  16  17
ATOM     17  C   UNL     1      15.565   6.037 -21.864  1.00  0.00    -0.003 C 
ATOM     18  C   UNL     1      16.626   5.057 -22.363  1.00  0.00     0.004 C 
ENDBRANCH  16  17
ENDBRANCH  15  16
ENDBRANCH  14  15
ENDBRANCH  13  14
ENDBRANCH  12  13
ENDBRANCH  11  12
ENDBRANCH   1  11
TORSDOF 14
ENDMDL
MODEL 7
REMARK VINA RESULT:    -3.816      1.829      3.252
REMARK INTER + INTRA:          -8.640
REMARK INTER:                  -6.898
REMARK INTRA:                  -1.742
REMARK UNBOUND:                -1.701
REMARK SMILES CCCCCCCCCCCCCCCC(=O)[O-]
REMARK SMILES IDX 9 1 10 2 11 3 12 4 13 5 14 6 15 7 16 8 17 9 18 10 8 11 7 12
REMARK SMILES IDX 6 13 5 14 4 15 3 16 2 17 1 18
REMARK H PARENT
REMARK Flexibility Score: inf
ROOT
ATOM      1  C   UNL     1      13.233  -2.128 -18.388  1.00  0.00     0.000 C 
ENDROOT
BRANCH   1   2
ATOM      2  C   UNL     1      14.249  -1.184 -19.056  1.00  0.00     0.000 C 
BRANCH   2   3
ATOM      3  C   UNL     1      14.050  -0.967 -20.567  1.00  0.00     0.000 C 
BRANCH   3   4
ATOM      4  C   UNL     1      12.666  -0.390 -20.912  1.00  0.00     0.000 C 
BRANCH   4   5
ATOM      5  C   UNL     1      12.093  -0.973 -22.215  1.00  0.00     0.000 C 
BRANCH   5   6
ATOM      6  C   UNL     1      10.657  -1.501 -22.045  1.00  0.00     0.006 C 
BRANCH   6   7
ATOM      7  C   UNL     1      10.534  -2.472 -20.863  1.00  0.00     0.053 C 
BRANCH   7   8
ATOM      8  C   UNL     1       9.732  -1.887 -19.741  1.00  0.00     0.041 C 
ATOM      9  O   UNL     1       9.278  -2.632 -18.832  1.00  0.00    -0.550 OA
ATOM     10  O   UNL     1       9.458  -0.526 -19.715  1.00  0.00    -0.550 OA
ENDBRANCH   7   8
ENDBRANCH   6   7
ENDBRANCH   5   6
ENDBRANCH   4   5
ENDBRANCH   3   4
ENDBRANCH   2   3
ENDBRANCH   1   2
BRANCH   1  11
ATOM     11  C   UNL     1      12.509  -1.482 -17.193  1.00  0.00     0.000 C 
BRANCH  11  12
ATOM     12  C   UNL     1      11.945  -0.091 -17.526  1.00  0.00    -0.000 C 
BRANCH  12  13
ATOM     13  C   UNL     1      12.562   1.019 -16.658  1.00  0.00    -0.000 C 
BRANCH  13  14
ATOM     14  C   UNL     1      13.230   2.122 -17.497  1.00  0.00    -0.000 C 
BRANCH  14  15
ATOM     15  C   UNL     1      12.406   2.503 -18.737  1.00  0.00    -0.000 C 
BRANCH  15  16
ATOM     16  C   UNL     1      13.270   3.068 -19.880  1.00  0.00    -0.000 C 
BRANCH  16  17
ATOM     17  C   UNL     1      13.094   4.574 -20.144  1.00  0.00    -0.003 C 
ATOM     18  C   UNL     1      14.400   5.274 -20.517  1.00  0.00     0.004 C 
ENDBRANCH  16  17
ENDBRANCH  15  16
ENDBRANCH  14  15
ENDBRANCH  13  14
ENDBRANCH  12  13
ENDBRANCH  11  12
ENDBRANCH   1  11
TORSDOF 14
ENDMDL
MODEL 8
REMARK VINA RESULT:    -3.640      3.256      6.036
REMARK INTER + INTRA:          -8.319
REMARK INTER:                  -6.923
REMARK INTRA:                  -1.396
REMARK UNBOUND:                -1.701
REMARK SMILES CCCCCCCCCCCCCCCC(=O)[O-]
REMARK SMILES IDX 9 1 10 2 11 3 12 4 13 5 14 6 15 7 16 8 17 9 18 10 8 11 7 12
REMARK SMILES IDX 6 13 5 14 4 15 3 16 2 17 1 18
REMARK H PARENT
REMARK Flexibility Score: inf
ROOT
ATOM      1  C   UNL     1      13.174  -1.437 -17.789  1.00  0.00     0.000 C 
ENDROOT
BRANCH   1   2
ATOM      2  C   UNL     1      14.033  -1.544 -19.061  1.00  0.00     0.000 C 
BRANCH   2   3
ATOM      3  C   UNL     1      13.269  -1.377 -20.387  1.00  0.00     0.000 C 
BRANCH   3   4
ATOM      4  C   UNL     1      13.610  -0.064 -21.114  1.00  0.00     0.000 C 
BRANCH   4   5
ATOM      5  C   UNL     1      12.709   1.103 -20.677  1.00  0.00     0.000 C 
BRANCH   5   6
ATOM      6  C   UNL     1      13.331   2.477 -20.985  1.00  0.00     0.006 C 
BRANCH   6   7
ATOM      7  C   UNL     1      13.180   3.455 -19.812  1.00  0.00     0.053 C 
BRANCH   7   8
ATOM      8  C   UNL     1      13.483   4.865 -20.218  1.00  0.00     0.041 C 
ATOM      9  O   UNL     1      12.546   5.651 -20.524  1.00  0.00    -0.550 OA
ATOM     10  O   UNL     1      14.799   5.303 -20.290  1.00  0.00    -0.550 OA
ENDBRANCH   7   8
ENDBRANCH   6   7
ENDBRANCH   5   6
ENDBRANCH   4   5
ENDBRANCH   3   4
ENDBRANCH   2   3
ENDBRANCH   1   2
BRANCH   1  11
ATOM     11  C   UNL     1      12.846   0.018 -17.408  1.00  0.00     0.000 C 
BRANCH  11  12
ATOM     12  C   UNL     1      11.394   0.190 -16.930  1.00  0.00    -0.000 C 
BRANCH  12  13
ATOM     13  C   UNL     1      10.383   0.143 -18.089  1.00  0.00    -0.000 C 
BRANCH  13  14
ATOM     14  C   UNL     1      10.147  -1.285 -18.609  1.00  0.00    -0.000 C 
BRANCH  14  15
ATOM     15  C   UNL     1       9.747  -1.315 -20.094  1.00  0.00    -0.000 C 
BRANCH  15  16
ATOM     16  C   UNL     1       9.873  -2.716 -20.720  1.00  0.00    -0.000 C 
BRANCH  16  17
ATOM     17  C   UNL     1      10.280  -2.730 -22.204  1.00  0.00    -0.003 C 
ATOM     18  C   UNL     1       9.765  -3.957 -22.955  1.00  0.00     0.004 C 
ENDBRANCH  16  17
ENDBRANCH  15  16
ENDBRANCH  14  15
ENDBRANCH  13  14
ENDBRANCH  12  13
ENDBRANCH  11  12
ENDBRANCH   1  11
TORSDOF 14
ENDMDL
MODEL 9
REMARK VINA RESULT:    -3.418      2.057      3.891
REMARK INTER + INTRA:          -7.917
REMARK INTER:                  -6.945
REMARK INTRA:                  -0.972
REMARK UNBOUND:                -1.701
REMARK SMILES CCCCCCCCCCCCCCCC(=O)[O-]
REMARK SMILES IDX 9 1 10 2 11 3 12 4 13 5 14 6 15 7 16 8 17 9 18 10 8 11 7 12
REMARK SMILES IDX 6 13 5 14 4 15 3 16 2 17 1 18
REMARK H PARENT
REMARK Flexibility Score: inf
ROOT
ATOM      1  C   UNL     1      11.923   0.648 -17.766  1.00  0.00     0.000 C 
ENDROOT
BRANCH   1   2
ATOM      2  C   UNL     1      12.652  -0.601 -17.237  1.00  0.00     0.000 C 
BRANCH   2   3
ATOM      3  C   UNL     1      12.879  -1.717 -18.272  1.00  0.00     0.000 C 
BRANCH   3   4
ATOM      4  C   UNL     1      13.975  -1.373 -19.295  1.00  0.00     0.000 C 
BRANCH   4   5
ATOM      5  C   UNL     1      13.400  -0.969 -20.663  1.00  0.00     0.000 C 
BRANCH   5   6
ATOM      6  C   UNL     1      11.876  -1.169 -20.746  1.00  0.00     0.006 C 
BRANCH   6   7
ATOM      7  C   UNL     1      11.426  -1.600 -22.148  1.00  0.00     0.053 C 
BRANCH   7   8
ATOM      8  C   UNL     1      10.275  -2.558 -22.096  1.00  0.00     0.041 C 
ATOM      9  O   UNL     1       9.669  -2.760 -21.010  1.00  0.00    -0.550 OA
ATOM     10  O   UNL     1       9.894  -3.252 -23.236  1.00  0.00    -0.550 OA
ENDBRANCH   7   8
ENDBRANCH   6   7
ENDBRANCH   5   6
ENDBRANCH   4   5
ENDBRANCH   3   4
ENDBRANCH   2   3
ENDBRANCH   1   2
BRANCH   1  11
ATOM     11  C   UNL     1      12.860   1.853 -17.959  1.00  0.00     0.000 C 
BRANCH  11  12
ATOM     12  C   UNL     1      12.454   2.731 -19.154  1.00  0.00    -0.000 C 
BRANCH  12  13
ATOM     13  C   UNL     1      13.622   3.583 -19.684  1.00  0.00    -0.000 C 
BRANCH  13  14
ATOM     14  C   UNL     1      13.151   4.725 -20.601  1.00  0.00    -0.000 C 
BRANCH  14  15
ATOM     15  C   UNL     1      14.048   5.970 -20.502  1.00  0.00    -0.000 C 
BRANCH  15  16
ATOM     16  C   UNL     1      15.505   5.693 -20.918  1.00  0.00    -0.000 C 
BRANCH  16  17
ATOM     17  C   UNL     1      15.864   6.123 -22.351  1.00  0.00    -0.003 C 
ATOM     18  C   UNL     1      16.541   5.015 -23.157  1.00  0.00     0.004 C 
ENDBRANCH  16  17
ENDBRANCH  15  16
ENDBRANCH  14  15
ENDBRANCH  13  14
ENDBRANCH  12  13
ENDBRANCH  11  12
ENDBRANCH   1  11
TORSDOF 14
ENDMDL
