MODEL 1
REMARK VINA RESULT:    -4.484      0.000      0.000
REMARK INTER + INTRA:         -10.205
REMARK INTER:                  -8.417
REMARK INTRA:                  -1.789
REMARK UNBOUND:                -1.789
REMARK SMILES CCCCCCCCC=CCCCCCCCC(=O)[O-]
REMARK SMILES IDX 10 1 9 2 11 3 12 4 13 5 14 6 15 7 16 8 17 9 18 10 19 11
REMARK SMILES IDX 20 12 8 13 7 14 6 15 5 16 4 17 3 18 2 19 1 20
REMARK H PARENT
REMARK Flexibility Score: inf
ROOT
ATOM      1  C   UNL     1      -4.309  13.636 -15.702  1.00  0.00    -0.031 C 
ATOM      2  C   UNL     1      -5.090  12.596 -15.370  1.00  0.00    -0.031 C 
ENDROOT
BRANCH   1   3
ATOM      3  C   UNL     1      -2.911  13.774 -15.167  1.00  0.00     0.027 C 
BRANCH   3   4
ATOM      4  C   UNL     1      -2.002  14.500 -16.169  1.00  0.00     0.004 C 
BRANCH   4   5
ATOM      5  C   UNL     1      -2.554  14.468 -17.604  1.00  0.00     0.000 C 
BRANCH   5   6
ATOM      6  C   UNL     1      -1.709  15.235 -18.639  1.00  0.00     0.000 C 
BRANCH   6   7
ATOM      7  C   UNL     1      -0.536  16.025 -18.020  1.00  0.00     0.000 C 
BRANCH   7   8
ATOM      8  C   UNL     1       0.784  15.795 -18.775  1.00  0.00     0.006 C 
BRANCH   8   9
ATOM      9  C   UNL     1       1.799  16.918 -18.527  1.00  0.00     0.053 C 
BRANCH   9  10
ATOM     10  C   UNL     1       1.275  18.250 -18.971  1.00  0.00     0.041 C 
ATOM     11  O   UNL     1       0.784  18.386 -20.123  1.00  0.00    -0.550 OA
ATOM     12  O   UNL     1       1.305  19.335 -18.103  1.00  0.00    -0.550 OA
ENDBRANCH   9  10
ENDBRANCH   8   9
ENDBRANCH   7   8
ENDBRANCH   6   7
ENDBRANCH   5   6
ENDBRANCH   4   5
ENDBRANCH   3   4
ENDBRANCH   1   3
BRANCH   2  13
ATOM     13  C   UNL     1      -6.485  12.456 -15.913  1.00  0.00     0.027 C 
BRANCH  13  14
ATOM     14  C   UNL     1      -6.569  12.990 -17.351  1.00  0.00     0.004 C 
BRANCH  14  15
ATOM     15  C   UNL     1      -6.199  11.927 -18.398  1.00  0.00     0.000 C 
BRANCH  15  16
ATOM     16  C   UNL     1      -5.091  12.398 -19.351  1.00  0.00     0.000 C 
BRANCH  16  17
ATOM     17  C   UNL     1      -3.789  11.626 -19.104  1.00  0.00    -0.000 C 
BRANCH  17  18
ATOM     18  C   UNL     1      -3.912  10.587 -17.976  1.00  0.00    -0.000 C 
BRANCH  18  19
ATOM     19  C   UNL     1      -2.774   9.545 -17.969  1.00  0.00    -0.003 C 
ATOM     20  C   UNL     1      -3.258   8.151 -18.366  1.00  0.00     0.004 C 
ENDBRANCH  18  19
ENDBRANCH  17  18
ENDBRANCH  16  17
ENDBRANCH  15  16
ENDBRANCH  14  15
ENDBRANCH  13  14
ENDBRANCH   2  13
TORSDOF 15
ENDMDL
MODEL 2
REMARK VINA RESULT:    -4.336      3.556      6.866
REMARK INTER + INTRA:          -9.926
REMARK INTER:                  -7.949
REMARK INTRA:                  -1.977
REMARK UNBOUND:                -1.789
REMARK SMILES CCCCCCCCC=CCCCCCCCC(=O)[O-]
REMARK SMILES IDX 10 1 9 2 11 3 12 4 13 5 14 6 15 7 16 8 17 9 18 10 19 11
REMARK SMILES IDX 20 12 8 13 7 14 6 15 5 16 4 17 3 18 2 19 1 20
REMARK H PARENT
REMARK Flexibility Score: inf
ROOT
ATOM      1  C   UNL     1      -4.419  13.758 -15.826  1.00  0.00    -0.031 C 
ATOM      2  C   UNL     1      -3.110  13.727 -15.532  1.00  0.00    -0.031 C 
ENDROOT
BRANCH   1   3
ATOM      3  C   UNL     1      -5.421  12.955 -15.044  1.00  0.00     0.027 C 
BRANCH   3   4
ATOM      4  C   UNL     1      -6.402  12.231 -15.978  1.00  0.00     0.004 C 
BRANCH   4   5
ATOM      5  C   UNL     1      -6.557  12.933 -17.337  1.00  0.00     0.000 C 
BRANCH   5   6
ATOM      6  C   UNL     1      -6.295  12.036 -18.562  1.00  0.00     0.000 C 
BRANCH   6   7
ATOM      7  C   UNL     1      -5.064  12.460 -19.391  1.00  0.00     0.000 C 
BRANCH   7   8
ATOM      8  C   UNL     1      -4.021  11.334 -19.504  1.00  0.00     0.006 C 
BRANCH   8   9
ATOM      9  C   UNL     1      -3.294  11.080 -18.178  1.00  0.00     0.053 C 
BRANCH   9  10
ATOM     10  C   UNL     1      -3.640   9.741 -17.601  1.00  0.00     0.041 C 
ATOM     11  O   UNL     1      -4.277   9.663 -16.518  1.00  0.00    -0.550 OA
ATOM     12  O   UNL     1      -3.280   8.578 -18.274  1.00  0.00    -0.550 OA
ENDBRANCH   9  10
ENDBRANCH   8   9
ENDBRANCH   7   8
ENDBRANCH   6   7
ENDBRANCH   5   6
ENDBRANCH   4   5
ENDBRANCH   3   4
ENDBRANCH   1   3
BRANCH   2  13
ATOM     13  C   UNL     1      -2.110  14.537 -16.311  1.00  0.00     0.027 C 
BRANCH  13  14
ATOM     14  C   UNL     1      -2.410  14.477 -17.816  1.00  0.00     0.004 C 
BRANCH  14  15
ATOM     15  C   UNL     1      -1.659  15.558 -18.611  1.00  0.00     0.000 C 
BRANCH  15  16
ATOM     16  C   UNL     1      -0.260  15.842 -18.044  1.00  0.00     0.000 C 
BRANCH  16  17
ATOM     17  C   UNL     1       0.359  17.080 -18.705  1.00  0.00    -0.000 C 
BRANCH  17  18
ATOM     18  C   UNL     1       1.663  16.769 -19.458  1.00  0.00    -0.000 C 
BRANCH  18  19
ATOM     19  C   UNL     1       2.063  15.279 -19.414  1.00  0.00    -0.003 C 
ATOM     20  C   UNL     1       2.080  14.640 -20.802  1.00  0.00     0.004 C 
ENDBRANCH  18  19
ENDBRANCH  17  18
ENDBRANCH  16  17
ENDBRANCH  15  16
ENDBRANCH  14  15
ENDBRANCH  13  14
ENDBRANCH   2  13
TORSDOF 15
ENDMDL
MODEL 3
REMARK VINA RESULT:    -4.297      2.164      3.419
REMARK INTER + INTRA:          -9.854
REMARK INTER:                  -8.282
REMARK INTRA:                  -1.572
REMARK UNBOUND:                -1.789
REMARK SMILES CCCCCCCCC=CCCCCCCCC(=O)[O-]
REMARK SMILES IDX 10 1 9 2 11 3 12 4 13 5 14 6 15 7 16 8 17 9 18 10 19 11
REMARK SMILES IDX 20 12 8 13 7 14 6 15 5 16 4 17 3 18 2 19 1 20
REMARK H PARENT
REMARK Flexibility Score: inf
ROOT
ATOM      1  C   UNL     1      -2.775  14.176 -17.719  1.00  0.00    -0.031 C 
ATOM      2  C   UNL     1      -2.643  14.371 -16.397  1.00  0.00    -0.031 C 
ENDROOT
BRANCH   1   3
ATOM      3  C   UNL     1      -1.915  14.906 -18.712  1.00  0.00     0.027 C 
BRANCH   3   4
ATOM      4  C   UNL     1      -0.805  15.700 -18.008  1.00  0.00     0.004 C 
BRANCH   4   5
ATOM      5  C   UNL     1      -0.509  17.044 -18.694  1.00  0.00     0.000 C 
BRANCH   5   6
ATOM      6  C   UNL     1       0.964  17.491 -18.629  1.00  0.00     0.000 C 
BRANCH   6   7
ATOM      7  C   UNL     1       1.973  16.335 -18.807  1.00  0.00     0.000 C 
BRANCH   7   8
ATOM      8  C   UNL     1       2.115  15.907 -20.278  1.00  0.00     0.006 C 
BRANCH   8   9
ATOM      9  C   UNL     1       2.101  14.383 -20.444  1.00  0.00     0.053 C 
BRANCH   9  10
ATOM     10  C   UNL     1       1.906  13.979 -21.874  1.00  0.00     0.041 C 
ATOM     11  O   UNL     1       1.789  12.763 -22.179  1.00  0.00    -0.550 OA
ATOM     12  O   UNL     1       1.828  14.949 -22.867  1.00  0.00    -0.550 OA
ENDBRANCH   9  10
ENDBRANCH   8   9
ENDBRANCH   7   8
ENDBRANCH   6   7
ENDBRANCH   5   6
ENDBRANCH   4   5
ENDBRANCH   3   4
ENDBRANCH   1   3
BRANCH   2  13
ATOM     13  C   UNL     1      -3.500  13.633 -15.405  1.00  0.00     0.027 C 
BRANCH  13  14
ATOM     14  C   UNL     1      -4.953  13.547 -15.893  1.00  0.00     0.004 C 
BRANCH  14  15
ATOM     15  C   UNL     1      -5.663  12.271 -15.412  1.00  0.00     0.000 C 
BRANCH  15  16
ATOM     16  C   UNL     1      -5.214  11.020 -16.182  1.00  0.00     0.000 C 
BRANCH  16  17
ATOM     17  C   UNL     1      -5.527  11.155 -17.677  1.00  0.00    -0.000 C 
BRANCH  17  18
ATOM     18  C   UNL     1      -4.265  11.173 -18.556  1.00  0.00    -0.000 C 
BRANCH  18  19
ATOM     19  C   UNL     1      -3.100  10.339 -17.982  1.00  0.00    -0.003 C 
ATOM     20  C   UNL     1      -3.268   8.843 -18.251  1.00  0.00     0.004 C 
ENDBRANCH  18  19
ENDBRANCH  17  18
ENDBRANCH  16  17
ENDBRANCH  15  16
ENDBRANCH  14  15
ENDBRANCH  13  14
ENDBRANCH   2  13
TORSDOF 15
ENDMDL
MODEL 4
REMARK VINA RESULT:    -4.246      1.020      2.078
REMARK INTER + INTRA:          -9.758
REMARK INTER:                  -8.256
REMARK INTRA:                  -1.502
REMARK UNBOUND:                -1.789
REMARK SMILES CCCCCCCCC=CCCCCCCCC(=O)[O-]
REMARK SMILES IDX 10 1 9 2 11 3 12 4 13 5 14 6 15 7 16 8 17 9 18 10 19 11
REMARK SMILES IDX 20 12 8 13 7 14 6 15 5 16 4 17 3 18 2 19 1 20
REMARK H PARENT
REMARK Flexibility Score: inf
ROOT
ATOM      1  C   UNL     1      -3.173  14.012 -16.621  1.00  0.00    -0.031 C 
ATOM      2  C   UNL     1      -3.460  13.348 -15.490  1.00  0.00    -0.031 C 
ENDROOT
BRANCH   1   3
ATOM      3  C   UNL     1      -1.887  14.775 -16.781  1.00  0.00     0.027 C 
BRANCH   3   4
ATOM      4  C   UNL     1      -1.673  15.201 -18.241  1.00  0.00     0.004 C 
BRANCH   4   5
ATOM      5  C   UNL     1      -0.678  16.365 -18.381  1.00  0.00     0.000 C 
BRANCH   5   6
ATOM      6  C   UNL     1       0.787  15.940 -18.594  1.00  0.00     0.000 C 
BRANCH   6   7
ATOM      7  C   UNL     1       1.750  17.125 -18.824  1.00  0.00     0.000 C 
BRANCH   7   8
ATOM      8  C   UNL     1       1.321  18.003 -20.012  1.00  0.00     0.006 C 
BRANCH   8   9
ATOM      9  C   UNL     1       1.387  19.499 -19.683  1.00  0.00     0.053 C 
BRANCH   9  10
ATOM     10  C   UNL     1       0.527  19.849 -18.507  1.00  0.00     0.041 C 
ATOM     11  O   UNL     1       1.053  20.124 -17.397  1.00  0.00    -0.550 OA
ATOM     12  O   UNL     1      -0.856  19.896 -18.644  1.00  0.00    -0.550 OA
ENDBRANCH   9  10
ENDBRANCH   8   9
ENDBRANCH   7   8
ENDBRANCH   6   7
ENDBRANCH   5   6
ENDBRANCH   4   5
ENDBRANCH   3   4
ENDBRANCH   1   3
BRANCH   2  13
ATOM     13  C   UNL     1      -4.743  12.579 -15.335  1.00  0.00     0.027 C 
BRANCH  13  14
ATOM     14  C   UNL     1      -5.929  13.374 -15.900  1.00  0.00     0.004 C 
BRANCH  14  15
ATOM     15  C   UNL     1      -6.468  12.778 -17.211  1.00  0.00     0.000 C 
BRANCH  15  16
ATOM     16  C   UNL     1      -5.766  11.468 -17.596  1.00  0.00     0.000 C 
BRANCH  16  17
ATOM     17  C   UNL     1      -4.895  11.658 -18.844  1.00  0.00    -0.000 C 
BRANCH  17  18
ATOM     18  C   UNL     1      -3.450  11.169 -18.647  1.00  0.00    -0.000 C 
BRANCH  18  19
ATOM     19  C   UNL     1      -3.331   9.958 -17.697  1.00  0.00    -0.003 C 
ATOM     20  C   UNL     1      -3.189   8.637 -18.453  1.00  0.00     0.004 C 
ENDBRANCH  18  19
ENDBRANCH  17  18
ENDBRANCH  16  17
ENDBRANCH  15  16
ENDBRANCH  14  15
ENDBRANCH  13  14
ENDBRANCH   2  13
TORSDOF 15
ENDMDL
MODEL 5
REMARK VINA RESULT:    -4.181      3.440      8.217
REMARK INTER + INTRA:          -9.637
REMARK INTER:                  -8.251
REMARK INTRA:                  -1.385
REMARK UNBOUND:                -1.789
REMARK SMILES CCCCCCCCC=CCCCCCCCC(=O)[O-]
REMARK SMILES IDX 10 1 9 2 11 3 12 4 13 5 14 6 15 7 16 8 17 9 18 10 19 11
REMARK SMILES IDX 20 12 8 13 7 14 6 15 5 16 4 17 3 18 2 19 1 20
REMARK H PARENT
REMARK Flexibility Score: inf
ROOT
ATOM      1  C   UNL     1      -2.083  14.807 -17.370  1.00  0.00    -0.031 C 
ATOM      2  C   UNL     1      -1.465  15.281 -18.463  1.00  0.00    -0.031 C 
ENDROOT
BRANCH   1   3
ATOM      3  C   UNL     1      -3.092  13.694 -17.456  1.00  0.00     0.027 C 
BRANCH   3   4
ATOM      4  C   UNL     1      -3.175  13.130 -18.882  1.00  0.00     0.004 C 
BRANCH   4   5
ATOM      5  C   UNL     1      -4.135  11.934 -18.992  1.00  0.00     0.000 C 
BRANCH   5   6
ATOM      6  C   UNL     1      -3.526  10.578 -18.587  1.00  0.00     0.000 C 
BRANCH   6   7
ATOM      7  C   UNL     1      -3.819  10.178 -17.124  1.00  0.00     0.000 C 
BRANCH   7   8
ATOM      8  C   UNL     1      -5.199  10.666 -16.652  1.00  0.00     0.006 C 
BRANCH   8   9
ATOM      9  C   UNL     1      -5.099  11.632 -15.464  1.00  0.00     0.053 C 
BRANCH   9  10
ATOM     10  C   UNL     1      -6.078  12.760 -15.579  1.00  0.00     0.041 C 
ATOM     11  O   UNL     1      -6.496  13.344 -14.545  1.00  0.00    -0.550 OA
ATOM     12  O   UNL     1      -6.510  13.183 -16.831  1.00  0.00    -0.550 OA
ENDBRANCH   9  10
ENDBRANCH   8   9
ENDBRANCH   7   8
ENDBRANCH   6   7
ENDBRANCH   5   6
ENDBRANCH   4   5
ENDBRANCH   3   4
ENDBRANCH   1   3
BRANCH   2  13
ATOM     13  C   UNL     1      -0.451  16.388 -18.373  1.00  0.00     0.027 C 
BRANCH  13  14
ATOM     14  C   UNL     1       0.949  15.879 -18.747  1.00  0.00     0.004 C 
BRANCH  14  15
ATOM     15  C   UNL     1       1.944  17.023 -19.002  1.00  0.00     0.000 C 
BRANCH  15  16
ATOM     16  C   UNL     1       1.712  17.718 -20.352  1.00  0.00     0.000 C 
BRANCH  16  17
ATOM     17  C   UNL     1       1.736  19.243 -20.196  1.00  0.00    -0.000 C 
BRANCH  17  18
ATOM     18  C   UNL     1       0.368  19.828 -19.805  1.00  0.00    -0.000 C 
BRANCH  18  19
ATOM     19  C   UNL     1       0.202  20.049 -18.287  1.00  0.00    -0.003 C 
ATOM     20  C   UNL     1      -1.266  20.124 -17.867  1.00  0.00     0.004 C 
ENDBRANCH  18  19
ENDBRANCH  17  18
ENDBRANCH  16  17
ENDBRANCH  15  16
ENDBRANCH  14  15
ENDBRANCH  13  14
ENDBRANCH   2  13
TORSDOF 15
ENDMDL
MODEL 6
REMARK VINA RESULT:    -4.150      1.094      2.214
REMARK INTER + INTRA:          -9.578
REMARK INTER:                  -7.752
REMARK INTRA:                  -1.826
REMARK UNBOUND:                -1.789
REMARK SMILES CCCCCCCCC=CCCCCCCCC(=O)[O-]
REMARK SMILES IDX 10 1 9 2 11 3 12 4 13 5 14 6 15 7 16 8 17 9 18 10 19 11
REMARK SMILES IDX 20 12 8 13 7 14 6 15 5 16 4 17 3 18 2 19 1 20
REMARK H PARENT
REMARK Flexibility Score: inf
ROOT
ATOM      1  C   UNL     1      -4.200  13.456 -15.896  1.00  0.00    -0.031 C 
ATOM      2  C   UNL     1      -5.129  12.759 -15.224  1.00  0.00    -0.031 C 
ENDROOT
BRANCH   1   3
ATOM      3  C   UNL     1      -2.931  13.919 -15.235  1.00  0.00     0.027 C 
BRANCH   3   4
ATOM      4  C   UNL     1      -2.013  14.634 -16.237  1.00  0.00     0.004 C 
BRANCH   4   5
ATOM      5  C   UNL     1      -2.472  14.459 -17.694  1.00  0.00     0.000 C 
BRANCH   5   6
ATOM      6  C   UNL     1      -1.625  15.217 -18.733  1.00  0.00     0.000 C 
BRANCH   6   7
ATOM      7  C   UNL     1      -0.426  15.977 -18.124  1.00  0.00     0.000 C 
BRANCH   7   8
ATOM      8  C   UNL     1      -0.347  17.432 -18.617  1.00  0.00     0.006 C 
BRANCH   8   9
ATOM      9  C   UNL     1       1.100  17.906 -18.798  1.00  0.00     0.053 C 
BRANCH   9  10
ATOM     10  C   UNL     1       1.403  18.237 -20.227  1.00  0.00     0.041 C 
ATOM     11  O   UNL     1       1.224  19.407 -20.658  1.00  0.00    -0.550 OA
ATOM     12  O   UNL     1       1.908  17.260 -21.077  1.00  0.00    -0.550 OA
ENDBRANCH   9  10
ENDBRANCH   8   9
ENDBRANCH   7   8
ENDBRANCH   6   7
ENDBRANCH   5   6
ENDBRANCH   4   5
ENDBRANCH   3   4
ENDBRANCH   1   3
BRANCH   2  13
ATOM     13  C   UNL     1      -6.394  12.290 -15.890  1.00  0.00     0.027 C 
BRANCH  13  14
ATOM     14  C   UNL     1      -6.246  10.845 -16.389  1.00  0.00     0.004 C 
BRANCH  14  15
ATOM     15  C   UNL     1      -4.889  10.227 -16.015  1.00  0.00     0.000 C 
BRANCH  15  16
ATOM     16  C   UNL     1      -4.113   9.721 -17.241  1.00  0.00     0.000 C 
BRANCH  16  17
ATOM     17  C   UNL     1      -3.417  10.879 -17.967  1.00  0.00    -0.000 C 
BRANCH  17  18
ATOM     18  C   UNL     1      -4.019  11.166 -19.353  1.00  0.00    -0.000 C 
BRANCH  18  19
ATOM     19  C   UNL     1      -4.818  12.484 -19.419  1.00  0.00    -0.003 C 
ATOM     20  C   UNL     1      -6.296  12.254 -19.737  1.00  0.00     0.004 C 
ENDBRANCH  18  19
ENDBRANCH  17  18
ENDBRANCH  16  17
ENDBRANCH  15  16
ENDBRANCH  14  15
ENDBRANCH  13  14
ENDBRANCH   2  13
TORSDOF 15
ENDMDL
MODEL 7
REMARK VINA RESULT:    -4.031      3.298      7.679
REMARK INTER + INTRA:          -9.354
REMARK INTER:                  -7.604
REMARK INTRA:                  -1.750
REMARK UNBOUND:                -1.789
REMARK SMILES CCCCCCCCC=CCCCCCCCC(=O)[O-]
REMARK SMILES IDX 10 1 9 2 11 3 12 4 13 5 14 6 15 7 16 8 17 9 18 10 19 11
REMARK SMILES IDX 20 12 8 13 7 14 6 15 5 16 4 17 3 18 2 19 1 20
REMARK H PARENT
REMARK Flexibility Score: inf
ROOT
ATOM      1  C   UNL     1      -2.400  14.437 -16.362  1.00  0.00    -0.031 C 
ATOM      2  C   UNL     1      -2.605  14.381 -17.687  1.00  0.00    -0.031 C 
ENDROOT
BRANCH   1   3
ATOM      3  C   UNL     1      -3.194  13.590 -15.406  1.00  0.00     0.027 C 
BRANCH   3   4
ATOM      4  C   UNL     1      -4.698  13.870 -15.534  1.00  0.00     0.004 C 
BRANCH   4   5
ATOM      5  C   UNL     1      -5.564  12.663 -15.138  1.00  0.00     0.000 C 
BRANCH   5   6
ATOM      6  C   UNL     1      -6.495  12.142 -16.250  1.00  0.00     0.000 C 
BRANCH   6   7
ATOM      7  C   UNL     1      -6.074  12.581 -17.669  1.00  0.00     0.000 C 
BRANCH   7   8
ATOM      8  C   UNL     1      -5.546  11.406 -18.510  1.00  0.00     0.006 C 
BRANCH   8   9
ATOM      9  C   UNL     1      -4.014  11.333 -18.509  1.00  0.00     0.053 C 
BRANCH   9  10
ATOM     10  C   UNL     1      -3.512  10.165 -17.716  1.00  0.00     0.041 C 
ATOM     11  O   UNL     1      -4.200   9.700 -16.769  1.00  0.00    -0.550 OA
ATOM     12  O   UNL     1      -2.296   9.574 -18.038  1.00  0.00    -0.550 OA
ENDBRANCH   9  10
ENDBRANCH   8   9
ENDBRANCH   7   8
ENDBRANCH   6   7
ENDBRANCH   5   6
ENDBRANCH   4   5
ENDBRANCH   3   4
ENDBRANCH   1   3
BRANCH   2  13
ATOM     13  C   UNL     1      -1.804  15.223 -18.642  1.00  0.00     0.027 C 
BRANCH  13  14
ATOM     14  C   UNL     1      -0.501  15.704 -17.988  1.00  0.00     0.004 C 
BRANCH  14  15
ATOM     15  C   UNL     1       0.656  15.821 -18.993  1.00  0.00     0.000 C 
BRANCH  15  16
ATOM     16  C   UNL     1       1.917  16.441 -18.372  1.00  0.00     0.000 C 
BRANCH  16  17
ATOM     17  C   UNL     1       2.007  17.939 -18.691  1.00  0.00    -0.000 C 
BRANCH  17  18
ATOM     18  C   UNL     1       1.057  18.370 -19.821  1.00  0.00    -0.000 C 
BRANCH  18  19
ATOM     19  C   UNL     1       0.251  19.646 -19.498  1.00  0.00    -0.003 C 
ATOM     20  C   UNL     1      -0.869  19.386 -18.491  1.00  0.00     0.004 C 
ENDBRANCH  18  19
ENDBRANCH  17  18
ENDBRANCH  16  17
ENDBRANCH  15  16
ENDBRANCH  14  15
ENDBRANCH  13  14
ENDBRANCH   2  13
TORSDOF 15
ENDMDL
MODEL 8
REMARK VINA RESULT:    -4.024      1.361      3.584
REMARK INTER + INTRA:          -9.342
REMARK INTER:                  -7.676
REMARK INTRA:                  -1.666
REMARK UNBOUND:                -1.789
REMARK SMILES CCCCCCCCC=CCCCCCCCC(=O)[O-]
REMARK SMILES IDX 10 1 9 2 11 3 12 4 13 5 14 6 15 7 16 8 17 9 18 10 19 11
REMARK SMILES IDX 20 12 8 13 7 14 6 15 5 16 4 17 3 18 2 19 1 20
REMARK H PARENT
REMARK Flexibility Score: inf
ROOT
ATOM      1  C   UNL     1      -2.893  13.354 -18.715  1.00  0.00    -0.031 C 
ATOM      2  C   UNL     1      -4.010  12.920 -19.319  1.00  0.00    -0.031 C 
ENDROOT
BRANCH   1   3
ATOM      3  C   UNL     1      -2.376  14.750 -18.925  1.00  0.00     0.027 C 
BRANCH   3   4
ATOM      4  C   UNL     1      -1.253  15.082 -17.931  1.00  0.00     0.004 C 
BRANCH   4   5
ATOM      5  C   UNL     1      -0.413  16.294 -18.366  1.00  0.00     0.000 C 
BRANCH   5   6
ATOM      6  C   UNL     1       1.091  16.010 -18.536  1.00  0.00     0.000 C 
BRANCH   6   7
ATOM      7  C   UNL     1       1.753  16.824 -19.669  1.00  0.00     0.000 C 
BRANCH   7   8
ATOM      8  C   UNL     1       2.072  18.267 -19.241  1.00  0.00     0.006 C 
BRANCH   8   9
ATOM      9  C   UNL     1       0.945  19.242 -19.601  1.00  0.00     0.053 C 
BRANCH   9  10
ATOM     10  C   UNL     1       0.290  19.813 -18.380  1.00  0.00     0.041 C 
ATOM     11  O   UNL     1       0.982  20.114 -17.372  1.00  0.00    -0.550 OA
ATOM     12  O   UNL     1      -1.082  20.036 -18.365  1.00  0.00    -0.550 OA
ENDBRANCH   9  10
ENDBRANCH   8   9
ENDBRANCH   7   8
ENDBRANCH   6   7
ENDBRANCH   5   6
ENDBRANCH   4   5
ENDBRANCH   3   4
ENDBRANCH   1   3
BRANCH   2  13
ATOM     13  C   UNL     1      -4.530  11.525 -19.101  1.00  0.00     0.027 C 
BRANCH  13  14
ATOM     14  C   UNL     1      -3.425  10.609 -18.553  1.00  0.00     0.004 C 
BRANCH  14  15
ATOM     15  C   UNL     1      -3.836   9.904 -17.250  1.00  0.00     0.000 C 
BRANCH  15  16
ATOM     16  C   UNL     1      -5.200  10.378 -16.727  1.00  0.00     0.000 C 
BRANCH  16  17
ATOM     17  C   UNL     1      -5.032  11.283 -15.500  1.00  0.00    -0.000 C 
BRANCH  17  18
ATOM     18  C   UNL     1      -5.816  12.602 -15.615  1.00  0.00    -0.000 C 
BRANCH  18  19
ATOM     19  C   UNL     1      -4.914  13.852 -15.693  1.00  0.00    -0.003 C 
ATOM     20  C   UNL     1      -3.455  13.539 -15.359  1.00  0.00     0.004 C 
ENDBRANCH  18  19
ENDBRANCH  17  18
ENDBRANCH  16  17
ENDBRANCH  15  16
ENDBRANCH  14  15
ENDBRANCH  13  14
ENDBRANCH   2  13
TORSDOF 15
ENDMDL
MODEL 9
REMARK VINA RESULT:    -2.957      1.327      3.220
REMARK INTER + INTRA:          -7.339
REMARK INTER:                  -6.107
REMARK INTRA:                  -1.232
REMARK UNBOUND:                -1.789
REMARK SMILES CCCCCCCCC=CCCCCCCCC(=O)[O-]
REMARK SMILES IDX 10 1 9 2 11 3 12 4 13 5 14 6 15 7 16 8 17 9 18 10 19 11
REMARK SMILES IDX 20 12 8 13 7 14 6 15 5 16 4 17 3 18 2 19 1 20
REMARK H PARENT
REMARK Flexibility Score: inf
ROOT
ATOM      1  C   UNL     1      -1.973  14.809 -17.048  1.00  0.00    -0.031 C 
ATOM      2  C   UNL     1      -3.110  14.104 -16.944  1.00  0.00    -0.031 C 
ENDROOT
BRANCH   1   3
ATOM      3  C   UNL     1      -1.471  15.304 -18.376  1.00  0.00     0.027 C 
BRANCH   3   4
ATOM      4  C   UNL     1      -0.392  16.382 -18.195  1.00  0.00     0.004 C 
BRANCH   4   5
ATOM      5  C   UNL     1       0.966  15.970 -18.785  1.00  0.00     0.000 C 
BRANCH   5   6
ATOM      6  C   UNL     1       1.961  17.128 -18.987  1.00  0.00     0.000 C 
BRANCH   6   7
ATOM      7  C   UNL     1       1.677  17.979 -20.244  1.00  0.00     0.000 C 
BRANCH   7   8
ATOM      8  C   UNL     1       1.523  19.474 -19.912  1.00  0.00     0.006 C 
BRANCH   8   9
ATOM      9  C   UNL     1       0.055  19.881 -19.736  1.00  0.00     0.053 C 
BRANCH   9  10
ATOM     10  C   UNL     1      -0.307  20.049 -18.291  1.00  0.00     0.041 C 
ATOM     11  O   UNL     1      -1.516  20.097 -17.943  1.00  0.00    -0.550 OA
ATOM     12  O   UNL     1       0.692  20.125 -17.327  1.00  0.00    -0.550 OA
ENDBRANCH   9  10
ENDBRANCH   8   9
ENDBRANCH   7   8
ENDBRANCH   6   7
ENDBRANCH   5   6
ENDBRANCH   4   5
ENDBRANCH   3   4
ENDBRANCH   1   3
BRANCH   2  13
ATOM     13  C   UNL     1      -3.614  13.617 -15.614  1.00  0.00     0.027 C 
BRANCH  13  14
ATOM     14  C   UNL     1      -5.084  13.183 -15.711  1.00  0.00     0.004 C 
BRANCH  14  15
ATOM     15  C   UNL     1      -5.284  11.698 -15.368  1.00  0.00     0.000 C 
BRANCH  15  16
ATOM     16  C   UNL     1      -5.349  10.806 -16.617  1.00  0.00     0.000 C 
BRANCH  16  17
ATOM     17  C   UNL     1      -3.964  10.244 -16.962  1.00  0.00    -0.000 C 
BRANCH  17  18
ATOM     18  C   UNL     1      -3.659  10.282 -18.469  1.00  0.00    -0.000 C 
BRANCH  18  19
ATOM     19  C   UNL     1      -3.598  11.710 -19.052  1.00  0.00    -0.003 C 
ATOM     20  C   UNL     1      -4.954  12.183 -19.575  1.00  0.00     0.004 C 
ENDBRANCH  18  19
ENDBRANCH  17  18
ENDBRANCH  16  17
ENDBRANCH  15  16
ENDBRANCH  14  15
ENDBRANCH  13  14
ENDBRANCH   2  13
TORSDOF 15
ENDMDL
