MODEL 1
REMARK VINA RESULT:    -3.812      0.000      0.000
REMARK INTER + INTRA:          -7.299
REMARK INTER:                  -6.041
REMARK INTRA:                  -1.258
REMARK UNBOUND:                -1.258
REMARK SMILES CCCCCCCCCCCC(=O)[O-]
REMARK SMILES IDX 7 1 8 2 9 3 10 4 11 5 12 6 13 7 14 8 6 9 5 10 4 11 3 12 2 13
REMARK SMILES IDX 1 14
REMARK H PARENT
REMARK Flexibility Score: inf
ROOT
ATOM      1  C   UNL     1       8.749  -4.347  42.656  1.00  0.00     0.000 C 
ENDROOT
BRANCH   1   2
ATOM      2  C   UNL     1       7.571  -5.328  42.755  1.00  0.00     0.000 C 
BRANCH   2   3
ATOM      3  C   UNL     1       7.465  -6.255  41.531  1.00  0.00     0.000 C 
BRANCH   3   4
ATOM      4  C   UNL     1       8.430  -7.455  41.617  1.00  0.00     0.006 C 
BRANCH   4   5
ATOM      5  C   UNL     1       7.769  -8.737  42.150  1.00  0.00     0.053 C 
BRANCH   5   6
ATOM      6  C   UNL     1       8.049  -8.960  43.603  1.00  0.00     0.041 C 
ATOM      7  O   UNL     1       8.988  -8.343  44.170  1.00  0.00    -0.550 OA
ATOM      8  O   UNL     1       7.288  -9.870  44.326  1.00  0.00    -0.550 OA
ENDBRANCH   5   6
ENDBRANCH   4   5
ENDBRANCH   3   4
ENDBRANCH   2   3
ENDBRANCH   1   2
BRANCH   1   9
ATOM      9  C   UNL     1       8.295  -2.888  42.491  1.00  0.00     0.000 C 
BRANCH   9  10
ATOM     10  C   UNL     1       8.761  -2.316  41.146  1.00  0.00    -0.000 C 
BRANCH  10  11
ATOM     11  C   UNL     1       7.901  -2.852  39.993  1.00  0.00    -0.000 C 
BRANCH  11  12
ATOM     12  C   UNL     1       8.672  -3.810  39.065  1.00  0.00    -0.000 C 
BRANCH  12  13
ATOM     13  C   UNL     1      10.203  -3.761  39.215  1.00  0.00    -0.003 C 
ATOM     14  C   UNL     1      10.798  -5.078  39.714  1.00  0.00     0.004 C 
ENDBRANCH  12  13
ENDBRANCH  11  12
ENDBRANCH  10  11
ENDBRANCH   9  10
ENDBRANCH   1   9
TORSDOF 10
ENDMDL
MODEL 2
REMARK VINA RESULT:    -3.811      2.885      4.326
REMARK INTER + INTRA:          -7.297
REMARK INTER:                  -6.560
REMARK INTRA:                  -0.737
REMARK UNBOUND:                -1.258
REMARK SMILES CCCCCCCCCCCC(=O)[O-]
REMARK SMILES IDX 7 1 8 2 9 3 10 4 11 5 12 6 13 7 14 8 6 9 5 10 4 11 3 12 2 13
REMARK SMILES IDX 1 14
REMARK H PARENT
REMARK Flexibility Score: inf
ROOT
ATOM      1  C   UNL     1       8.217  -3.699  38.971  1.00  0.00     0.000 C 
ENDROOT
BRANCH   1   2
ATOM      2  C   UNL     1       9.015  -3.745  40.283  1.00  0.00     0.000 C 
BRANCH   2   3
ATOM      3  C   UNL     1       8.402  -2.858  41.382  1.00  0.00     0.000 C 
BRANCH   3   4
ATOM      4  C   UNL     1       8.178  -3.626  42.700  1.00  0.00     0.006 C 
BRANCH   4   5
ATOM      5  C   UNL     1       7.507  -4.996  42.507  1.00  0.00     0.053 C 
BRANCH   5   6
ATOM      6  C   UNL     1       8.284  -6.106  43.140  1.00  0.00     0.041 C 
ATOM      7  O   UNL     1       9.371  -6.488  42.633  1.00  0.00    -0.550 OA
ATOM      8  O   UNL     1       7.794  -6.739  44.276  1.00  0.00    -0.550 OA
ENDBRANCH   5   6
ENDBRANCH   4   5
ENDBRANCH   3   4
ENDBRANCH   2   3
ENDBRANCH   1   2
BRANCH   1   9
ATOM      9  C   UNL     1       7.104  -2.640  38.989  1.00  0.00     0.000 C 
BRANCH   9  10
ATOM     10  C   UNL     1       6.400  -2.560  37.629  1.00  0.00    -0.000 C 
BRANCH  10  11
ATOM     11  C   UNL     1       7.108  -3.441  36.590  1.00  0.00    -0.000 C 
BRANCH  11  12
ATOM     12  C   UNL     1       7.329  -2.723  35.246  1.00  0.00    -0.000 C 
BRANCH  12  13
ATOM     13  C   UNL     1       6.709  -1.317  35.155  1.00  0.00    -0.003 C 
ATOM     14  C   UNL     1       5.638  -1.204  34.070  1.00  0.00     0.004 C 
ENDBRANCH  12  13
ENDBRANCH  11  12
ENDBRANCH  10  11
ENDBRANCH   9  10
ENDBRANCH   1   9
TORSDOF 10
ENDMDL
MODEL 3
REMARK VINA RESULT:    -3.774      2.601      3.710
REMARK INTER + INTRA:          -7.238
REMARK INTER:                  -6.553
REMARK INTRA:                  -0.685
REMARK UNBOUND:                -1.258
REMARK SMILES CCCCCCCCCCCC(=O)[O-]
REMARK SMILES IDX 7 1 8 2 9 3 10 4 11 5 12 6 13 7 14 8 6 9 5 10 4 11 3 12 2 13
REMARK SMILES IDX 1 14
REMARK H PARENT
REMARK Flexibility Score: inf
ROOT
ATOM      1  C   UNL     1       8.299  -2.196  40.728  1.00  0.00     0.000 C 
ENDROOT
BRANCH   1   2
ATOM      2  C   UNL     1       8.398  -3.704  41.006  1.00  0.00     0.000 C 
BRANCH   2   3
ATOM      3  C   UNL     1       8.201  -4.049  42.492  1.00  0.00     0.000 C 
BRANCH   3   4
ATOM      4  C   UNL     1       7.284  -5.273  42.696  1.00  0.00     0.006 C 
BRANCH   4   5
ATOM      5  C   UNL     1       8.050  -6.566  43.017  1.00  0.00     0.053 C 
BRANCH   5   6
ATOM      6  C   UNL     1       8.332  -7.380  41.795  1.00  0.00     0.041 C 
ATOM      7  O   UNL     1       9.383  -7.183  41.131  1.00  0.00    -0.550 OA
ATOM      8  O   UNL     1       7.420  -8.340  41.372  1.00  0.00    -0.550 OA
ENDBRANCH   5   6
ENDBRANCH   4   5
ENDBRANCH   3   4
ENDBRANCH   2   3
ENDBRANCH   1   2
BRANCH   1   9
ATOM      9  C   UNL     1       7.723  -1.884  39.338  1.00  0.00     0.000 C 
BRANCH   9  10
ATOM     10  C   UNL     1       7.846  -3.097  38.408  1.00  0.00    -0.000 C 
BRANCH  10  11
ATOM     11  C   UNL     1       6.719  -3.108  37.366  1.00  0.00    -0.000 C 
BRANCH  11  12
ATOM     12  C   UNL     1       5.754  -1.916  37.513  1.00  0.00    -0.000 C 
BRANCH  12  13
ATOM     13  C   UNL     1       5.680  -0.989  36.287  1.00  0.00    -0.003 C 
ATOM     14  C   UNL     1       6.683  -1.360  35.194  1.00  0.00     0.004 C 
ENDBRANCH  12  13
ENDBRANCH  11  12
ENDBRANCH  10  11
ENDBRANCH   9  10
ENDBRANCH   1   9
TORSDOF 10
ENDMDL
MODEL 4
REMARK VINA RESULT:    -3.762      3.502      5.297
REMARK INTER + INTRA:          -7.219
REMARK INTER:                  -5.736
REMARK INTRA:                  -1.482
REMARK UNBOUND:                -1.258
REMARK SMILES CCCCCCCCCCCC(=O)[O-]
REMARK SMILES IDX 7 1 8 2 9 3 10 4 11 5 12 6 13 7 14 8 6 9 5 10 4 11 3 12 2 13
REMARK SMILES IDX 1 14
REMARK H PARENT
REMARK Flexibility Score: inf
ROOT
ATOM      1  C   UNL     1      10.411  -4.267  42.319  1.00  0.00     0.000 C 
ENDROOT
BRANCH   1   2
ATOM      2  C   UNL     1      11.105  -3.987  40.978  1.00  0.00     0.000 C 
BRANCH   2   3
ATOM      3  C   UNL     1      10.402  -4.670  39.792  1.00  0.00     0.000 C 
BRANCH   3   4
ATOM      4  C   UNL     1       9.646  -3.665  38.898  1.00  0.00     0.006 C 
BRANCH   4   5
ATOM      5  C   UNL     1       8.127  -3.893  38.866  1.00  0.00     0.053 C 
BRANCH   5   6
ATOM      6  C   UNL     1       7.356  -2.616  38.973  1.00  0.00     0.041 C 
ATOM      7  O   UNL     1       6.279  -2.471  38.337  1.00  0.00    -0.550 OA
ATOM      8  O   UNL     1       7.840  -1.574  39.753  1.00  0.00    -0.550 OA
ENDBRANCH   5   6
ENDBRANCH   4   5
ENDBRANCH   3   4
ENDBRANCH   2   3
ENDBRANCH   1   2
BRANCH   1   9
ATOM      9  C   UNL     1       9.379  -3.189  42.690  1.00  0.00     0.000 C 
BRANCH   9  10
ATOM     10  C   UNL     1       7.949  -3.720  42.530  1.00  0.00    -0.000 C 
BRANCH  10  11
ATOM     11  C   UNL     1       7.871  -5.209  42.897  1.00  0.00    -0.000 C 
BRANCH  11  12
ATOM     12  C   UNL     1       7.469  -6.099  41.707  1.00  0.00    -0.000 C 
BRANCH  12  13
ATOM     13  C   UNL     1       7.895  -7.573  41.830  1.00  0.00    -0.003 C 
ATOM     14  C   UNL     1       9.348  -7.814  41.419  1.00  0.00     0.004 C 
ENDBRANCH  12  13
ENDBRANCH  11  12
ENDBRANCH  10  11
ENDBRANCH   9  10
ENDBRANCH   1   9
TORSDOF 10
ENDMDL
MODEL 5
REMARK VINA RESULT:    -3.720      3.065      6.117
REMARK INTER + INTRA:          -7.152
REMARK INTER:                  -6.345
REMARK INTRA:                  -0.807
REMARK UNBOUND:                -1.258
REMARK SMILES CCCCCCCCCCCC(=O)[O-]
REMARK SMILES IDX 7 1 8 2 9 3 10 4 11 5 12 6 13 7 14 8 6 9 5 10 4 11 3 12 2 13
REMARK SMILES IDX 1 14
REMARK H PARENT
REMARK Flexibility Score: inf
ROOT
ATOM      1  C   UNL     1       9.148  -6.766  42.851  1.00  0.00     0.000 C 
ENDROOT
BRANCH   1   2
ATOM      2  C   UNL     1       7.765  -6.409  43.417  1.00  0.00     0.000 C 
BRANCH   2   3
ATOM      3  C   UNL     1       7.298  -5.003  43.000  1.00  0.00     0.000 C 
BRANCH   3   4
ATOM      4  C   UNL     1       8.430  -4.172  42.364  1.00  0.00     0.006 C 
BRANCH   4   5
ATOM      5  C   UNL     1       8.053  -3.557  41.007  1.00  0.00     0.053 C 
BRANCH   5   6
ATOM      6  C   UNL     1       9.221  -3.465  40.077  1.00  0.00     0.041 C 
ATOM      7  O   UNL     1      10.180  -2.693  40.339  1.00  0.00    -0.550 OA
ATOM      8  O   UNL     1       9.240  -4.214  38.907  1.00  0.00    -0.550 OA
ENDBRANCH   5   6
ENDBRANCH   4   5
ENDBRANCH   3   4
ENDBRANCH   2   3
ENDBRANCH   1   2
BRANCH   1   9
ATOM      9  C   UNL     1       9.069  -7.697  41.632  1.00  0.00     0.000 C 
BRANCH   9  10
ATOM     10  C   UNL     1       7.665  -8.298  41.490  1.00  0.00    -0.000 C 
BRANCH  10  11
ATOM     11  C   UNL     1       7.715  -9.832  41.544  1.00  0.00    -0.000 C 
BRANCH  11  12
ATOM     12  C   UNL     1       6.438 -10.453  42.141  1.00  0.00    -0.000 C 
BRANCH  12  13
ATOM     13  C   UNL     1       6.602 -11.024  43.561  1.00  0.00    -0.003 C 
ATOM     14  C   UNL     1       7.366 -10.090  44.498  1.00  0.00     0.004 C 
ENDBRANCH  12  13
ENDBRANCH  11  12
ENDBRANCH  10  11
ENDBRANCH   9  10
ENDBRANCH   1   9
TORSDOF 10
ENDMDL
MODEL 6
REMARK VINA RESULT:    -3.718      3.955      5.962
REMARK INTER + INTRA:          -7.150
REMARK INTER:                  -6.161
REMARK INTRA:                  -0.989
REMARK UNBOUND:                -1.258
REMARK SMILES CCCCCCCCCCCC(=O)[O-]
REMARK SMILES IDX 7 1 8 2 9 3 10 4 11 5 12 6 13 7 14 8 6 9 5 10 4 11 3 12 2 13
REMARK SMILES IDX 1 14
REMARK H PARENT
REMARK Flexibility Score: inf
ROOT
ATOM      1  C   UNL     1       9.492  -2.951  42.442  1.00  0.00     0.000 C 
ENDROOT
BRANCH   1   2
ATOM      2  C   UNL     1       8.331  -2.256  41.714  1.00  0.00     0.000 C 
BRANCH   2   3
ATOM      3  C   UNL     1       8.574  -2.122  40.201  1.00  0.00     0.000 C 
BRANCH   3   4
ATOM      4  C   UNL     1       7.507  -2.860  39.366  1.00  0.00     0.006 C 
BRANCH   4   5
ATOM      5  C   UNL     1       8.093  -3.668  38.197  1.00  0.00     0.053 C 
BRANCH   5   6
ATOM      6  C   UNL     1       7.607  -3.183  36.868  1.00  0.00     0.041 C 
ATOM      7  O   UNL     1       7.217  -1.994  36.732  1.00  0.00    -0.550 OA
ATOM      8  O   UNL     1       7.560  -4.051  35.785  1.00  0.00    -0.550 OA
ENDBRANCH   5   6
ENDBRANCH   4   5
ENDBRANCH   3   4
ENDBRANCH   2   3
ENDBRANCH   1   2
BRANCH   1   9
ATOM      9  C   UNL     1       9.395  -4.484  42.389  1.00  0.00     0.000 C 
BRANCH   9  10
ATOM     10  C   UNL     1       7.942  -4.948  42.553  1.00  0.00    -0.000 C 
BRANCH  10  11
ATOM     11  C   UNL     1       7.570  -5.978  41.477  1.00  0.00    -0.000 C 
BRANCH  11  12
ATOM     12  C   UNL     1       8.349  -7.300  41.617  1.00  0.00    -0.000 C 
BRANCH  12  13
ATOM     13  C   UNL     1       8.018  -8.113  42.881  1.00  0.00    -0.003 C 
ATOM     14  C   UNL     1       9.144  -8.098  43.914  1.00  0.00     0.004 C 
ENDBRANCH  12  13
ENDBRANCH  11  12
ENDBRANCH  10  11
ENDBRANCH   9  10
ENDBRANCH   1   9
TORSDOF 10
ENDMDL
MODEL 7
REMARK VINA RESULT:    -3.684      2.633      3.829
REMARK INTER + INTRA:          -7.095
REMARK INTER:                  -6.157
REMARK INTRA:                  -0.937
REMARK UNBOUND:                -1.258
REMARK SMILES CCCCCCCCCCCC(=O)[O-]
REMARK SMILES IDX 7 1 8 2 9 3 10 4 11 5 12 6 13 7 14 8 6 9 5 10 4 11 3 12 2 13
REMARK SMILES IDX 1 14
REMARK H PARENT
REMARK Flexibility Score: inf
ROOT
ATOM      1  C   UNL     1       7.630  -2.880  39.874  1.00  0.00     0.000 C 
ENDROOT
BRANCH   1   2
ATOM      2  C   UNL     1       8.256  -4.176  39.337  1.00  0.00     0.000 C 
BRANCH   2   3
ATOM      3  C   UNL     1       9.656  -4.443  39.918  1.00  0.00     0.000 C 
BRANCH   3   4
ATOM      4  C   UNL     1       9.656  -5.593  40.946  1.00  0.00     0.006 C 
BRANCH   4   5
ATOM      5  C   UNL     1       9.375  -5.131  42.385  1.00  0.00     0.053 C 
BRANCH   5   6
ATOM      6  C   UNL     1       8.108  -5.709  42.932  1.00  0.00     0.041 C 
ATOM      7  O   UNL     1       7.017  -5.099  42.783  1.00  0.00    -0.550 OA
ATOM      8  O   UNL     1       8.135  -6.909  43.631  1.00  0.00    -0.550 OA
ENDBRANCH   5   6
ENDBRANCH   4   5
ENDBRANCH   3   4
ENDBRANCH   2   3
ENDBRANCH   1   2
BRANCH   1   9
ATOM      9  C   UNL     1       7.385  -1.837  38.772  1.00  0.00     0.000 C 
BRANCH   9  10
ATOM     10  C   UNL     1       6.235  -2.268  37.853  1.00  0.00    -0.000 C 
BRANCH  10  11
ATOM     11  C   UNL     1       6.252  -1.473  36.540  1.00  0.00    -0.000 C 
BRANCH  11  12
ATOM     12  C   UNL     1       7.024  -2.190  35.416  1.00  0.00    -0.000 C 
BRANCH  12  13
ATOM     13  C   UNL     1       7.265  -3.691  35.654  1.00  0.00    -0.003 C 
ATOM     14  C   UNL     1       8.745  -4.073  35.616  1.00  0.00     0.004 C 
ENDBRANCH  12  13
ENDBRANCH  11  12
ENDBRANCH  10  11
ENDBRANCH   9  10
ENDBRANCH   1   9
TORSDOF 10
ENDMDL
MODEL 8
REMARK VINA RESULT:    -3.677      5.059      7.254
REMARK INTER + INTRA:          -7.085
REMARK INTER:                  -6.544
REMARK INTRA:                  -0.541
REMARK UNBOUND:                -1.258
REMARK SMILES CCCCCCCCCCCC(=O)[O-]
REMARK SMILES IDX 7 1 8 2 9 3 10 4 11 5 12 6 13 7 14 8 6 9 5 10 4 11 3 12 2 13
REMARK SMILES IDX 1 14
REMARK H PARENT
REMARK Flexibility Score: inf
ROOT
ATOM      1  C   UNL     1       8.037  -4.268  40.129  1.00  0.00     0.000 C 
ENDROOT
BRANCH   1   2
ATOM      2  C   UNL     1       8.168  -3.515  38.796  1.00  0.00     0.000 C 
BRANCH   2   3
ATOM      3  C   UNL     1       7.297  -2.248  38.743  1.00  0.00     0.000 C 
BRANCH   3   4
ATOM      4  C   UNL     1       6.105  -2.393  37.774  1.00  0.00     0.006 C 
BRANCH   4   5
ATOM      5  C   UNL     1       5.710  -1.077  37.085  1.00  0.00     0.053 C 
BRANCH   5   6
ATOM      6  C   UNL     1       5.894  -1.132  35.602  1.00  0.00     0.041 C 
ATOM      7  O   UNL     1       6.715  -1.940  35.095  1.00  0.00    -0.550 OA
ATOM      8  O   UNL     1       5.179  -0.271  34.779  1.00  0.00    -0.550 OA
ENDBRANCH   5   6
ENDBRANCH   4   5
ENDBRANCH   3   4
ENDBRANCH   2   3
ENDBRANCH   1   2
BRANCH   1   9
ATOM      9  C   UNL     1       8.336  -3.379  41.346  1.00  0.00     0.000 C 
BRANCH   9  10
ATOM     10  C   UNL     1       7.915  -4.070  42.649  1.00  0.00    -0.000 C 
BRANCH  10  11
ATOM     11  C   UNL     1       7.551  -5.541  42.398  1.00  0.00    -0.000 C 
BRANCH  11  12
ATOM     12  C   UNL     1       8.384  -6.518  43.248  1.00  0.00    -0.000 C 
BRANCH  12  13
ATOM     13  C   UNL     1       8.087  -8.007  42.998  1.00  0.00    -0.003 C 
ATOM     14  C   UNL     1       7.672  -8.301  41.557  1.00  0.00     0.004 C 
ENDBRANCH  12  13
ENDBRANCH  11  12
ENDBRANCH  10  11
ENDBRANCH   9  10
ENDBRANCH   1   9
TORSDOF 10
ENDMDL
MODEL 9
REMARK VINA RESULT:    -3.630      1.843      2.587
REMARK INTER + INTRA:          -7.010
REMARK INTER:                  -6.392
REMARK INTRA:                  -0.618
REMARK UNBOUND:                -1.258
REMARK SMILES CCCCCCCCCCCC(=O)[O-]
REMARK SMILES IDX 7 1 8 2 9 3 10 4 11 5 12 6 13 7 14 8 6 9 5 10 4 11 3 12 2 13
REMARK SMILES IDX 1 14
REMARK H PARENT
REMARK Flexibility Score: inf
ROOT
ATOM      1  C   UNL     1       7.823  -6.138  43.459  1.00  0.00     0.000 C 
ENDROOT
BRANCH   1   2
ATOM      2  C   UNL     1       8.964  -7.075  43.035  1.00  0.00     0.000 C 
BRANCH   2   3
ATOM      3  C   UNL     1       8.797  -7.602  41.599  1.00  0.00     0.000 C 
BRANCH   3   4
ATOM      4  C   UNL     1       7.633  -8.606  41.472  1.00  0.00     0.006 C 
BRANCH   4   5
ATOM      5  C   UNL     1       7.518  -9.566  42.667  1.00  0.00     0.053 C 
BRANCH   5   6
ATOM      6  C   UNL     1       6.358 -10.502  42.537  1.00  0.00     0.041 C 
ATOM      7  O   UNL     1       5.965 -11.166  43.531  1.00  0.00    -0.550 OA
ATOM      8  O   UNL     1       5.726 -10.662  41.310  1.00  0.00    -0.550 OA
ENDBRANCH   5   6
ENDBRANCH   4   5
ENDBRANCH   3   4
ENDBRANCH   2   3
ENDBRANCH   1   2
BRANCH   1   9
ATOM      9  C   UNL     1       7.540  -5.038  42.423  1.00  0.00     0.000 C 
BRANCH   9  10
ATOM     10  C   UNL     1       8.566  -3.903  42.533  1.00  0.00    -0.000 C 
BRANCH  10  11
ATOM     11  C   UNL     1       8.619  -3.082  41.237  1.00  0.00    -0.000 C 
BRANCH  11  12
ATOM     12  C   UNL     1       7.854  -3.745  40.076  1.00  0.00    -0.000 C 
BRANCH  12  13
ATOM     13  C   UNL     1       7.347  -2.771  38.997  1.00  0.00    -0.003 C 
ATOM     14  C   UNL     1       7.489  -3.322  37.579  1.00  0.00     0.004 C 
ENDBRANCH  12  13
ENDBRANCH  11  12
ENDBRANCH  10  11
ENDBRANCH   9  10
ENDBRANCH   1   9
TORSDOF 10
ENDMDL
