MODEL 1
REMARK VINA RESULT:     2.017      0.000      0.000
REMARK INTER + INTRA:           2.358
REMARK INTER:                   2.371
REMARK INTRA:                  -0.013
REMARK UNBOUND:                -0.013
REMARK SMILES O=c1c(O)c(-c2ccc(O)cc2)oc2cc(O)cc(O)c12
REMARK SMILES IDX 5 1 3 2 2 3 1 4 21 5 19 6 18 7 16 8 15 9 14 10 13 11 6 12
REMARK SMILES IDX 7 13 8 14 9 15 12 16 11 17 10 18 4 20 20 22 17 24
REMARK H PARENT 10 19 4 21 20 23 17 25
REMARK Flexibility Score: inf
ROOT
ATOM      1  C   UNL     1      -0.270  59.603  -5.510  1.00  0.00     0.180 A 
ATOM      2  C   UNL     1      -1.456  59.484  -6.259  1.00  0.00     0.208 A 
ATOM      3  C   UNL     1      -2.670  59.285  -5.582  1.00  0.00     0.238 A 
ATOM      4  O   UNL     1      -3.740  59.187  -6.241  1.00  0.00    -0.285 OA
ATOM      5  C   UNL     1      -2.675  59.189  -4.175  1.00  0.00     0.111 A 
ATOM      6  C   UNL     1      -3.853  58.986  -3.417  1.00  0.00     0.134 A 
ATOM      7  C   UNL     1      -3.773  58.891  -2.020  1.00  0.00     0.093 A 
ATOM      8  C   UNL     1      -2.540  58.997  -1.367  1.00  0.00     0.123 A 
ATOM      9  C   UNL     1      -1.376  59.198  -2.110  1.00  0.00     0.094 A 
ATOM     10  C   UNL     1      -1.434  59.296  -3.504  1.00  0.00     0.146 A 
ATOM     11  O   UNL     1      -0.310  59.493  -4.185  1.00  0.00    -0.452 OA
ENDROOT
BRANCH   1  12
ATOM     12  C   UNL     1       1.046  59.834  -6.150  1.00  0.00     0.021 A 
ATOM     13  C   UNL     1       1.865  60.913  -5.772  1.00  0.00     0.016 A 
ATOM     14  C   UNL     1       3.114  61.095  -6.375  1.00  0.00     0.047 A 
ATOM     15  C   UNL     1       3.564  60.197  -7.351  1.00  0.00     0.115 A 
ATOM     16  C   UNL     1       1.513  58.926  -7.115  1.00  0.00     0.016 A 
ATOM     17  C   UNL     1       2.762  59.112  -7.716  1.00  0.00     0.047 A 
BRANCH  15  18
ATOM     18  O   UNL     1       4.805  60.370  -7.958  1.00  0.00    -0.508 OA
ATOM     19  H   UNL     1       5.470  61.056  -7.619  1.00  0.00     0.293 HD
ENDBRANCH  15  18
ENDBRANCH   1  12
BRANCH   2  20
ATOM     20  O   UNL     1      -1.417  59.533  -7.655  1.00  0.00    -0.502 OA
ATOM     21  H   UNL     1      -1.965  60.196  -8.190  1.00  0.00     0.293 HD
ENDBRANCH   2  20
BRANCH   6  22
ATOM     22  O   UNL     1      -5.097  58.875  -4.039  1.00  0.00    -0.507 OA
ATOM     23  H   UNL     1      -5.199  58.462  -4.959  1.00  0.00     0.293 HD
ENDBRANCH   6  22
BRANCH   8  24
ATOM     24  O   UNL     1      -2.461  58.903   0.021  1.00  0.00    -0.508 OA
ATOM     25  H   UNL     1      -2.282  58.019   0.482  1.00  0.00     0.293 HD
ENDBRANCH   8  24
TORSDOF 5
ENDMDL
MODEL 2
REMARK VINA RESULT:     3.019      2.668      6.131
REMARK INTER + INTRA:           3.536
REMARK INTER:                   3.758
REMARK INTRA:                  -0.221
REMARK UNBOUND:                -0.013
REMARK SMILES O=c1c(O)c(-c2ccc(O)cc2)oc2cc(O)cc(O)c12
REMARK SMILES IDX 5 1 3 2 2 3 1 4 21 5 19 6 18 7 16 8 15 9 14 10 13 11 6 12
REMARK SMILES IDX 7 13 8 14 9 15 12 16 11 17 10 18 4 20 20 22 17 24
REMARK H PARENT 10 19 4 21 20 23 17 25
REMARK Flexibility Score: inf
ROOT
ATOM      1  C   UNL     1       0.578  60.373  -3.257  1.00  0.00     0.180 A 
ATOM      2  C   UNL     1      -0.725  60.196  -3.761  1.00  0.00     0.208 A 
ATOM      3  C   UNL     1      -0.886  59.766  -5.089  1.00  0.00     0.238 A 
ATOM      4  O   UNL     1      -2.047  59.593  -5.548  1.00  0.00    -0.285 OA
ATOM      5  C   UNL     1       0.251  59.541  -5.891  1.00  0.00     0.111 A 
ATOM      6  C   UNL     1       0.176  59.111  -7.237  1.00  0.00     0.134 A 
ATOM      7  C   UNL     1       1.355  58.919  -7.973  1.00  0.00     0.093 A 
ATOM      8  C   UNL     1       2.605  59.149  -7.389  1.00  0.00     0.123 A 
ATOM      9  C   UNL     1       2.685  59.571  -6.062  1.00  0.00     0.094 A 
ATOM     10  C   UNL     1       1.522  59.768  -5.310  1.00  0.00     0.146 A 
ATOM     11  O   UNL     1       1.627  60.166  -4.047  1.00  0.00    -0.452 OA
ENDROOT
BRANCH   1  12
ATOM     12  C   UNL     1       0.830  60.805  -1.863  1.00  0.00     0.021 A 
ATOM     13  C   UNL     1       0.596  59.944  -0.775  1.00  0.00     0.016 A 
ATOM     14  C   UNL     1       0.865  60.367   0.530  1.00  0.00     0.047 A 
ATOM     15  C   UNL     1       1.381  61.648   0.764  1.00  0.00     0.115 A 
ATOM     16  C   UNL     1       1.367  62.081  -1.621  1.00  0.00     0.016 A 
ATOM     17  C   UNL     1       1.634  62.501  -0.314  1.00  0.00     0.047 A 
BRANCH  15  18
ATOM     18  O   UNL     1       1.651  62.080   2.061  1.00  0.00    -0.508 OA
ATOM     19  H   UNL     1       1.014  61.889   2.826  1.00  0.00     0.293 HD
ENDBRANCH  15  18
ENDBRANCH   1  12
BRANCH   2  20
ATOM     20  O   UNL     1      -1.836  60.473  -2.961  1.00  0.00    -0.502 OA
ATOM     21  H   UNL     1      -2.010  61.394  -2.575  1.00  0.00     0.293 HD
ENDBRANCH   2  20
BRANCH   6  22
ATOM     22  O   UNL     1      -1.056  58.876  -7.849  1.00  0.00    -0.507 OA
ATOM     23  H   UNL     1      -1.189  58.115  -8.504  1.00  0.00     0.293 HD
ENDBRANCH   6  22
BRANCH   8  24
ATOM     24  O   UNL     1       3.776  58.958  -8.120  1.00  0.00    -0.508 OA
ATOM     25  H   UNL     1       4.410  58.195  -7.914  1.00  0.00     0.293 HD
ENDBRANCH   8  24
TORSDOF 5
ENDMDL
MODEL 3
REMARK VINA RESULT:     3.251      2.679      5.449
REMARK INTER + INTRA:           3.808
REMARK INTER:                   4.017
REMARK INTRA:                  -0.208
REMARK UNBOUND:                -0.013
REMARK SMILES O=c1c(O)c(-c2ccc(O)cc2)oc2cc(O)cc(O)c12
REMARK SMILES IDX 5 1 3 2 2 3 1 4 21 5 19 6 18 7 16 8 15 9 14 10 13 11 6 12
REMARK SMILES IDX 7 13 8 14 9 15 12 16 11 17 10 18 4 20 20 22 17 24
REMARK H PARENT 10 19 4 21 20 23 17 25
REMARK Flexibility Score: inf
ROOT
ATOM      1  C   UNL     1       0.075  60.376  -3.297  1.00  0.00     0.180 A 
ATOM      2  C   UNL     1       0.974  60.008  -4.316  1.00  0.00     0.208 A 
ATOM      3  C   UNL     1       0.463  59.631  -5.569  1.00  0.00     0.238 A 
ATOM      4  O   UNL     1       1.258  59.310  -6.493  1.00  0.00    -0.285 OA
ATOM      5  C   UNL     1      -0.932  59.609  -5.774  1.00  0.00     0.111 A 
ATOM      6  C   UNL     1      -1.528  59.238  -7.003  1.00  0.00     0.134 A 
ATOM      7  C   UNL     1      -2.925  59.231  -7.125  1.00  0.00     0.093 A 
ATOM      8  C   UNL     1      -3.737  59.589  -6.042  1.00  0.00     0.123 A 
ATOM      9  C   UNL     1      -3.154  59.956  -4.829  1.00  0.00     0.094 A 
ATOM     10  C   UNL     1      -1.763  59.970  -4.687  1.00  0.00     0.146 A 
ATOM     11  O   UNL     1      -1.235  60.329  -3.522  1.00  0.00    -0.452 OA
ENDROOT
BRANCH   1  12
ATOM     12  C   UNL     1       0.537  60.804  -1.957  1.00  0.00     0.021 A 
ATOM     13  C   UNL     1       0.420  59.961  -0.837  1.00  0.00     0.016 A 
ATOM     14  C   UNL     1       0.886  60.379   0.414  1.00  0.00     0.047 A 
ATOM     15  C   UNL     1       1.484  61.637   0.558  1.00  0.00     0.115 A 
ATOM     16  C   UNL     1       1.157  62.056  -1.807  1.00  0.00     0.016 A 
ATOM     17  C   UNL     1       1.620  62.472  -0.555  1.00  0.00     0.047 A 
BRANCH  15  18
ATOM     18  O   UNL     1       1.950  62.065   1.799  1.00  0.00    -0.508 OA
ATOM     19  H   UNL     1       1.479  61.806   2.659  1.00  0.00     0.293 HD
ENDBRANCH  15  18
ENDBRANCH   1  12
BRANCH   2  20
ATOM     20  O   UNL     1       2.349  59.991  -4.072  1.00  0.00    -0.502 OA
ATOM     21  H   UNL     1       2.971  59.327  -4.518  1.00  0.00     0.293 HD
ENDBRANCH   2  20
BRANCH   6  22
ATOM     22  O   UNL     1      -0.746  58.875  -8.100  1.00  0.00    -0.507 OA
ATOM     23  H   UNL     1       0.261  58.995  -8.101  1.00  0.00     0.293 HD
ENDBRANCH   6  22
BRANCH   8  24
ATOM     24  O   UNL     1      -5.125  59.582  -6.162  1.00  0.00    -0.508 OA
ATOM     25  H   UNL     1      -5.727  59.564  -5.348  1.00  0.00     0.293 HD
ENDBRANCH   8  24
TORSDOF 5
ENDMDL
MODEL 4
REMARK VINA RESULT:     4.620     21.220     23.158
REMARK INTER + INTRA:           5.418
REMARK INTER:                   5.541
REMARK INTRA:                  -0.124
REMARK UNBOUND:                -0.013
REMARK SMILES O=c1c(O)c(-c2ccc(O)cc2)oc2cc(O)cc(O)c12
REMARK SMILES IDX 5 1 3 2 2 3 1 4 21 5 19 6 18 7 16 8 15 9 14 10 13 11 6 12
REMARK SMILES IDX 7 13 8 14 9 15 12 16 11 17 10 18 4 20 20 22 17 24
REMARK H PARENT 10 19 4 21 20 23 17 25
REMARK Flexibility Score: inf
ROOT
ATOM      1  C   UNL     1       4.444  77.764   6.876  1.00  0.00     0.180 A 
ATOM      2  C   UNL     1       3.634  77.374   5.793  1.00  0.00     0.208 A 
ATOM      3  C   UNL     1       4.221  77.224   4.526  1.00  0.00     0.238 A 
ATOM      4  O   UNL     1       3.507  76.865   3.551  1.00  0.00    -0.285 OA
ATOM      5  C   UNL     1       5.596  77.486   4.359  1.00  0.00     0.111 A 
ATOM      6  C   UNL     1       6.262  77.362   3.117  1.00  0.00     0.134 A 
ATOM      7  C   UNL     1       7.633  77.650   3.031  1.00  0.00     0.093 A 
ATOM      8  C   UNL     1       8.348  78.058   4.163  1.00  0.00     0.123 A 
ATOM      9  C   UNL     1       7.695  78.179   5.390  1.00  0.00     0.094 A 
ATOM     10  C   UNL     1       6.330  77.897   5.497  1.00  0.00     0.146 A 
ATOM     11  O   UNL     1       5.736  78.016   6.679  1.00  0.00    -0.452 OA
ENDROOT
BRANCH   1  12
ATOM     12  C   UNL     1       3.905  77.924   8.246  1.00  0.00     0.021 A 
ATOM     13  C   UNL     1       4.347  77.114   9.307  1.00  0.00     0.016 A 
ATOM     14  C   UNL     1       3.839  77.301  10.597  1.00  0.00     0.047 A 
ATOM     15  C   UNL     1       2.894  78.305  10.844  1.00  0.00     0.115 A 
ATOM     16  C   UNL     1       2.972  78.942   8.506  1.00  0.00     0.016 A 
ATOM     17  C   UNL     1       2.465  79.125   9.797  1.00  0.00     0.047 A 
BRANCH  15  18
ATOM     18  O   UNL     1       2.380  78.497  12.124  1.00  0.00    -0.508 OA
ATOM     19  H   UNL     1       2.001  79.392  12.414  1.00  0.00     0.293 HD
ENDBRANCH  15  18
ENDBRANCH   1  12
BRANCH   2  20
ATOM     20  O   UNL     1       2.264  77.169   5.974  1.00  0.00    -0.502 OA
ATOM     21  H   UNL     1       1.708  77.739   6.601  1.00  0.00     0.293 HD
ENDBRANCH   2  20
BRANCH   6  22
ATOM     22  O   UNL     1       5.577  76.959   1.970  1.00  0.00    -0.507 OA
ATOM     23  H   UNL     1       5.847  77.279   1.047  1.00  0.00     0.293 HD
ENDBRANCH   6  22
BRANCH   8  24
ATOM     24  O   UNL     1       9.709  78.344   4.078  1.00  0.00    -0.508 OA
ATOM     25  H   UNL     1      10.167  78.942   4.755  1.00  0.00     0.293 HD
ENDBRANCH   8  24
TORSDOF 5
ENDMDL
