MODEL 1
REMARK VINA RESULT:    -6.130      0.000      0.000
REMARK INTER + INTRA:          -5.911
REMARK INTER:                  -6.667
REMARK INTRA:                   0.756
REMARK UNBOUND:                 0.756
REMARK SMILES C[C@H]1[C@H](C)CC[C@]2(C(=O)[O-])CC[C@@]3(C)C(=CC[C@H]4[C@@]5(C)CC[C@@H](O)C(C)(C)[C@@H]5CC[C@@]43C)[C@@H]12
REMARK SMILES IDX 7 1 6 2 11 3 33 4 5 5 12 6 15 7 2 8 3 9 13 10 16 11 1 12
REMARK SMILES IDX 4 13 14 14 31 15 17 16 18 17 30 18 32 19 19 20 29 21 28 22
REMARK SMILES IDX 21 23 20 24 25 25 22 26 23 27 26 28 27 29 8 30 9 31 10 32
REMARK SMILES IDX 24 33
REMARK H PARENT 24 34
REMARK Flexibility Score: inf
ROOT
ATOM      1  C   UNL     1      35.795 -37.326   2.645  1.00  0.00     0.017 C 
ATOM      2  C   UNL     1      34.273 -36.997   2.722  1.00  0.00     0.014 C 
ATOM      3  C   UNL     1      36.537 -36.040   2.136  1.00  0.00     0.014 C 
ATOM      4  C   UNL     1      35.983 -38.526   1.648  1.00  0.00     0.030 C 
ATOM      5  C   UNL     1      33.413 -38.200   3.129  1.00  0.00     0.004 C 
ATOM      6  C   UNL     1      37.516 -36.247   0.961  1.00  0.00     0.013 C 
ATOM      7  C   UNL     1      37.463 -38.775   1.273  1.00  0.00    -0.063 C 
ATOM      8  C   UNL     1      35.094 -39.780   1.997  1.00  0.00    -0.003 C 
ATOM      9  C   UNL     1      33.594 -39.402   2.181  1.00  0.00    -0.011 C 
ATOM     10  C   UNL     1      38.378 -37.550   1.035  1.00  0.00    -0.006 C 
ATOM     11  C   UNL     1      37.881 -40.014   0.877  1.00  0.00    -0.027 C 
ATOM     12  C   UNL     1      35.581 -40.612   3.203  1.00  0.00     0.008 C 
ATOM     13  C   UNL     1      32.881 -39.174   0.834  1.00  0.00     0.008 C 
ATOM     14  C   UNL     1      39.321 -37.416   2.281  1.00  0.00     0.017 C 
ATOM     15  C   UNL     1      39.184 -37.776  -0.345  1.00  0.00    -0.020 C 
ATOM     16  C   UNL     1      39.095 -40.301   0.016  1.00  0.00     0.032 C 
ATOM     17  C   UNL     1      40.036 -39.089  -0.190  1.00  0.00     0.006 C 
ATOM     18  C   UNL     1      40.169 -36.610  -0.667  1.00  0.00     0.008 C 
ATOM     19  C   UNL     1      38.146 -37.902  -1.527  1.00  0.00     0.012 C 
ATOM     20  C   UNL     1      41.293 -39.272  -1.189  1.00  0.00    -0.025 C 
ATOM     21  C   UNL     1      40.964 -36.790  -1.976  1.00  0.00     0.005 C 
ATOM     22  C   UNL     1      41.212 -38.267  -2.399  1.00  0.00     0.003 C 
ATOM     23  C   UNL     1      41.358 -40.719  -1.775  1.00  0.00     0.010 C 
ATOM     24  C   UNL     1      42.589 -39.032  -0.349  1.00  0.00     0.012 C 
ATOM     25  C   UNL     1      42.294 -38.443  -3.547  1.00  0.00    -0.006 C 
ATOM     26  C   UNL     1      42.450 -40.923  -2.837  1.00  0.00     0.033 C 
ATOM     27  C   UNL     1      42.307 -39.937  -4.014  1.00  0.00     0.120 C 
ATOM     28  C   UNL     1      41.887 -37.563  -4.764  1.00  0.00     0.014 C 
ATOM     29  C   UNL     1      43.740 -38.009  -3.148  1.00  0.00     0.014 C 
ENDROOT
BRANCH   1  30
ATOM     30  C   UNL     1      36.307 -37.641   4.050  1.00  0.00     0.048 C 
ATOM     31  O   UNL     1      37.294 -38.401   4.232  1.00  0.00    -0.550 OA
ATOM     32  O   UNL     1      35.748 -37.007   5.155  1.00  0.00    -0.550 OA
ENDBRANCH   1  30
BRANCH  27  33
ATOM     33  O   UNL     1      41.128 -40.239  -4.723  1.00  0.00    -0.393 OA
ATOM     34  H   UNL     1      40.881 -39.427  -5.238  1.00  0.00     0.210 HD
ENDBRANCH  27  33
TORSDOF 2
ENDMDL
MODEL 2
REMARK VINA RESULT:    -6.044      1.215      8.063
REMARK INTER + INTRA:          -5.818
REMARK INTER:                  -6.630
REMARK INTRA:                   0.811
REMARK UNBOUND:                 0.756
REMARK SMILES C[C@H]1[C@H](C)CC[C@]2(C(=O)[O-])CC[C@@]3(C)C(=CC[C@H]4[C@@]5(C)CC[C@@H](O)C(C)(C)[C@@H]5CC[C@@]43C)[C@@H]12
REMARK SMILES IDX 7 1 6 2 11 3 33 4 5 5 12 6 15 7 2 8 3 9 13 10 16 11 1 12
REMARK SMILES IDX 4 13 14 14 31 15 17 16 18 17 30 18 32 19 19 20 29 21 28 22
REMARK SMILES IDX 21 23 20 24 25 25 22 26 23 27 26 28 27 29 8 30 9 31 10 32
REMARK SMILES IDX 24 33
REMARK H PARENT 24 34
REMARK Flexibility Score: inf
ROOT
ATOM      1  C   UNL     1      41.717 -37.213  -2.307  1.00  0.00     0.017 C 
ATOM      2  C   UNL     1      43.214 -36.818  -2.497  1.00  0.00     0.014 C 
ATOM      3  C   UNL     1      40.898 -35.892  -2.094  1.00  0.00     0.014 C 
ATOM      4  C   UNL     1      41.619 -38.155  -1.053  1.00  0.00     0.030 C 
ATOM      5  C   UNL     1      44.147 -38.026  -2.633  1.00  0.00     0.004 C 
ATOM      6  C   UNL     1      39.946 -35.878  -0.879  1.00  0.00     0.013 C 
ATOM      7  C   UNL     1      40.163 -38.401  -0.593  1.00  0.00    -0.063 C 
ATOM      8  C   UNL     1      42.586 -39.398  -1.122  1.00  0.00    -0.003 C 
ATOM      9  C   UNL     1      44.055 -38.981  -1.427  1.00  0.00    -0.011 C 
ATOM     10  C   UNL     1      39.171 -37.213  -0.625  1.00  0.00    -0.006 C 
ATOM     11  C   UNL     1      39.832 -39.536   0.091  1.00  0.00    -0.027 C 
ATOM     12  C   UNL     1      42.143 -40.519  -2.087  1.00  0.00     0.008 C 
ATOM     13  C   UNL     1      44.765 -38.400  -0.188  1.00  0.00     0.008 C 
ATOM     14  C   UNL     1      38.209 -37.433  -1.844  1.00  0.00     0.017 C 
ATOM     15  C   UNL     1      38.396 -37.159   0.789  1.00  0.00    -0.020 C 
ATOM     16  C   UNL     1      38.648 -39.688   1.025  1.00  0.00     0.032 C 
ATOM     17  C   UNL     1      37.631 -38.522   0.966  1.00  0.00     0.006 C 
ATOM     18  C   UNL     1      37.339 -36.013   0.854  1.00  0.00     0.008 C 
ATOM     19  C   UNL     1      39.451 -36.940   1.942  1.00  0.00     0.012 C 
ATOM     20  C   UNL     1      36.398 -38.543   2.012  1.00  0.00    -0.025 C 
ATOM     21  C   UNL     1      36.570 -35.930   2.189  1.00  0.00     0.005 C 
ATOM     22  C   UNL     1      36.425 -37.279   2.951  1.00  0.00     0.003 C 
ATOM     23  C   UNL     1      36.434 -39.814   2.920  1.00  0.00     0.010 C 
ATOM     24  C   UNL     1      35.081 -38.587   1.171  1.00  0.00     0.012 C 
ATOM     25  C   UNL     1      35.368 -37.248   4.135  1.00  0.00    -0.006 C 
ATOM     26  C   UNL     1      35.369 -39.830   4.027  1.00  0.00     0.033 C 
ATOM     27  C   UNL     1      35.458 -38.589   4.937  1.00  0.00     0.120 C 
ATOM     28  C   UNL     1      35.727 -36.084   5.102  1.00  0.00     0.014 C 
ATOM     29  C   UNL     1      33.892 -37.009   3.682  1.00  0.00     0.014 C 
ENDROOT
BRANCH   1  30
ATOM     30  C   UNL     1      41.214 -37.880  -3.586  1.00  0.00     0.048 C 
ATOM     31  O   UNL     1      40.137 -38.533  -3.604  1.00  0.00    -0.550 OA
ATOM     32  O   UNL     1      41.892 -37.689  -4.786  1.00  0.00    -0.550 OA
ENDBRANCH   1  30
BRANCH  27  33
ATOM     33  O   UNL     1      36.661 -38.642   5.668  1.00  0.00    -0.393 OA
ATOM     34  H   UNL     1      36.955 -39.590   5.679  1.00  0.00     0.210 HD
ENDBRANCH  27  33
TORSDOF 2
ENDMDL
MODEL 3
REMARK VINA RESULT:    -5.945      4.021      8.511
REMARK INTER + INTRA:          -5.711
REMARK INTER:                  -6.471
REMARK INTRA:                   0.760
REMARK UNBOUND:                 0.756
REMARK SMILES C[C@H]1[C@H](C)CC[C@]2(C(=O)[O-])CC[C@@]3(C)C(=CC[C@H]4[C@@]5(C)CC[C@@H](O)C(C)(C)[C@@H]5CC[C@@]43C)[C@@H]12
REMARK SMILES IDX 7 1 6 2 11 3 33 4 5 5 12 6 15 7 2 8 3 9 13 10 16 11 1 12
REMARK SMILES IDX 4 13 14 14 31 15 17 16 18 17 30 18 32 19 19 20 29 21 28 22
REMARK SMILES IDX 21 23 20 24 25 25 22 26 23 27 26 28 27 29 8 30 9 31 10 32
REMARK SMILES IDX 24 33
REMARK H PARENT 24 34
REMARK Flexibility Score: inf
ROOT
ATOM      1  C   UNL     1      35.618 -42.531  -2.750  1.00  0.00     0.017 C 
ATOM      2  C   UNL     1      35.447 -43.956  -3.361  1.00  0.00     0.014 C 
ATOM      3  C   UNL     1      36.848 -42.574  -1.776  1.00  0.00     0.014 C 
ATOM      4  C   UNL     1      34.295 -42.169  -1.984  1.00  0.00     0.030 C 
ATOM      5  C   UNL     1      34.222 -44.080  -4.275  1.00  0.00     0.004 C 
ATOM      6  C   UNL     1      36.612 -41.993  -0.366  1.00  0.00     0.013 C 
ATOM      7  C   UNL     1      34.431 -40.902  -1.107  1.00  0.00    -0.063 C 
ATOM      8  C   UNL     1      32.997 -42.314  -2.867  1.00  0.00    -0.003 C 
ATOM      9  C   UNL     1      32.911 -43.708  -3.557  1.00  0.00    -0.011 C 
ATOM     10  C   UNL     1      35.746 -40.690  -0.320  1.00  0.00    -0.006 C 
ATOM     11  C   UNL     1      33.334 -40.148  -0.800  1.00  0.00    -0.027 C 
ATOM     12  C   UNL     1      32.785 -41.195  -3.908  1.00  0.00     0.008 C 
ATOM     13  C   UNL     1      32.465 -44.815  -2.581  1.00  0.00     0.008 C 
ATOM     14  C   UNL     1      36.558 -39.565  -1.051  1.00  0.00     0.017 C 
ATOM     15  C   UNL     1      35.373 -40.311   1.203  1.00  0.00    -0.020 C 
ATOM     16  C   UNL     1      33.199 -39.238   0.405  1.00  0.00     0.032 C 
ATOM     17  C   UNL     1      34.521 -38.989   1.171  1.00  0.00     0.006 C 
ATOM     18  C   UNL     1      36.632 -40.038   2.084  1.00  0.00     0.008 C 
ATOM     19  C   UNL     1      34.558 -41.502   1.841  1.00  0.00     0.012 C 
ATOM     20  C   UNL     1      34.450 -38.125   2.536  1.00  0.00    -0.025 C 
ATOM     21  C   UNL     1      36.318 -39.666   3.548  1.00  0.00     0.005 C 
ATOM     22  C   UNL     1      34.946 -38.968   3.770  1.00  0.00     0.003 C 
ATOM     23  C   UNL     1      32.995 -37.645   2.839  1.00  0.00     0.010 C 
ATOM     24  C   UNL     1      35.343 -36.860   2.328  1.00  0.00     0.012 C 
ATOM     25  C   UNL     1      34.778 -38.303   5.202  1.00  0.00    -0.006 C 
ATOM     26  C   UNL     1      32.832 -36.935   4.192  1.00  0.00     0.033 C 
ATOM     27  C   UNL     1      33.301 -37.813   5.369  1.00  0.00     0.120 C 
ATOM     28  C   UNL     1      35.055 -39.376   6.293  1.00  0.00     0.014 C 
ATOM     29  C   UNL     1      35.756 -37.118   5.485  1.00  0.00     0.014 C 
ENDROOT
BRANCH   1  30
ATOM     30  C   UNL     1      35.939 -41.545  -3.872  1.00  0.00     0.048 C 
ATOM     31  O   UNL     1      35.695 -40.315  -3.753  1.00  0.00    -0.550 OA
ATOM     32  O   UNL     1      36.605 -41.979  -5.014  1.00  0.00    -0.550 OA
ENDBRANCH   1  30
BRANCH  27  33
ATOM     33  O   UNL     1      32.431 -38.914   5.494  1.00  0.00    -0.393 OA
ATOM     34  H   UNL     1      31.682 -38.768   4.859  1.00  0.00     0.210 HD
ENDBRANCH  27  33
TORSDOF 2
ENDMDL
MODEL 4
REMARK VINA RESULT:    -5.856      4.612      6.398
REMARK INTER + INTRA:          -5.614
REMARK INTER:                  -6.368
REMARK INTRA:                   0.754
REMARK UNBOUND:                 0.756
REMARK SMILES C[C@H]1[C@H](C)CC[C@]2(C(=O)[O-])CC[C@@]3(C)C(=CC[C@H]4[C@@]5(C)CC[C@@H](O)C(C)(C)[C@@H]5CC[C@@]43C)[C@@H]12
REMARK SMILES IDX 7 1 6 2 11 3 33 4 5 5 12 6 15 7 2 8 3 9 13 10 16 11 1 12
REMARK SMILES IDX 4 13 14 14 31 15 17 16 18 17 30 18 32 19 19 20 29 21 28 22
REMARK SMILES IDX 21 23 20 24 25 25 22 26 23 27 26 28 27 29 8 30 9 31 10 32
REMARK SMILES IDX 24 33
REMARK H PARENT 24 34
REMARK Flexibility Score: inf
ROOT
ATOM      1  C   UNL     1      36.693 -39.586   4.563  1.00  0.00     0.017 C 
ATOM      2  C   UNL     1      37.328 -38.356   5.281  1.00  0.00     0.014 C 
ATOM      3  C   UNL     1      37.799 -40.232   3.656  1.00  0.00     0.014 C 
ATOM      4  C   UNL     1      35.479 -39.074   3.706  1.00  0.00     0.030 C 
ATOM      5  C   UNL     1      36.329 -37.574   6.142  1.00  0.00     0.004 C 
ATOM      6  C   UNL     1      37.394 -40.508   2.192  1.00  0.00     0.013 C 
ATOM      7  C   UNL     1      34.931 -40.144   2.734  1.00  0.00    -0.063 C 
ATOM      8  C   UNL     1      34.436 -38.231   4.534  1.00  0.00    -0.003 C 
ATOM      9  C   UNL     1      35.114 -37.079   5.333  1.00  0.00    -0.011 C 
ATOM     10  C   UNL     1      35.941 -41.055   1.996  1.00  0.00    -0.006 C 
ATOM     11  C   UNL     1      33.632 -40.101   2.312  1.00  0.00    -0.027 C 
ATOM     12  C   UNL     1      33.522 -39.054   5.466  1.00  0.00     0.008 C 
ATOM     13  C   UNL     1      35.482 -35.883   4.433  1.00  0.00     0.008 C 
ATOM     14  C   UNL     1      35.880 -42.470   2.669  1.00  0.00     0.017 C 
ATOM     15  C   UNL     1      35.553 -41.084   0.430  1.00  0.00    -0.020 C 
ATOM     16  C   UNL     1      33.100 -40.711   1.030  1.00  0.00     0.032 C 
ATOM     17  C   UNL     1      34.093 -41.656   0.311  1.00  0.00     0.006 C 
ATOM     18  C   UNL     1      36.491 -42.006  -0.408  1.00  0.00     0.008 C 
ATOM     19  C   UNL     1      35.642 -39.617  -0.145  1.00  0.00     0.012 C 
ATOM     20  C   UNL     1      33.654 -42.260  -1.123  1.00  0.00    -0.025 C 
ATOM     21  C   UNL     1      36.150 -42.066  -1.912  1.00  0.00     0.005 C 
ATOM     22  C   UNL     1      34.654 -41.819  -2.258  1.00  0.00     0.003 C 
ATOM     23  C   UNL     1      32.224 -41.785  -1.535  1.00  0.00     0.010 C 
ATOM     24  C   UNL     1      33.623 -43.816  -0.979  1.00  0.00     0.012 C 
ATOM     25  C   UNL     1      34.257 -42.203  -3.746  1.00  0.00    -0.006 C 
ATOM     26  C   UNL     1      31.799 -42.211  -2.949  1.00  0.00     0.033 C 
ATOM     27  C   UNL     1      32.792 -41.728  -4.025  1.00  0.00     0.120 C 
ATOM     28  C   UNL     1      35.201 -41.452  -4.730  1.00  0.00     0.014 C 
ATOM     29  C   UNL     1      34.386 -43.723  -4.080  1.00  0.00     0.014 C 
ENDROOT
BRANCH   1  30
ATOM     30  C   UNL     1      36.281 -40.616   5.613  1.00  0.00     0.048 C 
ATOM     31  O   UNL     1      35.330 -41.416   5.407  1.00  0.00    -0.550 OA
ATOM     32  O   UNL     1      37.021 -40.755   6.782  1.00  0.00    -0.550 OA
ENDBRANCH   1  30
BRANCH  27  33
ATOM     33  O   UNL     1      32.739 -40.323  -4.099  1.00  0.00    -0.393 OA
ATOM     34  H   UNL     1      32.716 -39.981  -3.168  1.00  0.00     0.210 HD
ENDBRANCH  27  33
TORSDOF 2
ENDMDL
MODEL 5
REMARK VINA RESULT:    -5.851      4.789      6.261
REMARK INTER + INTRA:          -5.608
REMARK INTER:                  -6.373
REMARK INTRA:                   0.765
REMARK UNBOUND:                 0.756
REMARK SMILES C[C@H]1[C@H](C)CC[C@]2(C(=O)[O-])CC[C@@]3(C)C(=CC[C@H]4[C@@]5(C)CC[C@@H](O)C(C)(C)[C@@H]5CC[C@@]43C)[C@@H]12
REMARK SMILES IDX 7 1 6 2 11 3 33 4 5 5 12 6 15 7 2 8 3 9 13 10 16 11 1 12
REMARK SMILES IDX 4 13 14 14 31 15 17 16 18 17 30 18 32 19 19 20 29 21 28 22
REMARK SMILES IDX 21 23 20 24 25 25 22 26 23 27 26 28 27 29 8 30 9 31 10 32
REMARK SMILES IDX 24 33
REMARK H PARENT 24 34
REMARK Flexibility Score: inf
ROOT
ATOM      1  C   UNL     1      35.219 -37.470   4.507  1.00  0.00     0.017 C 
ATOM      2  C   UNL     1      34.713 -36.204   5.265  1.00  0.00     0.014 C 
ATOM      3  C   UNL     1      35.930 -36.987   3.194  1.00  0.00     0.014 C 
ATOM      4  C   UNL     1      33.973 -38.371   4.183  1.00  0.00     0.030 C 
ATOM      5  C   UNL     1      33.920 -36.536   6.535  1.00  0.00     0.004 C 
ATOM      6  C   UNL     1      35.488 -37.685   1.891  1.00  0.00     0.013 C 
ATOM      7  C   UNL     1      34.297 -39.520   3.199  1.00  0.00    -0.063 C 
ATOM      8  C   UNL     1      33.098 -38.714   5.448  1.00  0.00    -0.003 C 
ATOM      9  C   UNL     1      32.704 -37.439   6.251  1.00  0.00    -0.011 C 
ATOM     10  C   UNL     1      35.245 -39.226   2.011  1.00  0.00    -0.006 C 
ATOM     11  C   UNL     1      33.553 -40.666   3.198  1.00  0.00    -0.027 C 
ATOM     12  C   UNL     1      33.704 -39.770   6.397  1.00  0.00     0.008 C 
ATOM     13  C   UNL     1      31.561 -36.655   5.576  1.00  0.00     0.008 C 
ATOM     14  C   UNL     1      36.628 -39.892   2.335  1.00  0.00     0.017 C 
ATOM     15  C   UNL     1      34.568 -39.801   0.664  1.00  0.00    -0.020 C 
ATOM     16  C   UNL     1      33.395 -41.613   2.026  1.00  0.00     0.032 C 
ATOM     17  C   UNL     1      34.370 -41.350   0.853  1.00  0.00     0.006 C 
ATOM     18  C   UNL     1      35.461 -39.590  -0.598  1.00  0.00     0.008 C 
ATOM     19  C   UNL     1      33.188 -39.071   0.435  1.00  0.00     0.012 C 
ATOM     20  C   UNL     1      34.196 -42.238  -0.487  1.00  0.00    -0.025 C 
ATOM     21  C   UNL     1      34.851 -40.131  -1.908  1.00  0.00     0.005 C 
ATOM     22  C   UNL     1      33.877 -41.331  -1.734  1.00  0.00     0.003 C 
ATOM     23  C   UNL     1      33.038 -43.277  -0.343  1.00  0.00     0.010 C 
ATOM     24  C   UNL     1      35.529 -43.026  -0.695  1.00  0.00     0.012 C 
ATOM     25  C   UNL     1      33.519 -42.080  -3.088  1.00  0.00    -0.006 C 
ATOM     26  C   UNL     1      32.728 -44.061  -1.628  1.00  0.00     0.033 C 
ATOM     27  C   UNL     1      32.392 -43.130  -2.810  1.00  0.00     0.120 C 
ATOM     28  C   UNL     1      32.969 -41.043  -4.109  1.00  0.00     0.014 C 
ATOM     29  C   UNL     1      34.730 -42.786  -3.778  1.00  0.00     0.014 C 
ENDROOT
BRANCH   1  30
ATOM     30  C   UNL     1      36.256 -38.186   5.371  1.00  0.00     0.048 C 
ATOM     31  O   UNL     1      36.482 -39.417   5.237  1.00  0.00    -0.550 OA
ATOM     32  O   UNL     1      37.046 -37.461   6.257  1.00  0.00    -0.550 OA
ENDBRANCH   1  30
BRANCH  27  33
ATOM     33  O   UNL     1      31.171 -42.478  -2.546  1.00  0.00    -0.393 OA
ATOM     34  H   UNL     1      31.359 -41.504  -2.521  1.00  0.00     0.210 HD
ENDBRANCH  27  33
TORSDOF 2
ENDMDL
MODEL 6
REMARK VINA RESULT:    -5.849      3.976      7.913
REMARK INTER + INTRA:          -5.606
REMARK INTER:                  -6.368
REMARK INTRA:                   0.762
REMARK UNBOUND:                 0.756
REMARK SMILES C[C@H]1[C@H](C)CC[C@]2(C(=O)[O-])CC[C@@]3(C)C(=CC[C@H]4[C@@]5(C)CC[C@@H](O)C(C)(C)[C@@H]5CC[C@@]43C)[C@@H]12
REMARK SMILES IDX 7 1 6 2 11 3 33 4 5 5 12 6 15 7 2 8 3 9 13 10 16 11 1 12
REMARK SMILES IDX 4 13 14 14 31 15 17 16 18 17 30 18 32 19 19 20 29 21 28 22
REMARK SMILES IDX 21 23 20 24 25 25 22 26 23 27 26 28 27 29 8 30 9 31 10 32
REMARK SMILES IDX 24 33
REMARK H PARENT 24 34
REMARK Flexibility Score: inf
ROOT
ATOM      1  C   UNL     1      39.397 -38.673  -0.437  1.00  0.00     0.017 C 
ATOM      2  C   UNL     1      40.956 -38.665  -0.480  1.00  0.00     0.014 C 
ATOM      3  C   UNL     1      38.956 -39.650   0.709  1.00  0.00     0.014 C 
ATOM      4  C   UNL     1      38.876 -39.163  -1.837  1.00  0.00     0.030 C 
ATOM      5  C   UNL     1      41.527 -37.810  -1.617  1.00  0.00     0.004 C 
ATOM      6  C   UNL     1      37.894 -40.702   0.327  1.00  0.00     0.013 C 
ATOM      7  C   UNL     1      37.362 -39.476  -1.842  1.00  0.00    -0.063 C 
ATOM      8  C   UNL     1      39.460 -38.341  -3.048  1.00  0.00    -0.003 C 
ATOM      9  C   UNL     1      41.014 -38.252  -3.002  1.00  0.00    -0.011 C 
ATOM     10  C   UNL     1      36.752 -40.185  -0.609  1.00  0.00    -0.006 C 
ATOM     11  C   UNL     1      36.640 -39.402  -3.000  1.00  0.00    -0.027 C 
ATOM     12  C   UNL     1      38.855 -36.933  -3.237  1.00  0.00     0.008 C 
ATOM     13  C   UNL     1      41.687 -39.560  -3.464  1.00  0.00     0.008 C 
ATOM     14  C   UNL     1      35.937 -39.114   0.196  1.00  0.00     0.017 C 
ATOM     15  C   UNL     1      35.842 -41.413  -1.125  1.00  0.00    -0.020 C 
ATOM     16  C   UNL     1      35.348 -40.142  -3.283  1.00  0.00     0.032 C 
ATOM     17  C   UNL     1      34.712 -40.817  -2.043  1.00  0.00     0.006 C 
ATOM     18  C   UNL     1      35.146 -42.181   0.041  1.00  0.00     0.008 C 
ATOM     19  C   UNL     1      36.754 -42.425  -1.923  1.00  0.00     0.012 C 
ATOM     20  C   UNL     1      33.395 -41.726  -2.273  1.00  0.00    -0.025 C 
ATOM     21  C   UNL     1      34.260 -43.361  -0.411  1.00  0.00     0.005 C 
ATOM     22  C   UNL     1      33.647 -43.217  -1.833  1.00  0.00     0.003 C 
ATOM     23  C   UNL     1      32.956 -41.737  -3.772  1.00  0.00     0.010 C 
ATOM     24  C   UNL     1      32.241 -41.085  -1.437  1.00  0.00     0.012 C 
ATOM     25  C   UNL     1      32.493 -44.260  -2.153  1.00  0.00    -0.006 C 
ATOM     26  C   UNL     1      31.792 -42.690  -4.083  1.00  0.00     0.033 C 
ATOM     27  C   UNL     1      32.101 -44.141  -3.664  1.00  0.00     0.120 C 
ATOM     28  C   UNL     1      33.031 -45.699  -1.908  1.00  0.00     0.014 C 
ATOM     29  C   UNL     1      31.215 -44.105  -1.268  1.00  0.00     0.014 C 
ENDROOT
BRANCH   1  30
ATOM     30  C   UNL     1      38.902 -37.272  -0.081  1.00  0.00     0.048 C 
ATOM     31  O   UNL     1      37.755 -36.878  -0.418  1.00  0.00    -0.550 OA
ATOM     32  O   UNL     1      39.681 -36.439   0.716  1.00  0.00    -0.550 OA
ENDBRANCH   1  30
BRANCH  27  33
ATOM     33  O   UNL     1      33.134 -44.643  -4.479  1.00  0.00    -0.393 OA
ATOM     34  H   UNL     1      33.332 -43.949  -5.160  1.00  0.00     0.210 HD
ENDBRANCH  27  33
TORSDOF 2
ENDMDL
MODEL 7
REMARK VINA RESULT:    -5.845      3.572      5.190
REMARK INTER + INTRA:          -5.601
REMARK INTER:                  -6.361
REMARK INTRA:                   0.759
REMARK UNBOUND:                 0.756
REMARK SMILES C[C@H]1[C@H](C)CC[C@]2(C(=O)[O-])CC[C@@]3(C)C(=CC[C@H]4[C@@]5(C)CC[C@@H](O)C(C)(C)[C@@H]5CC[C@@]43C)[C@@H]12
REMARK SMILES IDX 7 1 6 2 11 3 33 4 5 5 12 6 15 7 2 8 3 9 13 10 16 11 1 12
REMARK SMILES IDX 4 13 14 14 31 15 17 16 18 17 30 18 32 19 19 20 29 21 28 22
REMARK SMILES IDX 21 23 20 24 25 25 22 26 23 27 26 28 27 29 8 30 9 31 10 32
REMARK SMILES IDX 24 33
REMARK H PARENT 24 34
REMARK Flexibility Score: inf
ROOT
ATOM      1  C   UNL     1      35.103 -42.322  -1.342  1.00  0.00     0.017 C 
ATOM      2  C   UNL     1      33.876 -42.351  -0.380  1.00  0.00     0.014 C 
ATOM      3  C   UNL     1      36.315 -42.977  -0.589  1.00  0.00     0.014 C 
ATOM      4  C   UNL     1      35.400 -40.823  -1.707  1.00  0.00     0.030 C 
ATOM      5  C   UNL     1      32.635 -41.662  -0.961  1.00  0.00     0.004 C 
ATOM      6  C   UNL     1      37.631 -42.170  -0.601  1.00  0.00     0.013 C 
ATOM      7  C   UNL     1      36.752 -40.633  -2.434  1.00  0.00    -0.063 C 
ATOM      8  C   UNL     1      34.147 -40.054  -2.276  1.00  0.00    -0.003 C 
ATOM      9  C   UNL     1      32.903 -40.195  -1.351  1.00  0.00    -0.011 C 
ATOM     10  C   UNL     1      37.967 -41.465  -1.956  1.00  0.00    -0.006 C 
ATOM     11  C   UNL     1      36.951 -39.568  -3.265  1.00  0.00    -0.027 C 
ATOM     12  C   UNL     1      33.767 -40.407  -3.730  1.00  0.00     0.008 C 
ATOM     13  C   UNL     1      32.994 -39.287  -0.109  1.00  0.00     0.008 C 
ATOM     14  C   UNL     1      38.215 -42.591  -3.019  1.00  0.00     0.017 C 
ATOM     15  C   UNL     1      39.227 -40.473  -1.782  1.00  0.00    -0.020 C 
ATOM     16  C   UNL     1      38.296 -38.966  -3.620  1.00  0.00     0.032 C 
ATOM     17  C   UNL     1      39.514 -39.816  -3.182  1.00  0.00     0.006 C 
ATOM     18  C   UNL     1      40.524 -41.217  -1.336  1.00  0.00     0.008 C 
ATOM     19  C   UNL     1      38.872 -39.382  -0.699  1.00  0.00     0.012 C 
ATOM     20  C   UNL     1      40.989 -39.196  -3.416  1.00  0.00    -0.025 C 
ATOM     21  C   UNL     1      41.756 -40.304  -1.163  1.00  0.00     0.005 C 
ATOM     22  C   UNL     1      41.759 -39.027  -2.052  1.00  0.00     0.003 C 
ATOM     23  C   UNL     1      40.923 -37.795  -4.104  1.00  0.00     0.010 C 
ATOM     24  C   UNL     1      41.752 -40.168  -4.372  1.00  0.00     0.012 C 
ATOM     25  C   UNL     1      43.157 -38.278  -2.111  1.00  0.00    -0.006 C 
ATOM     26  C   UNL     1      42.282 -37.088  -4.232  1.00  0.00     0.033 C 
ATOM     27  C   UNL     1      42.979 -36.919  -2.867  1.00  0.00     0.120 C 
ATOM     28  C   UNL     1      43.623 -37.963  -0.660  1.00  0.00     0.014 C 
ATOM     29  C   UNL     1      44.306 -39.100  -2.778  1.00  0.00     0.014 C 
ENDROOT
BRANCH   1  30
ATOM     30  C   UNL     1      34.792 -43.178  -2.570  1.00  0.00     0.048 C 
ATOM     31  O   UNL     1      35.322 -42.937  -3.686  1.00  0.00    -0.550 OA
ATOM     32  O   UNL     1      33.989 -44.307  -2.447  1.00  0.00    -0.550 OA
ENDBRANCH   1  30
BRANCH  27  33
ATOM     33  O   UNL     1      42.237 -36.016  -2.083  1.00  0.00    -0.393 OA
ATOM     34  H   UNL     1      41.406 -35.807  -2.585  1.00  0.00     0.210 HD
ENDBRANCH  27  33
TORSDOF 2
ENDMDL
MODEL 8
REMARK VINA RESULT:    -5.696      3.655      5.601
REMARK INTER + INTRA:          -5.439
REMARK INTER:                  -6.220
REMARK INTRA:                   0.781
REMARK UNBOUND:                 0.756
REMARK SMILES C[C@H]1[C@H](C)CC[C@]2(C(=O)[O-])CC[C@@]3(C)C(=CC[C@H]4[C@@]5(C)CC[C@@H](O)C(C)(C)[C@@H]5CC[C@@]43C)[C@@H]12
REMARK SMILES IDX 7 1 6 2 11 3 33 4 5 5 12 6 15 7 2 8 3 9 13 10 16 11 1 12
REMARK SMILES IDX 4 13 14 14 31 15 17 16 18 17 30 18 32 19 19 20 29 21 28 22
REMARK SMILES IDX 21 23 20 24 25 25 22 26 23 27 26 28 27 29 8 30 9 31 10 32
REMARK SMILES IDX 24 33
REMARK H PARENT 24 34
REMARK Flexibility Score: inf
ROOT
ATOM      1  C   UNL     1      33.959 -38.673   4.513  1.00  0.00     0.017 C 
ATOM      2  C   UNL     1      34.296 -38.768   6.033  1.00  0.00     0.014 C 
ATOM      3  C   UNL     1      33.196 -39.985   4.110  1.00  0.00     0.014 C 
ATOM      4  C   UNL     1      35.311 -38.534   3.724  1.00  0.00     0.030 C 
ATOM      5  C   UNL     1      35.121 -37.582   6.546  1.00  0.00     0.004 C 
ATOM      6  C   UNL     1      33.729 -40.718   2.862  1.00  0.00     0.013 C 
ATOM      7  C   UNL     1      35.140 -38.703   2.196  1.00  0.00    -0.063 C 
ATOM      8  C   UNL     1      36.218 -37.350   4.234  1.00  0.00    -0.003 C 
ATOM      9  C   UNL     1      36.443 -37.406   5.774  1.00  0.00    -0.011 C 
ATOM     10  C   UNL     1      34.166 -39.790   1.681  1.00  0.00    -0.006 C 
ATOM     11  C   UNL     1      36.024 -38.126   1.329  1.00  0.00    -0.027 C 
ATOM     12  C   UNL     1      35.748 -35.939   3.819  1.00  0.00     0.008 C 
ATOM     13  C   UNL     1      37.479 -38.474   6.174  1.00  0.00     0.008 C 
ATOM     14  C   UNL     1      32.879 -39.061   1.159  1.00  0.00     0.017 C 
ATOM     15  C   UNL     1      34.916 -40.644   0.535  1.00  0.00    -0.020 C 
ATOM     16  C   UNL     1      36.306 -38.594  -0.084  1.00  0.00     0.032 C 
ATOM     17  C   UNL     1      35.309 -39.651  -0.620  1.00  0.00     0.006 C 
ATOM     18  C   UNL     1      34.008 -41.751  -0.084  1.00  0.00     0.008 C 
ATOM     19  C   UNL     1      36.193 -41.328   1.162  1.00  0.00     0.012 C 
ATOM     20  C   UNL     1      35.601 -40.293  -2.075  1.00  0.00    -0.025 C 
ATOM     21  C   UNL     1      34.687 -42.588  -1.188  1.00  0.00     0.005 C 
ATOM     22  C   UNL     1      35.805 -41.852  -1.979  1.00  0.00     0.003 C 
ATOM     23  C   UNL     1      36.881 -39.682  -2.728  1.00  0.00     0.010 C 
ATOM     24  C   UNL     1      34.380 -39.945  -2.986  1.00  0.00     0.012 C 
ATOM     25  C   UNL     1      36.261 -42.594  -3.307  1.00  0.00    -0.006 C 
ATOM     26  C   UNL     1      37.293 -40.345  -4.052  1.00  0.00     0.033 C 
ATOM     27  C   UNL     1      37.512 -41.863  -3.898  1.00  0.00     0.120 C 
ATOM     28  C   UNL     1      36.678 -44.051  -2.954  1.00  0.00     0.014 C 
ATOM     29  C   UNL     1      35.153 -42.702  -4.403  1.00  0.00     0.014 C 
ENDROOT
BRANCH   1  30
ATOM     30  C   UNL     1      33.019 -37.491   4.286  1.00  0.00     0.048 C 
ATOM     31  O   UNL     1      32.864 -36.989   3.141  1.00  0.00    -0.550 OA
ATOM     32  O   UNL     1      32.235 -37.011   5.330  1.00  0.00    -0.550 OA
ENDBRANCH   1  30
BRANCH  27  33
ATOM     33  O   UNL     1      38.639 -42.082  -3.082  1.00  0.00    -0.393 OA
ATOM     34  H   UNL     1      39.171 -42.804  -3.507  1.00  0.00     0.210 HD
ENDBRANCH  27  33
TORSDOF 2
ENDMDL
