MODEL 1
REMARK VINA RESULT:    -5.327      0.000      0.000
REMARK INTER + INTRA:         -10.152
REMARK INTER:                  -9.064
REMARK INTRA:                  -1.088
REMARK UNBOUND:                -1.088
REMARK SMILES CCCCCCCCCCCCCC(=O)[O-]
REMARK SMILES IDX 8 1 9 2 10 3 11 4 12 5 13 6 14 7 15 8 16 9 7 10 6 11 5 12
REMARK SMILES IDX 4 13 3 14 2 15 1 16
REMARK H PARENT
REMARK Flexibility Score: inf
ROOT
ATOM      1  C   UNL     1      -8.066  64.137  53.525  1.00  0.00     0.000 C 
ENDROOT
BRANCH   1   2
ATOM      2  C   UNL     1      -6.805  65.007  53.379  1.00  0.00     0.000 C 
BRANCH   2   3
ATOM      3  C   UNL     1      -6.392  65.216  51.914  1.00  0.00     0.000 C 
BRANCH   3   4
ATOM      4  C   UNL     1      -6.108  63.874  51.227  1.00  0.00     0.000 C 
BRANCH   4   5
ATOM      5  C   UNL     1      -6.796  63.800  49.860  1.00  0.00     0.006 C 
BRANCH   5   6
ATOM      6  C   UNL     1      -8.122  64.567  49.870  1.00  0.00     0.053 C 
BRANCH   6   7
ATOM      7  C   UNL     1      -9.050  64.023  48.830  1.00  0.00     0.041 C 
ATOM      8  O   UNL     1      -9.991  64.733  48.386  1.00  0.00    -0.550 OA
ATOM      9  O   UNL     1      -8.847  62.749  48.314  1.00  0.00    -0.550 OA
ENDBRANCH   6   7
ENDBRANCH   5   6
ENDBRANCH   4   5
ENDBRANCH   3   4
ENDBRANCH   2   3
ENDBRANCH   1   2
BRANCH   1  10
ATOM     10  C   UNL     1      -7.904  62.895  54.426  1.00  0.00     0.000 C 
BRANCH  10  11
ATOM     11  C   UNL     1      -7.757  61.559  53.677  1.00  0.00    -0.000 C 
BRANCH  11  12
ATOM     12  C   UNL     1      -6.302  61.073  53.604  1.00  0.00    -0.000 C 
BRANCH  12  13
ATOM     13  C   UNL     1      -5.540  61.427  54.886  1.00  0.00    -0.000 C 
BRANCH  13  14
ATOM     14  C   UNL     1      -4.464  60.379  55.195  1.00  0.00    -0.000 C 
BRANCH  14  15
ATOM     15  C   UNL     1      -4.891  59.481  56.362  1.00  0.00    -0.003 C 
ATOM     16  C   UNL     1      -6.333  59.010  56.197  1.00  0.00     0.004 C 
ENDBRANCH  14  15
ENDBRANCH  13  14
ENDBRANCH  12  13
ENDBRANCH  11  12
ENDBRANCH  10  11
ENDBRANCH   1  10
TORSDOF 12
ENDMDL
MODEL 2
REMARK VINA RESULT:    -5.256     12.126     14.816
REMARK INTER + INTRA:         -10.031
REMARK INTER:                  -8.885
REMARK INTRA:                  -1.146
REMARK UNBOUND:                -1.088
REMARK SMILES CCCCCCCCCCCCCC(=O)[O-]
REMARK SMILES IDX 8 1 9 2 10 3 11 4 12 5 13 6 14 7 15 8 16 9 7 10 6 11 5 12
REMARK SMILES IDX 4 13 3 14 2 15 1 16
REMARK H PARENT
REMARK Flexibility Score: inf
ROOT
ATOM      1  C   UNL     1     -10.751  61.100  40.763  1.00  0.00     0.000 C 
ENDROOT
BRANCH   1   2
ATOM      2  C   UNL     1     -12.261  60.841  40.620  1.00  0.00     0.000 C 
BRANCH   2   3
ATOM      3  C   UNL     1     -12.577  59.631  39.728  1.00  0.00     0.000 C 
BRANCH   3   4
ATOM      4  C   UNL     1     -13.539  60.019  38.598  1.00  0.00     0.000 C 
BRANCH   4   5
ATOM      5  C   UNL     1     -14.520  61.103  39.059  1.00  0.00     0.006 C 
BRANCH   5   6
ATOM      6  C   UNL     1     -15.663  61.273  38.053  1.00  0.00     0.053 C 
BRANCH   6   7
ATOM      7  C   UNL     1     -16.940  60.733  38.614  1.00  0.00     0.041 C 
ATOM      8  O   UNL     1     -16.994  59.551  39.043  1.00  0.00    -0.550 OA
ATOM      9  O   UNL     1     -18.059  61.552  38.708  1.00  0.00    -0.550 OA
ENDBRANCH   6   7
ENDBRANCH   5   6
ENDBRANCH   4   5
ENDBRANCH   3   4
ENDBRANCH   2   3
ENDBRANCH   1   2
BRANCH   1  10
ATOM     10  C   UNL     1     -10.060  61.659  39.503  1.00  0.00     0.000 C 
BRANCH  10  11
ATOM     11  C   UNL     1     -10.782  62.841  38.832  1.00  0.00    -0.000 C 
BRANCH  11  12
ATOM     12  C   UNL     1      -9.824  63.965  38.412  1.00  0.00    -0.000 C 
BRANCH  12  13
ATOM     13  C   UNL     1      -8.756  64.205  39.486  1.00  0.00    -0.000 C 
BRANCH  13  14
ATOM     14  C   UNL     1      -8.771  65.663  39.961  1.00  0.00    -0.000 C 
BRANCH  14  15
ATOM     15  C   UNL     1      -9.061  65.749  41.464  1.00  0.00    -0.003 C 
ATOM     16  C   UNL     1      -9.589  64.421  42.001  1.00  0.00     0.004 C 
ENDBRANCH  14  15
ENDBRANCH  13  14
ENDBRANCH  12  13
ENDBRANCH  11  12
ENDBRANCH  10  11
ENDBRANCH   1  10
TORSDOF 12
ENDMDL
MODEL 3
REMARK VINA RESULT:    -5.179      9.196     13.542
REMARK INTER + INTRA:          -9.900
REMARK INTER:                  -8.783
REMARK INTRA:                  -1.117
REMARK UNBOUND:                -1.088
REMARK SMILES CCCCCCCCCCCCCC(=O)[O-]
REMARK SMILES IDX 8 1 9 2 10 3 11 4 12 5 13 6 14 7 15 8 16 9 7 10 6 11 5 12
REMARK SMILES IDX 4 13 3 14 2 15 1 16
REMARK H PARENT
REMARK Flexibility Score: inf
ROOT
ATOM      1  C   UNL     1      -9.792  63.996  38.604  1.00  0.00     0.000 C 
ENDROOT
BRANCH   1   2
ATOM      2  C   UNL     1      -8.529  64.247  39.448  1.00  0.00     0.000 C 
BRANCH   2   3
ATOM      3  C   UNL     1      -8.815  65.057  40.721  1.00  0.00     0.000 C 
BRANCH   3   4
ATOM      4  C   UNL     1     -10.027  64.491  41.471  1.00  0.00     0.000 C 
BRANCH   4   5
ATOM      5  C   UNL     1      -9.622  63.968  42.854  1.00  0.00     0.006 C 
BRANCH   5   6
ATOM      6  C   UNL     1      -9.982  62.487  43.008  1.00  0.00     0.053 C 
BRANCH   6   7
ATOM      7  C   UNL     1      -9.675  62.014  44.394  1.00  0.00     0.041 C 
ATOM      8  O   UNL     1      -9.764  60.792  44.680  1.00  0.00    -0.550 OA
ATOM      9  O   UNL     1      -9.244  62.918  45.357  1.00  0.00    -0.550 OA
ENDBRANCH   6   7
ENDBRANCH   5   6
ENDBRANCH   4   5
ENDBRANCH   3   4
ENDBRANCH   2   3
ENDBRANCH   1   2
BRANCH   1  10
ATOM     10  C   UNL     1     -10.204  62.516  38.467  1.00  0.00     0.000 C 
BRANCH  10  11
ATOM     11  C   UNL     1     -11.565  62.157  39.088  1.00  0.00    -0.000 C 
BRANCH  11  12
ATOM     12  C   UNL     1     -11.472  61.013  40.108  1.00  0.00    -0.000 C 
BRANCH  12  13
ATOM     13  C   UNL     1     -12.681  60.077  39.994  1.00  0.00    -0.000 C 
BRANCH  13  14
ATOM     14  C   UNL     1     -13.170  59.982  38.543  1.00  0.00    -0.000 C 
BRANCH  14  15
ATOM     15  C   UNL     1     -14.655  60.346  38.438  1.00  0.00    -0.003 C 
ATOM     16  C   UNL     1     -15.170  60.947  39.743  1.00  0.00     0.004 C 
ENDBRANCH  14  15
ENDBRANCH  13  14
ENDBRANCH  12  13
ENDBRANCH  11  12
ENDBRANCH  10  11
ENDBRANCH   1  10
TORSDOF 12
ENDMDL
MODEL 4
REMARK VINA RESULT:    -5.110      3.558      6.956
REMARK INTER + INTRA:          -9.782
REMARK INTER:                  -8.722
REMARK INTRA:                  -1.061
REMARK UNBOUND:                -1.088
REMARK SMILES CCCCCCCCCCCCCC(=O)[O-]
REMARK SMILES IDX 8 1 9 2 10 3 11 4 12 5 13 6 14 7 15 8 16 9 7 10 6 11 5 12
REMARK SMILES IDX 4 13 3 14 2 15 1 16
REMARK H PARENT
REMARK Flexibility Score: inf
ROOT
ATOM      1  C   UNL     1      -6.586  65.038  53.224  1.00  0.00     0.000 C 
ENDROOT
BRANCH   1   2
ATOM      2  C   UNL     1      -7.758  64.103  53.567  1.00  0.00     0.000 C 
BRANCH   2   3
ATOM      3  C   UNL     1      -7.502  62.647  53.150  1.00  0.00     0.000 C 
BRANCH   3   4
ATOM      4  C   UNL     1      -7.362  61.740  54.378  1.00  0.00     0.000 C 
BRANCH   4   5
ATOM      5  C   UNL     1      -6.185  60.771  54.215  1.00  0.00     0.006 C 
BRANCH   5   6
ATOM      6  C   UNL     1      -5.317  60.743  55.476  1.00  0.00     0.053 C 
BRANCH   6   7
ATOM      7  C   UNL     1      -5.473  59.438  56.191  1.00  0.00     0.041 C 
ATOM      8  O   UNL     1      -6.578  58.837  56.179  1.00  0.00    -0.550 OA
ATOM      9  O   UNL     1      -4.383  58.862  56.831  1.00  0.00    -0.550 OA
ENDBRANCH   6   7
ENDBRANCH   5   6
ENDBRANCH   4   5
ENDBRANCH   3   4
ENDBRANCH   2   3
ENDBRANCH   1   2
BRANCH   1  10
ATOM     10  C   UNL     1      -6.836  65.994  52.039  1.00  0.00     0.000 C 
BRANCH  10  11
ATOM     11  C   UNL     1      -5.713  66.039  50.988  1.00  0.00    -0.000 C 
BRANCH  11  12
ATOM     12  C   UNL     1      -6.109  65.368  49.664  1.00  0.00    -0.000 C 
BRANCH  12  13
ATOM     13  C   UNL     1      -6.277  63.855  49.845  1.00  0.00    -0.000 C 
BRANCH  13  14
ATOM     14  C   UNL     1      -7.665  63.396  49.379  1.00  0.00    -0.000 C 
BRANCH  14  15
ATOM     15  C   UNL     1      -8.681  64.540  49.470  1.00  0.00    -0.003 C 
ATOM     16  C   UNL     1      -9.611  64.548  48.259  1.00  0.00     0.004 C 
ENDBRANCH  14  15
ENDBRANCH  13  14
ENDBRANCH  12  13
ENDBRANCH  11  12
ENDBRANCH  10  11
ENDBRANCH   1  10
TORSDOF 12
ENDMDL
MODEL 5
REMARK VINA RESULT:    -5.062     12.028     14.738
REMARK INTER + INTRA:          -9.701
REMARK INTER:                  -8.629
REMARK INTRA:                  -1.072
REMARK UNBOUND:                -1.088
REMARK SMILES CCCCCCCCCCCCCC(=O)[O-]
REMARK SMILES IDX 8 1 9 2 10 3 11 4 12 5 13 6 14 7 15 8 16 9 7 10 6 11 5 12
REMARK SMILES IDX 4 13 3 14 2 15 1 16
REMARK H PARENT
REMARK Flexibility Score: inf
ROOT
ATOM      1  C   UNL     1     -10.839  61.146  40.897  1.00  0.00     0.000 C 
ENDROOT
BRANCH   1   2
ATOM      2  C   UNL     1     -10.113  61.661  39.642  1.00  0.00     0.000 C 
BRANCH   2   3
ATOM      3  C   UNL     1     -10.870  62.799  38.940  1.00  0.00     0.000 C 
BRANCH   3   4
ATOM      4  C   UNL     1      -9.989  64.047  38.811  1.00  0.00     0.000 C 
BRANCH   4   5
ATOM      5  C   UNL     1      -8.665  63.865  39.562  1.00  0.00     0.006 C 
BRANCH   5   6
ATOM      6  C   UNL     1      -8.236  65.169  40.242  1.00  0.00     0.053 C 
BRANCH   6   7
ATOM      7  C   UNL     1      -9.113  65.460  41.419  1.00  0.00     0.041 C 
ATOM      8  O   UNL     1      -9.493  66.637  41.651  1.00  0.00    -0.550 OA
ATOM      9  O   UNL     1      -9.550  64.422  42.233  1.00  0.00    -0.550 OA
ENDBRANCH   6   7
ENDBRANCH   5   6
ENDBRANCH   4   5
ENDBRANCH   3   4
ENDBRANCH   2   3
ENDBRANCH   1   2
BRANCH   1  10
ATOM     10  C   UNL     1     -12.332  60.813  40.699  1.00  0.00     0.000 C 
BRANCH  10  11
ATOM     11  C   UNL     1     -12.622  59.660  39.723  1.00  0.00    -0.000 C 
BRANCH  11  12
ATOM     12  C   UNL     1     -13.618  60.048  38.620  1.00  0.00    -0.000 C 
BRANCH  12  13
ATOM     13  C   UNL     1     -14.363  61.338  38.983  1.00  0.00    -0.000 C 
BRANCH  13  14
ATOM     14  C   UNL     1     -15.608  61.521  38.106  1.00  0.00    -0.000 C 
BRANCH  14  15
ATOM     15  C   UNL     1     -16.811  60.776  38.696  1.00  0.00    -0.003 C 
ATOM     16  C   UNL     1     -18.101  61.566  38.495  1.00  0.00     0.004 C 
ENDBRANCH  14  15
ENDBRANCH  13  14
ENDBRANCH  12  13
ENDBRANCH  11  12
ENDBRANCH  10  11
ENDBRANCH   1  10
TORSDOF 12
ENDMDL
MODEL 6
REMARK VINA RESULT:    -4.963      9.457     13.343
REMARK INTER + INTRA:          -9.532
REMARK INTER:                  -8.360
REMARK INTRA:                  -1.172
REMARK UNBOUND:                -1.088
REMARK SMILES CCCCCCCCCCCCCC(=O)[O-]
REMARK SMILES IDX 8 1 9 2 10 3 11 4 12 5 13 6 14 7 15 8 16 9 7 10 6 11 5 12
REMARK SMILES IDX 4 13 3 14 2 15 1 16
REMARK H PARENT
REMARK Flexibility Score: inf
ROOT
ATOM      1  C   UNL     1      -9.594  62.877  39.307  1.00  0.00     0.000 C 
ENDROOT
BRANCH   1   2
ATOM      2  C   UNL     1     -10.799  62.925  38.352  1.00  0.00     0.000 C 
BRANCH   2   3
ATOM      3  C   UNL     1     -12.110  62.494  39.025  1.00  0.00     0.000 C 
BRANCH   3   4
ATOM      4  C   UNL     1     -11.919  61.195  39.819  1.00  0.00     0.000 C 
BRANCH   4   5
ATOM      5  C   UNL     1     -13.248  60.450  39.983  1.00  0.00     0.006 C 
BRANCH   5   6
ATOM      6  C   UNL     1     -13.902  60.187  38.623  1.00  0.00     0.053 C 
BRANCH   6   7
ATOM      7  C   UNL     1     -15.312  60.688  38.614  1.00  0.00     0.041 C 
ATOM      8  O   UNL     1     -16.272  59.881  38.724  1.00  0.00    -0.550 OA
ATOM      9  O   UNL     1     -15.565  62.051  38.531  1.00  0.00    -0.550 OA
ENDBRANCH   6   7
ENDBRANCH   5   6
ENDBRANCH   4   5
ENDBRANCH   3   4
ENDBRANCH   2   3
ENDBRANCH   1   2
BRANCH   1  10
ATOM     10  C   UNL     1      -8.809  64.199  39.437  1.00  0.00     0.000 C 
BRANCH  10  11
ATOM     11  C   UNL     1      -8.793  64.813  40.848  1.00  0.00    -0.000 C 
BRANCH  11  12
ATOM     12  C   UNL     1     -10.030  64.435  41.677  1.00  0.00    -0.000 C 
BRANCH  12  13
ATOM     13  C   UNL     1      -9.627  63.673  42.945  1.00  0.00    -0.000 C 
BRANCH  13  14
ATOM     14  C   UNL     1     -10.196  62.249  42.936  1.00  0.00    -0.000 C 
BRANCH  14  15
ATOM     15  C   UNL     1      -9.814  61.496  44.216  1.00  0.00    -0.003 C 
ATOM     16  C   UNL     1      -9.262  62.449  45.273  1.00  0.00     0.004 C 
ENDBRANCH  14  15
ENDBRANCH  13  14
ENDBRANCH  12  13
ENDBRANCH  11  12
ENDBRANCH  10  11
ENDBRANCH   1  10
TORSDOF 12
ENDMDL
MODEL 7
REMARK VINA RESULT:    -4.933     12.116     14.697
REMARK INTER + INTRA:          -9.481
REMARK INTER:                  -8.585
REMARK INTRA:                  -0.896
REMARK UNBOUND:                -1.088
REMARK SMILES CCCCCCCCCCCCCC(=O)[O-]
REMARK SMILES IDX 8 1 9 2 10 3 11 4 12 5 13 6 14 7 15 8 16 9 7 10 6 11 5 12
REMARK SMILES IDX 4 13 3 14 2 15 1 16
REMARK H PARENT
REMARK Flexibility Score: inf
ROOT
ATOM      1  C   UNL     1     -10.918  61.501  39.389  1.00  0.00     0.000 C 
ENDROOT
BRANCH   1   2
ATOM      2  C   UNL     1     -11.762  60.779  40.455  1.00  0.00     0.000 C 
BRANCH   2   3
ATOM      3  C   UNL     1     -12.588  59.620  39.878  1.00  0.00     0.000 C 
BRANCH   3   4
ATOM      4  C   UNL     1     -13.477  60.102  38.725  1.00  0.00     0.000 C 
BRANCH   4   5
ATOM      5  C   UNL     1     -14.603  61.006  39.239  1.00  0.00     0.006 C 
BRANCH   5   6
ATOM      6  C   UNL     1     -15.640  61.270  38.143  1.00  0.00     0.053 C 
BRANCH   6   7
ATOM      7  C   UNL     1     -16.979  60.739  38.549  1.00  0.00     0.041 C 
ATOM      8  O   UNL     1     -17.083  59.578  39.023  1.00  0.00    -0.550 OA
ATOM      9  O   UNL     1     -18.106  61.546  38.450  1.00  0.00    -0.550 OA
ENDBRANCH   6   7
ENDBRANCH   5   6
ENDBRANCH   4   5
ENDBRANCH   3   4
ENDBRANCH   2   3
ENDBRANCH   1   2
BRANCH   1  10
ATOM     10  C   UNL     1     -10.131  62.726  39.896  1.00  0.00     0.000 C 
BRANCH  10  11
ATOM     11  C   UNL     1      -9.788  62.708  41.396  1.00  0.00    -0.000 C 
BRANCH  11  12
ATOM     12  C   UNL     1      -9.684  64.116  42.001  1.00  0.00    -0.000 C 
BRANCH  12  13
ATOM     13  C   UNL     1      -9.592  65.180  40.901  1.00  0.00    -0.000 C 
BRANCH  13  14
ATOM     14  C   UNL     1      -8.200  65.823  40.872  1.00  0.00    -0.000 C 
BRANCH  14  15
ATOM     15  C   UNL     1      -7.349  65.244  39.736  1.00  0.00    -0.003 C 
ATOM     16  C   UNL     1      -8.097  65.293  38.407  1.00  0.00     0.004 C 
ENDBRANCH  14  15
ENDBRANCH  13  14
ENDBRANCH  12  13
ENDBRANCH  11  12
ENDBRANCH  10  11
ENDBRANCH   1  10
TORSDOF 12
ENDMDL
MODEL 8
REMARK VINA RESULT:    -4.867     11.269     14.185
REMARK INTER + INTRA:          -9.369
REMARK INTER:                  -8.049
REMARK INTRA:                  -1.321
REMARK UNBOUND:                -1.088
REMARK SMILES CCCCCCCCCCCCCC(=O)[O-]
REMARK SMILES IDX 8 1 9 2 10 3 11 4 12 5 13 6 14 7 15 8 16 9 7 10 6 11 5 12
REMARK SMILES IDX 4 13 3 14 2 15 1 16
REMARK H PARENT
REMARK Flexibility Score: inf
ROOT
ATOM      1  C   UNL     1      -9.915  62.968  38.724  1.00  0.00     0.000 C 
ENDROOT
BRANCH   1   2
ATOM      2  C   UNL     1     -11.350  62.417  38.652  1.00  0.00     0.000 C 
BRANCH   2   3
ATOM      3  C   UNL     1     -12.365  63.297  39.396  1.00  0.00     0.000 C 
BRANCH   3   4
ATOM      4  C   UNL     1     -13.799  62.964  38.967  1.00  0.00     0.000 C 
BRANCH   4   5
ATOM      5  C   UNL     1     -13.953  61.467  38.677  1.00  0.00     0.006 C 
BRANCH   5   6
ATOM      6  C   UNL     1     -14.462  60.718  39.913  1.00  0.00     0.053 C 
BRANCH   6   7
ATOM      7  C   UNL     1     -13.340  59.989  40.583  1.00  0.00     0.041 C 
ATOM      8  O   UNL     1     -12.539  59.296  39.903  1.00  0.00    -0.550 OA
ATOM      9  O   UNL     1     -13.151  60.114  41.953  1.00  0.00    -0.550 OA
ENDBRANCH   6   7
ENDBRANCH   5   6
ENDBRANCH   4   5
ENDBRANCH   3   4
ENDBRANCH   2   3
ENDBRANCH   1   2
BRANCH   1  10
ATOM     10  C   UNL     1      -9.655  64.231  37.879  1.00  0.00     0.000 C 
BRANCH  10  11
ATOM     11  C   UNL     1      -8.265  64.865  38.061  1.00  0.00    -0.000 C 
BRANCH  11  12
ATOM     12  C   UNL     1      -7.861  65.003  39.536  1.00  0.00    -0.000 C 
BRANCH  12  13
ATOM     13  C   UNL     1      -8.491  66.253  40.162  1.00  0.00    -0.000 C 
BRANCH  13  14
ATOM     14  C   UNL     1      -8.929  65.984  41.606  1.00  0.00    -0.000 C 
BRANCH  14  15
ATOM     15  C   UNL     1     -10.087  64.980  41.652  1.00  0.00    -0.003 C 
ATOM     16  C   UNL     1      -9.675  63.695  42.366  1.00  0.00     0.004 C 
ENDBRANCH  14  15
ENDBRANCH  13  14
ENDBRANCH  12  13
ENDBRANCH  11  12
ENDBRANCH  10  11
ENDBRANCH   1  10
TORSDOF 12
ENDMDL
MODEL 9
REMARK VINA RESULT:    -4.846      8.673     12.565
REMARK INTER + INTRA:          -9.333
REMARK INTER:                  -8.132
REMARK INTRA:                  -1.201
REMARK UNBOUND:                -1.088
REMARK SMILES CCCCCCCCCCCCCC(=O)[O-]
REMARK SMILES IDX 8 1 9 2 10 3 11 4 12 5 13 6 14 7 15 8 16 9 7 10 6 11 5 12
REMARK SMILES IDX 4 13 3 14 2 15 1 16
REMARK H PARENT
REMARK Flexibility Score: inf
ROOT
ATOM      1  C   UNL     1      -8.266  64.591  39.681  1.00  0.00     0.000 C 
ENDROOT
BRANCH   1   2
ATOM      2  C   UNL     1      -8.697  64.702  38.208  1.00  0.00     0.000 C 
BRANCH   2   3
ATOM      3  C   UNL     1     -10.008  63.959  37.912  1.00  0.00     0.000 C 
BRANCH   3   4
ATOM      4  C   UNL     1     -10.025  62.585  38.593  1.00  0.00     0.000 C 
BRANCH   4   5
ATOM      5  C   UNL     1     -11.453  62.180  38.979  1.00  0.00     0.006 C 
BRANCH   5   6
ATOM      6  C   UNL     1     -11.442  61.093  40.058  1.00  0.00     0.053 C 
BRANCH   6   7
ATOM      7  C   UNL     1     -12.686  60.265  39.980  1.00  0.00     0.041 C 
ATOM      8  O   UNL     1     -13.139  59.906  38.862  1.00  0.00    -0.550 OA
ATOM      9  O   UNL     1     -13.318  59.849  41.145  1.00  0.00    -0.550 OA
ENDBRANCH   6   7
ENDBRANCH   5   6
ENDBRANCH   4   5
ENDBRANCH   3   4
ENDBRANCH   2   3
ENDBRANCH   1   2
BRANCH   1  10
ATOM     10  C   UNL     1      -8.658  65.789  40.570  1.00  0.00     0.000 C 
BRANCH  10  11
ATOM     11  C   UNL     1      -9.392  65.424  41.872  1.00  0.00    -0.000 C 
BRANCH  11  12
ATOM     12  C   UNL     1      -9.874  63.966  41.896  1.00  0.00    -0.000 C 
BRANCH  12  13
ATOM     13  C   UNL     1      -9.558  63.306  43.243  1.00  0.00    -0.000 C 
BRANCH  13  14
ATOM     14  C   UNL     1     -10.168  61.902  43.326  1.00  0.00    -0.000 C 
BRANCH  14  15
ATOM     15  C   UNL     1      -9.777  61.208  44.636  1.00  0.00    -0.003 C 
ATOM     16  C   UNL     1      -9.060  62.172  45.578  1.00  0.00     0.004 C 
ENDBRANCH  14  15
ENDBRANCH  13  14
ENDBRANCH  12  13
ENDBRANCH  11  12
ENDBRANCH  10  11
ENDBRANCH   1  10
TORSDOF 12
ENDMDL
