MODEL 1
REMARK VINA RESULT:    -8.306      0.000      0.000
REMARK INTER + INTRA:          -8.549
REMARK INTER:                  -8.549
REMARK INTRA:                   0.000
REMARK UNBOUND:                 0.000
REMARK SMILES CC1(C)CC[C@]2(C)CC[C@@]3(C)C(=CC[C@@H]4[C@@]5(C)CC[C@@H](O)C(C)(C)[C@H]5CC[C@]43C)[C@H]2C1
REMARK SMILES IDX 1 1 2 2 4 3 5 4 6 5 8 6 9 7 10 8 12 9 13 10 14 11 15 12
REMARK SMILES IDX 28 13 27 14 26 15 25 16 16 17 18 18 19 19 20 20 22 21 23 22
REMARK SMILES IDX 24 23 17 24 29 25 30 26 31 27 11 28 7 29 3 30 21 31
REMARK H PARENT 21 32
REMARK Flexibility Score: inf
ROOT
ATOM      1  C   UNL     1     116.265 114.854 124.133  1.00  0.00     0.011 C 
ATOM      2  C   UNL     1     115.165 113.841 124.540  1.00  0.00    -0.035 C 
ATOM      3  C   UNL     1     114.467 113.280 123.273  1.00  0.00     0.007 C 
ATOM      4  C   UNL     1     113.492 114.277 122.626  1.00  0.00     0.008 C 
ATOM      5  C   UNL     1     112.443 114.842 123.625  1.00  0.00    -0.026 C 
ATOM      6  C   UNL     1     111.637 115.932 122.888  1.00  0.00     0.008 C 
ATOM      7  C   UNL     1     110.545 116.562 123.763  1.00  0.00     0.012 C 
ATOM      8  C   UNL     1     110.968 117.028 125.215  1.00  0.00    -0.006 C 
ATOM      9  C   UNL     1     112.249 116.319 125.745  1.00  0.00    -0.064 C 
ATOM     10  C   UNL     1     112.691 116.701 126.978  1.00  0.00    -0.027 C 
ATOM     11  C   UNL     1     112.302 118.047 127.546  1.00  0.00     0.032 C 
ATOM     12  C   UNL     1     112.250 119.038 126.366  1.00  0.00     0.006 C 
ATOM     13  C   UNL     1     111.119 118.664 125.332  1.00  0.00    -0.020 C 
ATOM     14  C   UNL     1     111.571 119.350 123.990  1.00  0.00     0.008 C 
ATOM     15  C   UNL     1     112.432 120.645 124.118  1.00  0.00     0.005 C 
ATOM     16  C   UNL     1     112.198 121.473 125.421  1.00  0.00     0.003 C 
ATOM     17  C   UNL     1     112.476 120.571 126.711  1.00  0.00    -0.025 C 
ATOM     18  C   UNL     1     113.963 120.713 127.241  1.00  0.00     0.010 C 
ATOM     19  C   UNL     1     114.798 121.783 126.551  1.00  0.00     0.033 C 
ATOM     20  C   UNL     1     114.009 123.077 126.475  1.00  0.00     0.120 C 
ATOM     21  C   UNL     1     112.849 122.949 125.431  1.00  0.00    -0.006 C 
ATOM     22  C   UNL     1     113.365 123.381 124.026  1.00  0.00     0.014 C 
ATOM     23  C   UNL     1     111.759 123.987 125.817  1.00  0.00     0.014 C 
ATOM     24  C   UNL     1     111.523 121.014 127.857  1.00  0.00     0.012 C 
ATOM     25  C   UNL     1     109.726 119.259 125.713  1.00  0.00     0.012 C 
ATOM     26  C   UNL     1     113.184 115.517 124.813  1.00  0.00     0.022 C 
ATOM     27  C   UNL     1     114.140 114.502 125.511  1.00  0.00     0.015 C 
ATOM     28  C   UNL     1     109.820 116.475 126.145  1.00  0.00     0.017 C 
ATOM     29  C   UNL     1     111.500 113.688 124.070  1.00  0.00     0.012 C 
ATOM     30  C   UNL     1     115.854 112.673 125.277  1.00  0.00     0.011 C 
ENDROOT
BRANCH  20  31
ATOM     31  O   UNL     1     114.895 124.125 126.164  1.00  0.00    -0.393 OA
ATOM     32  H   UNL     1     115.725 123.711 125.807  1.00  0.00     0.210 HD
ENDBRANCH  20  31
TORSDOF 1
ENDMDL
MODEL 2
REMARK VINA RESULT:    -8.039      2.970      5.159
REMARK INTER + INTRA:          -8.274
REMARK INTER:                  -8.274
REMARK INTRA:                   0.000
REMARK UNBOUND:                 0.000
REMARK SMILES CC1(C)CC[C@]2(C)CC[C@@]3(C)C(=CC[C@@H]4[C@@]5(C)CC[C@@H](O)C(C)(C)[C@H]5CC[C@]43C)[C@H]2C1
REMARK SMILES IDX 1 1 2 2 4 3 5 4 6 5 8 6 9 7 10 8 12 9 13 10 14 11 15 12
REMARK SMILES IDX 28 13 27 14 26 15 25 16 16 17 18 18 19 19 20 20 22 21 23 22
REMARK SMILES IDX 24 23 17 24 29 25 30 26 31 27 11 28 7 29 3 30 21 31
REMARK H PARENT 21 32
REMARK Flexibility Score: inf
ROOT
ATOM      1  C   UNL     1     112.126 116.267 129.781  1.00  0.00     0.011 C 
ATOM      2  C   UNL     1     110.765 116.919 129.434  1.00  0.00    -0.035 C 
ATOM      3  C   UNL     1     109.959 115.991 128.487  1.00  0.00     0.007 C 
ATOM      4  C   UNL     1     110.481 116.001 127.041  1.00  0.00     0.008 C 
ATOM      5  C   UNL     1     110.594 117.430 126.441  1.00  0.00    -0.026 C 
ATOM      6  C   UNL     1     111.267 117.305 125.058  1.00  0.00     0.008 C 
ATOM      7  C   UNL     1     111.422 118.654 124.344  1.00  0.00     0.012 C 
ATOM      8  C   UNL     1     112.033 119.847 125.185  1.00  0.00    -0.006 C 
ATOM      9  C   UNL     1     111.896 119.653 126.724  1.00  0.00    -0.064 C 
ATOM     10  C   UNL     1     112.434 120.629 127.511  1.00  0.00    -0.027 C 
ATOM     11  C   UNL     1     113.522 121.531 126.974  1.00  0.00     0.032 C 
ATOM     12  C   UNL     1     114.398 120.674 126.038  1.00  0.00     0.006 C 
ATOM     13  C   UNL     1     113.596 120.169 124.777  1.00  0.00    -0.020 C 
ATOM     14  C   UNL     1     114.391 118.903 124.287  1.00  0.00     0.008 C 
ATOM     15  C   UNL     1     115.922 118.875 124.585  1.00  0.00     0.005 C 
ATOM     16  C   UNL     1     116.603 120.276 124.694  1.00  0.00     0.003 C 
ATOM     17  C   UNL     1     115.899 121.150 125.832  1.00  0.00    -0.025 C 
ATOM     18  C   UNL     1     116.625 121.016 127.234  1.00  0.00     0.010 C 
ATOM     19  C   UNL     1     117.931 120.234 127.217  1.00  0.00     0.033 C 
ATOM     20  C   UNL     1     118.805 120.723 126.078  1.00  0.00     0.120 C 
ATOM     21  C   UNL     1     118.216 120.265 124.701  1.00  0.00    -0.006 C 
ATOM     22  C   UNL     1     118.803 118.871 124.325  1.00  0.00     0.014 C 
ATOM     23  C   UNL     1     118.741 121.248 123.619  1.00  0.00     0.014 C 
ATOM     24  C   UNL     1     115.940 122.649 125.422  1.00  0.00     0.012 C 
ATOM     25  C   UNL     1     113.594 121.201 123.604  1.00  0.00     0.012 C 
ATOM     26  C   UNL     1     111.520 118.290 127.347  1.00  0.00     0.022 C 
ATOM     27  C   UNL     1     110.976 118.331 128.807  1.00  0.00     0.015 C 
ATOM     28  C   UNL     1     111.080 121.064 124.873  1.00  0.00     0.017 C 
ATOM     29  C   UNL     1     109.166 118.026 126.288  1.00  0.00     0.012 C 
ATOM     30  C   UNL     1     109.973 117.081 130.749  1.00  0.00     0.011 C 
ENDROOT
BRANCH  20  31
ATOM     31  O   UNL     1     120.115 120.253 126.283  1.00  0.00    -0.393 OA
ATOM     32  H   UNL     1     120.602 120.355 125.423  1.00  0.00     0.210 HD
ENDBRANCH  20  31
TORSDOF 1
ENDMDL
MODEL 3
REMARK VINA RESULT:    -7.732      2.435      4.579
REMARK INTER + INTRA:          -7.958
REMARK INTER:                  -7.958
REMARK INTRA:                   0.000
REMARK UNBOUND:                 0.000
REMARK SMILES CC1(C)CC[C@]2(C)CC[C@@]3(C)C(=CC[C@@H]4[C@@]5(C)CC[C@@H](O)C(C)(C)[C@H]5CC[C@]43C)[C@H]2C1
REMARK SMILES IDX 1 1 2 2 4 3 5 4 6 5 8 6 9 7 10 8 12 9 13 10 14 11 15 12
REMARK SMILES IDX 28 13 27 14 26 15 25 16 16 17 18 18 19 19 20 20 22 21 23 22
REMARK SMILES IDX 24 23 17 24 29 25 30 26 31 27 11 28 7 29 3 30 21 31
REMARK H PARENT 21 32
REMARK Flexibility Score: inf
ROOT
ATOM      1  C   UNL     1     112.229 117.783 130.731  1.00  0.00     0.011 C 
ATOM      2  C   UNL     1     111.457 116.933 129.691  1.00  0.00    -0.035 C 
ATOM      3  C   UNL     1     112.321 115.724 129.247  1.00  0.00     0.007 C 
ATOM      4  C   UNL     1     113.455 116.110 128.283  1.00  0.00     0.008 C 
ATOM      5  C   UNL     1     112.959 116.912 127.047  1.00  0.00    -0.026 C 
ATOM      6  C   UNL     1     114.203 117.363 126.253  1.00  0.00     0.008 C 
ATOM      7  C   UNL     1     113.850 118.153 124.986  1.00  0.00     0.012 C 
ATOM      8  C   UNL     1     112.798 119.326 125.141  1.00  0.00    -0.006 C 
ATOM      9  C   UNL     1     111.887 119.179 126.395  1.00  0.00    -0.064 C 
ATOM     10  C   UNL     1     110.980 120.176 126.608  1.00  0.00    -0.027 C 
ATOM     11  C   UNL     1     111.196 121.547 126.007  1.00  0.00     0.032 C 
ATOM     12  C   UNL     1     112.713 121.818 126.031  1.00  0.00     0.006 C 
ATOM     13  C   UNL     1     113.506 120.813 125.108  1.00  0.00    -0.020 C 
ATOM     14  C   UNL     1     114.970 120.825 125.682  1.00  0.00     0.008 C 
ATOM     15  C   UNL     1     115.442 122.138 126.380  1.00  0.00     0.005 C 
ATOM     16  C   UNL     1     114.752 123.444 125.874  1.00  0.00     0.003 C 
ATOM     17  C   UNL     1     113.166 123.339 126.048  1.00  0.00    -0.025 C 
ATOM     18  C   UNL     1     112.664 123.957 127.418  1.00  0.00     0.010 C 
ATOM     19  C   UNL     1     113.730 124.677 128.234  1.00  0.00     0.033 C 
ATOM     20  C   UNL     1     114.505 125.625 127.339  1.00  0.00     0.120 C 
ATOM     21  C   UNL     1     115.431 124.823 126.364  1.00  0.00    -0.006 C 
ATOM     22  C   UNL     1     116.819 124.596 127.036  1.00  0.00     0.014 C 
ATOM     23  C   UNL     1     115.704 125.727 125.130  1.00  0.00     0.014 C 
ATOM     24  C   UNL     1     112.474 124.123 124.896  1.00  0.00     0.012 C 
ATOM     25  C   UNL     1     113.584 121.286 123.621  1.00  0.00     0.012 C 
ATOM     26  C   UNL     1     112.215 118.188 127.533  1.00  0.00     0.022 C 
ATOM     27  C   UNL     1     111.030 117.808 128.472  1.00  0.00     0.015 C 
ATOM     28  C   UNL     1     111.810 119.117 123.930  1.00  0.00     0.017 C 
ATOM     29  C   UNL     1     112.072 115.985 126.169  1.00  0.00     0.012 C 
ATOM     30  C   UNL     1     110.182 116.396 130.377  1.00  0.00     0.011 C 
ENDROOT
BRANCH  20  31
ATOM     31  O   UNL     1     115.228 126.518 128.151  1.00  0.00    -0.393 OA
ATOM     32  H   UNL     1     115.989 126.010 128.540  1.00  0.00     0.210 HD
ENDBRANCH  20  31
TORSDOF 1
ENDMDL
MODEL 4
REMARK VINA RESULT:    -7.673      1.337      2.038
REMARK INTER + INTRA:          -7.897
REMARK INTER:                  -7.897
REMARK INTRA:                   0.000
REMARK UNBOUND:                 0.000
REMARK SMILES CC1(C)CC[C@]2(C)CC[C@@]3(C)C(=CC[C@@H]4[C@@]5(C)CC[C@@H](O)C(C)(C)[C@H]5CC[C@]43C)[C@H]2C1
REMARK SMILES IDX 1 1 2 2 4 3 5 4 6 5 8 6 9 7 10 8 12 9 13 10 14 11 15 12
REMARK SMILES IDX 28 13 27 14 26 15 25 16 16 17 18 18 19 19 20 20 22 21 23 22
REMARK SMILES IDX 24 23 17 24 29 25 30 26 31 27 11 28 7 29 3 30 21 31
REMARK H PARENT 21 32
REMARK Flexibility Score: inf
ROOT
ATOM      1  C   UNL     1     114.113 115.435 122.294  1.00  0.00     0.011 C 
ATOM      2  C   UNL     1     113.383 114.554 123.338  1.00  0.00    -0.035 C 
ATOM      3  C   UNL     1     111.942 114.244 122.855  1.00  0.00     0.007 C 
ATOM      4  C   UNL     1     110.984 115.437 122.999  1.00  0.00     0.008 C 
ATOM      5  C   UNL     1     110.963 116.035 124.434  1.00  0.00    -0.026 C 
ATOM      6  C   UNL     1     110.088 117.305 124.399  1.00  0.00     0.008 C 
ATOM      7  C   UNL     1     109.968 117.986 125.769  1.00  0.00     0.012 C 
ATOM      8  C   UNL     1     111.309 118.222 126.575  1.00  0.00    -0.006 C 
ATOM      9  C   UNL     1     112.469 117.280 126.135  1.00  0.00    -0.064 C 
ATOM     10  C   UNL     1     113.667 117.455 126.766  1.00  0.00    -0.027 C 
ATOM     11  C   UNL     1     113.995 118.772 127.432  1.00  0.00     0.032 C 
ATOM     12  C   UNL     1     113.370 119.884 126.567  1.00  0.00     0.006 C 
ATOM     13  C   UNL     1     111.794 119.796 126.541  1.00  0.00    -0.020 C 
ATOM     14  C   UNL     1     111.380 120.553 125.226  1.00  0.00     0.008 C 
ATOM     15  C   UNL     1     112.334 121.687 124.737  1.00  0.00     0.005 C 
ATOM     16  C   UNL     1     113.160 122.391 125.860  1.00  0.00     0.003 C 
ATOM     17  C   UNL     1     114.040 121.321 126.657  1.00  0.00    -0.025 C 
ATOM     18  C   UNL     1     115.506 121.186 126.072  1.00  0.00     0.010 C 
ATOM     19  C   UNL     1     115.868 122.193 124.989  1.00  0.00     0.033 C 
ATOM     20  C   UNL     1     115.473 123.588 125.436  1.00  0.00     0.120 C 
ATOM     21  C   UNL     1     113.915 123.747 125.419  1.00  0.00    -0.006 C 
ATOM     22  C   UNL     1     113.460 124.252 124.017  1.00  0.00     0.014 C 
ATOM     23  C   UNL     1     113.552 124.883 126.415  1.00  0.00     0.014 C 
ATOM     24  C   UNL     1     114.164 121.767 128.141  1.00  0.00     0.012 C 
ATOM     25  C   UNL     1     111.124 120.541 127.740  1.00  0.00     0.012 C 
ATOM     26  C   UNL     1     112.406 116.459 124.829  1.00  0.00     0.022 C 
ATOM     27  C   UNL     1     113.380 115.246 124.736  1.00  0.00     0.015 C 
ATOM     28  C   UNL     1     110.967 117.742 128.037  1.00  0.00     0.017 C 
ATOM     29  C   UNL     1     110.347 114.988 125.406  1.00  0.00     0.012 C 
ATOM     30  C   UNL     1     114.157 113.224 123.452  1.00  0.00     0.011 C 
ENDROOT
BRANCH  20  31
ATOM     31  O   UNL     1     116.115 124.524 124.604  1.00  0.00    -0.393 OA
ATOM     32  H   UNL     1     115.405 125.072 124.176  1.00  0.00     0.210 HD
ENDBRANCH  20  31
TORSDOF 1
ENDMDL
MODEL 5
REMARK VINA RESULT:    -7.352      3.791      7.134
REMARK INTER + INTRA:          -7.567
REMARK INTER:                  -7.567
REMARK INTRA:                   0.000
REMARK UNBOUND:                 0.000
REMARK SMILES CC1(C)CC[C@]2(C)CC[C@@]3(C)C(=CC[C@@H]4[C@@]5(C)CC[C@@H](O)C(C)(C)[C@H]5CC[C@]43C)[C@H]2C1
REMARK SMILES IDX 1 1 2 2 4 3 5 4 6 5 8 6 9 7 10 8 12 9 13 10 14 11 15 12
REMARK SMILES IDX 28 13 27 14 26 15 25 16 16 17 18 18 19 19 20 20 22 21 23 22
REMARK SMILES IDX 24 23 17 24 29 25 30 26 31 27 11 28 7 29 3 30 21 31
REMARK H PARENT 21 32
REMARK Flexibility Score: inf
ROOT
ATOM      1  C   UNL     1     110.610 116.913 123.766  1.00  0.00     0.011 C 
ATOM      2  C   UNL     1     110.514 117.824 125.015  1.00  0.00    -0.035 C 
ATOM      3  C   UNL     1     109.818 119.160 124.644  1.00  0.00     0.007 C 
ATOM      4  C   UNL     1     110.725 120.117 123.854  1.00  0.00     0.008 C 
ATOM      5  C   UNL     1     112.087 120.386 124.552  1.00  0.00    -0.026 C 
ATOM      6  C   UNL     1     112.948 121.229 123.588  1.00  0.00     0.008 C 
ATOM      7  C   UNL     1     114.323 121.583 124.170  1.00  0.00     0.012 C 
ATOM      8  C   UNL     1     115.156 120.403 124.818  1.00  0.00    -0.006 C 
ATOM      9  C   UNL     1     114.278 119.193 125.253  1.00  0.00    -0.064 C 
ATOM     10  C   UNL     1     114.937 118.124 125.787  1.00  0.00    -0.027 C 
ATOM     11  C   UNL     1     116.404 117.906 125.493  1.00  0.00     0.032 C 
ATOM     12  C   UNL     1     116.646 118.358 124.039  1.00  0.00     0.006 C 
ATOM     13  C   UNL     1     116.395 119.905 123.854  1.00  0.00    -0.020 C 
ATOM     14  C   UNL     1     116.103 120.074 122.317  1.00  0.00     0.008 C 
ATOM     15  C   UNL     1     116.766 119.038 121.357  1.00  0.00     0.005 C 
ATOM     16  C   UNL     1     118.103 118.417 121.872  1.00  0.00     0.003 C 
ATOM     17  C   UNL     1     117.878 117.701 123.283  1.00  0.00    -0.025 C 
ATOM     18  C   UNL     1     117.561 116.156 123.135  1.00  0.00     0.010 C 
ATOM     19  C   UNL     1     117.689 115.599 121.724  1.00  0.00     0.033 C 
ATOM     20  C   UNL     1     119.001 116.054 121.113  1.00  0.00     0.120 C 
ATOM     21  C   UNL     1     118.947 117.583 120.778  1.00  0.00    -0.006 C 
ATOM     22  C   UNL     1     118.403 117.779 119.331  1.00  0.00     0.014 C 
ATOM     23  C   UNL     1     120.410 118.106 120.751  1.00  0.00     0.014 C 
ATOM     24  C   UNL     1     119.172 117.837 124.136  1.00  0.00     0.012 C 
ATOM     25  C   UNL     1     117.653 120.769 124.187  1.00  0.00     0.012 C 
ATOM     26  C   UNL     1     112.816 119.031 124.783  1.00  0.00     0.022 C 
ATOM     27  C   UNL     1     111.928 118.067 125.627  1.00  0.00     0.015 C 
ATOM     28  C   UNL     1     115.674 121.003 126.181  1.00  0.00     0.017 C 
ATOM     29  C   UNL     1     111.831 121.173 125.868  1.00  0.00     0.012 C 
ATOM     30  C   UNL     1     109.647 117.095 126.062  1.00  0.00     0.011 C 
ENDROOT
BRANCH  20  31
ATOM     31  O   UNL     1     119.263 115.267 119.976  1.00  0.00    -0.393 OA
ATOM     32  H   UNL     1     119.951 114.598 120.235  1.00  0.00     0.210 HD
ENDBRANCH  20  31
TORSDOF 1
ENDMDL
MODEL 6
REMARK VINA RESULT:    -7.220      3.541      6.348
REMARK INTER + INTRA:          -7.431
REMARK INTER:                  -7.431
REMARK INTRA:                   0.000
REMARK UNBOUND:                 0.000
REMARK SMILES CC1(C)CC[C@]2(C)CC[C@@]3(C)C(=CC[C@@H]4[C@@]5(C)CC[C@@H](O)C(C)(C)[C@H]5CC[C@]43C)[C@H]2C1
REMARK SMILES IDX 1 1 2 2 4 3 5 4 6 5 8 6 9 7 10 8 12 9 13 10 14 11 15 12
REMARK SMILES IDX 28 13 27 14 26 15 25 16 16 17 18 18 19 19 20 20 22 21 23 22
REMARK SMILES IDX 24 23 17 24 29 25 30 26 31 27 11 28 7 29 3 30 21 31
REMARK H PARENT 21 32
REMARK Flexibility Score: inf
ROOT
ATOM      1  C   UNL     1     116.257 116.888 121.330  1.00  0.00     0.011 C 
ATOM      2  C   UNL     1     116.880 118.294 121.135  1.00  0.00    -0.035 C 
ATOM      3  C   UNL     1     118.385 118.263 121.505  1.00  0.00     0.007 C 
ATOM      4  C   UNL     1     118.636 118.219 123.021  1.00  0.00     0.008 C 
ATOM      5  C   UNL     1     117.905 119.352 123.795  1.00  0.00    -0.026 C 
ATOM      6  C   UNL     1     118.116 119.100 125.303  1.00  0.00     0.008 C 
ATOM      7  C   UNL     1     117.456 120.167 126.185  1.00  0.00     0.012 C 
ATOM      8  C   UNL     1     115.953 120.541 125.860  1.00  0.00    -0.006 C 
ATOM      9  C   UNL     1     115.529 120.188 124.403  1.00  0.00    -0.064 C 
ATOM     10  C   UNL     1     114.234 120.452 124.066  1.00  0.00    -0.027 C 
ATOM     11  C   UNL     1     113.173 120.567 125.138  1.00  0.00     0.032 C 
ATOM     12  C   UNL     1     113.529 119.547 126.238  1.00  0.00     0.006 C 
ATOM     13  C   UNL     1     114.895 119.896 126.945  1.00  0.00    -0.020 C 
ATOM     14  C   UNL     1     115.379 118.530 127.559  1.00  0.00     0.008 C 
ATOM     15  C   UNL     1     114.272 117.505 127.955  1.00  0.00     0.005 C 
ATOM     16  C   UNL     1     112.894 118.132 128.340  1.00  0.00     0.003 C 
ATOM     17  C   UNL     1     112.331 119.020 127.137  1.00  0.00    -0.025 C 
ATOM     18  C   UNL     1     111.361 118.206 126.185  1.00  0.00     0.010 C 
ATOM     19  C   UNL     1     111.008 116.804 126.664  1.00  0.00     0.033 C 
ATOM     20  C   UNL     1     110.597 116.851 128.123  1.00  0.00     0.120 C 
ATOM     21  C   UNL     1     111.842 117.124 129.033  1.00  0.00    -0.006 C 
ATOM     22  C   UNL     1     112.496 115.768 129.438  1.00  0.00     0.014 C 
ATOM     23  C   UNL     1     111.324 117.753 130.356  1.00  0.00     0.014 C 
ATOM     24  C   UNL     1     111.525 120.216 127.719  1.00  0.00     0.012 C 
ATOM     25  C   UNL     1     114.729 120.905 128.126  1.00  0.00     0.012 C 
ATOM     26  C   UNL     1     116.380 119.264 123.504  1.00  0.00     0.022 C 
ATOM     27  C   UNL     1     116.107 119.358 121.973  1.00  0.00     0.015 C 
ATOM     28  C   UNL     1     115.936 122.117 125.886  1.00  0.00     0.017 C 
ATOM     29  C   UNL     1     118.526 120.719 123.390  1.00  0.00     0.012 C 
ATOM     30  C   UNL     1     116.751 118.660 119.641  1.00  0.00     0.011 C 
ENDROOT
BRANCH  20  31
ATOM     31  O   UNL     1     109.953 115.642 128.447  1.00  0.00    -0.393 OA
ATOM     32  H   UNL     1     110.564 114.904 128.183  1.00  0.00     0.210 HD
ENDBRANCH  20  31
TORSDOF 1
ENDMDL
MODEL 7
REMARK VINA RESULT:    -7.189      3.537      6.222
REMARK INTER + INTRA:          -7.399
REMARK INTER:                  -7.399
REMARK INTRA:                   0.000
REMARK UNBOUND:                 0.000
REMARK SMILES CC1(C)CC[C@]2(C)CC[C@@]3(C)C(=CC[C@@H]4[C@@]5(C)CC[C@@H](O)C(C)(C)[C@H]5CC[C@]43C)[C@H]2C1
REMARK SMILES IDX 1 1 2 2 4 3 5 4 6 5 8 6 9 7 10 8 12 9 13 10 14 11 15 12
REMARK SMILES IDX 28 13 27 14 26 15 25 16 16 17 18 18 19 19 20 20 22 21 23 22
REMARK SMILES IDX 24 23 17 24 29 25 30 26 31 27 11 28 7 29 3 30 21 31
REMARK H PARENT 21 32
REMARK Flexibility Score: inf
ROOT
ATOM      1  C   UNL     1     110.844 118.163 124.987  1.00  0.00     0.011 C 
ATOM      2  C   UNL     1     110.406 116.900 125.772  1.00  0.00    -0.035 C 
ATOM      3  C   UNL     1     109.447 117.298 126.924  1.00  0.00     0.007 C 
ATOM      4  C   UNL     1     110.168 117.948 128.116  1.00  0.00     0.008 C 
ATOM      5  C   UNL     1     111.348 117.094 128.656  1.00  0.00    -0.026 C 
ATOM      6  C   UNL     1     112.070 117.925 129.737  1.00  0.00     0.008 C 
ATOM      7  C   UNL     1     113.254 117.182 130.372  1.00  0.00     0.012 C 
ATOM      8  C   UNL     1     114.279 116.489 129.386  1.00  0.00    -0.006 C 
ATOM      9  C   UNL     1     113.683 116.197 127.977  1.00  0.00    -0.064 C 
ATOM     10  C   UNL     1     114.525 115.632 127.065  1.00  0.00    -0.027 C 
ATOM     11  C   UNL     1     116.023 115.769 127.220  1.00  0.00     0.032 C 
ATOM     12  C   UNL     1     116.291 117.169 127.805  1.00  0.00     0.006 C 
ATOM     13  C   UNL     1     115.692 117.327 129.256  1.00  0.00    -0.020 C 
ATOM     14  C   UNL     1     115.521 118.879 129.445  1.00  0.00     0.008 C 
ATOM     15  C   UNL     1     116.508 119.796 128.657  1.00  0.00     0.005 C 
ATOM     16  C   UNL     1     117.898 119.159 128.341  1.00  0.00     0.003 C 
ATOM     17  C   UNL     1     117.714 117.807 127.507  1.00  0.00    -0.025 C 
ATOM     18  C   UNL     1     117.797 118.044 125.943  1.00  0.00     0.010 C 
ATOM     19  C   UNL     1     118.197 119.452 125.520  1.00  0.00     0.033 C 
ATOM     20  C   UNL     1     119.413 119.897 126.310  1.00  0.00     0.120 C 
ATOM     21  C   UNL     1     119.023 120.181 127.800  1.00  0.00    -0.006 C 
ATOM     22  C   UNL     1     118.593 121.671 127.949  1.00  0.00     0.014 C 
ATOM     23  C   UNL     1     120.310 120.027 128.656  1.00  0.00     0.014 C 
ATOM     24  C   UNL     1     118.845 116.812 127.894  1.00  0.00     0.012 C 
ATOM     25  C   UNL     1     116.663 116.825 130.373  1.00  0.00     0.012 C 
ATOM     26  C   UNL     1     112.357 116.832 127.503  1.00  0.00     0.022 C 
ATOM     27  C   UNL     1     111.651 116.126 126.305  1.00  0.00     0.015 C 
ATOM     28  C   UNL     1     114.499 115.056 130.007  1.00  0.00     0.017 C 
ATOM     29  C   UNL     1     110.780 115.787 129.279  1.00  0.00     0.012 C 
ATOM     30  C   UNL     1     109.642 115.982 124.794  1.00  0.00     0.011 C 
ENDROOT
BRANCH  20  31
ATOM     31  O   UNL     1     119.969 121.025 125.678  1.00  0.00    -0.393 OA
ATOM     32  H   UNL     1     119.227 121.663 125.510  1.00  0.00     0.210 HD
ENDBRANCH  20  31
TORSDOF 1
ENDMDL
MODEL 8
REMARK VINA RESULT:    -7.097      2.599      4.672
REMARK INTER + INTRA:          -7.304
REMARK INTER:                  -7.304
REMARK INTRA:                   0.000
REMARK UNBOUND:                 0.000
REMARK SMILES CC1(C)CC[C@]2(C)CC[C@@]3(C)C(=CC[C@@H]4[C@@]5(C)CC[C@@H](O)C(C)(C)[C@H]5CC[C@]43C)[C@H]2C1
REMARK SMILES IDX 1 1 2 2 4 3 5 4 6 5 8 6 9 7 10 8 12 9 13 10 14 11 15 12
REMARK SMILES IDX 28 13 27 14 26 15 25 16 16 17 18 18 19 19 20 20 22 21 23 22
REMARK SMILES IDX 24 23 17 24 29 25 30 26 31 27 11 28 7 29 3 30 21 31
REMARK H PARENT 21 32
REMARK Flexibility Score: inf
ROOT
ATOM      1  C   UNL     1     109.735 118.815 122.657  1.00  0.00     0.011 C 
ATOM      2  C   UNL     1     110.024 117.410 123.243  1.00  0.00    -0.035 C 
ATOM      3  C   UNL     1     108.999 117.081 124.360  1.00  0.00     0.007 C 
ATOM      4  C   UNL     1     109.274 117.829 125.674  1.00  0.00     0.008 C 
ATOM      5  C   UNL     1     110.728 117.642 126.192  1.00  0.00    -0.026 C 
ATOM      6  C   UNL     1     110.909 118.559 127.419  1.00  0.00     0.008 C 
ATOM      7  C   UNL     1     112.307 118.454 128.043  1.00  0.00     0.012 C 
ATOM      8  C   UNL     1     113.542 118.544 127.059  1.00  0.00    -0.006 C 
ATOM      9  C   UNL     1     113.186 118.193 125.584  1.00  0.00    -0.064 C 
ATOM     10  C   UNL     1     114.199 118.286 124.675  1.00  0.00    -0.027 C 
ATOM     11  C   UNL     1     115.404 119.154 124.958  1.00  0.00     0.032 C 
ATOM     12  C   UNL     1     114.899 120.389 125.732  1.00  0.00     0.006 C 
ATOM     13  C   UNL     1     114.308 120.000 127.142  1.00  0.00    -0.020 C 
ATOM     14  C   UNL     1     113.350 121.193 127.508  1.00  0.00     0.008 C 
ATOM     15  C   UNL     1     113.710 122.591 126.917  1.00  0.00     0.005 C 
ATOM     16  C   UNL     1     115.228 122.820 126.630  1.00  0.00     0.003 C 
ATOM     17  C   UNL     1     115.778 121.707 125.623  1.00  0.00    -0.025 C 
ATOM     18  C   UNL     1     115.723 122.177 124.111  1.00  0.00     0.010 C 
ATOM     19  C   UNL     1     115.327 123.632 123.898  1.00  0.00     0.033 C 
ATOM     20  C   UNL     1     116.131 124.522 124.827  1.00  0.00     0.120 C 
ATOM     21  C   UNL     1     115.652 124.343 126.307  1.00  0.00    -0.006 C 
ATOM     22  C   UNL     1     114.505 125.355 126.607  1.00  0.00     0.014 C 
ATOM     23  C   UNL     1     116.830 124.755 127.231  1.00  0.00     0.014 C 
ATOM     24  C   UNL     1     117.263 121.397 125.967  1.00  0.00     0.012 C 
ATOM     25  C   UNL     1     115.399 119.918 128.257  1.00  0.00     0.012 C 
ATOM     26  C   UNL     1     111.723 118.111 125.094  1.00  0.00     0.022 C 
ATOM     27  C   UNL     1     111.490 117.325 123.768  1.00  0.00     0.015 C 
ATOM     28  C   UNL     1     114.480 117.359 127.512  1.00  0.00     0.017 C 
ATOM     29  C   UNL     1     110.928 116.155 126.602  1.00  0.00     0.012 C 
ATOM     30  C   UNL     1     109.852 116.383 122.104  1.00  0.00     0.011 C 
ENDROOT
BRANCH  20  31
ATOM     31  O   UNL     1     116.015 125.853 124.384  1.00  0.00    -0.393 OA
ATOM     32  H   UNL     1     116.768 126.362 124.784  1.00  0.00     0.210 HD
ENDBRANCH  20  31
TORSDOF 1
ENDMDL
MODEL 9
REMARK VINA RESULT:    -6.911      8.749     11.590
REMARK INTER + INTRA:          -7.113
REMARK INTER:                  -7.113
REMARK INTRA:                   0.000
REMARK UNBOUND:                 0.000
REMARK SMILES CC1(C)CC[C@]2(C)CC[C@@]3(C)C(=CC[C@@H]4[C@@]5(C)CC[C@@H](O)C(C)(C)[C@H]5CC[C@]43C)[C@H]2C1
REMARK SMILES IDX 1 1 2 2 4 3 5 4 6 5 8 6 9 7 10 8 12 9 13 10 14 11 15 12
REMARK SMILES IDX 28 13 27 14 26 15 25 16 16 17 18 18 19 19 20 20 22 21 23 22
REMARK SMILES IDX 24 23 17 24 29 25 30 26 31 27 11 28 7 29 3 30 21 31
REMARK H PARENT 21 32
REMARK Flexibility Score: inf
ROOT
ATOM      1  C   UNL     1     123.417 120.504 115.947  1.00  0.00     0.011 C 
ATOM      2  C   UNL     1     123.464 119.062 115.384  1.00  0.00    -0.035 C 
ATOM      3  C   UNL     1     122.152 118.748 114.619  1.00  0.00     0.007 C 
ATOM      4  C   UNL     1     120.956 118.485 115.549  1.00  0.00     0.008 C 
ATOM      5  C   UNL     1     121.242 117.394 116.618  1.00  0.00    -0.026 C 
ATOM      6  C   UNL     1     120.027 117.342 117.569  1.00  0.00     0.008 C 
ATOM      7  C   UNL     1     120.173 116.282 118.668  1.00  0.00     0.012 C 
ATOM      8  C   UNL     1     121.541 116.255 119.465  1.00  0.00    -0.006 C 
ATOM      9  C   UNL     1     122.718 116.924 118.695  1.00  0.00    -0.064 C 
ATOM     10  C   UNL     1     123.920 116.967 119.341  1.00  0.00    -0.027 C 
ATOM     11  C   UNL     1     123.982 116.871 120.848  1.00  0.00     0.032 C 
ATOM     12  C   UNL     1     122.743 117.604 121.400  1.00  0.00     0.006 C 
ATOM     13  C   UNL     1     121.400 116.892 120.978  1.00  0.00    -0.020 C 
ATOM     14  C   UNL     1     120.307 118.019 121.086  1.00  0.00     0.008 C 
ATOM     15  C   UNL     1     120.563 119.149 122.130  1.00  0.00     0.005 C 
ATOM     16  C   UNL     1     121.434 118.734 123.358  1.00  0.00     0.003 C 
ATOM     17  C   UNL     1     122.854 118.184 122.874  1.00  0.00    -0.025 C 
ATOM     18  C   UNL     1     123.964 119.315 122.844  1.00  0.00     0.010 C 
ATOM     19  C   UNL     1     123.539 120.656 123.428  1.00  0.00     0.033 C 
ATOM     20  C   UNL     1     122.869 120.438 124.772  1.00  0.00     0.120 C 
ATOM     21  C   UNL     1     121.458 119.787 124.580  1.00  0.00    -0.006 C 
ATOM     22  C   UNL     1     120.387 120.908 124.420  1.00  0.00     0.014 C 
ATOM     23  C   UNL     1     121.102 119.050 125.900  1.00  0.00     0.014 C 
ATOM     24  C   UNL     1     123.335 117.078 123.855  1.00  0.00     0.012 C 
ATOM     25  C   UNL     1     120.986 115.746 121.955  1.00  0.00     0.012 C 
ATOM     26  C   UNL     1     122.484 117.812 117.454  1.00  0.00     0.022 C 
ATOM     27  C   UNL     1     123.719 118.033 116.528  1.00  0.00     0.015 C 
ATOM     28  C   UNL     1     121.933 114.729 119.503  1.00  0.00     0.017 C 
ATOM     29  C   UNL     1     121.419 116.024 115.904  1.00  0.00     0.012 C 
ATOM     30  C   UNL     1     124.641 118.985 114.387  1.00  0.00     0.011 C 
ENDROOT
BRANCH  20  31
ATOM     31  O   UNL     1     122.802 121.673 125.444  1.00  0.00    -0.393 OA
ATOM     32  H   UNL     1     121.847 121.946 125.461  1.00  0.00     0.210 HD
ENDBRANCH  20  31
TORSDOF 1
ENDMDL
