MODEL 1
REMARK VINA RESULT:    -3.199      0.000      0.000
REMARK INTER + INTRA:          -4.008
REMARK INTER:                  -3.853
REMARK INTRA:                  -0.155
REMARK UNBOUND:                -0.155
REMARK SMILES O=c1c(O)c(-c2ccc(O)c(O)c2)oc2cc(O)cc(O)c12
REMARK SMILES IDX 5 1 3 2 2 3 1 4 22 5 20 6 19 7 17 8 16 9 15 10 14 11 6 12
REMARK SMILES IDX 7 13 8 14 9 15 13 16 11 17 10 18 12 20 4 22 21 24 18 26
REMARK H PARENT 10 19 12 21 4 23 21 25 18 27
REMARK Flexibility Score: inf
ROOT
ATOM      1  C   UNL     1      13.264 -13.053  28.449  1.00  0.00     0.180 A 
ATOM      2  C   UNL     1      11.990 -12.910  27.873  1.00  0.00     0.208 A 
ATOM      3  C   UNL     1      11.153 -11.875  28.317  1.00  0.00     0.238 A 
ATOM      4  O   UNL     1      10.035 -11.720  27.760  1.00  0.00    -0.285 OA
ATOM      5  C   UNL     1      11.593 -11.005  29.343  1.00  0.00     0.111 A 
ATOM      6  C   UNL     1      10.812  -9.946  29.899  1.00  0.00     0.134 A 
ATOM      7  C   UNL     1      11.397  -9.066  30.818  1.00  0.00     0.093 A 
ATOM      8  C   UNL     1      12.710  -9.243  31.250  1.00  0.00     0.123 A 
ATOM      9  C   UNL     1      13.464 -10.310  30.759  1.00  0.00     0.094 A 
ATOM     10  C   UNL     1      12.920 -11.184  29.814  1.00  0.00     0.146 A 
ATOM     11  O   UNL     1      13.674 -12.180  29.363  1.00  0.00    -0.452 OA
ENDROOT
BRANCH   1  12
ATOM     12  C   UNL     1      14.193 -14.134  28.051  1.00  0.00     0.025 A 
ATOM     13  C   UNL     1      14.732 -14.140  26.755  1.00  0.00     0.016 A 
ATOM     14  C   UNL     1      15.626 -15.140  26.364  1.00  0.00     0.051 A 
ATOM     15  C   UNL     1      16.008 -16.139  27.265  1.00  0.00     0.157 A 
ATOM     16  C   UNL     1      14.593 -15.128  28.962  1.00  0.00     0.062 A 
ATOM     17  C   UNL     1      15.493 -16.132  28.572  1.00  0.00     0.158 A 
BRANCH  15  18
ATOM     18  O   UNL     1      16.900 -17.125  26.846  1.00  0.00    -0.504 OA
ATOM     19  H   UNL     1      17.886 -17.091  27.077  1.00  0.00     0.293 HD
ENDBRANCH  15  18
BRANCH  17  20
ATOM     20  O   UNL     1      15.880 -17.116  29.480  1.00  0.00    -0.504 OA
ATOM     21  H   UNL     1      15.310 -17.936  29.650  1.00  0.00     0.293 HD
ENDBRANCH  17  20
ENDBRANCH   1  12
BRANCH   2  22
ATOM     22  O   UNL     1      11.584 -13.768  26.846  1.00  0.00    -0.502 OA
ATOM     23  H   UNL     1      10.608 -13.944  26.639  1.00  0.00     0.293 HD
ENDBRANCH   2  22
BRANCH   6  24
ATOM     24  O   UNL     1       9.462  -9.735  29.605  1.00  0.00    -0.507 OA
ATOM     25  H   UNL     1       9.077  -9.689  28.673  1.00  0.00     0.293 HD
ENDBRANCH   6  24
BRANCH   8  26
ATOM     26  O   UNL     1      13.254  -8.358  32.178  1.00  0.00    -0.508 OA
ATOM     27  H   UNL     1      13.590  -8.675  33.080  1.00  0.00     0.293 HD
ENDBRANCH   8  26
TORSDOF 6
ENDMDL
MODEL 2
REMARK VINA RESULT:    -2.488      1.643      6.807
REMARK INTER + INTRA:          -3.152
REMARK INTER:                  -3.004
REMARK INTRA:                  -0.148
REMARK UNBOUND:                -0.155
REMARK SMILES O=c1c(O)c(-c2ccc(O)c(O)c2)oc2cc(O)cc(O)c12
REMARK SMILES IDX 5 1 3 2 2 3 1 4 22 5 20 6 19 7 17 8 16 9 15 10 14 11 6 12
REMARK SMILES IDX 7 13 8 14 9 15 13 16 11 17 10 18 12 20 4 22 21 24 18 26
REMARK H PARENT 10 19 12 21 4 23 21 25 18 27
REMARK Flexibility Score: inf
ROOT
ATOM      1  C   UNL     1      13.301 -12.941  29.511  1.00  0.00     0.180 A 
ATOM      2  C   UNL     1      13.487 -13.437  28.209  1.00  0.00     0.208 A 
ATOM      3  C   UNL     1      14.260 -14.594  28.024  1.00  0.00     0.238 A 
ATOM      4  O   UNL     1      14.379 -15.063  26.862  1.00  0.00    -0.285 OA
ATOM      5  C   UNL     1      14.851 -15.232  29.141  1.00  0.00     0.111 A 
ATOM      6  C   UNL     1      15.686 -16.388  29.066  1.00  0.00     0.134 A 
ATOM      7  C   UNL     1      16.108 -17.012  30.247  1.00  0.00     0.093 A 
ATOM      8  C   UNL     1      15.781 -16.487  31.496  1.00  0.00     0.123 A 
ATOM      9  C   UNL     1      15.015 -15.324  31.580  1.00  0.00     0.094 A 
ATOM     10  C   UNL     1      14.548 -14.699  30.421  1.00  0.00     0.146 A 
ATOM     11  O   UNL     1      13.813 -13.600  30.544  1.00  0.00    -0.452 OA
ENDROOT
BRANCH   1  12
ATOM     12  C   UNL     1      12.521 -11.713  29.782  1.00  0.00     0.025 A 
ATOM     13  C   UNL     1      13.173 -10.576  30.284  1.00  0.00     0.016 A 
ATOM     14  C   UNL     1      12.460  -9.400  30.529  1.00  0.00     0.051 A 
ATOM     15  C   UNL     1      11.089  -9.336  30.261  1.00  0.00     0.157 A 
ATOM     16  C   UNL     1      11.146 -11.641  29.495  1.00  0.00     0.062 A 
ATOM     17  C   UNL     1      10.429 -10.459  29.738  1.00  0.00     0.158 A 
BRANCH  15  18
ATOM     18  O   UNL     1      10.404  -8.149  30.517  1.00  0.00    -0.504 OA
ATOM     19  H   UNL     1      10.281  -7.791  31.457  1.00  0.00     0.293 HD
ENDBRANCH  15  18
BRANCH  17  20
ATOM     20  O   UNL     1       9.065 -10.398  29.455  1.00  0.00    -0.504 OA
ATOM     21  H   UNL     1       8.724 -10.265  28.510  1.00  0.00     0.293 HD
ENDBRANCH  17  20
ENDBRANCH   1  12
BRANCH   2  22
ATOM     22  O   UNL     1      12.877 -12.803  27.122  1.00  0.00    -0.502 OA
ATOM     23  H   UNL     1      11.948 -12.403  27.177  1.00  0.00     0.293 HD
ENDBRANCH   2  22
BRANCH   6  24
ATOM     24  O   UNL     1      16.148 -16.940  27.868  1.00  0.00    -0.507 OA
ATOM     25  H   UNL     1      16.706 -17.778  27.799  1.00  0.00     0.293 HD
ENDBRANCH   6  24
BRANCH   8  26
ATOM     26  O   UNL     1      16.232 -17.125  32.649  1.00  0.00    -0.508 OA
ATOM     27  H   UNL     1      17.015 -16.765  33.183  1.00  0.00     0.293 HD
ENDBRANCH   8  26
TORSDOF 6
ENDMDL
MODEL 3
REMARK VINA RESULT:    -2.146      1.142      2.829
REMARK INTER + INTRA:          -2.741
REMARK INTER:                  -2.697
REMARK INTRA:                  -0.044
REMARK UNBOUND:                -0.155
REMARK SMILES O=c1c(O)c(-c2ccc(O)c(O)c2)oc2cc(O)cc(O)c12
REMARK SMILES IDX 5 1 3 2 2 3 1 4 22 5 20 6 19 7 17 8 16 9 15 10 14 11 6 12
REMARK SMILES IDX 7 13 8 14 9 15 13 16 11 17 10 18 12 20 4 22 21 24 18 26
REMARK H PARENT 10 19 12 21 4 23 21 25 18 27
REMARK Flexibility Score: inf
ROOT
ATOM      1  C   UNL     1      13.808 -12.897  28.864  1.00  0.00     0.180 A 
ATOM      2  C   UNL     1      14.444 -12.103  29.833  1.00  0.00     0.208 A 
ATOM      3  C   UNL     1      13.735 -11.040  30.416  1.00  0.00     0.238 A 
ATOM      4  O   UNL     1      14.292 -10.367  31.322  1.00  0.00    -0.285 OA
ATOM      5  C   UNL     1      12.405 -10.774  30.010  1.00  0.00     0.111 A 
ATOM      6  C   UNL     1      11.607  -9.699  30.505  1.00  0.00     0.134 A 
ATOM      7  C   UNL     1      10.260  -9.610  30.130  1.00  0.00     0.093 A 
ATOM      8  C   UNL     1       9.701 -10.516  29.231  1.00  0.00     0.123 A 
ATOM      9  C   UNL     1      10.488 -11.536  28.695  1.00  0.00     0.094 A 
ATOM     10  C   UNL     1      11.826 -11.673  29.077  1.00  0.00     0.146 A 
ATOM     11  O   UNL     1      12.538 -12.663  28.552  1.00  0.00    -0.452 OA
ENDROOT
BRANCH   1  12
ATOM     12  C   UNL     1      14.498 -14.018  28.187  1.00  0.00     0.025 A 
ATOM     13  C   UNL     1      14.604 -14.020  26.787  1.00  0.00     0.016 A 
ATOM     14  C   UNL     1      15.269 -15.058  26.129  1.00  0.00     0.051 A 
ATOM     15  C   UNL     1      15.850 -16.100  26.858  1.00  0.00     0.157 A 
ATOM     16  C   UNL     1      15.101 -15.055  28.920  1.00  0.00     0.062 A 
ATOM     17  C   UNL     1      15.771 -16.098  28.261  1.00  0.00     0.158 A 
BRANCH  15  18
ATOM     18  O   UNL     1      16.505 -17.123  26.174  1.00  0.00    -0.504 OA
ATOM     19  H   UNL     1      16.089 -17.589  25.377  1.00  0.00     0.293 HD
ENDBRANCH  15  18
BRANCH  17  20
ATOM     20  O   UNL     1      16.361 -17.125  28.995  1.00  0.00    -0.504 OA
ATOM     21  H   UNL     1      16.825 -17.903  28.542  1.00  0.00     0.293 HD
ENDBRANCH  17  20
ENDBRANCH   1  12
BRANCH   2  22
ATOM     22  O   UNL     1      15.751 -12.396  30.235  1.00  0.00    -0.502 OA
ATOM     23  H   UNL     1      16.122 -12.106  31.132  1.00  0.00     0.293 HD
ENDBRANCH   2  22
BRANCH   6  24
ATOM     24  O   UNL     1      12.091  -8.685  31.336  1.00  0.00    -0.507 OA
ATOM     25  H   UNL     1      12.624  -8.839  32.179  1.00  0.00     0.293 HD
ENDBRANCH   6  24
BRANCH   8  26
ATOM     26  O   UNL     1       8.363 -10.388  28.867  1.00  0.00    -0.508 OA
ATOM     27  H   UNL     1       8.052 -10.560  27.918  1.00  0.00     0.293 HD
ENDBRANCH   8  26
TORSDOF 6
ENDMDL
MODEL 4
REMARK VINA RESULT:    -1.918     11.059     13.925
REMARK INTER + INTRA:          -2.466
REMARK INTER:                  -2.235
REMARK INTRA:                  -0.231
REMARK UNBOUND:                -0.155
REMARK SMILES O=c1c(O)c(-c2ccc(O)c(O)c2)oc2cc(O)cc(O)c12
REMARK SMILES IDX 5 1 3 2 2 3 1 4 22 5 20 6 19 7 17 8 16 9 15 10 14 11 6 12
REMARK SMILES IDX 7 13 8 14 9 15 13 16 11 17 10 18 12 20 4 22 21 24 18 26
REMARK H PARENT 10 19 12 21 4 23 21 25 18 27
REMARK Flexibility Score: inf
ROOT
ATOM      1  C   UNL     1      16.356  -0.592  27.079  1.00  0.00     0.180 A 
ATOM      2  C   UNL     1      15.732  -1.072  28.243  1.00  0.00     0.208 A 
ATOM      3  C   UNL     1      16.420  -1.983  29.060  1.00  0.00     0.238 A 
ATOM      4  O   UNL     1      15.877  -2.367  30.128  1.00  0.00    -0.285 OA
ATOM      5  C   UNL     1      17.717  -2.415  28.694  1.00  0.00     0.111 A 
ATOM      6  C   UNL     1      18.491  -3.366  29.426  1.00  0.00     0.134 A 
ATOM      7  C   UNL     1      19.814  -3.621  29.044  1.00  0.00     0.093 A 
ATOM      8  C   UNL     1      20.369  -3.010  27.920  1.00  0.00     0.123 A 
ATOM      9  C   UNL     1      19.603  -2.124  27.162  1.00  0.00     0.094 A 
ATOM     10  C   UNL     1      18.292  -1.822  27.540  1.00  0.00     0.146 A 
ATOM     11  O   UNL     1      17.599  -0.965  26.798  1.00  0.00    -0.452 OA
ENDROOT
BRANCH   1  12
ATOM     12  C   UNL     1      15.685   0.350  26.156  1.00  0.00     0.025 A 
ATOM     13  C   UNL     1      15.529   1.694  26.532  1.00  0.00     0.016 A 
ATOM     14  C   UNL     1      14.917   2.605  25.668  1.00  0.00     0.051 A 
ATOM     15  C   UNL     1      14.465   2.193  24.411  1.00  0.00     0.157 A 
ATOM     16  C   UNL     1      15.248  -0.058  24.883  1.00  0.00     0.062 A 
ATOM     17  C   UNL     1      14.635   0.857  24.013  1.00  0.00     0.158 A 
BRANCH  15  18
ATOM     18  O   UNL     1      13.856   3.125  23.571  1.00  0.00    -0.504 OA
ATOM     19  H   UNL     1      14.348   3.552  22.795  1.00  0.00     0.293 HD
ENDBRANCH  15  18
BRANCH  17  20
ATOM     20  O   UNL     1      14.201   0.442  22.755  1.00  0.00    -0.504 OA
ATOM     21  H   UNL     1      14.489   0.920  21.909  1.00  0.00     0.293 HD
ENDBRANCH  17  20
ENDBRANCH   1  12
BRANCH   2  22
ATOM     22  O   UNL     1      14.458  -0.615  28.597  1.00  0.00    -0.502 OA
ATOM     23  H   UNL     1      13.805  -1.181  29.124  1.00  0.00     0.293 HD
ENDBRANCH   2  22
BRANCH   6  24
ATOM     24  O   UNL     1      18.002  -4.102  30.510  1.00  0.00    -0.507 OA
ATOM     25  H   UNL     1      17.057  -4.051  30.859  1.00  0.00     0.293 HD
ENDBRANCH   6  24
BRANCH   8  26
ATOM     26  O   UNL     1      21.683  -3.300  27.559  1.00  0.00    -0.508 OA
ATOM     27  H   UNL     1      22.267  -2.617  27.091  1.00  0.00     0.293 HD
ENDBRANCH   8  26
TORSDOF 6
ENDMDL
MODEL 5
REMARK VINA RESULT:    -1.453     10.030     12.172
REMARK INTER + INTRA:          -1.906
REMARK INTER:                  -1.689
REMARK INTRA:                  -0.217
REMARK UNBOUND:                -0.155
REMARK SMILES O=c1c(O)c(-c2ccc(O)c(O)c2)oc2cc(O)cc(O)c12
REMARK SMILES IDX 5 1 3 2 2 3 1 4 22 5 20 6 19 7 17 8 16 9 15 10 14 11 6 12
REMARK SMILES IDX 7 13 8 14 9 15 13 16 11 17 10 18 12 20 4 22 21 24 18 26
REMARK H PARENT 10 19 12 21 4 23 21 25 18 27
REMARK Flexibility Score: inf
ROOT
ATOM      1  C   UNL     1      15.791  -1.841  26.906  1.00  0.00     0.180 A 
ATOM      2  C   UNL     1      15.837  -1.247  28.179  1.00  0.00     0.208 A 
ATOM      3  C   UNL     1      15.583   0.129  28.298  1.00  0.00     0.238 A 
ATOM      4  O   UNL     1      15.573   0.645  29.446  1.00  0.00    -0.285 OA
ATOM      5  C   UNL     1      15.303   0.896  27.141  1.00  0.00     0.111 A 
ATOM      6  C   UNL     1      15.070   2.305  27.140  1.00  0.00     0.134 A 
ATOM      7  C   UNL     1      14.672   2.937  25.955  1.00  0.00     0.093 A 
ATOM      8  C   UNL     1      14.563   2.227  24.761  1.00  0.00     0.123 A 
ATOM      9  C   UNL     1      14.846   0.861  24.738  1.00  0.00     0.094 A 
ATOM     10  C   UNL     1      15.210   0.194  25.911  1.00  0.00     0.146 A 
ATOM     11  O   UNL     1      15.460  -1.108  25.849  1.00  0.00    -0.452 OA
ENDROOT
BRANCH   1  12
ATOM     12  C   UNL     1      16.071  -3.280  26.698  1.00  0.00     0.025 A 
ATOM     13  C   UNL     1      17.377  -3.763  26.878  1.00  0.00     0.016 A 
ATOM     14  C   UNL     1      17.661  -5.120  26.707  1.00  0.00     0.051 A 
ATOM     15  C   UNL     1      16.643  -6.018  26.370  1.00  0.00     0.157 A 
ATOM     16  C   UNL     1      15.045  -4.187  26.379  1.00  0.00     0.062 A 
ATOM     17  C   UNL     1      15.328  -5.551  26.209  1.00  0.00     0.158 A 
BRANCH  15  18
ATOM     18  O   UNL     1      16.956  -7.366  26.204  1.00  0.00    -0.504 OA
ATOM     19  H   UNL     1      17.775  -7.668  25.689  1.00  0.00     0.293 HD
ENDBRANCH  15  18
BRANCH  17  20
ATOM     20  O   UNL     1      14.306  -6.442  25.887  1.00  0.00    -0.504 OA
ATOM     21  H   UNL     1      14.387  -7.435  26.075  1.00  0.00     0.293 HD
ENDBRANCH  17  20
ENDBRANCH   1  12
BRANCH   2  22
ATOM     22  O   UNL     1      16.095  -2.027  29.310  1.00  0.00    -0.502 OA
ATOM     23  H   UNL     1      15.369  -2.546  29.790  1.00  0.00     0.293 HD
ENDBRANCH   2  22
BRANCH   6  24
ATOM     24  O   UNL     1      15.241   3.125  28.259  1.00  0.00    -0.507 OA
ATOM     25  H   UNL     1      15.811   2.895  29.058  1.00  0.00     0.293 HD
ENDBRANCH   6  24
BRANCH   8  26
ATOM     26  O   UNL     1      14.181   2.892  23.598  1.00  0.00    -0.508 OA
ATOM     27  H   UNL     1      13.207   2.984  23.336  1.00  0.00     0.293 HD
ENDBRANCH   8  26
TORSDOF 6
ENDMDL
MODEL 6
REMARK VINA RESULT:    -1.408     10.800     14.056
REMARK INTER + INTRA:          -1.852
REMARK INTER:                  -1.890
REMARK INTRA:                   0.039
REMARK UNBOUND:                -0.155
REMARK SMILES O=c1c(O)c(-c2ccc(O)c(O)c2)oc2cc(O)cc(O)c12
REMARK SMILES IDX 5 1 3 2 2 3 1 4 22 5 20 6 19 7 17 8 16 9 15 10 14 11 6 12
REMARK SMILES IDX 7 13 8 14 9 15 13 16 11 17 10 18 12 20 4 22 21 24 18 26
REMARK H PARENT 10 19 12 21 4 23 21 25 18 27
REMARK Flexibility Score: inf
ROOT
ATOM      1  C   UNL     1      17.150  -0.715  26.494  1.00  0.00     0.180 A 
ATOM      2  C   UNL     1      18.417  -0.996  25.956  1.00  0.00     0.208 A 
ATOM      3  C   UNL     1      19.264  -1.885  26.637  1.00  0.00     0.238 A 
ATOM      4  O   UNL     1      20.376  -2.174  26.123  1.00  0.00    -0.285 OA
ATOM      5  C   UNL     1      18.840  -2.469  27.855  1.00  0.00     0.111 A 
ATOM      6  C   UNL     1      19.632  -3.352  28.649  1.00  0.00     0.134 A 
ATOM      7  C   UNL     1      19.062  -3.974  29.767  1.00  0.00     0.093 A 
ATOM      8  C   UNL     1      17.753  -3.695  30.157  1.00  0.00     0.123 A 
ATOM      9  C   UNL     1      16.989  -2.787  29.423  1.00  0.00     0.094 A 
ATOM     10  C   UNL     1      17.518  -2.179  28.281  1.00  0.00     0.146 A 
ATOM     11  O   UNL     1      16.755  -1.329  27.604  1.00  0.00    -0.452 OA
ENDROOT
BRANCH   1  12
ATOM     12  C   UNL     1      16.212   0.231  25.848  1.00  0.00     0.025 A 
ATOM     13  C   UNL     1      15.906   0.079  24.486  1.00  0.00     0.016 A 
ATOM     14  C   UNL     1      15.008   0.947  23.861  1.00  0.00     0.051 A 
ATOM     15  C   UNL     1      14.389   1.969  24.588  1.00  0.00     0.157 A 
ATOM     16  C   UNL     1      15.573   1.246  26.582  1.00  0.00     0.062 A 
ATOM     17  C   UNL     1      14.669   2.117  25.956  1.00  0.00     0.158 A 
BRANCH  15  18
ATOM     18  O   UNL     1      13.499   2.821  23.936  1.00  0.00    -0.504 OA
ATOM     19  H   UNL     1      13.063   3.605  24.407  1.00  0.00     0.293 HD
ENDBRANCH  15  18
BRANCH  17  20
ATOM     20  O   UNL     1      14.045   3.124  26.691  1.00  0.00    -0.504 OA
ATOM     21  H   UNL     1      13.104   3.015  27.049  1.00  0.00     0.293 HD
ENDBRANCH  17  20
ENDBRANCH   1  12
BRANCH   2  22
ATOM     22  O   UNL     1      18.808  -0.424  24.741  1.00  0.00    -0.502 OA
ATOM     23  H   UNL     1      19.463   0.346  24.689  1.00  0.00     0.293 HD
ENDBRANCH   2  22
BRANCH   6  24
ATOM     24  O   UNL     1      20.980  -3.629  28.401  1.00  0.00    -0.507 OA
ATOM     25  H   UNL     1      21.346  -4.539  28.166  1.00  0.00     0.293 HD
ENDBRANCH   6  24
BRANCH   8  26
ATOM     26  O   UNL     1      17.224  -4.318  31.285  1.00  0.00    -0.508 OA
ATOM     27  H   UNL     1      16.846  -5.258  31.243  1.00  0.00     0.293 HD
ENDBRANCH   8  26
TORSDOF 6
ENDMDL
