MODEL 1
REMARK VINA RESULT:    -4.824      0.000      0.000
REMARK INTER + INTRA:          -6.184
REMARK INTER:                  -5.811
REMARK INTRA:                  -0.372
REMARK UNBOUND:                -0.372
REMARK SMILES O=c1c(O)c(-c2ccc(O)cc2O)oc2cc(O)cc(O)c12
REMARK SMILES IDX 5 1 3 2 2 3 1 4 22 5 20 6 19 7 17 8 16 9 15 10 14 11 6 12
REMARK SMILES IDX 8 13 7 14 9 15 11 16 12 17 10 18 13 20 4 22 21 24 18 26
REMARK H PARENT 10 19 13 21 4 23 21 25 18 27
REMARK Flexibility Score: inf
ROOT
ATOM      1  C   UNL     1      87.405  89.218  91.978  1.00  0.00     0.184 A 
ATOM      2  C   UNL     1      87.616  87.945  91.419  1.00  0.00     0.208 A 
ATOM      3  C   UNL     1      88.280  86.970  92.180  1.00  0.00     0.238 A 
ATOM      4  O   UNL     1      88.416  85.815  91.697  1.00  0.00    -0.285 OA
ATOM      5  C   UNL     1      88.742  87.285  93.481  1.00  0.00     0.111 A 
ATOM      6  C   UNL     1      89.461  86.387  94.326  1.00  0.00     0.134 A 
ATOM      7  C   UNL     1      89.757  86.764  95.642  1.00  0.00     0.093 A 
ATOM      8  C   UNL     1      89.418  88.027  96.122  1.00  0.00     0.123 A 
ATOM      9  C   UNL     1      88.767  88.935  95.287  1.00  0.00     0.094 A 
ATOM     10  C   UNL     1      88.426  88.576  93.980  1.00  0.00     0.146 A 
ATOM     11  O   UNL     1      87.795  89.464  93.222  1.00  0.00    -0.451 OA
ENDROOT
BRANCH   1  12
ATOM     12  C   UNL     1      86.733  90.300  91.222  1.00  0.00     0.063 A 
ATOM     13  C   UNL     1      86.652  91.797  89.304  1.00  0.00     0.047 A 
ATOM     14  C   UNL     1      87.269  90.757  90.003  1.00  0.00     0.020 A 
ATOM     15  C   UNL     1      85.498  92.403  89.815  1.00  0.00     0.119 A 
ATOM     16  C   UNL     1      84.966  91.965  91.032  1.00  0.00     0.093 A 
ATOM     17  C   UNL     1      85.577  90.920  91.739  1.00  0.00     0.130 A 
BRANCH  15  18
ATOM     18  O   UNL     1      84.875  93.440  89.125  1.00  0.00    -0.508 OA
ATOM     19  H   UNL     1      84.380  93.276  88.256  1.00  0.00     0.293 HD
ENDBRANCH  15  18
BRANCH  17  20
ATOM     20  O   UNL     1      85.032  90.489  92.949  1.00  0.00    -0.507 OA
ATOM     21  H   UNL     1      84.106  90.776  93.247  1.00  0.00     0.293 HD
ENDBRANCH  17  20
ENDBRANCH   1  12
BRANCH   2  22
ATOM     22  O   UNL     1      87.140  87.653  90.139  1.00  0.00    -0.502 OA
ATOM     23  H   UNL     1      86.165  87.758  89.884  1.00  0.00     0.293 HD
ENDBRANCH   2  22
BRANCH   6  24
ATOM     24  O   UNL     1      89.929  85.135  93.916  1.00  0.00    -0.507 OA
ATOM     25  H   UNL     1      89.444  84.520  93.280  1.00  0.00     0.293 HD
ENDBRANCH   6  24
BRANCH   8  26
ATOM     26  O   UNL     1      89.741  88.374  97.432  1.00  0.00    -0.508 OA
ATOM     27  H   UNL     1      89.795  89.343  97.727  1.00  0.00     0.293 HD
ENDBRANCH   8  26
TORSDOF 6
ENDMDL
MODEL 2
REMARK VINA RESULT:    -4.770      3.300      5.002
REMARK INTER + INTRA:          -6.118
REMARK INTER:                  -5.693
REMARK INTRA:                  -0.425
REMARK UNBOUND:                -0.372
REMARK SMILES O=c1c(O)c(-c2ccc(O)cc2O)oc2cc(O)cc(O)c12
REMARK SMILES IDX 5 1 3 2 2 3 1 4 22 5 20 6 19 7 17 8 16 9 15 10 14 11 6 12
REMARK SMILES IDX 8 13 7 14 9 15 11 16 12 17 10 18 13 20 4 22 21 24 18 26
REMARK H PARENT 10 19 13 21 4 23 21 25 18 27
REMARK Flexibility Score: inf
ROOT
ATOM      1  C   UNL     1      90.436  86.787  93.545  1.00  0.00     0.184 A 
ATOM      2  C   UNL     1      91.799  87.012  93.287  1.00  0.00     0.208 A 
ATOM      3  C   UNL     1      92.662  87.270  94.364  1.00  0.00     0.238 A 
ATOM      4  O   UNL     1      93.891  87.413  94.133  1.00  0.00    -0.285 OA
ATOM      5  C   UNL     1      92.148  87.318  95.683  1.00  0.00     0.111 A 
ATOM      6  C   UNL     1      92.923  87.609  96.845  1.00  0.00     0.134 A 
ATOM      7  C   UNL     1      92.335  87.504  98.112  1.00  0.00     0.093 A 
ATOM      8  C   UNL     1      90.986  87.184  98.255  1.00  0.00     0.123 A 
ATOM      9  C   UNL     1      90.204  86.955  97.123  1.00  0.00     0.094 A 
ATOM     10  C   UNL     1      90.770  87.016  95.847  1.00  0.00     0.146 A 
ATOM     11  O   UNL     1      89.995  86.779  94.796  1.00  0.00    -0.451 OA
ENDROOT
BRANCH   1  12
ATOM     12  C   UNL     1      89.466  86.535  92.454  1.00  0.00     0.063 A 
ATOM     13  C   UNL     1      88.544  85.060  90.751  1.00  0.00     0.047 A 
ATOM     14  C   UNL     1      89.439  85.290  91.798  1.00  0.00     0.020 A 
ATOM     15  C   UNL     1      87.671  86.071  90.335  1.00  0.00     0.119 A 
ATOM     16  C   UNL     1      87.700  87.316  90.971  1.00  0.00     0.093 A 
ATOM     17  C   UNL     1      88.593  87.555  92.025  1.00  0.00     0.130 A 
BRANCH  15  18
ATOM     18  O   UNL     1      86.775  85.852  89.292  1.00  0.00    -0.508 OA
ATOM     19  H   UNL     1      85.857  85.456  89.457  1.00  0.00     0.293 HD
ENDBRANCH  15  18
BRANCH  17  20
ATOM     20  O   UNL     1      88.606  88.800  92.654  1.00  0.00    -0.507 OA
ATOM     21  H   UNL     1      88.974  89.625  92.194  1.00  0.00     0.293 HD
ENDBRANCH  17  20
ENDBRANCH   1  12
BRANCH   2  22
ATOM     22  O   UNL     1      92.286  86.946  91.979  1.00  0.00    -0.502 OA
ATOM     23  H   UNL     1      91.685  87.040  91.170  1.00  0.00     0.293 HD
ENDBRANCH   2  22
BRANCH   6  24
ATOM     24  O   UNL     1      94.256  88.029  96.809  1.00  0.00    -0.507 OA
ATOM     25  H   UNL     1      94.751  88.303  95.974  1.00  0.00     0.293 HD
ENDBRANCH   6  24
BRANCH   8  26
ATOM     26  O   UNL     1      90.430  87.104  99.530  1.00  0.00    -0.508 OA
ATOM     27  H   UNL     1      90.320  86.216 100.006  1.00  0.00     0.293 HD
ENDBRANCH   8  26
TORSDOF 6
ENDMDL
MODEL 3
REMARK VINA RESULT:    -4.738      2.544      4.553
REMARK INTER + INTRA:          -6.079
REMARK INTER:                  -6.062
REMARK INTRA:                  -0.018
REMARK UNBOUND:                -0.372
REMARK SMILES O=c1c(O)c(-c2ccc(O)cc2O)oc2cc(O)cc(O)c12
REMARK SMILES IDX 5 1 3 2 2 3 1 4 22 5 20 6 19 7 17 8 16 9 15 10 14 11 6 12
REMARK SMILES IDX 8 13 7 14 9 15 11 16 12 17 10 18 13 20 4 22 21 24 18 26
REMARK H PARENT 10 19 13 21 4 23 21 25 18 27
REMARK Flexibility Score: inf
ROOT
ATOM      1  C   UNL     1      87.904  89.665  94.476  1.00  0.00     0.184 A 
ATOM      2  C   UNL     1      88.722  88.873  95.300  1.00  0.00     0.208 A 
ATOM      3  C   UNL     1      89.142  87.617  94.836  1.00  0.00     0.238 A 
ATOM      4  O   UNL     1      89.921  86.936  95.554  1.00  0.00    -0.285 OA
ATOM      5  C   UNL     1      88.724  87.159  93.563  1.00  0.00     0.111 A 
ATOM      6  C   UNL     1      89.057  85.887  93.008  1.00  0.00     0.134 A 
ATOM      7  C   UNL     1      88.694  85.593  91.688  1.00  0.00     0.093 A 
ATOM      8  C   UNL     1      87.955  86.496  90.926  1.00  0.00     0.123 A 
ATOM      9  C   UNL     1      87.573  87.719  91.478  1.00  0.00     0.094 A 
ATOM     10  C   UNL     1      87.951  88.057  92.780  1.00  0.00     0.146 A 
ATOM     11  O   UNL     1      87.578  89.235  93.264  1.00  0.00    -0.451 OA
ENDROOT
BRANCH   1  12
ATOM     12  C   UNL     1      87.404  90.989  94.913  1.00  0.00     0.063 A 
ATOM     13  C   UNL     1      87.749  93.088  96.096  1.00  0.00     0.047 A 
ATOM     14  C   UNL     1      88.228  91.851  95.660  1.00  0.00     0.020 A 
ATOM     15  C   UNL     1      86.438  93.480  95.802  1.00  0.00     0.119 A 
ATOM     16  C   UNL     1      85.607  92.624  95.071  1.00  0.00     0.093 A 
ATOM     17  C   UNL     1      86.080  91.381  94.627  1.00  0.00     0.130 A 
BRANCH  15  18
ATOM     18  O   UNL     1      85.950  94.711  96.232  1.00  0.00    -0.508 OA
ATOM     19  H   UNL     1      85.884  94.940  97.216  1.00  0.00     0.293 HD
ENDBRANCH  15  18
BRANCH  17  20
ATOM     20  O   UNL     1      85.242  90.542  93.895  1.00  0.00    -0.507 OA
ATOM     21  H   UNL     1      84.258  90.750  93.769  1.00  0.00     0.293 HD
ENDBRANCH  17  20
ENDBRANCH   1  12
BRANCH   2  22
ATOM     22  O   UNL     1      89.133  89.351  96.547  1.00  0.00    -0.502 OA
ATOM     23  H   UNL     1      88.750  89.000  97.417  1.00  0.00     0.293 HD
ENDBRANCH   2  22
BRANCH   6  24
ATOM     24  O   UNL     1      89.714  84.875  93.715  1.00  0.00    -0.507 OA
ATOM     25  H   UNL     1      89.258  84.200  94.310  1.00  0.00     0.293 HD
ENDBRANCH   6  24
BRANCH   8  26
ATOM     26  O   UNL     1      87.597  86.163  89.621  1.00  0.00    -0.508 OA
ATOM     27  H   UNL     1      86.635  86.214  89.305  1.00  0.00     0.293 HD
ENDBRANCH   8  26
TORSDOF 6
ENDMDL
MODEL 4
REMARK VINA RESULT:    -4.720      2.244      4.002
REMARK INTER + INTRA:          -6.058
REMARK INTER:                  -5.590
REMARK INTRA:                  -0.469
REMARK UNBOUND:                -0.372
REMARK SMILES O=c1c(O)c(-c2ccc(O)cc2O)oc2cc(O)cc(O)c12
REMARK SMILES IDX 5 1 3 2 2 3 1 4 22 5 20 6 19 7 17 8 16 9 15 10 14 11 6 12
REMARK SMILES IDX 8 13 7 14 9 15 11 16 12 17 10 18 13 20 4 22 21 24 18 26
REMARK H PARENT 10 19 13 21 4 23 21 25 18 27
REMARK Flexibility Score: inf
ROOT
ATOM      1  C   UNL     1      87.396  89.879  93.491  1.00  0.00     0.184 A 
ATOM      2  C   UNL     1      88.101  89.375  94.597  1.00  0.00     0.208 A 
ATOM      3  C   UNL     1      88.639  88.080  94.530  1.00  0.00     0.238 A 
ATOM      4  O   UNL     1      89.318  87.656  95.501  1.00  0.00    -0.285 OA
ATOM      5  C   UNL     1      88.448  87.298  93.365  1.00  0.00     0.111 A 
ATOM      6  C   UNL     1      88.914  85.959  93.201  1.00  0.00     0.134 A 
ATOM      7  C   UNL     1      88.779  85.327  91.959  1.00  0.00     0.093 A 
ATOM      8  C   UNL     1      88.137  85.960  90.895  1.00  0.00     0.123 A 
ATOM      9  C   UNL     1      87.625  87.247  91.061  1.00  0.00     0.094 A 
ATOM     10  C   UNL     1      87.776  87.917  92.278  1.00  0.00     0.146 A 
ATOM     11  O   UNL     1      87.285  89.146  92.391  1.00  0.00    -0.451 OA
ENDROOT
BRANCH   1  12
ATOM     12  C   UNL     1      86.782  91.227  93.505  1.00  0.00     0.063 A 
ATOM     13  C   UNL     1      85.057  92.752  94.295  1.00  0.00     0.047 A 
ATOM     14  C   UNL     1      85.653  91.489  94.303  1.00  0.00     0.020 A 
ATOM     15  C   UNL     1      85.572  93.769  93.483  1.00  0.00     0.119 A 
ATOM     16  C   UNL     1      86.685  93.515  92.676  1.00  0.00     0.093 A 
ATOM     17  C   UNL     1      87.292  92.250  92.679  1.00  0.00     0.130 A 
BRANCH  15  18
ATOM     18  O   UNL     1      84.985  95.032  93.468  1.00  0.00    -0.508 OA
ATOM     19  H   UNL     1      85.469  95.845  93.830  1.00  0.00     0.293 HD
ENDBRANCH  15  18
BRANCH  17  20
ATOM     20  O   UNL     1      88.405  92.014  91.874  1.00  0.00    -0.507 OA
ATOM     21  H   UNL     1      88.926  91.145  91.927  1.00  0.00     0.293 HD
ENDBRANCH  17  20
ENDBRANCH   1  12
BRANCH   2  22
ATOM     22  O   UNL     1      88.289  90.170  95.731  1.00  0.00    -0.502 OA
ATOM     23  H   UNL     1      88.707  91.091  95.687  1.00  0.00     0.293 HD
ENDBRANCH   2  22
BRANCH   6  24
ATOM     24  O   UNL     1      89.488  85.202  94.227  1.00  0.00    -0.507 OA
ATOM     25  H   UNL     1      89.427  84.198  94.304  1.00  0.00     0.293 HD
ENDBRANCH   6  24
BRANCH   8  26
ATOM     26  O   UNL     1      88.006  85.295  89.678  1.00  0.00    -0.508 OA
ATOM     27  H   UNL     1      88.666  84.582  89.389  1.00  0.00     0.293 HD
ENDBRANCH   8  26
TORSDOF 6
ENDMDL
MODEL 5
REMARK VINA RESULT:    -4.653      2.447      3.187
REMARK INTER + INTRA:          -5.978
REMARK INTER:                  -5.493
REMARK INTRA:                  -0.485
REMARK UNBOUND:                -0.372
REMARK SMILES O=c1c(O)c(-c2ccc(O)cc2O)oc2cc(O)cc(O)c12
REMARK SMILES IDX 5 1 3 2 2 3 1 4 22 5 20 6 19 7 17 8 16 9 15 10 14 11 6 12
REMARK SMILES IDX 8 13 7 14 9 15 11 16 12 17 10 18 13 20 4 22 21 24 18 26
REMARK H PARENT 10 19 13 21 4 23 21 25 18 27
REMARK Flexibility Score: inf
ROOT
ATOM      1  C   UNL     1      87.612  89.574  91.848  1.00  0.00     0.184 A 
ATOM      2  C   UNL     1      86.802  88.902  90.916  1.00  0.00     0.208 A 
ATOM      3  C   UNL     1      87.133  87.588  90.550  1.00  0.00     0.238 A 
ATOM      4  O   UNL     1      86.372  86.972  89.759  1.00  0.00    -0.285 OA
ATOM      5  C   UNL     1      88.280  86.969  91.104  1.00  0.00     0.111 A 
ATOM      6  C   UNL     1      88.732  85.656  90.775  1.00  0.00     0.134 A 
ATOM      7  C   UNL     1      89.805  85.098  91.480  1.00  0.00     0.093 A 
ATOM      8  C   UNL     1      90.484  85.828  92.454  1.00  0.00     0.123 A 
ATOM      9  C   UNL     1      90.088  87.134  92.743  1.00  0.00     0.094 A 
ATOM     10  C   UNL     1      88.997  87.706  92.083  1.00  0.00     0.146 A 
ATOM     11  O   UNL     1      88.645  88.947  92.396  1.00  0.00    -0.451 OA
ENDROOT
BRANCH   1  12
ATOM     12  C   UNL     1      87.335  90.970  92.261  1.00  0.00     0.063 A 
ATOM     13  C   UNL     1      87.467  93.362  91.831  1.00  0.00     0.047 A 
ATOM     14  C   UNL     1      87.702  92.045  91.431  1.00  0.00     0.020 A 
ATOM     15  C   UNL     1      86.871  93.626  93.069  1.00  0.00     0.119 A 
ATOM     16  C   UNL     1      86.515  92.565  93.908  1.00  0.00     0.093 A 
ATOM     17  C   UNL     1      86.745  91.239  93.513  1.00  0.00     0.130 A 
BRANCH  15  18
ATOM     18  O   UNL     1      86.632  94.936  93.478  1.00  0.00    -0.508 OA
ATOM     19  H   UNL     1      87.160  95.714  93.101  1.00  0.00     0.293 HD
ENDBRANCH  15  18
BRANCH  17  20
ATOM     20  O   UNL     1      86.379  90.191  94.356  1.00  0.00    -0.507 OA
ATOM     21  H   UNL     1      85.432  89.828  94.375  1.00  0.00     0.293 HD
ENDBRANCH  17  20
ENDBRANCH   1  12
BRANCH   2  22
ATOM     22  O   UNL     1      85.668  89.529  90.393  1.00  0.00    -0.502 OA
ATOM     23  H   UNL     1      85.575  89.750  89.409  1.00  0.00     0.293 HD
ENDBRANCH   2  22
BRANCH   6  24
ATOM     24  O   UNL     1      88.182  84.875  89.754  1.00  0.00    -0.507 OA
ATOM     25  H   UNL     1      88.706  84.238  89.172  1.00  0.00     0.293 HD
ENDBRANCH   6  24
BRANCH   8  26
ATOM     26  O   UNL     1      91.558  85.247  93.125  1.00  0.00    -0.508 OA
ATOM     27  H   UNL     1      92.467  85.695  93.159  1.00  0.00     0.293 HD
ENDBRANCH   8  26
TORSDOF 6
ENDMDL
MODEL 6
REMARK VINA RESULT:    -4.601      2.300      7.062
REMARK INTER + INTRA:          -5.914
REMARK INTER:                  -5.465
REMARK INTRA:                  -0.449
REMARK UNBOUND:                -0.372
REMARK SMILES O=c1c(O)c(-c2ccc(O)cc2O)oc2cc(O)cc(O)c12
REMARK SMILES IDX 5 1 3 2 2 3 1 4 22 5 20 6 19 7 17 8 16 9 15 10 14 11 6 12
REMARK SMILES IDX 8 13 7 14 9 15 11 16 12 17 10 18 13 20 4 22 21 24 18 26
REMARK H PARENT 10 19 13 21 4 23 21 25 18 27
REMARK Flexibility Score: inf
ROOT
ATOM      1  C   UNL     1      89.741  88.074  94.116  1.00  0.00     0.184 A 
ATOM      2  C   UNL     1      89.179  89.357  94.002  1.00  0.00     0.208 A 
ATOM      3  C   UNL     1      88.292  89.620  92.946  1.00  0.00     0.238 A 
ATOM      4  O   UNL     1      87.748  90.754  92.882  1.00  0.00    -0.285 OA
ATOM      5  C   UNL     1      87.993  88.604  92.007  1.00  0.00     0.111 A 
ATOM      6  C   UNL     1      87.139  88.770  90.876  1.00  0.00     0.134 A 
ATOM      7  C   UNL     1      86.814  87.661  90.086  1.00  0.00     0.093 A 
ATOM      8  C   UNL     1      87.363  86.406  90.346  1.00  0.00     0.123 A 
ATOM      9  C   UNL     1      88.245  86.244  91.414  1.00  0.00     0.094 A 
ATOM     10  C   UNL     1      88.561  87.324  92.243  1.00  0.00     0.146 A 
ATOM     11  O   UNL     1      89.395  87.125  93.256  1.00  0.00    -0.451 OA
ENDROOT
BRANCH   1  12
ATOM     12  C   UNL     1      90.703  87.736  95.190  1.00  0.00     0.063 A 
ATOM     13  C   UNL     1      92.988  87.647  96.025  1.00  0.00     0.047 A 
ATOM     14  C   UNL     1      92.077  87.991  95.024  1.00  0.00     0.020 A 
ATOM     15  C   UNL     1      92.543  87.033  97.202  1.00  0.00     0.119 A 
ATOM     16  C   UNL     1      91.181  86.763  97.371  1.00  0.00     0.093 A 
ATOM     17  C   UNL     1      90.259  87.107  96.372  1.00  0.00     0.130 A 
BRANCH  15  18
ATOM     18  O   UNL     1      93.443  86.686  98.207  1.00  0.00    -0.508 OA
ATOM     19  H   UNL     1      93.263  85.911  98.835  1.00  0.00     0.293 HD
ENDBRANCH  15  18
BRANCH  17  20
ATOM     20  O   UNL     1      88.904  86.837  96.557  1.00  0.00    -0.507 OA
ATOM     21  H   UNL     1      88.587  86.127  97.208  1.00  0.00     0.293 HD
ENDBRANCH  17  20
ENDBRANCH   1  12
BRANCH   2  22
ATOM     22  O   UNL     1      89.479  90.341  94.948  1.00  0.00    -0.502 OA
ATOM     23  H   UNL     1      89.905  91.225  94.698  1.00  0.00     0.293 HD
ENDBRANCH   2  22
BRANCH   6  24
ATOM     24  O   UNL     1      86.609  90.000  90.472  1.00  0.00    -0.507 OA
ATOM     25  H   UNL     1      85.659  90.144  90.167  1.00  0.00     0.293 HD
ENDBRANCH   6  24
BRANCH   8  26
ATOM     26  O   UNL     1      87.030  85.327  89.530  1.00  0.00    -0.508 OA
ATOM     27  H   UNL     1      87.733  84.679  89.195  1.00  0.00     0.293 HD
ENDBRANCH   8  26
TORSDOF 6
ENDMDL
MODEL 7
REMARK VINA RESULT:    -4.578      1.963      6.609
REMARK INTER + INTRA:          -5.887
REMARK INTER:                  -5.458
REMARK INTRA:                  -0.429
REMARK UNBOUND:                -0.372
REMARK SMILES O=c1c(O)c(-c2ccc(O)cc2O)oc2cc(O)cc(O)c12
REMARK SMILES IDX 5 1 3 2 2 3 1 4 22 5 20 6 19 7 17 8 16 9 15 10 14 11 6 12
REMARK SMILES IDX 8 13 7 14 9 15 11 16 12 17 10 18 13 20 4 22 21 24 18 26
REMARK H PARENT 10 19 13 21 4 23 21 25 18 27
REMARK Flexibility Score: inf
ROOT
ATOM      1  C   UNL     1      89.710  87.118  93.461  1.00  0.00     0.184 A 
ATOM      2  C   UNL     1      89.680  85.951  92.679  1.00  0.00     0.208 A 
ATOM      3  C   UNL     1      88.828  85.900  91.564  1.00  0.00     0.238 A 
ATOM      4  O   UNL     1      88.848  84.875  90.834  1.00  0.00    -0.285 OA
ATOM      5  C   UNL     1      88.002  87.009  91.258  1.00  0.00     0.111 A 
ATOM      6  C   UNL     1      87.071  87.052  90.176  1.00  0.00     0.134 A 
ATOM      7  C   UNL     1      86.400  88.248  89.891  1.00  0.00     0.093 A 
ATOM      8  C   UNL     1      86.574  89.379  90.685  1.00  0.00     0.123 A 
ATOM      9  C   UNL     1      87.437  89.331  91.781  1.00  0.00     0.094 A 
ATOM     10  C   UNL     1      88.149  88.164  92.070  1.00  0.00     0.146 A 
ATOM     11  O   UNL     1      88.969  88.163  93.114  1.00  0.00    -0.451 OA
ENDROOT
BRANCH   1  12
ATOM     12  C   UNL     1      90.567  87.231  94.664  1.00  0.00     0.063 A 
ATOM     13  C   UNL     1      92.767  87.506  95.668  1.00  0.00     0.047 A 
ATOM     14  C   UNL     1      91.954  87.428  94.535  1.00  0.00     0.020 A 
ATOM     15  C   UNL     1      92.210  87.378  96.945  1.00  0.00     0.119 A 
ATOM     16  C   UNL     1      90.835  87.169  97.083  1.00  0.00     0.093 A 
ATOM     17  C   UNL     1      90.010  87.091  95.952  1.00  0.00     0.130 A 
BRANCH  15  18
ATOM     18  O   UNL     1      93.012  87.455  98.081  1.00  0.00    -0.508 OA
ATOM     19  H   UNL     1      93.082  86.683  98.733  1.00  0.00     0.293 HD
ENDBRANCH  15  18
BRANCH  17  20
ATOM     20  O   UNL     1      88.639  86.888  96.105  1.00  0.00    -0.507 OA
ATOM     21  H   UNL     1      88.258  86.422  96.921  1.00  0.00     0.293 HD
ENDBRANCH  17  20
ENDBRANCH   1  12
BRANCH   2  22
ATOM     22  O   UNL     1      90.514  84.875  92.993  1.00  0.00    -0.502 OA
ATOM     23  H   UNL     1      90.364  83.945  92.622  1.00  0.00     0.293 HD
ENDBRANCH   2  22
BRANCH   6  24
ATOM     24  O   UNL     1      86.753  85.952  89.375  1.00  0.00    -0.507 OA
ATOM     25  H   UNL     1      86.014  85.293  89.570  1.00  0.00     0.293 HD
ENDBRANCH   6  24
BRANCH   8  26
ATOM     26  O   UNL     1      85.877  90.547  90.382  1.00  0.00    -0.508 OA
ATOM     27  H   UNL     1      85.381  91.069  91.095  1.00  0.00     0.293 HD
ENDBRANCH   8  26
TORSDOF 6
ENDMDL
MODEL 8
REMARK VINA RESULT:    -4.520      3.397      4.468
REMARK INTER + INTRA:          -5.818
REMARK INTER:                  -5.411
REMARK INTRA:                  -0.407
REMARK UNBOUND:                -0.372
REMARK SMILES O=c1c(O)c(-c2ccc(O)cc2O)oc2cc(O)cc(O)c12
REMARK SMILES IDX 5 1 3 2 2 3 1 4 22 5 20 6 19 7 17 8 16 9 15 10 14 11 6 12
REMARK SMILES IDX 8 13 7 14 9 15 11 16 12 17 10 18 13 20 4 22 21 24 18 26
REMARK H PARENT 10 19 13 21 4 23 21 25 18 27
REMARK Flexibility Score: inf
ROOT
ATOM      1  C   UNL     1      87.025  91.224  94.327  1.00  0.00     0.184 A 
ATOM      2  C   UNL     1      86.582  90.983  93.015  1.00  0.00     0.208 A 
ATOM      3  C   UNL     1      86.894  89.757  92.406  1.00  0.00     0.238 A 
ATOM      4  O   UNL     1      86.446  89.524  91.253  1.00  0.00    -0.285 OA
ATOM      5  C   UNL     1      87.662  88.797  93.108  1.00  0.00     0.111 A 
ATOM      6  C   UNL     1      88.070  87.538  92.574  1.00  0.00     0.134 A 
ATOM      7  C   UNL     1      88.718  86.613  93.403  1.00  0.00     0.093 A 
ATOM      8  C   UNL     1      89.031  86.927  94.724  1.00  0.00     0.123 A 
ATOM      9  C   UNL     1      88.689  88.177  95.240  1.00  0.00     0.094 A 
ATOM     10  C   UNL     1      88.009  89.107  94.449  1.00  0.00     0.146 A 
ATOM     11  O   UNL     1      87.691  90.281  94.981  1.00  0.00    -0.451 OA
ENDROOT
BRANCH   1  12
ATOM     12  C   UNL     1      86.753  92.504  95.020  1.00  0.00     0.063 A 
ATOM     13  C   UNL     1      85.178  94.064  96.027  1.00  0.00     0.047 A 
ATOM     14  C   UNL     1      85.441  92.845  95.398  1.00  0.00     0.020 A 
ATOM     15  C   UNL     1      86.219  94.965  96.279  1.00  0.00     0.119 A 
ATOM     16  C   UNL     1      87.524  94.642  95.895  1.00  0.00     0.093 A 
ATOM     17  C   UNL     1      87.797  93.419  95.265  1.00  0.00     0.130 A 
BRANCH  15  18
ATOM     18  O   UNL     1      85.968  96.184  96.906  1.00  0.00    -0.508 OA
ATOM     19  H   UNL     1      85.802  96.241  97.904  1.00  0.00     0.293 HD
ENDBRANCH  15  18
BRANCH  17  20
ATOM     20  O   UNL     1      89.105  93.108  94.893  1.00  0.00    -0.507 OA
ATOM     21  H   UNL     1      89.518  92.207  95.105  1.00  0.00     0.293 HD
ENDBRANCH  17  20
ENDBRANCH   1  12
BRANCH   2  22
ATOM     22  O   UNL     1      85.815  91.940  92.347  1.00  0.00    -0.502 OA
ATOM     23  H   UNL     1      85.984  92.935  92.440  1.00  0.00     0.293 HD
ENDBRANCH   2  22
BRANCH   6  24
ATOM     24  O   UNL     1      87.889  87.160  91.240  1.00  0.00    -0.507 OA
ATOM     25  H   UNL     1      86.997  86.958  90.816  1.00  0.00     0.293 HD
ENDBRANCH   6  24
BRANCH   8  26
ATOM     26  O   UNL     1      89.690  85.989  95.516  1.00  0.00    -0.508 OA
ATOM     27  H   UNL     1      89.288  85.648  96.382  1.00  0.00     0.293 HD
ENDBRANCH   8  26
TORSDOF 6
ENDMDL
MODEL 9
REMARK VINA RESULT:    -4.511      3.261      7.658
REMARK INTER + INTRA:          -5.806
REMARK INTER:                  -5.404
REMARK INTRA:                  -0.402
REMARK UNBOUND:                -0.372
REMARK SMILES O=c1c(O)c(-c2ccc(O)cc2O)oc2cc(O)cc(O)c12
REMARK SMILES IDX 5 1 3 2 2 3 1 4 22 5 20 6 19 7 17 8 16 9 15 10 14 11 6 12
REMARK SMILES IDX 8 13 7 14 9 15 11 16 12 17 10 18 13 20 4 22 21 24 18 26
REMARK H PARENT 10 19 13 21 4 23 21 25 18 27
REMARK Flexibility Score: inf
ROOT
ATOM      1  C   UNL     1      90.393  88.101  96.195  1.00  0.00     0.184 A 
ATOM      2  C   UNL     1      89.547  87.434  95.293  1.00  0.00     0.208 A 
ATOM      3  C   UNL     1      88.452  88.125  94.750  1.00  0.00     0.238 A 
ATOM      4  O   UNL     1      87.731  87.542  93.898  1.00  0.00    -0.285 OA
ATOM      5  C   UNL     1      88.205  89.467  95.131  1.00  0.00     0.111 A 
ATOM      6  C   UNL     1      87.103  90.250  94.674  1.00  0.00     0.134 A 
ATOM      7  C   UNL     1      87.030  91.606  95.018  1.00  0.00     0.093 A 
ATOM      8  C   UNL     1      87.982  92.189  95.853  1.00  0.00     0.123 A 
ATOM      9  C   UNL     1      89.031  91.418  96.353  1.00  0.00     0.094 A 
ATOM     10  C   UNL     1      89.152  90.072  95.999  1.00  0.00     0.146 A 
ATOM     11  O   UNL     1      90.171  89.376  96.487  1.00  0.00    -0.451 OA
ENDROOT
BRANCH   1  12
ATOM     12  C   UNL     1      91.551  87.425  96.824  1.00  0.00     0.063 A 
ATOM     13  C   UNL     1      93.884  86.734  96.753  1.00  0.00     0.047 A 
ATOM     14  C   UNL     1      92.799  87.394  96.174  1.00  0.00     0.020 A 
ATOM     15  C   UNL     1      93.739  86.084  97.984  1.00  0.00     0.119 A 
ATOM     16  C   UNL     1      92.499  86.097  98.632  1.00  0.00     0.093 A 
ATOM     17  C   UNL     1      91.405  86.760  98.059  1.00  0.00     0.130 A 
BRANCH  15  18
ATOM     18  O   UNL     1      94.815  85.422  98.570  1.00  0.00    -0.508 OA
ATOM     19  H   UNL     1      95.090  85.604  99.528  1.00  0.00     0.293 HD
ENDBRANCH  15  18
BRANCH  17  20
ATOM     20  O   UNL     1      90.177  86.769  98.720  1.00  0.00    -0.507 OA
ATOM     21  H   UNL     1      89.435  86.124  98.473  1.00  0.00     0.293 HD
ENDBRANCH  17  20
ENDBRANCH   1  12
BRANCH   2  22
ATOM     22  O   UNL     1      89.817  86.115  94.921  1.00  0.00    -0.502 OA
ATOM     23  H   UNL     1      89.084  85.446  94.717  1.00  0.00     0.293 HD
ENDBRANCH   2  22
BRANCH   6  24
ATOM     24  O   UNL     1      86.048  89.743  93.910  1.00  0.00    -0.507 OA
ATOM     25  H   UNL     1      86.098  89.540  92.923  1.00  0.00     0.293 HD
ENDBRANCH   6  24
BRANCH   8  26
ATOM     26  O   UNL     1      87.869  93.537  96.187  1.00  0.00    -0.508 OA
ATOM     27  H   UNL     1      87.912  94.264  95.482  1.00  0.00     0.293 HD
ENDBRANCH   8  26
TORSDOF 6
ENDMDL
