MODEL 1
REMARK VINA RESULT:    -7.425      0.000      0.000
REMARK INTER + INTRA:          -9.042
REMARK INTER:                  -8.727
REMARK INTRA:                  -0.315
REMARK UNBOUND:                -0.315
REMARK SMILES O=c1cc(-c2ccc(O)c(O)c2)oc2cc(O)cc(O)c12
REMARK SMILES IDX 4 1 3 2 2 3 1 4 21 5 19 6 18 7 16 8 15 9 14 10 13 11 5 12
REMARK SMILES IDX 6 13 7 14 8 15 12 16 10 17 9 18 11 20 20 22 17 24
REMARK H PARENT 9 19 11 21 20 23 17 25
REMARK Flexibility Score: inf
ROOT
ATOM      1  C   UNL     1      -6.847   5.728  -0.727  1.00  0.00     0.138 A 
ATOM      2  C   UNL     1      -7.354   6.684   0.164  1.00  0.00     0.100 A 
ATOM      3  C   UNL     1      -8.469   6.378   0.944  1.00  0.00     0.197 A 
ATOM      4  O   UNL     1      -8.938   7.277   1.688  1.00  0.00    -0.289 OA
ATOM      5  C   UNL     1      -9.061   5.096   0.853  1.00  0.00     0.107 A 
ATOM      6  C   UNL     1     -10.175   4.658   1.629  1.00  0.00     0.134 A 
ATOM      7  C   UNL     1     -10.749   3.407   1.368  1.00  0.00     0.093 A 
ATOM      8  C   UNL     1     -10.209   2.553   0.403  1.00  0.00     0.123 A 
ATOM      9  C   UNL     1      -9.088   2.949  -0.322  1.00  0.00     0.094 A 
ATOM     10  C   UNL     1      -8.514   4.205  -0.111  1.00  0.00     0.146 A 
ATOM     11  O   UNL     1      -7.454   4.550  -0.834  1.00  0.00    -0.456 OA
ENDROOT
BRANCH   1  12
ATOM     12  C   UNL     1      -5.662   6.001  -1.580  1.00  0.00     0.021 A 
ATOM     13  C   UNL     1      -5.206   7.322  -1.724  1.00  0.00     0.016 A 
ATOM     14  C   UNL     1      -4.098   7.608  -2.526  1.00  0.00     0.051 A 
ATOM     15  C   UNL     1      -3.433   6.583  -3.205  1.00  0.00     0.157 A 
ATOM     16  C   UNL     1      -4.997   4.973  -2.275  1.00  0.00     0.062 A 
ATOM     17  C   UNL     1      -3.885   5.259  -3.082  1.00  0.00     0.158 A 
BRANCH  15  18
ATOM     18  O   UNL     1      -2.329   6.898  -3.996  1.00  0.00    -0.504 OA
ATOM     19  H   UNL     1      -1.380   6.828  -3.648  1.00  0.00     0.293 HD
ENDBRANCH  15  18
BRANCH  17  20
ATOM     20  O   UNL     1      -3.234   4.234  -3.765  1.00  0.00    -0.504 OA
ATOM     21  H   UNL     1      -2.393   3.801  -3.399  1.00  0.00     0.293 HD
ENDBRANCH  17  20
ENDBRANCH   1  12
BRANCH   6  22
ATOM     22  O   UNL     1     -10.738   5.396   2.674  1.00  0.00    -0.507 OA
ATOM     23  H   UNL     1     -11.617   5.889   2.624  1.00  0.00     0.293 HD
ENDBRANCH   6  22
BRANCH   8  24
ATOM     24  O   UNL     1     -10.777   1.304   0.161  1.00  0.00    -0.508 OA
ATOM     25  H   UNL     1     -10.544   0.497   0.729  1.00  0.00     0.293 HD
ENDBRANCH   8  24
TORSDOF 5
ENDMDL
MODEL 2
REMARK VINA RESULT:    -6.920      1.851      3.009
REMARK INTER + INTRA:          -8.448
REMARK INTER:                  -8.163
REMARK INTRA:                  -0.285
REMARK UNBOUND:                -0.315
REMARK SMILES O=c1cc(-c2ccc(O)c(O)c2)oc2cc(O)cc(O)c12
REMARK SMILES IDX 4 1 3 2 2 3 1 4 21 5 19 6 18 7 16 8 15 9 14 10 13 11 5 12
REMARK SMILES IDX 6 13 7 14 8 15 12 16 10 17 9 18 11 20 20 22 17 24
REMARK H PARENT 9 19 11 21 20 23 17 25
REMARK Flexibility Score: inf
ROOT
ATOM      1  C   UNL     1      -4.755   5.624  -2.062  1.00  0.00     0.138 A 
ATOM      2  C   UNL     1      -4.772   6.856  -1.393  1.00  0.00     0.100 A 
ATOM      3  C   UNL     1      -5.822   7.154  -0.524  1.00  0.00     0.197 A 
ATOM      4  O   UNL     1      -5.842   8.291   0.014  1.00  0.00    -0.289 OA
ATOM      5  C   UNL     1      -6.843   6.201  -0.302  1.00  0.00     0.107 A 
ATOM      6  C   UNL     1      -7.940   6.380   0.593  1.00  0.00     0.134 A 
ATOM      7  C   UNL     1      -8.954   5.415   0.643  1.00  0.00     0.093 A 
ATOM      8  C   UNL     1      -8.878   4.249  -0.123  1.00  0.00     0.123 A 
ATOM      9  C   UNL     1      -7.784   4.040  -0.959  1.00  0.00     0.094 A 
ATOM     10  C   UNL     1      -6.774   5.000  -1.058  1.00  0.00     0.146 A 
ATOM     11  O   UNL     1      -5.754   4.768  -1.878  1.00  0.00    -0.456 OA
ENDROOT
BRANCH   1  12
ATOM     12  C   UNL     1      -3.661   5.255  -2.997  1.00  0.00     0.021 A 
ATOM     13  C   UNL     1      -3.953   4.473  -4.127  1.00  0.00     0.016 A 
ATOM     14  C   UNL     1      -2.940   4.106  -5.018  1.00  0.00     0.051 A 
ATOM     15  C   UNL     1      -1.620   4.502  -4.791  1.00  0.00     0.157 A 
ATOM     16  C   UNL     1      -2.327   5.641  -2.765  1.00  0.00     0.062 A 
ATOM     17  C   UNL     1      -1.310   5.272  -3.657  1.00  0.00     0.158 A 
BRANCH  15  18
ATOM     18  O   UNL     1      -0.632   4.123  -5.698  1.00  0.00    -0.504 OA
ATOM     19  H   UNL     1      -0.112   3.259  -5.598  1.00  0.00     0.293 HD
ENDBRANCH  15  18
BRANCH  17  20
ATOM     20  O   UNL     1       0.007   5.661  -3.419  1.00  0.00    -0.504 OA
ATOM     21  H   UNL     1       0.652   5.850  -4.179  1.00  0.00     0.293 HD
ENDBRANCH  17  20
ENDBRANCH   1  12
BRANCH   6  22
ATOM     22  O   UNL     1      -8.070   7.466   1.464  1.00  0.00    -0.507 OA
ATOM     23  H   UNL     1      -8.814   8.146   1.430  1.00  0.00     0.293 HD
ENDBRANCH   6  22
BRANCH   8  24
ATOM     24  O   UNL     1      -9.884   3.287  -0.055  1.00  0.00    -0.508 OA
ATOM     25  H   UNL     1     -10.700   3.330  -0.655  1.00  0.00     0.293 HD
ENDBRANCH   8  24
TORSDOF 5
ENDMDL
MODEL 3
REMARK VINA RESULT:    -6.909     11.004     12.744
REMARK INTER + INTRA:          -8.435
REMARK INTER:                  -8.159
REMARK INTRA:                  -0.276
REMARK UNBOUND:                -0.315
REMARK SMILES O=c1cc(-c2ccc(O)c(O)c2)oc2cc(O)cc(O)c12
REMARK SMILES IDX 4 1 3 2 2 3 1 4 21 5 19 6 18 7 16 8 15 9 14 10 13 11 5 12
REMARK SMILES IDX 6 13 7 14 8 15 12 16 10 17 9 18 11 20 20 22 17 24
REMARK H PARENT 9 19 11 21 20 23 17 25
REMARK Flexibility Score: inf
ROOT
ATOM      1  C   UNL     1       3.112   6.041  -5.258  1.00  0.00     0.138 A 
ATOM      2  C   UNL     1       2.966   6.917  -4.173  1.00  0.00     0.100 A 
ATOM      3  C   UNL     1       3.871   6.859  -3.113  1.00  0.00     0.197 A 
ATOM      4  O   UNL     1       3.679   7.614  -2.126  1.00  0.00    -0.289 OA
ATOM      5  C   UNL     1       4.945   5.939  -3.155  1.00  0.00     0.107 A 
ATOM      6  C   UNL     1       5.952   5.819  -2.151  1.00  0.00     0.134 A 
ATOM      7  C   UNL     1       6.900   4.792  -2.243  1.00  0.00     0.093 A 
ATOM      8  C   UNL     1       6.914   3.920  -3.335  1.00  0.00     0.123 A 
ATOM      9  C   UNL     1       5.969   4.064  -4.348  1.00  0.00     0.094 A 
ATOM     10  C   UNL     1       4.989   5.056  -4.268  1.00  0.00     0.146 A 
ATOM     11  O   UNL     1       4.097   5.149  -5.248  1.00  0.00    -0.456 OA
ENDROOT
BRANCH   1  12
ATOM     12  C   UNL     1       2.177   6.062  -6.413  1.00  0.00     0.021 A 
ATOM     13  C   UNL     1       2.069   7.226  -7.192  1.00  0.00     0.016 A 
ATOM     14  C   UNL     1       1.193   7.274  -8.280  1.00  0.00     0.051 A 
ATOM     15  C   UNL     1       0.403   6.168  -8.600  1.00  0.00     0.157 A 
ATOM     16  C   UNL     1       1.370   4.954  -6.732  1.00  0.00     0.062 A 
ATOM     17  C   UNL     1       0.488   5.001  -7.822  1.00  0.00     0.158 A 
BRANCH  15  18
ATOM     18  O   UNL     1      -0.461   6.244  -9.693  1.00  0.00    -0.504 OA
ATOM     19  H   UNL     1      -0.193   6.691 -10.561  1.00  0.00     0.293 HD
ENDBRANCH  15  18
BRANCH  17  20
ATOM     20  O   UNL     1      -0.306   3.898  -8.130  1.00  0.00    -0.504 OA
ATOM     21  H   UNL     1      -1.058   3.957  -8.807  1.00  0.00     0.293 HD
ENDBRANCH  17  20
ENDBRANCH   1  12
BRANCH   6  22
ATOM     22  O   UNL     1       6.079   6.689  -1.064  1.00  0.00    -0.507 OA
ATOM     23  H   UNL     1       6.632   6.504  -0.240  1.00  0.00     0.293 HD
ENDBRANCH   6  22
BRANCH   8  24
ATOM     24  O   UNL     1       7.870   2.911  -3.427  1.00  0.00    -0.508 OA
ATOM     25  H   UNL     1       7.699   2.065  -3.958  1.00  0.00     0.293 HD
ENDBRANCH   8  24
TORSDOF 5
ENDMDL
MODEL 4
REMARK VINA RESULT:    -6.742      7.609     11.244
REMARK INTER + INTRA:          -8.239
REMARK INTER:                  -7.967
REMARK INTRA:                  -0.272
REMARK UNBOUND:                -0.315
REMARK SMILES O=c1cc(-c2ccc(O)c(O)c2)oc2cc(O)cc(O)c12
REMARK SMILES IDX 4 1 3 2 2 3 1 4 21 5 19 6 18 7 16 8 15 9 14 10 13 11 5 12
REMARK SMILES IDX 6 13 7 14 8 15 12 16 10 17 9 18 11 20 20 22 17 24
REMARK H PARENT 9 19 11 21 20 23 17 25
REMARK Flexibility Score: inf
ROOT
ATOM      1  C   UNL     1       2.942   6.340  -4.403  1.00  0.00     0.138 A 
ATOM      2  C   UNL     1       3.129   6.753  -5.730  1.00  0.00     0.100 A 
ATOM      3  C   UNL     1       2.042   7.228  -6.464  1.00  0.00     0.197 A 
ATOM      4  O   UNL     1       2.229   7.534  -7.670  1.00  0.00    -0.289 OA
ATOM      5  C   UNL     1       0.768   7.318  -5.856  1.00  0.00     0.107 A 
ATOM      6  C   UNL     1      -0.403   7.825  -6.495  1.00  0.00     0.134 A 
ATOM      7  C   UNL     1      -1.635   7.757  -5.832  1.00  0.00     0.093 A 
ATOM      8  C   UNL     1      -1.727   7.256  -4.531  1.00  0.00     0.123 A 
ATOM      9  C   UNL     1      -0.581   6.809  -3.879  1.00  0.00     0.094 A 
ATOM     10  C   UNL     1       0.657   6.832  -4.525  1.00  0.00     0.146 A 
ATOM     11  O   UNL     1       1.724   6.383  -3.873  1.00  0.00    -0.456 OA
ENDROOT
BRANCH   1  12
ATOM     12  C   UNL     1       4.064   5.827  -3.576  1.00  0.00     0.021 A 
ATOM     13  C   UNL     1       4.299   6.387  -2.308  1.00  0.00     0.016 A 
ATOM     14  C   UNL     1       5.353   5.928  -1.514  1.00  0.00     0.051 A 
ATOM     15  C   UNL     1       6.196   4.913  -1.973  1.00  0.00     0.157 A 
ATOM     16  C   UNL     1       4.924   4.813  -4.040  1.00  0.00     0.062 A 
ATOM     17  C   UNL     1       5.983   4.353  -3.244  1.00  0.00     0.158 A 
BRANCH  15  18
ATOM     18  O   UNL     1       7.237   4.474  -1.157  1.00  0.00    -0.504 OA
ATOM     19  H   UNL     1       7.836   3.700  -1.418  1.00  0.00     0.293 HD
ENDBRANCH  15  18
BRANCH  17  20
ATOM     20  O   UNL     1       6.826   3.348  -3.713  1.00  0.00    -0.504 OA
ATOM     21  H   UNL     1       7.050   2.535  -3.149  1.00  0.00     0.293 HD
ENDBRANCH  17  20
ENDBRANCH   1  12
BRANCH   6  22
ATOM     22  O   UNL     1      -0.407   8.423  -7.758  1.00  0.00    -0.507 OA
ATOM     23  H   UNL     1      -1.159   8.986  -8.127  1.00  0.00     0.293 HD
ENDBRANCH   6  22
BRANCH   8  24
ATOM     24  O   UNL     1      -2.954   7.206  -3.874  1.00  0.00    -0.508 OA
ATOM     25  H   UNL     1      -3.662   6.524  -4.123  1.00  0.00     0.293 HD
ENDBRANCH   8  24
TORSDOF 5
ENDMDL
MODEL 5
REMARK VINA RESULT:    -6.689      9.695     12.419
REMARK INTER + INTRA:          -8.177
REMARK INTER:                  -7.904
REMARK INTRA:                  -0.273
REMARK UNBOUND:                -0.315
REMARK SMILES O=c1cc(-c2ccc(O)c(O)c2)oc2cc(O)cc(O)c12
REMARK SMILES IDX 4 1 3 2 2 3 1 4 21 5 19 6 18 7 16 8 15 9 14 10 13 11 5 12
REMARK SMILES IDX 6 13 7 14 8 15 12 16 10 17 9 18 11 20 20 22 17 24
REMARK H PARENT 9 19 11 21 20 23 17 25
REMARK Flexibility Score: inf
ROOT
ATOM      1  C   UNL     1       3.119   6.559  -4.500  1.00  0.00     0.138 A 
ATOM      2  C   UNL     1       1.762   6.508  -4.150  1.00  0.00     0.100 A 
ATOM      3  C   UNL     1       0.808   7.062  -5.003  1.00  0.00     0.197 A 
ATOM      4  O   UNL     1      -0.394   7.055  -4.634  1.00  0.00    -0.289 OA
ATOM      5  C   UNL     1       1.213   7.642  -6.228  1.00  0.00     0.107 A 
ATOM      6  C   UNL     1       0.325   8.200  -7.196  1.00  0.00     0.134 A 
ATOM      7  C   UNL     1       0.849   8.853  -8.319  1.00  0.00     0.093 A 
ATOM      8  C   UNL     1       2.227   8.913  -8.540  1.00  0.00     0.123 A 
ATOM      9  C   UNL     1       3.100   8.324  -7.629  1.00  0.00     0.094 A 
ATOM     10  C   UNL     1       2.610   7.696  -6.481  1.00  0.00     0.146 A 
ATOM     11  O   UNL     1       3.478   7.159  -5.630  1.00  0.00    -0.456 OA
ENDROOT
BRANCH   1  12
ATOM     12  C   UNL     1       4.175   5.984  -3.628  1.00  0.00     0.021 A 
ATOM     13  C   UNL     1       4.397   6.537  -2.355  1.00  0.00     0.016 A 
ATOM     14  C   UNL     1       5.389   6.019  -1.519  1.00  0.00     0.051 A 
ATOM     15  C   UNL     1       6.184   4.950  -1.941  1.00  0.00     0.157 A 
ATOM     16  C   UNL     1       4.987   4.916  -4.055  1.00  0.00     0.062 A 
ATOM     17  C   UNL     1       5.984   4.396  -3.217  1.00  0.00     0.158 A 
BRANCH  15  18
ATOM     18  O   UNL     1       7.165   4.453  -1.084  1.00  0.00    -0.504 OA
ATOM     19  H   UNL     1       6.984   3.688  -0.446  1.00  0.00     0.293 HD
ENDBRANCH  15  18
BRANCH  17  20
ATOM     20  O   UNL     1       6.781   3.338  -3.649  1.00  0.00    -0.504 OA
ATOM     21  H   UNL     1       7.740   3.481  -3.948  1.00  0.00     0.293 HD
ENDBRANCH  17  20
ENDBRANCH   1  12
BRANCH   6  22
ATOM     22  O   UNL     1      -1.069   8.121  -7.115  1.00  0.00    -0.507 OA
ATOM     23  H   UNL     1      -1.580   7.344  -6.725  1.00  0.00     0.293 HD
ENDBRANCH   6  22
BRANCH   8  24
ATOM     24  O   UNL     1       2.739   9.551  -9.667  1.00  0.00    -0.508 OA
ATOM     25  H   UNL     1       3.108   9.025 -10.452  1.00  0.00     0.293 HD
ENDBRANCH   8  24
TORSDOF 5
ENDMDL
MODEL 6
REMARK VINA RESULT:    -6.641      1.847      3.377
REMARK INTER + INTRA:          -8.121
REMARK INTER:                  -7.837
REMARK INTRA:                  -0.284
REMARK UNBOUND:                -0.315
REMARK SMILES O=c1cc(-c2ccc(O)c(O)c2)oc2cc(O)cc(O)c12
REMARK SMILES IDX 4 1 3 2 2 3 1 4 21 5 19 6 18 7 16 8 15 9 14 10 13 11 5 12
REMARK SMILES IDX 6 13 7 14 8 15 12 16 10 17 9 18 11 20 20 22 17 24
REMARK H PARENT 9 19 11 21 20 23 17 25
REMARK Flexibility Score: inf
ROOT
ATOM      1  C   UNL     1      -5.508   5.288  -1.525  1.00  0.00     0.138 A 
ATOM      2  C   UNL     1      -6.384   4.195  -1.570  1.00  0.00     0.100 A 
ATOM      3  C   UNL     1      -7.559   4.221  -0.818  1.00  0.00     0.197 A 
ATOM      4  O   UNL     1      -8.295   3.201  -0.831  1.00  0.00    -0.289 OA
ATOM      5  C   UNL     1      -7.872   5.362  -0.043  1.00  0.00     0.107 A 
ATOM      6  C   UNL     1      -9.061   5.518   0.731  1.00  0.00     0.134 A 
ATOM      7  C   UNL     1      -9.208   6.643   1.552  1.00  0.00     0.093 A 
ATOM      8  C   UNL     1      -8.237   7.647   1.580  1.00  0.00     0.123 A 
ATOM      9  C   UNL     1      -7.098   7.530   0.788  1.00  0.00     0.094 A 
ATOM     10  C   UNL     1      -6.906   6.404  -0.016  1.00  0.00     0.146 A 
ATOM     11  O   UNL     1      -5.798   6.324  -0.746  1.00  0.00    -0.456 OA
ENDROOT
BRANCH   1  12
ATOM     12  C   UNL     1      -4.245   5.312  -2.306  1.00  0.00     0.021 A 
ATOM     13  C   UNL     1      -3.106   5.927  -1.758  1.00  0.00     0.016 A 
ATOM     14  C   UNL     1      -1.907   5.970  -2.475  1.00  0.00     0.051 A 
ATOM     15  C   UNL     1      -1.827   5.411  -3.753  1.00  0.00     0.157 A 
ATOM     16  C   UNL     1      -4.163   4.762  -3.600  1.00  0.00     0.062 A 
ATOM     17  C   UNL     1      -2.961   4.806  -4.321  1.00  0.00     0.158 A 
BRANCH  15  18
ATOM     18  O   UNL     1      -0.617   5.467  -4.444  1.00  0.00    -0.504 OA
ATOM     19  H   UNL     1      -0.487   5.014  -5.340  1.00  0.00     0.293 HD
ENDBRANCH  15  18
BRANCH  17  20
ATOM     20  O   UNL     1      -2.890   4.257  -5.600  1.00  0.00    -0.504 OA
ATOM     21  H   UNL     1      -3.391   3.409  -5.843  1.00  0.00     0.293 HD
ENDBRANCH  17  20
ENDBRANCH   1  12
BRANCH   6  22
ATOM     22  O   UNL     1     -10.130   4.617   0.711  1.00  0.00    -0.507 OA
ATOM     23  H   UNL     1     -10.042   3.620   0.581  1.00  0.00     0.293 HD
ENDBRANCH   6  22
BRANCH   8  24
ATOM     24  O   UNL     1      -8.399   8.770   2.388  1.00  0.00    -0.508 OA
ATOM     25  H   UNL     1      -8.463   9.702   1.995  1.00  0.00     0.293 HD
ENDBRANCH   8  24
TORSDOF 5
ENDMDL
MODEL 7
REMARK VINA RESULT:    -6.576      2.679      8.716
REMARK INTER + INTRA:          -8.044
REMARK INTER:                  -7.761
REMARK INTRA:                  -0.283
REMARK UNBOUND:                -0.315
REMARK SMILES O=c1cc(-c2ccc(O)c(O)c2)oc2cc(O)cc(O)c12
REMARK SMILES IDX 4 1 3 2 2 3 1 4 21 5 19 6 18 7 16 8 15 9 14 10 13 11 5 12
REMARK SMILES IDX 6 13 7 14 8 15 12 16 10 17 9 18 11 20 20 22 17 24
REMARK H PARENT 9 19 11 21 20 23 17 25
REMARK Flexibility Score: inf
ROOT
ATOM      1  C   UNL     1      -3.659   5.206  -3.371  1.00  0.00     0.138 A 
ATOM      2  C   UNL     1      -3.648   4.304  -4.445  1.00  0.00     0.100 A 
ATOM      3  C   UNL     1      -2.535   4.244  -5.283  1.00  0.00     0.197 A 
ATOM      4  O   UNL     1      -2.579   3.470  -6.274  1.00  0.00    -0.289 OA
ATOM      5  C   UNL     1      -1.415   5.070  -5.026  1.00  0.00     0.107 A 
ATOM      6  C   UNL     1      -0.209   5.065  -5.790  1.00  0.00     0.134 A 
ATOM      7  C   UNL     1       0.787   6.010  -5.513  1.00  0.00     0.093 A 
ATOM      8  C   UNL     1       0.646   6.918  -4.461  1.00  0.00     0.123 A 
ATOM      9  C   UNL     1      -0.503   6.896  -3.676  1.00  0.00     0.094 A 
ATOM     10  C   UNL     1      -1.530   5.988  -3.948  1.00  0.00     0.146 A 
ATOM     11  O   UNL     1      -2.617   6.009  -3.184  1.00  0.00    -0.456 OA
ENDROOT
BRANCH   1  12
ATOM     12  C   UNL     1      -4.817   5.310  -2.447  1.00  0.00     0.021 A 
ATOM     13  C   UNL     1      -5.196   6.570  -1.954  1.00  0.00     0.016 A 
ATOM     14  C   UNL     1      -6.277   6.694  -1.077  1.00  0.00     0.051 A 
ATOM     15  C   UNL     1      -6.991   5.565  -0.670  1.00  0.00     0.157 A 
ATOM     16  C   UNL     1      -5.531   4.173  -2.023  1.00  0.00     0.062 A 
ATOM     17  C   UNL     1      -6.616   4.296  -1.143  1.00  0.00     0.158 A 
BRANCH  15  18
ATOM     18  O   UNL     1      -8.067   5.720   0.203  1.00  0.00    -0.504 OA
ATOM     19  H   UNL     1      -8.667   6.535   0.178  1.00  0.00     0.293 HD
ENDBRANCH  15  18
BRANCH  17  20
ATOM     20  O   UNL     1      -7.317   3.164  -0.731  1.00  0.00    -0.504 OA
ATOM     21  H   UNL     1      -6.848   2.281  -0.560  1.00  0.00     0.293 HD
ENDBRANCH  17  20
ENDBRANCH   1  12
BRANCH   6  22
ATOM     22  O   UNL     1       0.069   4.146  -6.806  1.00  0.00    -0.507 OA
ATOM     23  H   UNL     1       0.157   4.377  -7.784  1.00  0.00     0.293 HD
ENDBRANCH   6  22
BRANCH   8  24
ATOM     24  O   UNL     1       1.649   7.845  -4.183  1.00  0.00    -0.508 OA
ATOM     25  H   UNL     1       1.878   8.109  -3.232  1.00  0.00     0.293 HD
ENDBRANCH   8  24
TORSDOF 5
ENDMDL
MODEL 8
REMARK VINA RESULT:    -6.560      1.998      7.543
REMARK INTER + INTRA:          -8.025
REMARK INTER:                  -7.718
REMARK INTRA:                  -0.308
REMARK UNBOUND:                -0.315
REMARK SMILES O=c1cc(-c2ccc(O)c(O)c2)oc2cc(O)cc(O)c12
REMARK SMILES IDX 4 1 3 2 2 3 1 4 21 5 19 6 18 7 16 8 15 9 14 10 13 11 5 12
REMARK SMILES IDX 6 13 7 14 8 15 12 16 10 17 9 18 11 20 20 22 17 24
REMARK H PARENT 9 19 11 21 20 23 17 25
REMARK Flexibility Score: inf
ROOT
ATOM      1  C   UNL     1      -4.676   5.863  -1.994  1.00  0.00     0.138 A 
ATOM      2  C   UNL     1      -3.800   6.820  -1.463  1.00  0.00     0.100 A 
ATOM      3  C   UNL     1      -2.573   7.053  -2.086  1.00  0.00     0.197 A 
ATOM      4  O   UNL     1      -1.783   7.873  -1.552  1.00  0.00    -0.289 OA
ATOM      5  C   UNL     1      -2.238   6.346  -3.265  1.00  0.00     0.107 A 
ATOM      6  C   UNL     1      -1.034   6.532  -4.008  1.00  0.00     0.134 A 
ATOM      7  C   UNL     1      -0.757   5.691  -5.094  1.00  0.00     0.093 A 
ATOM      8  C   UNL     1      -1.669   4.714  -5.500  1.00  0.00     0.123 A 
ATOM      9  C   UNL     1      -2.871   4.561  -4.814  1.00  0.00     0.094 A 
ATOM     10  C   UNL     1      -3.162   5.360  -3.706  1.00  0.00     0.146 A 
ATOM     11  O   UNL     1      -4.313   5.173  -3.070  1.00  0.00    -0.456 OA
ENDROOT
BRANCH   1  12
ATOM     12  C   UNL     1      -5.994   5.576  -1.371  1.00  0.00     0.021 A 
ATOM     13  C   UNL     1      -6.639   6.579  -0.627  1.00  0.00     0.016 A 
ATOM     14  C   UNL     1      -7.875   6.332  -0.025  1.00  0.00     0.051 A 
ATOM     15  C   UNL     1      -8.484   5.080  -0.145  1.00  0.00     0.157 A 
ATOM     16  C   UNL     1      -6.604   4.311  -1.478  1.00  0.00     0.062 A 
ATOM     17  C   UNL     1      -7.845   4.063  -0.873  1.00  0.00     0.158 A 
BRANCH  15  18
ATOM     18  O   UNL     1      -9.719   4.864   0.465  1.00  0.00    -0.504 OA
ATOM     19  H   UNL     1      -9.909   5.160   1.414  1.00  0.00     0.293 HD
ENDBRANCH  15  18
BRANCH  17  20
ATOM     20  O   UNL     1      -8.441   2.808  -0.987  1.00  0.00    -0.504 OA
ATOM     21  H   UNL     1      -8.946   2.533  -1.822  1.00  0.00     0.293 HD
ENDBRANCH  17  20
ENDBRANCH   1  12
BRANCH   6  22
ATOM     22  O   UNL     1      -0.096   7.533  -3.740  1.00  0.00    -0.507 OA
ATOM     23  H   UNL     1      -0.173   8.491  -4.044  1.00  0.00     0.293 HD
ENDBRANCH   6  22
BRANCH   8  24
ATOM     24  O   UNL     1      -1.392   3.893  -6.591  1.00  0.00    -0.508 OA
ATOM     25  H   UNL     1      -1.453   2.883  -6.523  1.00  0.00     0.293 HD
ENDBRANCH   8  24
TORSDOF 5
ENDMDL
MODEL 9
REMARK VINA RESULT:    -6.470      2.325      7.291
REMARK INTER + INTRA:          -7.920
REMARK INTER:                  -7.625
REMARK INTRA:                  -0.296
REMARK UNBOUND:                -0.315
REMARK SMILES O=c1cc(-c2ccc(O)c(O)c2)oc2cc(O)cc(O)c12
REMARK SMILES IDX 4 1 3 2 2 3 1 4 21 5 19 6 18 7 16 8 15 9 14 10 13 11 5 12
REMARK SMILES IDX 6 13 7 14 8 15 12 16 10 17 9 18 11 20 20 22 17 24
REMARK H PARENT 9 19 11 21 20 23 17 25
REMARK Flexibility Score: inf
ROOT
ATOM      1  C   UNL     1      -4.847   6.109  -1.602  1.00  0.00     0.138 A 
ATOM      2  C   UNL     1      -3.732   6.959  -1.562  1.00  0.00     0.100 A 
ATOM      3  C   UNL     1      -2.670   6.747  -2.441  1.00  0.00     0.197 A 
ATOM      4  O   UNL     1      -1.658   7.487  -2.339  1.00  0.00    -0.289 OA
ATOM      5  C   UNL     1      -2.738   5.696  -3.385  1.00  0.00     0.107 A 
ATOM      6  C   UNL     1      -1.733   5.411  -4.357  1.00  0.00     0.134 A 
ATOM      7  C   UNL     1      -1.856   4.272  -5.164  1.00  0.00     0.093 A 
ATOM      8  C   UNL     1      -2.978   3.443  -5.075  1.00  0.00     0.123 A 
ATOM      9  C   UNL     1      -3.990   3.743  -4.167  1.00  0.00     0.094 A 
ATOM     10  C   UNL     1      -3.881   4.852  -3.324  1.00  0.00     0.146 A 
ATOM     11  O   UNL     1      -4.862   5.096  -2.462  1.00  0.00    -0.456 OA
ENDROOT
BRANCH   1  12
ATOM     12  C   UNL     1      -6.005   6.291  -0.691  1.00  0.00     0.021 A 
ATOM     13  C   UNL     1      -7.176   5.544  -0.905  1.00  0.00     0.016 A 
ATOM     14  C   UNL     1      -8.283   5.702  -0.066  1.00  0.00     0.051 A 
ATOM     15  C   UNL     1      -8.244   6.613   0.992  1.00  0.00     0.157 A 
ATOM     16  C   UNL     1      -5.975   7.217   0.369  1.00  0.00     0.062 A 
ATOM     17  C   UNL     1      -7.086   7.378   1.210  1.00  0.00     0.158 A 
BRANCH  15  18
ATOM     18  O   UNL     1      -9.363   6.747   1.813  1.00  0.00    -0.504 OA
ATOM     19  H   UNL     1      -9.379   7.382   2.602  1.00  0.00     0.293 HD
ENDBRANCH  15  18
BRANCH  17  20
ATOM     20  O   UNL     1      -7.045   8.297   2.257  1.00  0.00    -0.504 OA
ATOM     21  H   UNL     1      -7.575   8.155   3.110  1.00  0.00     0.293 HD
ENDBRANCH  17  20
ENDBRANCH   1  12
BRANCH   6  22
ATOM     22  O   UNL     1      -0.616   6.219  -4.587  1.00  0.00    -0.507 OA
ATOM     23  H   UNL     1       0.340   5.898  -4.571  1.00  0.00     0.293 HD
ENDBRANCH   6  22
BRANCH   8  24
ATOM     24  O   UNL     1      -3.099   2.321  -5.892  1.00  0.00    -0.508 OA
ATOM     25  H   UNL     1      -3.083   2.397  -6.902  1.00  0.00     0.293 HD
ENDBRANCH   8  24
TORSDOF 5
ENDMDL
