MODEL 1
REMARK VINA RESULT:    -3.638      0.000      0.000
REMARK INTER + INTRA:          -7.662
REMARK INTER:                  -6.189
REMARK INTRA:                  -1.472
REMARK UNBOUND:                -1.472
REMARK SMILES CCCCCCCCCCCCCC(=O)[O-]
REMARK SMILES IDX 8 1 9 2 10 3 11 4 12 5 13 6 14 7 15 8 16 9 7 10 6 11 5 12
REMARK SMILES IDX 4 13 3 14 2 15 1 16
REMARK H PARENT
REMARK Flexibility Score: inf
ROOT
ATOM      1  C   UNL     1      41.565  11.986  14.759  1.00  0.00     0.000 C 
ENDROOT
BRANCH   1   2
ATOM      2  C   UNL     1      42.151  12.234  16.160  1.00  0.00     0.000 C 
BRANCH   2   3
ATOM      3  C   UNL     1      41.301  11.600  17.273  1.00  0.00     0.000 C 
BRANCH   3   4
ATOM      4  C   UNL     1      40.661  12.651  18.197  1.00  0.00     0.000 C 
BRANCH   4   5
ATOM      5  C   UNL     1      41.051  14.092  17.819  1.00  0.00     0.006 C 
BRANCH   5   6
ATOM      6  C   UNL     1      39.925  14.895  17.150  1.00  0.00     0.053 C 
BRANCH   6   7
ATOM      7  C   UNL     1      40.438  15.763  16.042  1.00  0.00     0.041 C 
ATOM      8  O   UNL     1      40.586  15.292  14.884  1.00  0.00    -0.550 OA
ATOM      9  O   UNL     1      40.784  17.084  16.298  1.00  0.00    -0.550 OA
ENDBRANCH   6   7
ENDBRANCH   5   6
ENDBRANCH   4   5
ENDBRANCH   3   4
ENDBRANCH   2   3
ENDBRANCH   1   2
BRANCH   1  10
ATOM     10  C   UNL     1      40.091  11.543  14.797  1.00  0.00     0.000 C 
BRANCH  10  11
ATOM     11  C   UNL     1      39.187  12.206  13.743  1.00  0.00    -0.000 C 
BRANCH  11  12
ATOM     12  C   UNL     1      39.855  12.318  12.364  1.00  0.00    -0.000 C 
BRANCH  12  13
ATOM     13  C   UNL     1      39.592  11.060  11.524  1.00  0.00    -0.000 C 
BRANCH  13  14
ATOM     14  C   UNL     1      40.825  10.148  11.419  1.00  0.00    -0.000 C 
BRANCH  14  15
ATOM     15  C   UNL     1      40.504   8.681  11.745  1.00  0.00    -0.003 C 
ATOM     16  C   UNL     1      39.170   8.561  12.476  1.00  0.00     0.004 C 
ENDBRANCH  14  15
ENDBRANCH  13  14
ENDBRANCH  12  13
ENDBRANCH  11  12
ENDBRANCH  10  11
ENDBRANCH   1  10
TORSDOF 12
ENDMDL
MODEL 2
REMARK VINA RESULT:    -3.590      2.146      3.753
REMARK INTER + INTRA:          -7.581
REMARK INTER:                  -5.790
REMARK INTRA:                  -1.791
REMARK UNBOUND:                -1.472
REMARK SMILES CCCCCCCCCCCCCC(=O)[O-]
REMARK SMILES IDX 8 1 9 2 10 3 11 4 12 5 13 6 14 7 15 8 16 9 7 10 6 11 5 12
REMARK SMILES IDX 4 13 3 14 2 15 1 16
REMARK H PARENT
REMARK Flexibility Score: inf
ROOT
ATOM      1  C   UNL     1      37.881   9.568  13.708  1.00  0.00     0.000 C 
ENDROOT
BRANCH   1   2
ATOM      2  C   UNL     1      38.013  10.165  15.120  1.00  0.00     0.000 C 
BRANCH   2   3
ATOM      3  C   UNL     1      39.342   9.792  15.794  1.00  0.00     0.000 C 
BRANCH   3   4
ATOM      4  C   UNL     1      39.833  10.876  16.769  1.00  0.00     0.000 C 
BRANCH   4   5
ATOM      5  C   UNL     1      41.309  10.695  17.166  1.00  0.00     0.006 C 
BRANCH   5   6
ATOM      6  C   UNL     1      42.207  11.892  16.818  1.00  0.00     0.053 C 
BRANCH   6   7
ATOM      7  C   UNL     1      42.364  12.830  17.975  1.00  0.00     0.041 C 
ATOM      8  O   UNL     1      43.363  12.735  18.737  1.00  0.00    -0.550 OA
ATOM      9  O   UNL     1      41.391  13.786  18.232  1.00  0.00    -0.550 OA
ENDBRANCH   6   7
ENDBRANCH   5   6
ENDBRANCH   4   5
ENDBRANCH   3   4
ENDBRANCH   2   3
ENDBRANCH   1   2
BRANCH   1  10
ATOM     10  C   UNL     1      38.977   8.533  13.392  1.00  0.00     0.000 C 
BRANCH  10  11
ATOM     11  C   UNL     1      39.377   8.445  11.909  1.00  0.00    -0.000 C 
BRANCH  11  12
ATOM     12  C   UNL     1      40.782   9.002  11.632  1.00  0.00    -0.000 C 
BRANCH  12  13
ATOM     13  C   UNL     1      40.775  10.538  11.643  1.00  0.00    -0.000 C 
BRANCH  13  14
ATOM     14  C   UNL     1      41.520  11.126  12.852  1.00  0.00    -0.000 C 
BRANCH  14  15
ATOM     15  C   UNL     1      40.854  12.400  13.393  1.00  0.00    -0.003 C 
ATOM     16  C   UNL     1      39.481  12.612  12.762  1.00  0.00     0.004 C 
ENDBRANCH  14  15
ENDBRANCH  13  14
ENDBRANCH  12  13
ENDBRANCH  11  12
ENDBRANCH  10  11
ENDBRANCH   1  10
TORSDOF 12
ENDMDL
MODEL 3
REMARK VINA RESULT:    -3.579      0.938      1.732
REMARK INTER + INTRA:          -7.562
REMARK INTER:                  -6.291
REMARK INTRA:                  -1.271
REMARK UNBOUND:                -1.472
REMARK SMILES CCCCCCCCCCCCCC(=O)[O-]
REMARK SMILES IDX 8 1 9 2 10 3 11 4 12 5 13 6 14 7 15 8 16 9 7 10 6 11 5 12
REMARK SMILES IDX 4 13 3 14 2 15 1 16
REMARK H PARENT
REMARK Flexibility Score: inf
ROOT
ATOM      1  C   UNL     1      41.711  11.959  13.643  1.00  0.00     0.000 C 
ENDROOT
BRANCH   1   2
ATOM      2  C   UNL     1      41.738  11.880  15.179  1.00  0.00     0.000 C 
BRANCH   2   3
ATOM      3  C   UNL     1      40.329  11.796  15.788  1.00  0.00     0.000 C 
BRANCH   3   4
ATOM      4  C   UNL     1      40.165  12.704  17.020  1.00  0.00     0.000 C 
BRANCH   4   5
ATOM      5  C   UNL     1      39.505  14.052  16.682  1.00  0.00     0.006 C 
BRANCH   5   6
ATOM      6  C   UNL     1      40.245  15.275  17.246  1.00  0.00     0.053 C 
BRANCH   6   7
ATOM      7  C   UNL     1      40.526  16.297  16.188  1.00  0.00     0.041 C 
ATOM      8  O   UNL     1      40.345  16.018  14.973  1.00  0.00    -0.550 OA
ATOM      9  O   UNL     1      41.020  17.546  16.540  1.00  0.00    -0.550 OA
ENDBRANCH   6   7
ENDBRANCH   5   6
ENDBRANCH   4   5
ENDBRANCH   3   4
ENDBRANCH   2   3
ENDBRANCH   1   2
BRANCH   1  10
ATOM     10  C   UNL     1      40.289  12.135  13.078  1.00  0.00     0.000 C 
BRANCH  10  11
ATOM     11  C   UNL     1      39.985  11.306  11.818  1.00  0.00    -0.000 C 
BRANCH  11  12
ATOM     12  C   UNL     1      41.076  10.271  11.502  1.00  0.00    -0.000 C 
BRANCH  12  13
ATOM     13  C   UNL     1      40.527   8.842  11.623  1.00  0.00    -0.000 C 
BRANCH  13  14
ATOM     14  C   UNL     1      38.996   8.803  11.754  1.00  0.00    -0.000 C 
BRANCH  14  15
ATOM     15  C   UNL     1      38.530   8.042  13.004  1.00  0.00    -0.003 C 
ATOM     16  C   UNL     1      38.618   8.923  14.247  1.00  0.00     0.004 C 
ENDBRANCH  14  15
ENDBRANCH  13  14
ENDBRANCH  12  13
ENDBRANCH  11  12
ENDBRANCH  10  11
ENDBRANCH   1  10
TORSDOF 12
ENDMDL
MODEL 4
REMARK VINA RESULT:    -3.573      1.914      3.170
REMARK INTER + INTRA:          -7.552
REMARK INTER:                  -6.032
REMARK INTRA:                  -1.521
REMARK UNBOUND:                -1.472
REMARK SMILES CCCCCCCCCCCCCC(=O)[O-]
REMARK SMILES IDX 8 1 9 2 10 3 11 4 12 5 13 6 14 7 15 8 16 9 7 10 6 11 5 12
REMARK SMILES IDX 4 13 3 14 2 15 1 16
REMARK H PARENT
REMARK Flexibility Score: inf
ROOT
ATOM      1  C   UNL     1      41.154  11.653  13.179  1.00  0.00     0.000 C 
ENDROOT
BRANCH   1   2
ATOM      2  C   UNL     1      39.947  12.516  12.770  1.00  0.00     0.000 C 
BRANCH   2   3
ATOM      3  C   UNL     1      39.185  13.072  13.983  1.00  0.00     0.000 C 
BRANCH   3   4
ATOM      4  C   UNL     1      40.125  13.498  15.124  1.00  0.00     0.000 C 
BRANCH   4   5
ATOM      5  C   UNL     1      40.856  14.820  14.831  1.00  0.00     0.006 C 
BRANCH   5   6
ATOM      6  C   UNL     1      40.050  16.079  15.191  1.00  0.00     0.053 C 
BRANCH   6   7
ATOM      7  C   UNL     1      40.432  16.623  16.533  1.00  0.00     0.041 C 
ATOM      8  O   UNL     1      41.237  17.588  16.621  1.00  0.00    -0.550 OA
ATOM      9  O   UNL     1      39.924  16.044  17.688  1.00  0.00    -0.550 OA
ENDBRANCH   6   7
ENDBRANCH   5   6
ENDBRANCH   4   5
ENDBRANCH   3   4
ENDBRANCH   2   3
ENDBRANCH   1   2
BRANCH   1  10
ATOM     10  C   UNL     1      41.522  10.599  12.118  1.00  0.00     0.000 C 
BRANCH  10  11
ATOM     11  C   UNL     1      40.348  10.124  11.243  1.00  0.00    -0.000 C 
BRANCH  11  12
ATOM     12  C   UNL     1      39.833   8.731  11.636  1.00  0.00    -0.000 C 
BRANCH  12  13
ATOM     13  C   UNL     1      38.530   8.834  12.441  1.00  0.00    -0.000 C 
BRANCH  13  14
ATOM     14  C   UNL     1      38.728   8.517  13.933  1.00  0.00    -0.000 C 
BRANCH  14  15
ATOM     15  C   UNL     1      38.255   9.658  14.847  1.00  0.00    -0.003 C 
ATOM     16  C   UNL     1      39.243   9.893  15.986  1.00  0.00     0.004 C 
ENDBRANCH  14  15
ENDBRANCH  13  14
ENDBRANCH  12  13
ENDBRANCH  11  12
ENDBRANCH  10  11
ENDBRANCH   1  10
TORSDOF 12
ENDMDL
MODEL 5
REMARK VINA RESULT:    -3.563      2.778      6.154
REMARK INTER + INTRA:          -7.535
REMARK INTER:                  -5.471
REMARK INTRA:                  -2.064
REMARK UNBOUND:                -1.472
REMARK SMILES CCCCCCCCCCCCCC(=O)[O-]
REMARK SMILES IDX 8 1 9 2 10 3 11 4 12 5 13 6 14 7 15 8 16 9 7 10 6 11 5 12
REMARK SMILES IDX 4 13 3 14 2 15 1 16
REMARK H PARENT
REMARK Flexibility Score: inf
ROOT
ATOM      1  C   UNL     1      41.494  11.997  14.469  1.00  0.00     0.000 C 
ENDROOT
BRANCH   1   2
ATOM      2  C   UNL     1      40.852  13.073  13.577  1.00  0.00     0.000 C 
BRANCH   2   3
ATOM      3  C   UNL     1      39.450  12.673  13.090  1.00  0.00     0.000 C 
BRANCH   3   4
ATOM      4  C   UNL     1      38.873  11.480  13.873  1.00  0.00     0.000 C 
BRANCH   4   5
ATOM      5  C   UNL     1      38.533  10.283  12.968  1.00  0.00     0.006 C 
BRANCH   5   6
ATOM      6  C   UNL     1      39.239  10.304  11.603  1.00  0.00     0.053 C 
BRANCH   6   7
ATOM      7  C   UNL     1      40.508   9.507  11.617  1.00  0.00     0.041 C 
ATOM      8  O   UNL     1      40.466   8.249  11.656  1.00  0.00    -0.550 OA
ATOM      9  O   UNL     1      41.736  10.155  11.620  1.00  0.00    -0.550 OA
ENDBRANCH   6   7
ENDBRANCH   5   6
ENDBRANCH   4   5
ENDBRANCH   3   4
ENDBRANCH   2   3
ENDBRANCH   1   2
BRANCH   1  10
ATOM     10  C   UNL     1      41.956  12.548  15.831  1.00  0.00     0.000 C 
BRANCH  10  11
ATOM     11  C   UNL     1      41.296  11.886  17.054  1.00  0.00    -0.000 C 
BRANCH  11  12
ATOM     12  C   UNL     1      39.873  12.400  17.320  1.00  0.00    -0.000 C 
BRANCH  12  13
ATOM     13  C   UNL     1      39.799  13.924  17.148  1.00  0.00    -0.000 C 
BRANCH  13  14
ATOM     14  C   UNL     1      38.604  14.367  16.288  1.00  0.00    -0.000 C 
BRANCH  14  15
ATOM     15  C   UNL     1      38.875  15.675  15.529  1.00  0.00    -0.003 C 
ATOM     16  C   UNL     1      40.351  16.055  15.601  1.00  0.00     0.004 C 
ENDBRANCH  14  15
ENDBRANCH  13  14
ENDBRANCH  12  13
ENDBRANCH  11  12
ENDBRANCH  10  11
ENDBRANCH   1  10
TORSDOF 12
ENDMDL
MODEL 6
REMARK VINA RESULT:    -3.544      1.961      3.725
REMARK INTER + INTRA:          -7.503
REMARK INTER:                  -5.717
REMARK INTRA:                  -1.786
REMARK UNBOUND:                -1.472
REMARK SMILES CCCCCCCCCCCCCC(=O)[O-]
REMARK SMILES IDX 8 1 9 2 10 3 11 4 12 5 13 6 14 7 15 8 16 9 7 10 6 11 5 12
REMARK SMILES IDX 4 13 3 14 2 15 1 16
REMARK H PARENT
REMARK Flexibility Score: inf
ROOT
ATOM      1  C   UNL     1      41.181  11.222  12.715  1.00  0.00     0.000 C 
ENDROOT
BRANCH   1   2
ATOM      2  C   UNL     1      40.384  12.532  12.845  1.00  0.00     0.000 C 
BRANCH   2   3
ATOM      3  C   UNL     1      38.877  12.288  13.024  1.00  0.00     0.000 C 
BRANCH   3   4
ATOM      4  C   UNL     1      38.311  12.990  14.271  1.00  0.00     0.000 C 
BRANCH   4   5
ATOM      5  C   UNL     1      39.395  13.709  15.093  1.00  0.00     0.006 C 
BRANCH   5   6
ATOM      6  C   UNL     1      39.697  13.054  16.449  1.00  0.00     0.053 C 
BRANCH   6   7
ATOM      7  C   UNL     1      41.158  13.091  16.776  1.00  0.00     0.041 C 
ATOM      8  O   UNL     1      42.011  12.775  15.906  1.00  0.00    -0.550 OA
ATOM      9  O   UNL     1      41.576  13.444  18.052  1.00  0.00    -0.550 OA
ENDBRANCH   6   7
ENDBRANCH   5   6
ENDBRANCH   4   5
ENDBRANCH   3   4
ENDBRANCH   2   3
ENDBRANCH   1   2
BRANCH   1  10
ATOM     10  C   UNL     1      40.839  10.440  11.433  1.00  0.00     0.000 C 
BRANCH  10  11
ATOM     11  C   UNL     1      40.616   8.931  11.634  1.00  0.00    -0.000 C 
BRANCH  11  12
ATOM     12  C   UNL     1      39.136   8.562  11.814  1.00  0.00    -0.000 C 
BRANCH  12  13
ATOM     13  C   UNL     1      38.894   7.915  13.186  1.00  0.00    -0.000 C 
BRANCH  13  14
ATOM     14  C   UNL     1      38.091   8.819  14.136  1.00  0.00    -0.000 C 
BRANCH  14  15
ATOM     15  C   UNL     1      38.963   9.439  15.238  1.00  0.00    -0.003 C 
ATOM     16  C   UNL     1      38.158   9.656  16.516  1.00  0.00     0.004 C 
ENDBRANCH  14  15
ENDBRANCH  13  14
ENDBRANCH  12  13
ENDBRANCH  11  12
ENDBRANCH  10  11
ENDBRANCH   1  10
TORSDOF 12
ENDMDL
MODEL 7
REMARK VINA RESULT:    -3.504      2.708      6.187
REMARK INTER + INTRA:          -7.435
REMARK INTER:                  -5.454
REMARK INTRA:                  -1.981
REMARK UNBOUND:                -1.472
REMARK SMILES CCCCCCCCCCCCCC(=O)[O-]
REMARK SMILES IDX 8 1 9 2 10 3 11 4 12 5 13 6 14 7 15 8 16 9 7 10 6 11 5 12
REMARK SMILES IDX 4 13 3 14 2 15 1 16
REMARK H PARENT
REMARK Flexibility Score: inf
ROOT
ATOM      1  C   UNL     1      40.530  12.900  13.676  1.00  0.00     0.000 C 
ENDROOT
BRANCH   1   2
ATOM      2  C   UNL     1      39.041  12.514  13.658  1.00  0.00     0.000 C 
BRANCH   2   3
ATOM      3  C   UNL     1      38.773  11.174  14.361  1.00  0.00     0.000 C 
BRANCH   3   4
ATOM      4  C   UNL     1      38.266  10.091  13.392  1.00  0.00     0.000 C 
BRANCH   4   5
ATOM      5  C   UNL     1      39.296   8.971  13.160  1.00  0.00     0.006 C 
BRANCH   5   6
ATOM      6  C   UNL     1      39.807   8.874  11.715  1.00  0.00     0.053 C 
BRANCH   6   7
ATOM      7  C   UNL     1      40.665  10.045  11.345  1.00  0.00     0.041 C 
ATOM      8  O   UNL     1      41.858  10.108  11.742  1.00  0.00    -0.550 OA
ATOM      9  O   UNL     1      40.136  11.083  10.589  1.00  0.00    -0.550 OA
ENDBRANCH   6   7
ENDBRANCH   5   6
ENDBRANCH   4   5
ENDBRANCH   3   4
ENDBRANCH   2   3
ENDBRANCH   1   2
BRANCH   1  10
ATOM     10  C   UNL     1      41.377  11.973  14.568  1.00  0.00     0.000 C 
BRANCH  10  11
ATOM     11  C   UNL     1      41.905  12.622  15.859  1.00  0.00    -0.000 C 
BRANCH  11  12
ATOM     12  C   UNL     1      41.152  12.160  17.116  1.00  0.00    -0.000 C 
BRANCH  12  13
ATOM     13  C   UNL     1      39.932  13.052  17.384  1.00  0.00    -0.000 C 
BRANCH  13  14
ATOM     14  C   UNL     1      40.266  14.551  17.314  1.00  0.00    -0.000 C 
BRANCH  14  15
ATOM     15  C   UNL     1      39.365  15.312  16.330  1.00  0.00    -0.003 C 
ATOM     16  C   UNL     1      40.196  16.125  15.341  1.00  0.00     0.004 C 
ENDBRANCH  14  15
ENDBRANCH  13  14
ENDBRANCH  12  13
ENDBRANCH  11  12
ENDBRANCH  10  11
ENDBRANCH   1  10
TORSDOF 12
ENDMDL
MODEL 8
REMARK VINA RESULT:    -3.486      1.687      2.321
REMARK INTER + INTRA:          -7.404
REMARK INTER:                  -5.644
REMARK INTRA:                  -1.760
REMARK UNBOUND:                -1.472
REMARK SMILES CCCCCCCCCCCCCC(=O)[O-]
REMARK SMILES IDX 8 1 9 2 10 3 11 4 12 5 13 6 14 7 15 8 16 9 7 10 6 11 5 12
REMARK SMILES IDX 4 13 3 14 2 15 1 16
REMARK H PARENT
REMARK Flexibility Score: inf
ROOT
ATOM      1  C   UNL     1      40.269  11.092  16.925  1.00  0.00     0.000 C 
ENDROOT
BRANCH   1   2
ATOM      2  C   UNL     1      41.550  11.515  16.185  1.00  0.00     0.000 C 
BRANCH   2   3
ATOM      3  C   UNL     1      41.816  13.025  16.285  1.00  0.00     0.000 C 
BRANCH   3   4
ATOM      4  C   UNL     1      40.545  13.863  16.065  1.00  0.00     0.000 C 
BRANCH   4   5
ATOM      5  C   UNL     1      40.779  15.067  15.135  1.00  0.00     0.006 C 
BRANCH   5   6
ATOM      6  C   UNL     1      39.925  16.299  15.472  1.00  0.00     0.053 C 
BRANCH   6   7
ATOM      7  C   UNL     1      40.384  16.972  16.729  1.00  0.00     0.041 C 
ATOM      8  O   UNL     1      39.737  16.825  17.800  1.00  0.00    -0.550 OA
ATOM      9  O   UNL     1      41.509  17.786  16.711  1.00  0.00    -0.550 OA
ENDBRANCH   6   7
ENDBRANCH   5   6
ENDBRANCH   4   5
ENDBRANCH   3   4
ENDBRANCH   2   3
ENDBRANCH   1   2
BRANCH   1  10
ATOM     10  C   UNL     1      39.331  10.236  16.055  1.00  0.00     0.000 C 
BRANCH  10  11
ATOM     11  C   UNL     1      38.233  11.024  15.318  1.00  0.00    -0.000 C 
BRANCH  11  12
ATOM     12  C   UNL     1      38.365  10.952  13.789  1.00  0.00    -0.000 C 
BRANCH  12  13
ATOM     13  C   UNL     1      38.728  12.325  13.205  1.00  0.00    -0.000 C 
BRANCH  13  14
ATOM     14  C   UNL     1      40.152  12.366  12.626  1.00  0.00    -0.000 C 
BRANCH  14  15
ATOM     15  C   UNL     1      40.817  10.982  12.595  1.00  0.00    -0.003 C 
ATOM     16  C   UNL     1      40.895  10.444  11.169  1.00  0.00     0.004 C 
ENDBRANCH  14  15
ENDBRANCH  13  14
ENDBRANCH  12  13
ENDBRANCH  11  12
ENDBRANCH  10  11
ENDBRANCH   1  10
TORSDOF 12
ENDMDL
MODEL 9
REMARK VINA RESULT:    -3.400      2.538      5.397
REMARK INTER + INTRA:          -7.258
REMARK INTER:                  -5.697
REMARK INTRA:                  -1.561
REMARK UNBOUND:                -1.472
REMARK SMILES CCCCCCCCCCCCCC(=O)[O-]
REMARK SMILES IDX 8 1 9 2 10 3 11 4 12 5 13 6 14 7 15 8 16 9 7 10 6 11 5 12
REMARK SMILES IDX 4 13 3 14 2 15 1 16
REMARK H PARENT
REMARK Flexibility Score: inf
ROOT
ATOM      1  C   UNL     1      40.751   9.881  11.946  1.00  0.00     0.000 C 
ENDROOT
BRANCH   1   2
ATOM      2  C   UNL     1      40.088   8.545  11.568  1.00  0.00     0.000 C 
BRANCH   2   3
ATOM      3  C   UNL     1      39.380   7.883  12.761  1.00  0.00     0.000 C 
BRANCH   3   4
ATOM      4  C   UNL     1      38.151   8.679  13.233  1.00  0.00     0.000 C 
BRANCH   4   5
ATOM      5  C   UNL     1      38.098   8.838  14.763  1.00  0.00     0.006 C 
BRANCH   5   6
ATOM      6  C   UNL     1      39.044   9.914  15.318  1.00  0.00     0.053 C 
BRANCH   6   7
ATOM      7  C   UNL     1      38.895  10.080  16.800  1.00  0.00     0.041 C 
ATOM      8  O   UNL     1      38.807   9.069  17.545  1.00  0.00    -0.550 OA
ATOM      9  O   UNL     1      38.822  11.351  17.353  1.00  0.00    -0.550 OA
ENDBRANCH   6   7
ENDBRANCH   5   6
ENDBRANCH   4   5
ENDBRANCH   3   4
ENDBRANCH   2   3
ENDBRANCH   1   2
BRANCH   1  10
ATOM     10  C   UNL     1      40.050  11.097  11.310  1.00  0.00     0.000 C 
BRANCH  10  11
ATOM     11  C   UNL     1      39.546  12.151  12.312  1.00  0.00    -0.000 C 
BRANCH  11  12
ATOM     12  C   UNL     1      40.669  12.741  13.178  1.00  0.00    -0.000 C 
BRANCH  12  13
ATOM     13  C   UNL     1      40.112  13.289  14.500  1.00  0.00    -0.000 C 
BRANCH  13  14
ATOM     14  C   UNL     1      41.188  13.411  15.592  1.00  0.00    -0.000 C 
BRANCH  14  15
ATOM     15  C   UNL     1      41.985  12.112  15.783  1.00  0.00    -0.003 C 
ATOM     16  C   UNL     1      42.356  11.907  17.249  1.00  0.00     0.004 C 
ENDBRANCH  14  15
ENDBRANCH  13  14
ENDBRANCH  12  13
ENDBRANCH  11  12
ENDBRANCH  10  11
ENDBRANCH   1  10
TORSDOF 12
ENDMDL
