MODEL 1
REMARK VINA RESULT:    -4.083      0.000      0.000
REMARK INTER + INTRA:         -14.713
REMARK INTER:                 -10.289
REMARK INTRA:                  -4.424
REMARK UNBOUND:                -4.424
REMARK SMILES CCCCCCCCCCCCCCCCCCCCCCCCCCCC(=O)[O-]
REMARK SMILES IDX 15 1 16 2 17 3 18 4 19 5 20 6 21 7 22 8 23 9 24 10 25 11
REMARK SMILES IDX 26 12 27 13 28 14 29 15 30 16 14 17 13 18 12 19 11 20 10 21
REMARK SMILES IDX 9 22 8 23 7 24 6 25 5 26 4 27 3 28 2 29 1 30
REMARK H PARENT
REMARK Flexibility Score: inf
ROOT
ATOM      1  C   UNL     1      20.618  41.355  24.824  1.00  0.00     0.000 C 
ENDROOT
BRANCH   1   2
ATOM      2  C   UNL     1      19.551  42.456  24.712  1.00  0.00     0.000 C 
BRANCH   2   3
ATOM      3  C   UNL     1      19.557  43.135  23.331  1.00  0.00     0.000 C 
BRANCH   3   4
ATOM      4  C   UNL     1      20.950  43.155  22.680  1.00  0.00     0.000 C 
BRANCH   4   5
ATOM      5  C   UNL     1      20.888  43.131  21.143  1.00  0.00     0.000 C 
BRANCH   5   6
ATOM      6  C   UNL     1      20.126  41.912  20.590  1.00  0.00     0.000 C 
BRANCH   6   7
ATOM      7  C   UNL     1      20.461  40.564  21.259  1.00  0.00     0.000 C 
BRANCH   7   8
ATOM      8  C   UNL     1      19.314  39.544  21.162  1.00  0.00     0.000 C 
BRANCH   8   9
ATOM      9  C   UNL     1      18.514  39.410  22.470  1.00  0.00     0.000 C 
BRANCH   9  10
ATOM     10  C   UNL     1      17.280  40.325  22.583  1.00  0.00     0.000 C 
BRANCH  10  11
ATOM     11  C   UNL     1      16.688  40.711  21.220  1.00  0.00     0.000 C 
BRANCH  11  12
ATOM     12  C   UNL     1      16.625  42.236  21.060  1.00  0.00     0.006 C 
BRANCH  12  13
ATOM     13  C   UNL     1      16.572  42.632  19.580  1.00  0.00     0.053 C 
BRANCH  13  14
ATOM     14  C   UNL     1      16.898  44.082  19.414  1.00  0.00     0.041 C 
ATOM     15  O   UNL     1      17.760  44.626  20.153  1.00  0.00    -0.550 OA
ATOM     16  O   UNL     1      16.210  44.846  18.478  1.00  0.00    -0.550 OA
ENDBRANCH  13  14
ENDBRANCH  12  13
ENDBRANCH  11  12
ENDBRANCH  10  11
ENDBRANCH   9  10
ENDBRANCH   8   9
ENDBRANCH   7   8
ENDBRANCH   6   7
ENDBRANCH   5   6
ENDBRANCH   4   5
ENDBRANCH   3   4
ENDBRANCH   2   3
ENDBRANCH   1   2
BRANCH   1  17
ATOM     17  C   UNL     1      20.152  40.176  25.695  1.00  0.00     0.000 C 
BRANCH  17  18
ATOM     18  C   UNL     1      18.723  40.364  26.237  1.00  0.00     0.000 C 
BRANCH  18  19
ATOM     19  C   UNL     1      17.835  39.104  26.183  1.00  0.00     0.000 C 
BRANCH  19  20
ATOM     20  C   UNL     1      17.330  38.594  27.548  1.00  0.00     0.000 C 
BRANCH  20  21
ATOM     21  C   UNL     1      17.370  39.627  28.689  1.00  0.00     0.000 C 
BRANCH  21  22
ATOM     22  C   UNL     1      16.506  39.219  29.894  1.00  0.00    -0.000 C 
BRANCH  22  23
ATOM     23  C   UNL     1      15.516  40.320  30.309  1.00  0.00    -0.000 C 
BRANCH  23  24
ATOM     24  C   UNL     1      15.617  41.577  29.426  1.00  0.00    -0.000 C 
BRANCH  24  25
ATOM     25  C   UNL     1      14.435  41.723  28.454  1.00  0.00    -0.000 C 
BRANCH  25  26
ATOM     26  C   UNL     1      13.223  40.870  28.866  1.00  0.00    -0.000 C 
BRANCH  26  27
ATOM     27  C   UNL     1      12.744  39.931  27.743  1.00  0.00    -0.000 C 
BRANCH  27  28
ATOM     28  C   UNL     1      13.862  39.173  26.998  1.00  0.00    -0.000 C 
BRANCH  28  29
ATOM     29  C   UNL     1      13.611  37.665  26.807  1.00  0.00    -0.003 C 
ATOM     30  C   UNL     1      13.869  37.196  25.375  1.00  0.00     0.004 C 
ENDBRANCH  28  29
ENDBRANCH  27  28
ENDBRANCH  26  27
ENDBRANCH  25  26
ENDBRANCH  24  25
ENDBRANCH  23  24
ENDBRANCH  22  23
ENDBRANCH  21  22
ENDBRANCH  20  21
ENDBRANCH  19  20
ENDBRANCH  18  19
ENDBRANCH  17  18
ENDBRANCH   1  17
TORSDOF 26
ENDMDL
MODEL 2
REMARK VINA RESULT:    -4.039      4.036      7.554
REMARK INTER + INTRA:         -14.601
REMARK INTER:                 -10.704
REMARK INTRA:                  -3.897
REMARK UNBOUND:                -4.424
REMARK SMILES CCCCCCCCCCCCCCCCCCCCCCCCCCCC(=O)[O-]
REMARK SMILES IDX 15 1 16 2 17 3 18 4 19 5 20 6 21 7 22 8 23 9 24 10 25 11
REMARK SMILES IDX 26 12 27 13 28 14 29 15 30 16 14 17 13 18 12 19 11 20 10 21
REMARK SMILES IDX 9 22 8 23 7 24 6 25 5 26 4 27 3 28 2 29 1 30
REMARK H PARENT
REMARK Flexibility Score: inf
ROOT
ATOM      1  C   UNL     1      18.130  39.527  22.701  1.00  0.00     0.000 C 
ENDROOT
BRANCH   1   2
ATOM      2  C   UNL     1      18.163  39.877  24.198  1.00  0.00     0.000 C 
BRANCH   2   3
ATOM      3  C   UNL     1      19.524  40.450  24.632  1.00  0.00     0.000 C 
BRANCH   3   4
ATOM      4  C   UNL     1      20.060  41.517  23.664  1.00  0.00     0.000 C 
BRANCH   4   5
ATOM      5  C   UNL     1      19.280  42.841  23.747  1.00  0.00     0.000 C 
BRANCH   5   6
ATOM      6  C   UNL     1      19.250  43.607  22.410  1.00  0.00     0.000 C 
BRANCH   6   7
ATOM      7  C   UNL     1      20.258  43.125  21.350  1.00  0.00     0.000 C 
BRANCH   7   8
ATOM      8  C   UNL     1      20.762  44.259  20.441  1.00  0.00     0.000 C 
BRANCH   8   9
ATOM      9  C   UNL     1      20.641  45.650  21.089  1.00  0.00     0.000 C 
BRANCH   9  10
ATOM     10  C   UNL     1      20.080  46.755  20.175  1.00  0.00     0.000 C 
BRANCH  10  11
ATOM     11  C   UNL     1      19.164  47.743  20.914  1.00  0.00     0.000 C 
BRANCH  11  12
ATOM     12  C   UNL     1      18.468  48.690  19.928  1.00  0.00     0.006 C 
BRANCH  12  13
ATOM     13  C   UNL     1      18.761  50.154  20.273  1.00  0.00     0.053 C 
BRANCH  13  14
ATOM     14  C   UNL     1      20.210  50.462  20.064  1.00  0.00     0.041 C 
ATOM     15  O   UNL     1      20.708  50.412  18.909  1.00  0.00    -0.550 OA
ATOM     16  O   UNL     1      21.023  50.752  21.154  1.00  0.00    -0.550 OA
ENDBRANCH  13  14
ENDBRANCH  12  13
ENDBRANCH  11  12
ENDBRANCH  10  11
ENDBRANCH   9  10
ENDBRANCH   8   9
ENDBRANCH   7   8
ENDBRANCH   6   7
ENDBRANCH   5   6
ENDBRANCH   4   5
ENDBRANCH   3   4
ENDBRANCH   2   3
ENDBRANCH   1   2
BRANCH   1  17
ATOM     17  C   UNL     1      16.763  39.827  22.061  1.00  0.00     0.000 C 
BRANCH  17  18
ATOM     18  C   UNL     1      16.715  41.207  21.381  1.00  0.00     0.000 C 
BRANCH  18  19
ATOM     19  C   UNL     1      16.887  41.183  19.848  1.00  0.00     0.000 C 
BRANCH  19  20
ATOM     20  C   UNL     1      17.636  42.391  19.249  1.00  0.00     0.000 C 
BRANCH  20  21
ATOM     21  C   UNL     1      16.737  43.524  18.720  1.00  0.00     0.000 C 
BRANCH  21  22
ATOM     22  C   UNL     1      17.132  44.905  19.268  1.00  0.00    -0.000 C 
BRANCH  22  23
ATOM     23  C   UNL     1      16.442  45.228  20.604  1.00  0.00    -0.000 C 
BRANCH  23  24
ATOM     24  C   UNL     1      15.047  45.855  20.418  1.00  0.00    -0.000 C 
BRANCH  24  25
ATOM     25  C   UNL     1      13.911  44.940  20.901  1.00  0.00    -0.000 C 
BRANCH  25  26
ATOM     26  C   UNL     1      13.191  44.230  19.742  1.00  0.00    -0.000 C 
BRANCH  26  27
ATOM     27  C   UNL     1      12.024  45.055  19.169  1.00  0.00    -0.000 C 
BRANCH  27  28
ATOM     28  C   UNL     1      10.674  44.878  19.897  1.00  0.00    -0.000 C 
BRANCH  28  29
ATOM     29  C   UNL     1      10.214  43.419  20.070  1.00  0.00    -0.003 C 
ATOM     30  C   UNL     1       8.788  43.182  19.573  1.00  0.00     0.004 C 
ENDBRANCH  28  29
ENDBRANCH  27  28
ENDBRANCH  26  27
ENDBRANCH  25  26
ENDBRANCH  24  25
ENDBRANCH  23  24
ENDBRANCH  22  23
ENDBRANCH  21  22
ENDBRANCH  20  21
ENDBRANCH  19  20
ENDBRANCH  18  19
ENDBRANCH  17  18
ENDBRANCH   1  17
TORSDOF 26
ENDMDL
MODEL 3
REMARK VINA RESULT:    -3.984      4.462      8.637
REMARK INTER + INTRA:         -14.463
REMARK INTER:                 -11.299
REMARK INTRA:                  -3.164
REMARK UNBOUND:                -4.424
REMARK SMILES CCCCCCCCCCCCCCCCCCCCCCCCCCCC(=O)[O-]
REMARK SMILES IDX 15 1 16 2 17 3 18 4 19 5 20 6 21 7 22 8 23 9 24 10 25 11
REMARK SMILES IDX 26 12 27 13 28 14 29 15 30 16 14 17 13 18 12 19 11 20 10 21
REMARK SMILES IDX 9 22 8 23 7 24 6 25 5 26 4 27 3 28 2 29 1 30
REMARK H PARENT
REMARK Flexibility Score: inf
ROOT
ATOM      1  C   UNL     1      18.668  39.241  22.827  1.00  0.00     0.000 C 
ENDROOT
BRANCH   1   2
ATOM      2  C   UNL     1      19.401  39.507  21.502  1.00  0.00     0.000 C 
BRANCH   2   3
ATOM      3  C   UNL     1      18.699  38.845  20.304  1.00  0.00     0.000 C 
BRANCH   3   4
ATOM      4  C   UNL     1      18.525  39.798  19.110  1.00  0.00     0.000 C 
BRANCH   4   5
ATOM      5  C   UNL     1      17.506  40.917  19.387  1.00  0.00     0.000 C 
BRANCH   5   6
ATOM      6  C   UNL     1      18.073  42.326  19.128  1.00  0.00     0.000 C 
BRANCH   6   7
ATOM      7  C   UNL     1      17.039  43.388  18.710  1.00  0.00     0.000 C 
BRANCH   7   8
ATOM      8  C   UNL     1      16.701  44.375  19.840  1.00  0.00     0.000 C 
BRANCH   8   9
ATOM      9  C   UNL     1      15.485  43.940  20.678  1.00  0.00     0.000 C 
BRANCH   9  10
ATOM     10  C   UNL     1      14.122  44.446  20.172  1.00  0.00     0.000 C 
BRANCH  10  11
ATOM     11  C   UNL     1      14.194  45.844  19.539  1.00  0.00     0.000 C 
BRANCH  11  12
ATOM     12  C   UNL     1      12.843  46.242  18.930  1.00  0.00     0.006 C 
BRANCH  12  13
ATOM     13  C   UNL     1      11.776  45.182  19.220  1.00  0.00     0.053 C 
BRANCH  13  14
ATOM     14  C   UNL     1      10.444  45.825  19.440  1.00  0.00     0.041 C 
ATOM     15  O   UNL     1       9.420  45.114  19.624  1.00  0.00    -0.550 OA
ATOM     16  O   UNL     1      10.323  47.209  19.388  1.00  0.00    -0.550 OA
ENDBRANCH  13  14
ENDBRANCH  12  13
ENDBRANCH  11  12
ENDBRANCH  10  11
ENDBRANCH   9  10
ENDBRANCH   8   9
ENDBRANCH   7   8
ENDBRANCH   6   7
ENDBRANCH   5   6
ENDBRANCH   4   5
ENDBRANCH   3   4
ENDBRANCH   2   3
ENDBRANCH   1   2
BRANCH   1  17
ATOM     17  C   UNL     1      18.384  40.535  23.609  1.00  0.00     0.000 C 
BRANCH  17  18
ATOM     18  C   UNL     1      18.645  41.803  22.776  1.00  0.00     0.000 C 
BRANCH  18  19
ATOM     19  C   UNL     1      19.477  42.890  23.488  1.00  0.00     0.000 C 
BRANCH  19  20
ATOM     20  C   UNL     1      20.936  43.025  23.007  1.00  0.00     0.000 C 
BRANCH  20  21
ATOM     21  C   UNL     1      21.215  44.232  22.091  1.00  0.00     0.000 C 
BRANCH  21  22
ATOM     22  C   UNL     1      20.701  44.024  20.657  1.00  0.00    -0.000 C 
BRANCH  22  23
ATOM     23  C   UNL     1      20.244  45.336  19.997  1.00  0.00    -0.000 C 
BRANCH  23  24
ATOM     24  C   UNL     1      19.906  46.432  21.024  1.00  0.00    -0.000 C 
BRANCH  24  25
ATOM     25  C   UNL     1      18.722  47.312  20.592  1.00  0.00    -0.000 C 
BRANCH  25  26
ATOM     26  C   UNL     1      18.556  48.557  21.481  1.00  0.00    -0.000 C 
BRANCH  26  27
ATOM     27  C   UNL     1      19.891  49.273  21.760  1.00  0.00    -0.000 C 
BRANCH  27  28
ATOM     28  C   UNL     1      20.114  50.580  20.970  1.00  0.00    -0.000 C 
BRANCH  28  29
ATOM     29  C   UNL     1      20.878  50.416  19.643  1.00  0.00    -0.003 C 
ATOM     30  C   UNL     1      20.044  50.809  18.423  1.00  0.00     0.004 C 
ENDBRANCH  28  29
ENDBRANCH  27  28
ENDBRANCH  26  27
ENDBRANCH  25  26
ENDBRANCH  24  25
ENDBRANCH  23  24
ENDBRANCH  22  23
ENDBRANCH  21  22
ENDBRANCH  20  21
ENDBRANCH  19  20
ENDBRANCH  18  19
ENDBRANCH  17  18
ENDBRANCH   1  17
TORSDOF 26
ENDMDL
MODEL 4
REMARK VINA RESULT:    -3.892      1.580      5.527
REMARK INTER + INTRA:         -14.232
REMARK INTER:                 -10.521
REMARK INTRA:                  -3.710
REMARK UNBOUND:                -4.424
REMARK SMILES CCCCCCCCCCCCCCCCCCCCCCCCCCCC(=O)[O-]
REMARK SMILES IDX 15 1 16 2 17 3 18 4 19 5 20 6 21 7 22 8 23 9 24 10 25 11
REMARK SMILES IDX 26 12 27 13 28 14 29 15 30 16 14 17 13 18 12 19 11 20 10 21
REMARK SMILES IDX 9 22 8 23 7 24 6 25 5 26 4 27 3 28 2 29 1 30
REMARK H PARENT
REMARK Flexibility Score: inf
ROOT
ATOM      1  C   UNL     1      13.680  39.260  27.447  1.00  0.00     0.000 C 
ENDROOT
BRANCH   1   2
ATOM      2  C   UNL     1      14.861  39.770  26.605  1.00  0.00     0.000 C 
BRANCH   2   3
ATOM      3  C   UNL     1      15.653  38.621  25.956  1.00  0.00     0.000 C 
BRANCH   3   4
ATOM      4  C   UNL     1      16.879  39.110  25.167  1.00  0.00     0.000 C 
BRANCH   4   5
ATOM      5  C   UNL     1      16.691  38.996  23.645  1.00  0.00     0.000 C 
BRANCH   5   6
ATOM      6  C   UNL     1      17.874  39.576  22.847  1.00  0.00     0.000 C 
BRANCH   6   7
ATOM      7  C   UNL     1      17.558  39.977  21.393  1.00  0.00     0.000 C 
BRANCH   7   8
ATOM      8  C   UNL     1      17.033  41.417  21.268  1.00  0.00     0.000 C 
BRANCH   8   9
ATOM      9  C   UNL     1      16.908  41.890  19.808  1.00  0.00     0.000 C 
BRANCH   9  10
ATOM     10  C   UNL     1      17.527  43.268  19.508  1.00  0.00     0.000 C 
BRANCH  10  11
ATOM     11  C   UNL     1      17.074  44.359  20.489  1.00  0.00     0.000 C 
BRANCH  11  12
ATOM     12  C   UNL     1      15.859  45.120  19.943  1.00  0.00     0.006 C 
BRANCH  12  13
ATOM     13  C   UNL     1      14.562  44.618  20.588  1.00  0.00     0.053 C 
BRANCH  13  14
ATOM     14  C   UNL     1      13.504  44.416  19.550  1.00  0.00     0.041 C 
ATOM     15  O   UNL     1      13.371  43.295  18.992  1.00  0.00    -0.550 OA
ATOM     16  O   UNL     1      12.700  45.481  19.160  1.00  0.00    -0.550 OA
ENDBRANCH  13  14
ENDBRANCH  12  13
ENDBRANCH  11  12
ENDBRANCH  10  11
ENDBRANCH   9  10
ENDBRANCH   8   9
ENDBRANCH   7   8
ENDBRANCH   6   7
ENDBRANCH   5   6
ENDBRANCH   4   5
ENDBRANCH   3   4
ENDBRANCH   2   3
ENDBRANCH   1   2
BRANCH   1  17
ATOM     17  C   UNL     1      13.320  40.223  28.592  1.00  0.00     0.000 C 
BRANCH  17  18
ATOM     18  C   UNL     1      14.148  41.521  28.561  1.00  0.00     0.000 C 
BRANCH  18  19
ATOM     19  C   UNL     1      15.375  41.533  29.496  1.00  0.00     0.000 C 
BRANCH  19  20
ATOM     20  C   UNL     1      15.578  40.254  30.335  1.00  0.00     0.000 C 
BRANCH  20  21
ATOM     21  C   UNL     1      16.701  39.321  29.845  1.00  0.00     0.000 C 
BRANCH  21  22
ATOM     22  C   UNL     1      17.662  40.009  28.861  1.00  0.00    -0.000 C 
BRANCH  22  23
ATOM     23  C   UNL     1      18.979  39.236  28.684  1.00  0.00    -0.000 C 
BRANCH  23  24
ATOM     24  C   UNL     1      20.015  40.006  27.844  1.00  0.00    -0.000 C 
BRANCH  24  25
ATOM     25  C   UNL     1      19.369  40.946  26.813  1.00  0.00    -0.000 C 
BRANCH  25  26
ATOM     26  C   UNL     1      20.090  40.917  25.455  1.00  0.00    -0.000 C 
BRANCH  26  27
ATOM     27  C   UNL     1      20.308  42.322  24.863  1.00  0.00    -0.000 C 
BRANCH  27  28
ATOM     28  C   UNL     1      19.363  42.701  23.704  1.00  0.00    -0.000 C 
BRANCH  28  29
ATOM     29  C   UNL     1      20.057  43.308  22.470  1.00  0.00    -0.003 C 
ATOM     30  C   UNL     1      20.685  42.252  21.561  1.00  0.00     0.004 C 
ENDBRANCH  28  29
ENDBRANCH  27  28
ENDBRANCH  26  27
ENDBRANCH  25  26
ENDBRANCH  24  25
ENDBRANCH  23  24
ENDBRANCH  22  23
ENDBRANCH  21  22
ENDBRANCH  20  21
ENDBRANCH  19  20
ENDBRANCH  18  19
ENDBRANCH  17  18
ENDBRANCH   1  17
TORSDOF 26
ENDMDL
MODEL 5
REMARK VINA RESULT:    -3.885      3.596      8.786
REMARK INTER + INTRA:         -14.215
REMARK INTER:                 -10.095
REMARK INTRA:                  -4.120
REMARK UNBOUND:                -4.424
REMARK SMILES CCCCCCCCCCCCCCCCCCCCCCCCCCCC(=O)[O-]
REMARK SMILES IDX 15 1 16 2 17 3 18 4 19 5 20 6 21 7 22 8 23 9 24 10 25 11
REMARK SMILES IDX 26 12 27 13 28 14 29 15 30 16 14 17 13 18 12 19 11 20 10 21
REMARK SMILES IDX 9 22 8 23 7 24 6 25 5 26 4 27 3 28 2 29 1 30
REMARK H PARENT
REMARK Flexibility Score: inf
ROOT
ATOM      1  C   UNL     1      16.701  39.351  25.106  1.00  0.00     0.000 C 
ENDROOT
BRANCH   1   2
ATOM      2  C   UNL     1      16.732  37.880  25.552  1.00  0.00     0.000 C 
BRANCH   2   3
ATOM      3  C   UNL     1      15.549  37.525  26.470  1.00  0.00     0.000 C 
BRANCH   3   4
ATOM      4  C   UNL     1      14.283  38.339  26.158  1.00  0.00     0.000 C 
BRANCH   4   5
ATOM      5  C   UNL     1      13.295  38.377  27.336  1.00  0.00     0.000 C 
BRANCH   5   6
ATOM      6  C   UNL     1      12.817  39.802  27.675  1.00  0.00     0.000 C 
BRANCH   6   7
ATOM      7  C   UNL     1      13.871  40.912  27.499  1.00  0.00     0.000 C 
BRANCH   7   8
ATOM      8  C   UNL     1      14.154  41.683  28.799  1.00  0.00     0.000 C 
BRANCH   8   9
ATOM      9  C   UNL     1      15.557  41.408  29.371  1.00  0.00     0.000 C 
BRANCH   9  10
ATOM     10  C   UNL     1      16.290  40.199  28.759  1.00  0.00     0.000 C 
BRANCH  10  11
ATOM     11  C   UNL     1      17.736  40.516  28.349  1.00  0.00     0.000 C 
BRANCH  11  12
ATOM     12  C   UNL     1      18.657  39.316  28.610  1.00  0.00     0.006 C 
BRANCH  12  13
ATOM     13  C   UNL     1      18.415  38.732  30.006  1.00  0.00     0.053 C 
BRANCH  13  14
ATOM     14  C   UNL     1      18.324  37.241  29.942  1.00  0.00     0.041 C 
ATOM     15  O   UNL     1      17.352  36.691  29.360  1.00  0.00    -0.550 OA
ATOM     16  O   UNL     1      19.284  36.458  30.573  1.00  0.00    -0.550 OA
ENDBRANCH  13  14
ENDBRANCH  12  13
ENDBRANCH  11  12
ENDBRANCH  10  11
ENDBRANCH   9  10
ENDBRANCH   8   9
ENDBRANCH   7   8
ENDBRANCH   6   7
ENDBRANCH   5   6
ENDBRANCH   4   5
ENDBRANCH   3   4
ENDBRANCH   2   3
ENDBRANCH   1   2
BRANCH   1  17
ATOM     17  C   UNL     1      17.406  39.567  23.755  1.00  0.00     0.000 C 
BRANCH  17  18
ATOM     18  C   UNL     1      18.487  40.661  23.816  1.00  0.00     0.000 C 
BRANCH  18  19
ATOM     19  C   UNL     1      19.476  40.534  24.993  1.00  0.00     0.000 C 
BRANCH  19  20
ATOM     20  C   UNL     1      19.957  41.868  25.599  1.00  0.00     0.000 C 
BRANCH  20  21
ATOM     21  C   UNL     1      21.462  42.155  25.443  1.00  0.00     0.000 C 
BRANCH  21  22
ATOM     22  C   UNL     1      21.947  42.019  23.990  1.00  0.00    -0.000 C 
BRANCH  22  23
ATOM     23  C   UNL     1      21.662  43.277  23.153  1.00  0.00    -0.000 C 
BRANCH  23  24
ATOM     24  C   UNL     1      20.838  42.977  21.887  1.00  0.00    -0.000 C 
BRANCH  24  25
ATOM     25  C   UNL     1      19.562  43.828  21.787  1.00  0.00    -0.000 C 
BRANCH  25  26
ATOM     26  C   UNL     1      18.790  43.584  20.480  1.00  0.00    -0.000 C 
BRANCH  26  27
ATOM     27  C   UNL     1      18.079  42.219  20.452  1.00  0.00    -0.000 C 
BRANCH  27  28
ATOM     28  C   UNL     1      18.087  41.499  19.087  1.00  0.00    -0.000 C 
BRANCH  28  29
ATOM     29  C   UNL     1      18.678  40.077  19.103  1.00  0.00    -0.003 C 
ATOM     30  C   UNL     1      19.642  39.847  20.267  1.00  0.00     0.004 C 
ENDBRANCH  28  29
ENDBRANCH  27  28
ENDBRANCH  26  27
ENDBRANCH  25  26
ENDBRANCH  24  25
ENDBRANCH  23  24
ENDBRANCH  22  23
ENDBRANCH  21  22
ENDBRANCH  20  21
ENDBRANCH  19  20
ENDBRANCH  18  19
ENDBRANCH  17  18
ENDBRANCH   1  17
TORSDOF 26
ENDMDL
MODEL 6
REMARK VINA RESULT:    -3.869      2.477      3.809
REMARK INTER + INTRA:         -14.175
REMARK INTER:                 -11.340
REMARK INTRA:                  -2.835
REMARK UNBOUND:                -4.424
REMARK SMILES CCCCCCCCCCCCCCCCCCCCCCCCCCCC(=O)[O-]
REMARK SMILES IDX 15 1 16 2 17 3 18 4 19 5 20 6 21 7 22 8 23 9 24 10 25 11
REMARK SMILES IDX 26 12 27 13 28 14 29 15 30 16 14 17 13 18 12 19 11 20 10 21
REMARK SMILES IDX 9 22 8 23 7 24 6 25 5 26 4 27 3 28 2 29 1 30
REMARK H PARENT
REMARK Flexibility Score: inf
ROOT
ATOM      1  C   UNL     1      18.899  41.495  23.331  1.00  0.00     0.000 C 
ENDROOT
BRANCH   1   2
ATOM      2  C   UNL     1      17.834  40.473  22.899  1.00  0.00     0.000 C 
BRANCH   2   3
ATOM      3  C   UNL     1      18.426  39.342  22.040  1.00  0.00     0.000 C 
BRANCH   3   4
ATOM      4  C   UNL     1      19.164  39.860  20.794  1.00  0.00     0.000 C 
BRANCH   4   5
ATOM      5  C   UNL     1      18.236  40.026  19.579  1.00  0.00     0.000 C 
BRANCH   5   6
ATOM      6  C   UNL     1      18.461  41.350  18.825  1.00  0.00     0.000 C 
BRANCH   6   7
ATOM      7  C   UNL     1      17.442  42.466  19.130  1.00  0.00     0.000 C 
BRANCH   7   8
ATOM      8  C   UNL     1      17.819  43.303  20.363  1.00  0.00     0.000 C 
BRANCH   8   9
ATOM      9  C   UNL     1      17.114  44.671  20.402  1.00  0.00     0.000 C 
BRANCH   9  10
ATOM     10  C   UNL     1      17.960  45.831  20.961  1.00  0.00     0.000 C 
BRANCH  10  11
ATOM     11  C   UNL     1      19.471  45.604  20.808  1.00  0.00     0.000 C 
BRANCH  11  12
ATOM     12  C   UNL     1      20.164  46.861  20.264  1.00  0.00     0.006 C 
BRANCH  12  13
ATOM     13  C   UNL     1      19.245  48.083  20.368  1.00  0.00     0.053 C 
BRANCH  13  14
ATOM     14  C   UNL     1      19.936  49.200  21.081  1.00  0.00     0.041 C 
ATOM     15  O   UNL     1      19.611  49.494  22.263  1.00  0.00    -0.550 OA
ATOM     16  O   UNL     1      20.902  49.953  20.424  1.00  0.00    -0.550 OA
ENDBRANCH  13  14
ENDBRANCH  12  13
ENDBRANCH  11  12
ENDBRANCH  10  11
ENDBRANCH   9  10
ENDBRANCH   8   9
ENDBRANCH   7   8
ENDBRANCH   6   7
ENDBRANCH   5   6
ENDBRANCH   4   5
ENDBRANCH   3   4
ENDBRANCH   2   3
ENDBRANCH   1   2
BRANCH   1  17
ATOM     17  C   UNL     1      19.868  40.921  24.379  1.00  0.00     0.000 C 
BRANCH  17  18
ATOM     18  C   UNL     1      19.830  41.692  25.710  1.00  0.00     0.000 C 
BRANCH  18  19
ATOM     19  C   UNL     1      19.132  40.952  26.871  1.00  0.00     0.000 C 
BRANCH  19  20
ATOM     20  C   UNL     1      18.332  39.697  26.468  1.00  0.00     0.000 C 
BRANCH  20  21
ATOM     21  C   UNL     1      17.655  38.950  27.632  1.00  0.00     0.000 C 
BRANCH  21  22
ATOM     22  C   UNL     1      17.604  39.781  28.925  1.00  0.00    -0.000 C 
BRANCH  22  23
ATOM     23  C   UNL     1      16.539  39.272  29.911  1.00  0.00    -0.000 C 
BRANCH  23  24
ATOM     24  C   UNL     1      15.495  40.346  30.267  1.00  0.00    -0.000 C 
BRANCH  24  25
ATOM     25  C   UNL     1      15.545  41.564  29.331  1.00  0.00    -0.000 C 
BRANCH  25  26
ATOM     26  C   UNL     1      14.209  41.811  28.610  1.00  0.00    -0.000 C 
BRANCH  26  27
ATOM     27  C   UNL     1      13.228  40.632  28.752  1.00  0.00    -0.000 C 
BRANCH  27  28
ATOM     28  C   UNL     1      13.013  39.797  27.472  1.00  0.00    -0.000 C 
BRANCH  28  29
ATOM     29  C   UNL     1      13.933  38.569  27.334  1.00  0.00    -0.003 C 
ATOM     30  C   UNL     1      13.537  37.657  26.172  1.00  0.00     0.004 C 
ENDBRANCH  28  29
ENDBRANCH  27  28
ENDBRANCH  26  27
ENDBRANCH  25  26
ENDBRANCH  24  25
ENDBRANCH  23  24
ENDBRANCH  22  23
ENDBRANCH  21  22
ENDBRANCH  20  21
ENDBRANCH  19  20
ENDBRANCH  18  19
ENDBRANCH  17  18
ENDBRANCH   1  17
TORSDOF 26
ENDMDL
MODEL 7
REMARK VINA RESULT:    -3.833      4.044      7.815
REMARK INTER + INTRA:         -14.084
REMARK INTER:                 -10.190
REMARK INTRA:                  -3.894
REMARK UNBOUND:                -4.424
REMARK SMILES CCCCCCCCCCCCCCCCCCCCCCCCCCCC(=O)[O-]
REMARK SMILES IDX 15 1 16 2 17 3 18 4 19 5 20 6 21 7 22 8 23 9 24 10 25 11
REMARK SMILES IDX 26 12 27 13 28 14 29 15 30 16 14 17 13 18 12 19 11 20 10 21
REMARK SMILES IDX 9 22 8 23 7 24 6 25 5 26 4 27 3 28 2 29 1 30
REMARK H PARENT
REMARK Flexibility Score: inf
ROOT
ATOM      1  C   UNL     1      16.406  39.024  19.699  1.00  0.00     0.000 C 
ENDROOT
BRANCH   1   2
ATOM      2  C   UNL     1      15.895  38.112  20.826  1.00  0.00     0.000 C 
BRANCH   2   3
ATOM      3  C   UNL     1      16.396  38.559  22.211  1.00  0.00     0.000 C 
BRANCH   3   4
ATOM      4  C   UNL     1      17.104  39.923  22.179  1.00  0.00     0.000 C 
BRANCH   4   5
ATOM      5  C   UNL     1      18.004  40.155  23.405  1.00  0.00     0.000 C 
BRANCH   5   6
ATOM      6  C   UNL     1      18.892  41.407  23.273  1.00  0.00     0.000 C 
BRANCH   6   7
ATOM      7  C   UNL     1      20.362  41.139  22.897  1.00  0.00     0.000 C 
BRANCH   7   8
ATOM      8  C   UNL     1      21.089  42.393  22.385  1.00  0.00     0.000 C 
BRANCH   8   9
ATOM      9  C   UNL     1      20.134  43.560  22.074  1.00  0.00     0.000 C 
BRANCH   9  10
ATOM     10  C   UNL     1      20.518  44.418  20.854  1.00  0.00     0.000 C 
BRANCH  10  11
ATOM     11  C   UNL     1      19.484  45.506  20.532  1.00  0.00     0.000 C 
BRANCH  11  12
ATOM     12  C   UNL     1      20.138  46.894  20.503  1.00  0.00     0.006 C 
BRANCH  12  13
ATOM     13  C   UNL     1      19.104  47.982  20.193  1.00  0.00     0.053 C 
BRANCH  13  14
ATOM     14  C   UNL     1      18.130  48.116  21.320  1.00  0.00     0.041 C 
ATOM     15  O   UNL     1      17.020  47.523  21.272  1.00  0.00    -0.550 OA
ATOM     16  O   UNL     1      18.425  48.941  22.400  1.00  0.00    -0.550 OA
ENDBRANCH  13  14
ENDBRANCH  12  13
ENDBRANCH  11  12
ENDBRANCH  10  11
ENDBRANCH   9  10
ENDBRANCH   8   9
ENDBRANCH   7   8
ENDBRANCH   6   7
ENDBRANCH   5   6
ENDBRANCH   4   5
ENDBRANCH   3   4
ENDBRANCH   2   3
ENDBRANCH   1   2
BRANCH   1  17
ATOM     17  C   UNL     1      17.424  38.315  18.789  1.00  0.00     0.000 C 
BRANCH  17  18
ATOM     18  C   UNL     1      18.873  38.760  19.056  1.00  0.00     0.000 C 
BRANCH  18  19
ATOM     19  C   UNL     1      19.248  40.140  18.478  1.00  0.00     0.000 C 
BRANCH  19  20
ATOM     20  C   UNL     1      19.048  41.333  19.435  1.00  0.00     0.000 C 
BRANCH  20  21
ATOM     21  C   UNL     1      17.954  42.333  19.016  1.00  0.00     0.000 C 
BRANCH  21  22
ATOM     22  C   UNL     1      17.044  42.746  20.185  1.00  0.00    -0.000 C 
BRANCH  22  23
ATOM     23  C   UNL     1      16.065  43.868  19.802  1.00  0.00    -0.000 C 
BRANCH  23  24
ATOM     24  C   UNL     1      16.286  44.389  18.370  1.00  0.00    -0.000 C 
BRANCH  24  25
ATOM     25  C   UNL     1      15.261  45.457  17.956  1.00  0.00    -0.000 C 
BRANCH  25  26
ATOM     26  C   UNL     1      13.865  44.866  17.697  1.00  0.00    -0.000 C 
BRANCH  26  27
ATOM     27  C   UNL     1      12.741  45.913  17.815  1.00  0.00    -0.000 C 
BRANCH  27  28
ATOM     28  C   UNL     1      12.211  46.150  19.245  1.00  0.00    -0.000 C 
BRANCH  28  29
ATOM     29  C   UNL     1      12.599  45.069  20.271  1.00  0.00    -0.003 C 
ATOM     30  C   UNL     1      13.562  45.583  21.341  1.00  0.00     0.004 C 
ENDBRANCH  28  29
ENDBRANCH  27  28
ENDBRANCH  26  27
ENDBRANCH  25  26
ENDBRANCH  24  25
ENDBRANCH  23  24
ENDBRANCH  22  23
ENDBRANCH  21  22
ENDBRANCH  20  21
ENDBRANCH  19  20
ENDBRANCH  18  19
ENDBRANCH  17  18
ENDBRANCH   1  17
TORSDOF 26
ENDMDL
MODEL 8
REMARK VINA RESULT:    -3.822      1.809      3.348
REMARK INTER + INTRA:         -14.055
REMARK INTER:                 -10.642
REMARK INTRA:                  -3.412
REMARK UNBOUND:                -4.424
REMARK SMILES CCCCCCCCCCCCCCCCCCCCCCCCCCCC(=O)[O-]
REMARK SMILES IDX 15 1 16 2 17 3 18 4 19 5 20 6 21 7 22 8 23 9 24 10 25 11
REMARK SMILES IDX 26 12 27 13 28 14 29 15 30 16 14 17 13 18 12 19 11 20 10 21
REMARK SMILES IDX 9 22 8 23 7 24 6 25 5 26 4 27 3 28 2 29 1 30
REMARK H PARENT
REMARK Flexibility Score: inf
ROOT
ATOM      1  C   UNL     1      19.299  42.485  23.124  1.00  0.00     0.000 C 
ENDROOT
BRANCH   1   2
ATOM      2  C   UNL     1      20.437  43.151  22.333  1.00  0.00     0.000 C 
BRANCH   2   3
ATOM      3  C   UNL     1      20.353  42.850  20.826  1.00  0.00     0.000 C 
BRANCH   3   4
ATOM      4  C   UNL     1      19.958  41.395  20.527  1.00  0.00     0.000 C 
BRANCH   4   5
ATOM      5  C   UNL     1      19.070  41.264  19.278  1.00  0.00     0.000 C 
BRANCH   5   6
ATOM      6  C   UNL     1      17.919  42.289  19.248  1.00  0.00     0.000 C 
BRANCH   6   7
ATOM      7  C   UNL     1      16.630  41.856  19.973  1.00  0.00     0.000 C 
BRANCH   7   8
ATOM      8  C   UNL     1      15.922  43.020  20.685  1.00  0.00     0.000 C 
BRANCH   8   9
ATOM      9  C   UNL     1      15.119  43.917  19.724  1.00  0.00     0.000 C 
BRANCH   9  10
ATOM     10  C   UNL     1      15.059  45.407  20.109  1.00  0.00     0.000 C 
BRANCH  10  11
ATOM     11  C   UNL     1      16.233  46.223  19.548  1.00  0.00     0.000 C 
BRANCH  11  12
ATOM     12  C   UNL     1      17.196  46.642  20.666  1.00  0.00     0.006 C 
BRANCH  12  13
ATOM     13  C   UNL     1      18.532  45.900  20.547  1.00  0.00     0.053 C 
BRANCH  13  14
ATOM     14  C   UNL     1      19.671  46.868  20.548  1.00  0.00     0.041 C 
ATOM     15  O   UNL     1      20.733  46.595  21.167  1.00  0.00    -0.550 OA
ATOM     16  O   UNL     1      19.541  48.096  19.910  1.00  0.00    -0.550 OA
ENDBRANCH  13  14
ENDBRANCH  12  13
ENDBRANCH  11  12
ENDBRANCH  10  11
ENDBRANCH   9  10
ENDBRANCH   8   9
ENDBRANCH   7   8
ENDBRANCH   6   7
ENDBRANCH   5   6
ENDBRANCH   4   5
ENDBRANCH   3   4
ENDBRANCH   2   3
ENDBRANCH   1   2
BRANCH   1  17
ATOM     17  C   UNL     1      19.615  42.380  24.626  1.00  0.00     0.000 C 
BRANCH  17  18
ATOM     18  C   UNL     1      20.583  41.228  24.952  1.00  0.00     0.000 C 
BRANCH  18  19
ATOM     19  C   UNL     1      20.155  40.332  26.133  1.00  0.00     0.000 C 
BRANCH  19  20
ATOM     20  C   UNL     1      19.124  40.957  27.095  1.00  0.00     0.000 C 
BRANCH  20  21
ATOM     21  C   UNL     1      17.776  40.217  27.181  1.00  0.00     0.000 C 
BRANCH  21  22
ATOM     22  C   UNL     1      17.721  39.210  28.342  1.00  0.00    -0.000 C 
BRANCH  22  23
ATOM     23  C   UNL     1      16.966  39.759  29.564  1.00  0.00    -0.000 C 
BRANCH  23  24
ATOM     24  C   UNL     1      16.041  40.939  29.213  1.00  0.00    -0.000 C 
BRANCH  24  25
ATOM     25  C   UNL     1      14.554  40.550  29.200  1.00  0.00    -0.000 C 
BRANCH  25  26
ATOM     26  C   UNL     1      13.946  40.591  27.787  1.00  0.00    -0.000 C 
BRANCH  26  27
ATOM     27  C   UNL     1      13.386  39.228  27.339  1.00  0.00    -0.000 C 
BRANCH  27  28
ATOM     28  C   UNL     1      14.160  37.996  27.855  1.00  0.00    -0.000 C 
BRANCH  28  29
ATOM     29  C   UNL     1      14.966  37.237  26.784  1.00  0.00    -0.003 C 
ATOM     30  C   UNL     1      15.147  38.041  25.496  1.00  0.00     0.004 C 
ENDBRANCH  28  29
ENDBRANCH  27  28
ENDBRANCH  26  27
ENDBRANCH  25  26
ENDBRANCH  24  25
ENDBRANCH  23  24
ENDBRANCH  22  23
ENDBRANCH  21  22
ENDBRANCH  20  21
ENDBRANCH  19  20
ENDBRANCH  18  19
ENDBRANCH  17  18
ENDBRANCH   1  17
TORSDOF 26
ENDMDL
MODEL 9
REMARK VINA RESULT:    -3.801      3.557      7.773
REMARK INTER + INTRA:         -14.002
REMARK INTER:                  -9.687
REMARK INTRA:                  -4.315
REMARK UNBOUND:                -4.424
REMARK SMILES CCCCCCCCCCCCCCCCCCCCCCCCCCCC(=O)[O-]
REMARK SMILES IDX 15 1 16 2 17 3 18 4 19 5 20 6 21 7 22 8 23 9 24 10 25 11
REMARK SMILES IDX 26 12 27 13 28 14 29 15 30 16 14 17 13 18 12 19 11 20 10 21
REMARK SMILES IDX 9 22 8 23 7 24 6 25 5 26 4 27 3 28 2 29 1 30
REMARK H PARENT
REMARK Flexibility Score: inf
ROOT
ATOM      1  C   UNL     1      18.148  39.618  22.319  1.00  0.00     0.000 C 
ENDROOT
BRANCH   1   2
ATOM      2  C   UNL     1      19.598  39.166  22.079  1.00  0.00     0.000 C 
BRANCH   2   3
ATOM      3  C   UNL     1      20.236  38.563  23.343  1.00  0.00     0.000 C 
BRANCH   3   4
ATOM      4  C   UNL     1      19.304  38.609  24.565  1.00  0.00     0.000 C 
BRANCH   4   5
ATOM      5  C   UNL     1      19.925  39.357  25.758  1.00  0.00     0.000 C 
BRANCH   5   6
ATOM      6  C   UNL     1      19.274  40.729  26.013  1.00  0.00     0.000 C 
BRANCH   6   7
ATOM      7  C   UNL     1      20.198  41.946  25.815  1.00  0.00     0.000 C 
BRANCH   7   8
ATOM      8  C   UNL     1      20.119  42.536  24.397  1.00  0.00     0.000 C 
BRANCH   8   9
ATOM      9  C   UNL     1      21.278  42.083  23.490  1.00  0.00     0.000 C 
BRANCH   9  10
ATOM     10  C   UNL     1      21.269  42.673  22.067  1.00  0.00     0.000 C 
BRANCH  10  11
ATOM     11  C   UNL     1      20.723  44.108  22.013  1.00  0.00     0.000 C 
BRANCH  11  12
ATOM     12  C   UNL     1      19.813  44.304  20.793  1.00  0.00     0.006 C 
BRANCH  12  13
ATOM     13  C   UNL     1      20.281  45.490  19.943  1.00  0.00     0.053 C 
BRANCH  13  14
ATOM     14  C   UNL     1      19.750  46.773  20.497  1.00  0.00     0.041 C 
ATOM     15  O   UNL     1      18.622  46.803  21.057  1.00  0.00    -0.550 OA
ATOM     16  O   UNL     1      20.478  47.949  20.346  1.00  0.00    -0.550 OA
ENDBRANCH  13  14
ENDBRANCH  12  13
ENDBRANCH  11  12
ENDBRANCH  10  11
ENDBRANCH   9  10
ENDBRANCH   8   9
ENDBRANCH   7   8
ENDBRANCH   6   7
ENDBRANCH   5   6
ENDBRANCH   4   5
ENDBRANCH   3   4
ENDBRANCH   2   3
ENDBRANCH   1   2
BRANCH   1  17
ATOM     17  C   UNL     1      17.940  41.109  22.000  1.00  0.00     0.000 C 
BRANCH  17  18
ATOM     18  C   UNL     1      17.518  41.352  20.540  1.00  0.00     0.000 C 
BRANCH  18  19
ATOM     19  C   UNL     1      15.994  41.396  20.301  1.00  0.00     0.000 C 
BRANCH  19  20
ATOM     20  C   UNL     1      15.488  42.610  19.496  1.00  0.00     0.000 C 
BRANCH  20  21
ATOM     21  C   UNL     1      16.546  43.691  19.204  1.00  0.00     0.000 C 
BRANCH  21  22
ATOM     22  C   UNL     1      16.004  44.836  18.333  1.00  0.00    -0.000 C 
BRANCH  22  23
ATOM     23  C   UNL     1      15.824  46.144  19.123  1.00  0.00    -0.000 C 
BRANCH  23  24
ATOM     24  C   UNL     1      15.185  45.921  20.506  1.00  0.00    -0.000 C 
BRANCH  24  25
ATOM     25  C   UNL     1      13.674  46.202  20.520  1.00  0.00    -0.000 C 
BRANCH  25  26
ATOM     26  C   UNL     1      12.834  44.919  20.397  1.00  0.00    -0.000 C 
BRANCH  26  27
ATOM     27  C   UNL     1      12.040  44.849  19.079  1.00  0.00    -0.000 C 
BRANCH  27  28
ATOM     28  C   UNL     1      12.068  46.134  18.225  1.00  0.00    -0.000 C 
BRANCH  28  29
ATOM     29  C   UNL     1      12.766  45.994  16.860  1.00  0.00    -0.003 C 
ATOM     30  C   UNL     1      13.475  47.275  16.419  1.00  0.00     0.004 C 
ENDBRANCH  28  29
ENDBRANCH  27  28
ENDBRANCH  26  27
ENDBRANCH  25  26
ENDBRANCH  24  25
ENDBRANCH  23  24
ENDBRANCH  22  23
ENDBRANCH  21  22
ENDBRANCH  20  21
ENDBRANCH  19  20
ENDBRANCH  18  19
ENDBRANCH  17  18
ENDBRANCH   1  17
TORSDOF 26
ENDMDL
