MODEL 1
REMARK VINA RESULT:    -3.426      0.000      0.000
REMARK INTER + INTRA:          -6.014
REMARK INTER:                  -5.429
REMARK INTRA:                  -0.585
REMARK UNBOUND:                -0.585
REMARK SMILES CCCCCCCCCCCC(=O)[O-]
REMARK SMILES IDX 7 1 8 2 9 3 10 4 11 5 12 6 13 7 14 8 6 9 5 10 4 11 3 12 2 13
REMARK SMILES IDX 1 14
REMARK H PARENT
REMARK Flexibility Score: inf
ROOT
ATOM      1  C   UNL     1      16.117  15.673   7.134  1.00  0.00     0.000 C 
ENDROOT
BRANCH   1   2
ATOM      2  C   UNL     1      16.127  14.177   7.496  1.00  0.00     0.000 C 
BRANCH   2   3
ATOM      3  C   UNL     1      14.812  13.465   7.132  1.00  0.00     0.000 C 
BRANCH   3   4
ATOM      4  C   UNL     1      14.004  12.933   8.330  1.00  0.00     0.006 C 
BRANCH   4   5
ATOM      5  C   UNL     1      14.641  13.280   9.682  1.00  0.00     0.053 C 
BRANCH   5   6
ATOM      6  C   UNL     1      14.218  12.295  10.726  1.00  0.00     0.041 C 
ATOM      7  O   UNL     1      14.758  11.159  10.782  1.00  0.00    -0.550 OA
ATOM      8  O   UNL     1      13.192  12.614  11.608  1.00  0.00    -0.550 OA
ENDBRANCH   5   6
ENDBRANCH   4   5
ENDBRANCH   3   4
ENDBRANCH   2   3
ENDBRANCH   1   2
BRANCH   1   9
ATOM      9  C   UNL     1      16.597  16.561   8.294  1.00  0.00     0.000 C 
BRANCH   9  10
ATOM     10  C   UNL     1      15.430  17.165   9.096  1.00  0.00    -0.000 C 
BRANCH  10  11
ATOM     11  C   UNL     1      15.893  17.826  10.404  1.00  0.00    -0.000 C 
BRANCH  11  12
ATOM     12  C   UNL     1      15.404  19.279  10.541  1.00  0.00    -0.000 C 
BRANCH  12  13
ATOM     13  C   UNL     1      14.304  19.432  11.602  1.00  0.00    -0.003 C 
ATOM     14  C   UNL     1      13.771  20.861  11.697  1.00  0.00     0.004 C 
ENDBRANCH  12  13
ENDBRANCH  11  12
ENDBRANCH  10  11
ENDBRANCH   9  10
ENDBRANCH   1   9
TORSDOF 10
ENDMDL
MODEL 2
REMARK VINA RESULT:    -3.384      3.093      6.480
REMARK INTER + INTRA:          -5.947
REMARK INTER:                  -5.449
REMARK INTRA:                  -0.499
REMARK UNBOUND:                -0.585
REMARK SMILES CCCCCCCCCCCC(=O)[O-]
REMARK SMILES IDX 7 1 8 2 9 3 10 4 11 5 12 6 13 7 14 8 6 9 5 10 4 11 3 12 2 13
REMARK SMILES IDX 1 14
REMARK H PARENT
REMARK Flexibility Score: inf
ROOT
ATOM      1  C   UNL     1      15.568  16.753   8.412  1.00  0.00     0.000 C 
ENDROOT
BRANCH   1   2
ATOM      2  C   UNL     1      16.756  17.612   8.881  1.00  0.00     0.000 C 
BRANCH   2   3
ATOM      3  C   UNL     1      16.326  18.997   9.398  1.00  0.00     0.000 C 
BRANCH   3   4
ATOM      4  C   UNL     1      15.427  18.977  10.648  1.00  0.00     0.006 C 
BRANCH   4   5
ATOM      5  C   UNL     1      15.124  20.380  11.189  1.00  0.00     0.053 C 
BRANCH   5   6
ATOM      6  C   UNL     1      13.773  20.411  11.831  1.00  0.00     0.041 C 
ATOM      7  O   UNL     1      13.184  19.337  12.122  1.00  0.00    -0.550 OA
ATOM      8  O   UNL     1      13.141  21.628  12.062  1.00  0.00    -0.550 OA
ENDBRANCH   5   6
ENDBRANCH   4   5
ENDBRANCH   3   4
ENDBRANCH   2   3
ENDBRANCH   1   2
BRANCH   1   9
ATOM      9  C   UNL     1      15.955  15.778   7.288  1.00  0.00     0.000 C 
BRANCH   9  10
ATOM     10  C   UNL     1      16.069  14.325   7.782  1.00  0.00    -0.000 C 
BRANCH  10  11
ATOM     11  C   UNL     1      15.057  13.390   7.102  1.00  0.00    -0.000 C 
BRANCH  11  12
ATOM     12  C   UNL     1      13.960  12.901   8.065  1.00  0.00    -0.000 C 
BRANCH  12  13
ATOM     13  C   UNL     1      14.291  13.202   9.534  1.00  0.00    -0.003 C 
ATOM     14  C   UNL     1      14.105  11.987  10.442  1.00  0.00     0.004 C 
ENDBRANCH  12  13
ENDBRANCH  11  12
ENDBRANCH  10  11
ENDBRANCH   9  10
ENDBRANCH   1   9
TORSDOF 10
ENDMDL
MODEL 3
REMARK VINA RESULT:    -3.307      1.844      3.111
REMARK INTER + INTRA:          -5.826
REMARK INTER:                  -5.094
REMARK INTRA:                  -0.731
REMARK UNBOUND:                -0.585
REMARK SMILES CCCCCCCCCCCC(=O)[O-]
REMARK SMILES IDX 7 1 8 2 9 3 10 4 11 5 12 6 13 7 14 8 6 9 5 10 4 11 3 12 2 13
REMARK SMILES IDX 1 14
REMARK H PARENT
REMARK Flexibility Score: inf
ROOT
ATOM      1  C   UNL     1      15.673  18.029   9.757  1.00  0.00     0.000 C 
ENDROOT
BRANCH   1   2
ATOM      2  C   UNL     1      15.441  16.996   8.640  1.00  0.00     0.000 C 
BRANCH   2   3
ATOM      3  C   UNL     1      16.745  16.345   8.147  1.00  0.00     0.000 C 
BRANCH   3   4
ATOM      4  C   UNL     1      16.762  14.805   8.187  1.00  0.00     0.006 C 
BRANCH   4   5
ATOM      5  C   UNL     1      15.516  14.211   8.857  1.00  0.00     0.053 C 
BRANCH   5   6
ATOM      6  C   UNL     1      14.787  13.318   7.903  1.00  0.00     0.041 C 
ATOM      7  O   UNL     1      13.739  12.722   8.267  1.00  0.00    -0.550 OA
ATOM      8  O   UNL     1      15.294  13.104   6.626  1.00  0.00    -0.550 OA
ENDBRANCH   5   6
ENDBRANCH   4   5
ENDBRANCH   3   4
ENDBRANCH   2   3
ENDBRANCH   1   2
BRANCH   1   9
ATOM      9  C   UNL     1      16.714  19.091   9.369  1.00  0.00     0.000 C 
BRANCH   9  10
ATOM     10  C   UNL     1      16.959  20.116  10.491  1.00  0.00    -0.000 C 
BRANCH  10  11
ATOM     11  C   UNL     1      15.871  20.075  11.574  1.00  0.00    -0.000 C 
BRANCH  11  12
ATOM     12  C   UNL     1      14.986  21.335  11.575  1.00  0.00    -0.000 C 
BRANCH  12  13
ATOM     13  C   UNL     1      13.534  21.034  11.975  1.00  0.00    -0.003 C 
ATOM     14  C   UNL     1      13.292  19.550  12.247  1.00  0.00     0.004 C 
ENDBRANCH  12  13
ENDBRANCH  11  12
ENDBRANCH  10  11
ENDBRANCH   9  10
ENDBRANCH   1   9
TORSDOF 10
ENDMDL
MODEL 4
REMARK VINA RESULT:    -3.240      2.734      5.866
REMARK INTER + INTRA:          -5.720
REMARK INTER:                  -4.730
REMARK INTRA:                  -0.989
REMARK UNBOUND:                -0.585
REMARK SMILES CCCCCCCCCCCC(=O)[O-]
REMARK SMILES IDX 7 1 8 2 9 3 10 4 11 5 12 6 13 7 14 8 6 9 5 10 4 11 3 12 2 13
REMARK SMILES IDX 1 14
REMARK H PARENT
REMARK Flexibility Score: inf
ROOT
ATOM      1  C   UNL     1      15.765  14.898   7.264  1.00  0.00     0.000 C 
ENDROOT
BRANCH   1   2
ATOM      2  C   UNL     1      17.023  15.275   8.067  1.00  0.00     0.000 C 
BRANCH   2   3
ATOM      3  C   UNL     1      16.707  16.122   9.313  1.00  0.00     0.000 C 
BRANCH   3   4
ATOM      4  C   UNL     1      15.605  17.181   9.120  1.00  0.00     0.006 C 
BRANCH   4   5
ATOM      5  C   UNL     1      16.016  18.571   9.622  1.00  0.00     0.053 C 
BRANCH   5   6
ATOM      6  C   UNL     1      15.362  18.865  10.935  1.00  0.00     0.041 C 
ATOM      7  O   UNL     1      14.587  19.851  11.051  1.00  0.00    -0.550 OA
ATOM      8  O   UNL     1      15.647  18.080  12.046  1.00  0.00    -0.550 OA
ENDBRANCH   5   6
ENDBRANCH   4   5
ENDBRANCH   3   4
ENDBRANCH   2   3
ENDBRANCH   1   2
BRANCH   1   9
ATOM      9  C   UNL     1      15.463  13.392   7.319  1.00  0.00     0.000 C 
BRANCH   9  10
ATOM     10  C   UNL     1      14.154  13.079   8.066  1.00  0.00    -0.000 C 
BRANCH  10  11
ATOM     11  C   UNL     1      14.297  13.216   9.590  1.00  0.00    -0.000 C 
BRANCH  11  12
ATOM     12  C   UNL     1      14.121  11.876  10.326  1.00  0.00    -0.000 C 
BRANCH  12  13
ATOM     13  C   UNL     1      15.377  11.465  11.109  1.00  0.00    -0.003 C 
ATOM     14  C   UNL     1      16.516  12.475  10.970  1.00  0.00     0.004 C 
ENDBRANCH  12  13
ENDBRANCH  11  12
ENDBRANCH  10  11
ENDBRANCH   9  10
ENDBRANCH   1   9
TORSDOF 10
ENDMDL
MODEL 5
REMARK VINA RESULT:    -3.239      0.899      1.608
REMARK INTER + INTRA:          -5.717
REMARK INTER:                  -5.283
REMARK INTRA:                  -0.434
REMARK UNBOUND:                -0.585
REMARK SMILES CCCCCCCCCCCC(=O)[O-]
REMARK SMILES IDX 7 1 8 2 9 3 10 4 11 5 12 6 13 7 14 8 6 9 5 10 4 11 3 12 2 13
REMARK SMILES IDX 1 14
REMARK H PARENT
REMARK Flexibility Score: inf
ROOT
ATOM      1  C   UNL     1      15.484  16.816   8.368  1.00  0.00     0.000 C 
ENDROOT
BRANCH   1   2
ATOM      2  C   UNL     1      16.246  15.713   7.614  1.00  0.00     0.000 C 
BRANCH   2   3
ATOM      3  C   UNL     1      15.606  14.322   7.779  1.00  0.00     0.000 C 
BRANCH   3   4
ATOM      4  C   UNL     1      14.870  14.097   9.114  1.00  0.00     0.006 C 
BRANCH   4   5
ATOM      5  C   UNL     1      14.108  12.767   9.159  1.00  0.00     0.053 C 
BRANCH   5   6
ATOM      6  C   UNL     1      14.110  12.212  10.549  1.00  0.00     0.041 C 
ATOM      7  O   UNL     1      13.382  12.726  11.438  1.00  0.00    -0.550 OA
ATOM      8  O   UNL     1      14.954  11.156  10.874  1.00  0.00    -0.550 OA
ENDBRANCH   5   6
ENDBRANCH   4   5
ENDBRANCH   3   4
ENDBRANCH   2   3
ENDBRANCH   1   2
BRANCH   1   9
ATOM      9  C   UNL     1      16.408  17.948   8.845  1.00  0.00     0.000 C 
BRANCH   9  10
ATOM     10  C   UNL     1      16.002  18.502  10.222  1.00  0.00    -0.000 C 
BRANCH  10  11
ATOM     11  C   UNL     1      16.567  19.907  10.483  1.00  0.00    -0.000 C 
BRANCH  11  12
ATOM     12  C   UNL     1      15.717  20.713  11.482  1.00  0.00    -0.000 C 
BRANCH  12  13
ATOM     13  C   UNL     1      14.260  20.230  11.539  1.00  0.00    -0.003 C 
ATOM     14  C   UNL     1      13.286  21.339  11.933  1.00  0.00     0.004 C 
ENDBRANCH  12  13
ENDBRANCH  11  12
ENDBRANCH  10  11
ENDBRANCH   9  10
ENDBRANCH   1   9
TORSDOF 10
ENDMDL
MODEL 6
REMARK VINA RESULT:    -3.237      2.853      5.313
REMARK INTER + INTRA:          -5.715
REMARK INTER:                  -4.651
REMARK INTRA:                  -1.064
REMARK UNBOUND:                -0.585
REMARK SMILES CCCCCCCCCCCC(=O)[O-]
REMARK SMILES IDX 7 1 8 2 9 3 10 4 11 5 12 6 13 7 14 8 6 9 5 10 4 11 3 12 2 13
REMARK SMILES IDX 1 14
REMARK H PARENT
REMARK Flexibility Score: inf
ROOT
ATOM      1  C   UNL     1      13.919  12.858   7.985  1.00  0.00     0.000 C 
ENDROOT
BRANCH   1   2
ATOM      2  C   UNL     1      14.996  13.283   6.971  1.00  0.00     0.000 C 
BRANCH   2   3
ATOM      3  C   UNL     1      16.351  13.595   7.632  1.00  0.00     0.000 C 
BRANCH   3   4
ATOM      4  C   UNL     1      16.902  15.006   7.358  1.00  0.00     0.006 C 
BRANCH   4   5
ATOM      5  C   UNL     1      15.840  16.103   7.507  1.00  0.00     0.053 C 
BRANCH   5   6
ATOM      6  C   UNL     1      16.004  16.813   8.814  1.00  0.00     0.041 C 
ATOM      7  O   UNL     1      16.020  16.163   9.892  1.00  0.00    -0.550 OA
ATOM      8  O   UNL     1      16.090  18.200   8.845  1.00  0.00    -0.550 OA
ENDBRANCH   5   6
ENDBRANCH   4   5
ENDBRANCH   3   4
ENDBRANCH   2   3
ENDBRANCH   1   2
BRANCH   1   9
ATOM      9  C   UNL     1      14.368  13.066   9.441  1.00  0.00     0.000 C 
BRANCH   9  10
ATOM     10  C   UNL     1      13.980  11.888  10.352  1.00  0.00    -0.000 C 
BRANCH  10  11
ATOM     11  C   UNL     1      15.073  11.553  11.379  1.00  0.00    -0.000 C 
BRANCH  11  12
ATOM     12  C   UNL     1      16.457  12.087  10.969  1.00  0.00    -0.000 C 
BRANCH  12  13
ATOM     13  C   UNL     1      17.064  13.022  12.025  1.00  0.00    -0.003 C 
ATOM     14  C   UNL     1      16.020  13.921  12.688  1.00  0.00     0.004 C 
ENDBRANCH  12  13
ENDBRANCH  11  12
ENDBRANCH  10  11
ENDBRANCH   9  10
ENDBRANCH   1   9
TORSDOF 10
ENDMDL
MODEL 7
REMARK VINA RESULT:    -3.198      1.984      3.628
REMARK INTER + INTRA:          -5.652
REMARK INTER:                  -4.368
REMARK INTRA:                  -1.284
REMARK UNBOUND:                -0.585
REMARK SMILES CCCCCCCCCCCC(=O)[O-]
REMARK SMILES IDX 7 1 8 2 9 3 10 4 11 5 12 6 13 7 14 8 6 9 5 10 4 11 3 12 2 13
REMARK SMILES IDX 1 14
REMARK H PARENT
REMARK Flexibility Score: inf
ROOT
ATOM      1  C   UNL     1      13.893  12.982   8.058  1.00  0.00     0.000 C 
ENDROOT
BRANCH   1   2
ATOM      2  C   UNL     1      14.144  12.345   9.436  1.00  0.00     0.000 C 
BRANCH   2   3
ATOM      3  C   UNL     1      14.423  13.386  10.535  1.00  0.00     0.000 C 
BRANCH   3   4
ATOM      4  C   UNL     1      15.403  12.930  11.632  1.00  0.00     0.006 C 
BRANCH   4   5
ATOM      5  C   UNL     1      16.541  12.054  11.092  1.00  0.00     0.053 C 
BRANCH   5   6
ATOM      6  C   UNL     1      16.583  10.746  11.817  1.00  0.00     0.041 C 
ATOM      7  O   UNL     1      16.181  10.668  13.008  1.00  0.00    -0.550 OA
ATOM      8  O   UNL     1      17.112   9.622  11.193  1.00  0.00    -0.550 OA
ENDBRANCH   5   6
ENDBRANCH   4   5
ENDBRANCH   3   4
ENDBRANCH   2   3
ENDBRANCH   1   2
BRANCH   1   9
ATOM      9  C   UNL     1      15.189  13.167   7.251  1.00  0.00     0.000 C 
BRANCH   9  10
ATOM     10  C   UNL     1      15.716  14.612   7.303  1.00  0.00    -0.000 C 
BRANCH  10  11
ATOM     11  C   UNL     1      16.988  14.746   8.154  1.00  0.00    -0.000 C 
BRANCH  11  12
ATOM     12  C   UNL     1      16.859  15.818   9.251  1.00  0.00    -0.000 C 
BRANCH  12  13
ATOM     13  C   UNL     1      15.600  16.680   9.086  1.00  0.00    -0.003 C 
ATOM     14  C   UNL     1      15.793  18.110   9.590  1.00  0.00     0.004 C 
ENDBRANCH  12  13
ENDBRANCH  11  12
ENDBRANCH  10  11
ENDBRANCH   9  10
ENDBRANCH   1   9
TORSDOF 10
ENDMDL
MODEL 8
REMARK VINA RESULT:    -3.055      3.217      6.740
REMARK INTER + INTRA:          -5.427
REMARK INTER:                  -4.848
REMARK INTRA:                  -0.579
REMARK UNBOUND:                -0.585
REMARK SMILES CCCCCCCCCCCC(=O)[O-]
REMARK SMILES IDX 7 1 8 2 9 3 10 4 11 5 12 6 13 7 14 8 6 9 5 10 4 11 3 12 2 13
REMARK SMILES IDX 1 14
REMARK H PARENT
REMARK Flexibility Score: inf
ROOT
ATOM      1  C   UNL     1      15.971  17.310   8.651  1.00  0.00     0.000 C 
ENDROOT
BRANCH   1   2
ATOM      2  C   UNL     1      15.557  17.901  10.011  1.00  0.00     0.000 C 
BRANCH   2   3
ATOM      3  C   UNL     1      15.981  19.371  10.178  1.00  0.00     0.000 C 
BRANCH   3   4
ATOM      4  C   UNL     1      15.781  19.951  11.591  1.00  0.00     0.006 C 
BRANCH   4   5
ATOM      5  C   UNL     1      14.818  21.145  11.616  1.00  0.00     0.053 C 
BRANCH   5   6
ATOM      6  C   UNL     1      13.501  20.742  12.201  1.00  0.00     0.041 C 
ATOM      7  O   UNL     1      13.152  19.532  12.203  1.00  0.00    -0.550 OA
ATOM      8  O   UNL     1      12.636  21.709  12.699  1.00  0.00    -0.550 OA
ENDBRANCH   5   6
ENDBRANCH   4   5
ENDBRANCH   3   4
ENDBRANCH   2   3
ENDBRANCH   1   2
BRANCH   1   9
ATOM      9  C   UNL     1      16.681  15.954   8.793  1.00  0.00     0.000 C 
BRANCH   9  10
ATOM     10  C   UNL     1      16.054  15.070   9.885  1.00  0.00    -0.000 C 
BRANCH  10  11
ATOM     11  C   UNL     1      15.997  13.587   9.484  1.00  0.00    -0.000 C 
BRANCH  11  12
ATOM     12  C   UNL     1      14.560  13.036   9.451  1.00  0.00    -0.000 C 
BRANCH  12  13
ATOM     13  C   UNL     1      13.977  12.997   8.031  1.00  0.00    -0.003 C 
ATOM     14  C   UNL     1      15.044  13.170   6.950  1.00  0.00     0.004 C 
ENDBRANCH  12  13
ENDBRANCH  11  12
ENDBRANCH  10  11
ENDBRANCH   9  10
ENDBRANCH   1   9
TORSDOF 10
ENDMDL
MODEL 9
REMARK VINA RESULT:    -2.575      1.578      4.572
REMARK INTER + INTRA:          -4.666
REMARK INTER:                  -3.593
REMARK INTRA:                  -1.072
REMARK UNBOUND:                -0.585
REMARK SMILES CCCCCCCCCCCC(=O)[O-]
REMARK SMILES IDX 7 1 8 2 9 3 10 4 11 5 12 6 13 7 14 8 6 9 5 10 4 11 3 12 2 13
REMARK SMILES IDX 1 14
REMARK H PARENT
REMARK Flexibility Score: inf
ROOT
ATOM      1  C   UNL     1      16.001  18.343   9.761  1.00  0.00     0.000 C 
ENDROOT
BRANCH   1   2
ATOM      2  C   UNL     1      15.885  17.841  11.212  1.00  0.00     0.000 C 
BRANCH   2   3
ATOM      3  C   UNL     1      16.891  16.722  11.540  1.00  0.00     0.000 C 
BRANCH   3   4
ATOM      4  C   UNL     1      16.261  15.391  11.989  1.00  0.00     0.006 C 
BRANCH   4   5
ATOM      5  C   UNL     1      16.310  14.309  10.902  1.00  0.00     0.053 C 
BRANCH   5   6
ATOM      6  C   UNL     1      15.568  13.089  11.347  1.00  0.00     0.041 C 
ATOM      7  O   UNL     1      16.173  11.993  11.485  1.00  0.00    -0.550 OA
ATOM      8  O   UNL     1      14.196  13.149  11.562  1.00  0.00    -0.550 OA
ENDBRANCH   5   6
ENDBRANCH   4   5
ENDBRANCH   3   4
ENDBRANCH   2   3
ENDBRANCH   1   2
BRANCH   1   9
ATOM      9  C   UNL     1      15.818  17.215   8.733  1.00  0.00     0.000 C 
BRANCH   9  10
ATOM     10  C   UNL     1      17.125  16.871   7.995  1.00  0.00    -0.000 C 
BRANCH  10  11
ATOM     11  C   UNL     1      17.065  15.505   7.295  1.00  0.00    -0.000 C 
BRANCH  11  12
ATOM     12  C   UNL     1      15.625  14.985   7.130  1.00  0.00    -0.000 C 
BRANCH  12  13
ATOM     13  C   UNL     1      15.503  13.485   7.433  1.00  0.00    -0.003 C 
ATOM     14  C   UNL     1      14.147  13.112   8.033  1.00  0.00     0.004 C 
ENDBRANCH  12  13
ENDBRANCH  11  12
ENDBRANCH  10  11
ENDBRANCH   9  10
ENDBRANCH   1   9
TORSDOF 10
ENDMDL
