MODEL 1
REMARK VINA RESULT:    -3.801      0.000      0.000
REMARK INTER + INTRA:         -11.611
REMARK INTER:                  -9.577
REMARK INTRA:                  -2.034
REMARK UNBOUND:                -2.034
REMARK SMILES CCCCCCCCCCCCCCCCCCCCCCCCCCCC(=O)[O-]
REMARK SMILES IDX 15 1 16 2 17 3 18 4 19 5 20 6 21 7 22 8 23 9 24 10 25 11
REMARK SMILES IDX 26 12 27 13 28 14 29 15 30 16 14 17 13 18 12 19 11 20 10 21
REMARK SMILES IDX 9 22 8 23 7 24 6 25 5 26 4 27 3 28 2 29 1 30
REMARK H PARENT
REMARK Flexibility Score: inf
ROOT
ATOM      1  C   UNL     1      -3.848   6.730  -8.185  1.00  0.00     0.000 C 
ENDROOT
BRANCH   1   2
ATOM      2  C   UNL     1      -5.282   6.187  -8.273  1.00  0.00     0.000 C 
BRANCH   2   3
ATOM      3  C   UNL     1      -6.178   7.026  -9.202  1.00  0.00     0.000 C 
BRANCH   3   4
ATOM      4  C   UNL     1      -6.402   8.455  -8.678  1.00  0.00     0.000 C 
BRANCH   4   5
ATOM      5  C   UNL     1      -7.614   9.143  -9.330  1.00  0.00     0.000 C 
BRANCH   5   6
ATOM      6  C   UNL     1      -8.857   9.145  -8.429  1.00  0.00     0.000 C 
BRANCH   6   7
ATOM      7  C   UNL     1      -8.562   9.666  -7.011  1.00  0.00     0.000 C 
BRANCH   7   8
ATOM      8  C   UNL     1      -7.611   8.739  -6.223  1.00  0.00     0.000 C 
BRANCH   8   9
ATOM      9  C   UNL     1      -8.252   8.074  -4.993  1.00  0.00     0.000 C 
BRANCH   9  10
ATOM     10  C   UNL     1      -9.712   7.655  -5.230  1.00  0.00     0.000 C 
BRANCH  10  11
ATOM     11  C   UNL     1      -9.847   6.394  -6.105  1.00  0.00     0.000 C 
BRANCH  11  12
ATOM     12  C   UNL     1      -8.788   5.302  -5.858  1.00  0.00     0.006 C 
BRANCH  12  13
ATOM     13  C   UNL     1      -9.305   3.884  -6.136  1.00  0.00     0.053 C 
BRANCH  13  14
ATOM     14  C   UNL     1      -9.229   3.572  -7.597  1.00  0.00     0.041 C 
ATOM     15  O   UNL     1      -8.561   4.311  -8.368  1.00  0.00    -0.550 OA
ATOM     16  O   UNL     1      -9.881   2.456  -8.108  1.00  0.00    -0.550 OA
ENDBRANCH  13  14
ENDBRANCH  12  13
ENDBRANCH  11  12
ENDBRANCH  10  11
ENDBRANCH   9  10
ENDBRANCH   8   9
ENDBRANCH   7   8
ENDBRANCH   6   7
ENDBRANCH   5   6
ENDBRANCH   4   5
ENDBRANCH   3   4
ENDBRANCH   2   3
ENDBRANCH   1   2
BRANCH   1  17
ATOM     17  C   UNL     1      -3.370   6.913  -6.732  1.00  0.00     0.000 C 
BRANCH  17  18
ATOM     18  C   UNL     1      -4.174   7.998  -5.990  1.00  0.00     0.000 C 
BRANCH  18  19
ATOM     19  C   UNL     1      -3.295   8.899  -5.103  1.00  0.00     0.000 C 
BRANCH  19  20
ATOM     20  C   UNL     1      -1.860   8.360  -4.966  1.00  0.00     0.000 C 
BRANCH  20  21
ATOM     21  C   UNL     1      -0.826   9.493  -4.847  1.00  0.00     0.000 C 
BRANCH  21  22
ATOM     22  C   UNL     1      -0.476  10.125  -6.215  1.00  0.00    -0.000 C 
BRANCH  22  23
ATOM     23  C   UNL     1       0.249   9.162  -7.170  1.00  0.00    -0.000 C 
BRANCH  23  24
ATOM     24  C   UNL     1       0.035   9.516  -8.653  1.00  0.00    -0.000 C 
BRANCH  24  25
ATOM     25  C   UNL     1       1.367   9.609  -9.429  1.00  0.00    -0.000 C 
BRANCH  25  26
ATOM     26  C   UNL     1       2.074   8.256  -9.620  1.00  0.00    -0.000 C 
BRANCH  26  27
ATOM     27  C   UNL     1       3.594   8.336  -9.395  1.00  0.00    -0.000 C 
BRANCH  27  28
ATOM     28  C   UNL     1       4.126   7.166  -8.550  1.00  0.00    -0.000 C 
BRANCH  28  29
ATOM     29  C   UNL     1       3.010   6.346  -7.865  1.00  0.00    -0.003 C 
ATOM     30  C   UNL     1       3.009   6.535  -6.345  1.00  0.00     0.004 C 
ENDBRANCH  28  29
ENDBRANCH  27  28
ENDBRANCH  26  27
ENDBRANCH  25  26
ENDBRANCH  24  25
ENDBRANCH  23  24
ENDBRANCH  22  23
ENDBRANCH  21  22
ENDBRANCH  20  21
ENDBRANCH  19  20
ENDBRANCH  18  19
ENDBRANCH  17  18
ENDBRANCH   1  17
TORSDOF 26
ENDMDL
MODEL 2
REMARK VINA RESULT:    -3.785      1.882      3.584
REMARK INTER + INTRA:         -11.572
REMARK INTER:                  -9.358
REMARK INTRA:                  -2.215
REMARK UNBOUND:                -2.034
REMARK SMILES CCCCCCCCCCCCCCCCCCCCCCCCCCCC(=O)[O-]
REMARK SMILES IDX 15 1 16 2 17 3 18 4 19 5 20 6 21 7 22 8 23 9 24 10 25 11
REMARK SMILES IDX 26 12 27 13 28 14 29 15 30 16 14 17 13 18 12 19 11 20 10 21
REMARK SMILES IDX 9 22 8 23 7 24 6 25 5 26 4 27 3 28 2 29 1 30
REMARK H PARENT
REMARK Flexibility Score: inf
ROOT
ATOM      1  C   UNL     1      -2.396   8.873  -3.974  1.00  0.00     0.000 C 
ENDROOT
BRANCH   1   2
ATOM      2  C   UNL     1      -3.563   9.292  -3.067  1.00  0.00     0.000 C 
BRANCH   2   3
ATOM      3  C   UNL     1      -4.641  10.093  -3.818  1.00  0.00     0.000 C 
BRANCH   3   4
ATOM      4  C   UNL     1      -5.805   9.211  -4.303  1.00  0.00     0.000 C 
BRANCH   4   5
ATOM      5  C   UNL     1      -5.494   8.495  -5.630  1.00  0.00     0.000 C 
BRANCH   5   6
ATOM      6  C   UNL     1      -5.564   9.432  -6.846  1.00  0.00     0.000 C 
BRANCH   6   7
ATOM      7  C   UNL     1      -6.588   8.967  -7.896  1.00  0.00     0.000 C 
BRANCH   7   8
ATOM      8  C   UNL     1      -7.951   9.680  -7.753  1.00  0.00     0.000 C 
BRANCH   8   9
ATOM      9  C   UNL     1      -8.649   9.443  -6.403  1.00  0.00     0.000 C 
BRANCH   9  10
ATOM     10  C   UNL     1      -9.846   8.485  -6.506  1.00  0.00     0.000 C 
BRANCH  10  11
ATOM     11  C   UNL     1      -9.727   7.262  -5.577  1.00  0.00     0.000 C 
BRANCH  11  12
ATOM     12  C   UNL     1      -8.394   6.494  -5.663  1.00  0.00     0.006 C 
BRANCH  12  13
ATOM     13  C   UNL     1      -8.553   5.065  -6.201  1.00  0.00     0.053 C 
BRANCH  13  14
ATOM     14  C   UNL     1      -8.538   5.059  -7.696  1.00  0.00     0.041 C 
ATOM     15  O   UNL     1      -8.197   6.093  -8.330  1.00  0.00    -0.550 OA
ATOM     16  O   UNL     1      -8.886   3.908  -8.394  1.00  0.00    -0.550 OA
ENDBRANCH  13  14
ENDBRANCH  12  13
ENDBRANCH  11  12
ENDBRANCH  10  11
ENDBRANCH   9  10
ENDBRANCH   8   9
ENDBRANCH   7   8
ENDBRANCH   6   7
ENDBRANCH   5   6
ENDBRANCH   4   5
ENDBRANCH   3   4
ENDBRANCH   2   3
ENDBRANCH   1   2
BRANCH   1  17
ATOM     17  C   UNL     1      -1.777  10.061  -4.732  1.00  0.00     0.000 C 
BRANCH  17  18
ATOM     18  C   UNL     1      -1.124   9.625  -6.059  1.00  0.00     0.000 C 
BRANCH  18  19
ATOM     19  C   UNL     1      -2.010   9.905  -7.287  1.00  0.00     0.000 C 
BRANCH  19  20
ATOM     20  C   UNL     1      -1.927   8.780  -8.335  1.00  0.00     0.000 C 
BRANCH  20  21
ATOM     21  C   UNL     1      -1.512   9.309  -9.719  1.00  0.00     0.000 C 
BRANCH  21  22
ATOM     22  C   UNL     1      -0.046   8.964 -10.072  1.00  0.00    -0.000 C 
BRANCH  22  23
ATOM     23  C   UNL     1       0.926   9.125  -8.891  1.00  0.00    -0.000 C 
BRANCH  23  24
ATOM     24  C   UNL     1       2.397   8.918  -9.294  1.00  0.00    -0.000 C 
BRANCH  24  25
ATOM     25  C   UNL     1       2.919   7.519  -8.901  1.00  0.00    -0.000 C 
BRANCH  25  26
ATOM     26  C   UNL     1       4.432   7.471  -8.624  1.00  0.00    -0.000 C 
BRANCH  26  27
ATOM     27  C   UNL     1       5.256   7.065  -9.859  1.00  0.00    -0.000 C 
BRANCH  27  28
ATOM     28  C   UNL     1       6.429   8.023 -10.125  1.00  0.00    -0.000 C 
BRANCH  28  29
ATOM     29  C   UNL     1       7.622   7.814  -9.165  1.00  0.00    -0.003 C 
ATOM     30  C   UNL     1       8.949   7.678  -9.918  1.00  0.00     0.004 C 
ENDBRANCH  28  29
ENDBRANCH  27  28
ENDBRANCH  26  27
ENDBRANCH  25  26
ENDBRANCH  24  25
ENDBRANCH  23  24
ENDBRANCH  22  23
ENDBRANCH  21  22
ENDBRANCH  20  21
ENDBRANCH  19  20
ENDBRANCH  18  19
ENDBRANCH  17  18
ENDBRANCH   1  17
TORSDOF 26
ENDMDL
MODEL 3
REMARK VINA RESULT:    -3.780      3.287      9.078
REMARK INTER + INTRA:         -11.559
REMARK INTER:                  -7.683
REMARK INTRA:                  -3.876
REMARK UNBOUND:                -2.034
REMARK SMILES CCCCCCCCCCCCCCCCCCCCCCCCCCCC(=O)[O-]
REMARK SMILES IDX 15 1 16 2 17 3 18 4 19 5 20 6 21 7 22 8 23 9 24 10 25 11
REMARK SMILES IDX 26 12 27 13 28 14 29 15 30 16 14 17 13 18 12 19 11 20 10 21
REMARK SMILES IDX 9 22 8 23 7 24 6 25 5 26 4 27 3 28 2 29 1 30
REMARK H PARENT
REMARK Flexibility Score: inf
ROOT
ATOM      1  C   UNL     1      -4.253   5.608  -8.368  1.00  0.00     0.000 C 
ENDROOT
BRANCH   1   2
ATOM      2  C   UNL     1      -4.490   6.188  -6.966  1.00  0.00     0.000 C 
BRANCH   2   3
ATOM      3  C   UNL     1      -3.216   6.796  -6.351  1.00  0.00     0.000 C 
BRANCH   3   4
ATOM      4  C   UNL     1      -3.474   8.153  -5.675  1.00  0.00     0.000 C 
BRANCH   4   5
ATOM      5  C   UNL     1      -3.342   9.337  -6.650  1.00  0.00     0.000 C 
BRANCH   5   6
ATOM      6  C   UNL     1      -4.672  10.068  -6.888  1.00  0.00     0.000 C 
BRANCH   6   7
ATOM      7  C   UNL     1      -5.065  10.118  -8.375  1.00  0.00     0.000 C 
BRANCH   7   8
ATOM      8  C   UNL     1      -4.180   9.208  -9.255  1.00  0.00     0.000 C 
BRANCH   8   9
ATOM      9  C   UNL     1      -2.870   9.865  -9.724  1.00  0.00     0.000 C 
BRANCH   9  10
ATOM     10  C   UNL     1      -1.691   8.879  -9.781  1.00  0.00     0.000 C 
BRANCH  10  11
ATOM     11  C   UNL     1      -0.342   9.563 -10.069  1.00  0.00     0.000 C 
BRANCH  11  12
ATOM     12  C   UNL     1       0.898   8.847  -9.498  1.00  0.00     0.006 C 
BRANCH  12  13
ATOM     13  C   UNL     1       1.317   9.372  -8.118  1.00  0.00     0.053 C 
BRANCH  13  14
ATOM     14  C   UNL     1       1.393   8.253  -7.128  1.00  0.00     0.041 C 
ATOM     15  O   UNL     1       2.317   7.401  -7.207  1.00  0.00    -0.550 OA
ATOM     16  O   UNL     1       0.454   8.158  -6.108  1.00  0.00    -0.550 OA
ENDBRANCH  13  14
ENDBRANCH  12  13
ENDBRANCH  11  12
ENDBRANCH  10  11
ENDBRANCH   9  10
ENDBRANCH   8   9
ENDBRANCH   7   8
ENDBRANCH   6   7
ENDBRANCH   5   6
ENDBRANCH   4   5
ENDBRANCH   3   4
ENDBRANCH   2   3
ENDBRANCH   1   2
BRANCH   1  17
ATOM     17  C   UNL     1      -5.503   5.689  -9.263  1.00  0.00     0.000 C 
BRANCH  17  18
ATOM     18  C   UNL     1      -6.593   6.593  -8.656  1.00  0.00     0.000 C 
BRANCH  18  19
ATOM     19  C   UNL     1      -7.534   7.197  -9.715  1.00  0.00     0.000 C 
BRANCH  19  20
ATOM     20  C   UNL     1      -9.018   7.037  -9.336  1.00  0.00     0.000 C 
BRANCH  20  21
ATOM     21  C   UNL     1      -9.540   8.238  -8.528  1.00  0.00     0.000 C 
BRANCH  21  22
ATOM     22  C   UNL     1      -8.446   8.879  -7.641  1.00  0.00    -0.000 C 
BRANCH  22  23
ATOM     23  C   UNL     1      -8.971   9.384  -6.286  1.00  0.00    -0.000 C 
BRANCH  23  24
ATOM     24  C   UNL     1      -8.763   8.370  -5.148  1.00  0.00    -0.000 C 
BRANCH  24  25
ATOM     25  C   UNL     1      -7.459   7.559  -5.318  1.00  0.00    -0.000 C 
BRANCH  25  26
ATOM     26  C   UNL     1      -7.663   6.034  -5.285  1.00  0.00    -0.000 C 
BRANCH  26  27
ATOM     27  C   UNL     1      -9.102   5.613  -5.631  1.00  0.00    -0.000 C 
BRANCH  27  28
ATOM     28  C   UNL     1      -9.158   4.619  -6.804  1.00  0.00    -0.000 C 
BRANCH  28  29
ATOM     29  C   UNL     1      -9.574   3.192  -6.379  1.00  0.00    -0.003 C 
ATOM     30  C   UNL     1      -9.970   2.328  -7.581  1.00  0.00     0.004 C 
ENDBRANCH  28  29
ENDBRANCH  27  28
ENDBRANCH  26  27
ENDBRANCH  25  26
ENDBRANCH  24  25
ENDBRANCH  23  24
ENDBRANCH  22  23
ENDBRANCH  21  22
ENDBRANCH  20  21
ENDBRANCH  19  20
ENDBRANCH  18  19
ENDBRANCH  17  18
ENDBRANCH   1  17
TORSDOF 26
ENDMDL
MODEL 4
REMARK VINA RESULT:    -3.731      2.806      4.968
REMARK INTER + INTRA:         -11.435
REMARK INTER:                  -7.665
REMARK INTRA:                  -3.770
REMARK UNBOUND:                -2.034
REMARK SMILES CCCCCCCCCCCCCCCCCCCCCCCCCCCC(=O)[O-]
REMARK SMILES IDX 15 1 16 2 17 3 18 4 19 5 20 6 21 7 22 8 23 9 24 10 25 11
REMARK SMILES IDX 26 12 27 13 28 14 29 15 30 16 14 17 13 18 12 19 11 20 10 21
REMARK SMILES IDX 9 22 8 23 7 24 6 25 5 26 4 27 3 28 2 29 1 30
REMARK H PARENT
REMARK Flexibility Score: inf
ROOT
ATOM      1  C   UNL     1      -7.639   6.474  -5.496  1.00  0.00     0.000 C 
ENDROOT
BRANCH   1   2
ATOM      2  C   UNL     1      -8.755   5.597  -6.084  1.00  0.00     0.000 C 
BRANCH   2   3
ATOM      3  C   UNL     1      -8.420   5.075  -7.493  1.00  0.00     0.000 C 
BRANCH   3   4
ATOM      4  C   UNL     1      -9.180   5.826  -8.599  1.00  0.00     0.000 C 
BRANCH   4   5
ATOM      5  C   UNL     1      -8.248   6.361  -9.701  1.00  0.00     0.000 C 
BRANCH   5   6
ATOM      6  C   UNL     1      -8.429   7.864  -9.960  1.00  0.00     0.000 C 
BRANCH   6   7
ATOM      7  C   UNL     1      -7.325   8.717  -9.309  1.00  0.00     0.000 C 
BRANCH   7   8
ATOM      8  C   UNL     1      -7.725   9.241  -7.912  1.00  0.00     0.000 C 
BRANCH   8   9
ATOM      9  C   UNL     1      -6.659  10.124  -7.240  1.00  0.00     0.000 C 
BRANCH   9  10
ATOM     10  C   UNL     1      -6.617   9.956  -5.713  1.00  0.00     0.000 C 
BRANCH  10  11
ATOM     11  C   UNL     1      -5.196  10.068  -5.129  1.00  0.00     0.000 C 
BRANCH  11  12
ATOM     12  C   UNL     1      -4.980   9.365  -3.775  1.00  0.00     0.006 C 
BRANCH  12  13
ATOM     13  C   UNL     1      -3.518   9.389  -3.308  1.00  0.00     0.053 C 
BRANCH  13  14
ATOM     14  C   UNL     1      -2.592   9.154  -4.459  1.00  0.00     0.041 C 
ATOM     15  O   UNL     1      -2.660   8.082  -5.117  1.00  0.00    -0.550 OA
ATOM     16  O   UNL     1      -1.663  10.124  -4.817  1.00  0.00    -0.550 OA
ENDBRANCH  13  14
ENDBRANCH  12  13
ENDBRANCH  11  12
ENDBRANCH  10  11
ENDBRANCH   9  10
ENDBRANCH   8   9
ENDBRANCH   7   8
ENDBRANCH   6   7
ENDBRANCH   5   6
ENDBRANCH   4   5
ENDBRANCH   3   4
ENDBRANCH   2   3
ENDBRANCH   1   2
BRANCH   1  17
ATOM     17  C   UNL     1      -6.235   5.888  -5.734  1.00  0.00     0.000 C 
BRANCH  17  18
ATOM     18  C   UNL     1      -5.534   6.535  -6.945  1.00  0.00     0.000 C 
BRANCH  18  19
ATOM     19  C   UNL     1      -4.427   5.649  -7.545  1.00  0.00     0.000 C 
BRANCH  19  20
ATOM     20  C   UNL     1      -4.482   5.608  -9.083  1.00  0.00     0.000 C 
BRANCH  20  21
ATOM     21  C   UNL     1      -3.535   6.637  -9.723  1.00  0.00     0.000 C 
BRANCH  21  22
ATOM     22  C   UNL     1      -4.197   8.024  -9.903  1.00  0.00    -0.000 C 
BRANCH  22  23
ATOM     23  C   UNL     1      -3.259   9.200  -9.583  1.00  0.00    -0.000 C 
BRANCH  23  24
ATOM     24  C   UNL     1      -2.388   8.949  -8.339  1.00  0.00    -0.000 C 
BRANCH  24  25
ATOM     25  C   UNL     1      -1.287  10.019  -8.172  1.00  0.00    -0.000 C 
BRANCH  25  26
ATOM     26  C   UNL     1      -0.221   9.998  -9.282  1.00  0.00    -0.000 C 
BRANCH  26  27
ATOM     27  C   UNL     1       0.633   8.718  -9.269  1.00  0.00    -0.000 C 
BRANCH  27  28
ATOM     28  C   UNL     1       2.130   9.012  -9.072  1.00  0.00    -0.000 C 
BRANCH  28  29
ATOM     29  C   UNL     1       3.023   7.756  -9.191  1.00  0.00    -0.003 C 
ATOM     30  C   UNL     1       3.230   7.069  -7.838  1.00  0.00     0.004 C 
ENDBRANCH  28  29
ENDBRANCH  27  28
ENDBRANCH  26  27
ENDBRANCH  25  26
ENDBRANCH  24  25
ENDBRANCH  23  24
ENDBRANCH  22  23
ENDBRANCH  21  22
ENDBRANCH  20  21
ENDBRANCH  19  20
ENDBRANCH  18  19
ENDBRANCH  17  18
ENDBRANCH   1  17
TORSDOF 26
ENDMDL
MODEL 5
REMARK VINA RESULT:    -3.325      4.067      9.695
REMARK INTER + INTRA:         -10.412
REMARK INTER:                  -8.143
REMARK INTRA:                  -2.269
REMARK UNBOUND:                -2.034
REMARK SMILES CCCCCCCCCCCCCCCCCCCCCCCCCCCC(=O)[O-]
REMARK SMILES IDX 15 1 16 2 17 3 18 4 19 5 20 6 21 7 22 8 23 9 24 10 25 11
REMARK SMILES IDX 26 12 27 13 28 14 29 15 30 16 14 17 13 18 12 19 11 20 10 21
REMARK SMILES IDX 9 22 8 23 7 24 6 25 5 26 4 27 3 28 2 29 1 30
REMARK H PARENT
REMARK Flexibility Score: inf
ROOT
ATOM      1  C   UNL     1      -4.756   5.991  -7.794  1.00  0.00     0.000 C 
ENDROOT
BRANCH   1   2
ATOM      2  C   UNL     1      -5.019   6.573  -6.397  1.00  0.00     0.000 C 
BRANCH   2   3
ATOM      3  C   UNL     1      -3.845   7.418  -5.875  1.00  0.00     0.000 C 
BRANCH   3   4
ATOM      4  C   UNL     1      -4.222   8.263  -4.646  1.00  0.00     0.000 C 
BRANCH   4   5
ATOM      5  C   UNL     1      -3.176   9.345  -4.325  1.00  0.00     0.000 C 
BRANCH   5   6
ATOM      6  C   UNL     1      -2.325   9.735  -5.543  1.00  0.00     0.000 C 
BRANCH   6   7
ATOM      7  C   UNL     1      -0.819   9.771  -5.228  1.00  0.00     0.000 C 
BRANCH   7   8
ATOM      8  C   UNL     1       0.044   9.238  -6.393  1.00  0.00     0.000 C 
BRANCH   8   9
ATOM      9  C   UNL     1      -0.645   9.297  -7.767  1.00  0.00     0.000 C 
BRANCH   9  10
ATOM     10  C   UNL     1       0.252   9.895  -8.863  1.00  0.00     0.000 C 
BRANCH  10  11
ATOM     11  C   UNL     1       1.734   9.503  -8.716  1.00  0.00     0.000 C 
BRANCH  11  12
ATOM     12  C   UNL     1       2.073   8.046  -9.087  1.00  0.00     0.006 C 
BRANCH  12  13
ATOM     13  C   UNL     1       3.410   7.569  -8.504  1.00  0.00     0.053 C 
BRANCH  13  14
ATOM     14  C   UNL     1       4.530   7.844  -9.457  1.00  0.00     0.041 C 
ATOM     15  O   UNL     1       5.309   6.916  -9.802  1.00  0.00    -0.550 OA
ATOM     16  O   UNL     1       4.705   9.120  -9.980  1.00  0.00    -0.550 OA
ENDBRANCH  13  14
ENDBRANCH  12  13
ENDBRANCH  11  12
ENDBRANCH  10  11
ENDBRANCH   9  10
ENDBRANCH   8   9
ENDBRANCH   7   8
ENDBRANCH   6   7
ENDBRANCH   5   6
ENDBRANCH   4   5
ENDBRANCH   3   4
ENDBRANCH   2   3
ENDBRANCH   1   2
BRANCH   1  17
ATOM     17  C   UNL     1      -4.960   7.025  -8.916  1.00  0.00     0.000 C 
BRANCH  17  18
ATOM     18  C   UNL     1      -4.127   8.302  -8.686  1.00  0.00     0.000 C 
BRANCH  18  19
ATOM     19  C   UNL     1      -4.717   9.541  -9.385  1.00  0.00     0.000 C 
BRANCH  19  20
ATOM     20  C   UNL     1      -6.231   9.405  -9.631  1.00  0.00     0.000 C 
BRANCH  20  21
ATOM     21  C   UNL     1      -6.999   9.079  -8.339  1.00  0.00     0.000 C 
BRANCH  21  22
ATOM     22  C   UNL     1      -6.644  10.038  -7.178  1.00  0.00    -0.000 C 
BRANCH  22  23
ATOM     23  C   UNL     1      -7.620   9.957  -5.992  1.00  0.00    -0.000 C 
BRANCH  23  24
ATOM     24  C   UNL     1      -7.641   8.568  -5.329  1.00  0.00    -0.000 C 
BRANCH  24  25
ATOM     25  C   UNL     1      -9.063   8.151  -4.891  1.00  0.00    -0.000 C 
BRANCH  25  26
ATOM     26  C   UNL     1     -10.111   8.231  -6.014  1.00  0.00    -0.000 C 
BRANCH  26  27
ATOM     27  C   UNL     1     -10.108   6.992  -6.927  1.00  0.00    -0.000 C 
BRANCH  27  28
ATOM     28  C   UNL     1      -8.734   6.301  -6.977  1.00  0.00    -0.000 C 
BRANCH  28  29
ATOM     29  C   UNL     1      -8.730   5.002  -7.814  1.00  0.00    -0.003 C 
ATOM     30  C   UNL     1      -8.181   5.231  -9.226  1.00  0.00     0.004 C 
ENDBRANCH  28  29
ENDBRANCH  27  28
ENDBRANCH  26  27
ENDBRANCH  25  26
ENDBRANCH  24  25
ENDBRANCH  23  24
ENDBRANCH  22  23
ENDBRANCH  21  22
ENDBRANCH  20  21
ENDBRANCH  19  20
ENDBRANCH  18  19
ENDBRANCH  17  18
ENDBRANCH   1  17
TORSDOF 26
ENDMDL
MODEL 6
REMARK VINA RESULT:    -3.185      1.556      5.811
REMARK INTER + INTRA:         -10.059
REMARK INTER:                  -6.789
REMARK INTRA:                  -3.270
REMARK UNBOUND:                -2.034
REMARK SMILES CCCCCCCCCCCCCCCCCCCCCCCCCCCC(=O)[O-]
REMARK SMILES IDX 15 1 16 2 17 3 18 4 19 5 20 6 21 7 22 8 23 9 24 10 25 11
REMARK SMILES IDX 26 12 27 13 28 14 29 15 30 16 14 17 13 18 12 19 11 20 10 21
REMARK SMILES IDX 9 22 8 23 7 24 6 25 5 26 4 27 3 28 2 29 1 30
REMARK H PARENT
REMARK Flexibility Score: inf
ROOT
ATOM      1  C   UNL     1       1.887   9.538  -8.793  1.00  0.00     0.000 C 
ENDROOT
BRANCH   1   2
ATOM      2  C   UNL     1       0.375   9.628  -8.536  1.00  0.00     0.000 C 
BRANCH   2   3
ATOM      3  C   UNL     1      -0.462   9.235  -9.766  1.00  0.00     0.000 C 
BRANCH   3   4
ATOM      4  C   UNL     1      -1.935   9.659  -9.641  1.00  0.00     0.000 C 
BRANCH   4   5
ATOM      5  C   UNL     1      -2.801   8.595  -8.943  1.00  0.00     0.000 C 
BRANCH   5   6
ATOM      6  C   UNL     1      -3.455   7.614  -9.928  1.00  0.00     0.000 C 
BRANCH   6   7
ATOM      7  C   UNL     1      -4.992   7.640  -9.861  1.00  0.00     0.000 C 
BRANCH   7   8
ATOM      8  C   UNL     1      -5.520   8.062  -8.472  1.00  0.00     0.000 C 
BRANCH   8   9
ATOM      9  C   UNL     1      -6.447   9.290  -8.496  1.00  0.00     0.000 C 
BRANCH   9  10
ATOM     10  C   UNL     1      -7.901   8.951  -8.128  1.00  0.00     0.000 C 
BRANCH  10  11
ATOM     11  C   UNL     1      -8.228   7.452  -8.263  1.00  0.00     0.000 C 
BRANCH  11  12
ATOM     12  C   UNL     1      -9.654   7.046  -7.846  1.00  0.00     0.006 C 
BRANCH  12  13
ATOM     13  C   UNL     1     -10.009   5.603  -8.229  1.00  0.00     0.053 C 
BRANCH  13  14
ATOM     14  C   UNL     1      -9.321   4.633  -7.322  1.00  0.00     0.041 C 
ATOM     15  O   UNL     1      -9.010   4.973  -6.150  1.00  0.00    -0.550 OA
ATOM     16  O   UNL     1      -9.037   3.345  -7.763  1.00  0.00    -0.550 OA
ENDBRANCH  13  14
ENDBRANCH  12  13
ENDBRANCH  11  12
ENDBRANCH  10  11
ENDBRANCH   9  10
ENDBRANCH   8   9
ENDBRANCH   7   8
ENDBRANCH   6   7
ENDBRANCH   5   6
ENDBRANCH   4   5
ENDBRANCH   3   4
ENDBRANCH   2   3
ENDBRANCH   1   2
BRANCH   1  17
ATOM     17  C   UNL     1       2.277   8.297  -9.616  1.00  0.00     0.000 C 
BRANCH  17  18
ATOM     18  C   UNL     1       3.485   7.556  -9.009  1.00  0.00     0.000 C 
BRANCH  18  19
ATOM     19  C   UNL     1       3.083   6.521  -7.941  1.00  0.00     0.000 C 
BRANCH  19  20
ATOM     20  C   UNL     1       3.031   7.132  -6.529  1.00  0.00     0.000 C 
BRANCH  20  21
ATOM     21  C   UNL     1       1.873   6.558  -5.693  1.00  0.00     0.000 C 
BRANCH  21  22
ATOM     22  C   UNL     1       1.095   7.652  -4.925  1.00  0.00    -0.000 C 
BRANCH  22  23
ATOM     23  C   UNL     1      -0.139   8.174  -5.680  1.00  0.00    -0.000 C 
BRANCH  23  24
ATOM     24  C   UNL     1      -0.901   9.261  -4.901  1.00  0.00    -0.000 C 
BRANCH  24  25
ATOM     25  C   UNL     1      -2.189   9.707  -5.628  1.00  0.00    -0.000 C 
BRANCH  25  26
ATOM     26  C   UNL     1      -3.429   9.771  -4.720  1.00  0.00    -0.000 C 
BRANCH  26  27
ATOM     27  C   UNL     1      -4.367   8.564  -4.899  1.00  0.00    -0.000 C 
BRANCH  27  28
ATOM     28  C   UNL     1      -5.852   8.961  -4.851  1.00  0.00    -0.000 C 
BRANCH  28  29
ATOM     29  C   UNL     1      -6.812   7.750  -4.878  1.00  0.00    -0.003 C 
ATOM     30  C   UNL     1      -6.084   6.447  -5.223  1.00  0.00     0.004 C 
ENDBRANCH  28  29
ENDBRANCH  27  28
ENDBRANCH  26  27
ENDBRANCH  25  26
ENDBRANCH  24  25
ENDBRANCH  23  24
ENDBRANCH  22  23
ENDBRANCH  21  22
ENDBRANCH  20  21
ENDBRANCH  19  20
ENDBRANCH  18  19
ENDBRANCH  17  18
ENDBRANCH   1  17
TORSDOF 26
ENDMDL
MODEL 7
REMARK VINA RESULT:    -3.147      5.506     12.326
REMARK INTER + INTRA:          -9.963
REMARK INTER:                  -7.592
REMARK INTRA:                  -2.372
REMARK UNBOUND:                -2.034
REMARK SMILES CCCCCCCCCCCCCCCCCCCCCCCCCCCC(=O)[O-]
REMARK SMILES IDX 15 1 16 2 17 3 18 4 19 5 20 6 21 7 22 8 23 9 24 10 25 11
REMARK SMILES IDX 26 12 27 13 28 14 29 15 30 16 14 17 13 18 12 19 11 20 10 21
REMARK SMILES IDX 9 22 8 23 7 24 6 25 5 26 4 27 3 28 2 29 1 30
REMARK H PARENT
REMARK Flexibility Score: inf
ROOT
ATOM      1  C   UNL     1      -0.986   8.469  -6.416  1.00  0.00     0.000 C 
ENDROOT
BRANCH   1   2
ATOM      2  C   UNL     1       0.472   8.844  -6.719  1.00  0.00     0.000 C 
BRANCH   2   3
ATOM      3  C   UNL     1       1.052   8.058  -7.908  1.00  0.00     0.000 C 
BRANCH   3   4
ATOM      4  C   UNL     1       2.591   8.050  -7.920  1.00  0.00     0.000 C 
BRANCH   4   5
ATOM      5  C   UNL     1       3.175   6.678  -8.301  1.00  0.00     0.000 C 
BRANCH   5   6
ATOM      6  C   UNL     1       4.249   6.768  -9.395  1.00  0.00     0.000 C 
BRANCH   6   7
ATOM      7  C   UNL     1       5.353   7.788  -9.062  1.00  0.00     0.000 C 
BRANCH   7   8
ATOM      8  C   UNL     1       6.474   7.818 -10.124  1.00  0.00     0.000 C 
BRANCH   8   9
ATOM      9  C   UNL     1       7.555   6.740  -9.931  1.00  0.00     0.000 C 
BRANCH   9  10
ATOM     10  C   UNL     1       8.982   7.282 -10.116  1.00  0.00     0.000 C 
BRANCH  10  11
ATOM     11  C   UNL     1       9.075   8.812  -9.963  1.00  0.00     0.000 C 
BRANCH  11  12
ATOM     12  C   UNL     1       9.717   9.308  -8.653  1.00  0.00     0.006 C 
BRANCH  12  13
ATOM     13  C   UNL     1      10.124   8.167  -7.710  1.00  0.00     0.053 C 
BRANCH  13  14
ATOM     14  C   UNL     1       9.427   8.298  -6.392  1.00  0.00     0.041 C 
ATOM     15  O   UNL     1      10.095   8.460  -5.337  1.00  0.00    -0.550 OA
ATOM     16  O   UNL     1       8.039   8.258  -6.329  1.00  0.00    -0.550 OA
ENDBRANCH  13  14
ENDBRANCH  12  13
ENDBRANCH  11  12
ENDBRANCH  10  11
ENDBRANCH   9  10
ENDBRANCH   8   9
ENDBRANCH   7   8
ENDBRANCH   6   7
ENDBRANCH   5   6
ENDBRANCH   4   5
ENDBRANCH   3   4
ENDBRANCH   2   3
ENDBRANCH   1   2
BRANCH   1  17
ATOM     17  C   UNL     1      -1.202   8.064  -4.946  1.00  0.00     0.000 C 
BRANCH  17  18
ATOM     18  C   UNL     1      -1.080   9.266  -3.989  1.00  0.00     0.000 C 
BRANCH  18  19
ATOM     19  C   UNL     1      -2.415   9.638  -3.316  1.00  0.00     0.000 C 
BRANCH  19  20
ATOM     20  C   UNL     1      -3.491  10.044  -4.339  1.00  0.00     0.000 C 
BRANCH  20  21
ATOM     21  C   UNL     1      -4.912   9.917  -3.763  1.00  0.00     0.000 C 
BRANCH  21  22
ATOM     22  C   UNL     1      -5.985   9.731  -4.862  1.00  0.00    -0.000 C 
BRANCH  22  23
ATOM     23  C   UNL     1      -5.486  10.084  -6.274  1.00  0.00    -0.000 C 
BRANCH  23  24
ATOM     24  C   UNL     1      -6.547   9.837  -7.362  1.00  0.00    -0.000 C 
BRANCH  24  25
ATOM     25  C   UNL     1      -7.838   9.214  -6.788  1.00  0.00    -0.000 C 
BRANCH  25  26
ATOM     26  C   UNL     1      -8.034   7.733  -7.157  1.00  0.00    -0.000 C 
BRANCH  26  27
ATOM     27  C   UNL     1      -7.598   6.773  -6.037  1.00  0.00    -0.000 C 
BRANCH  27  28
ATOM     28  C   UNL     1      -6.519   5.780  -6.501  1.00  0.00    -0.000 C 
BRANCH  28  29
ATOM     29  C   UNL     1      -5.113   6.411  -6.621  1.00  0.00    -0.003 C 
ATOM     30  C   UNL     1      -4.435   6.054  -7.947  1.00  0.00     0.004 C 
ENDBRANCH  28  29
ENDBRANCH  27  28
ENDBRANCH  26  27
ENDBRANCH  25  26
ENDBRANCH  24  25
ENDBRANCH  23  24
ENDBRANCH  22  23
ENDBRANCH  21  22
ENDBRANCH  20  21
ENDBRANCH  19  20
ENDBRANCH  18  19
ENDBRANCH  17  18
ENDBRANCH   1  17
TORSDOF 26
ENDMDL
MODEL 8
REMARK VINA RESULT:    -3.054      3.613      8.521
REMARK INTER + INTRA:          -9.730
REMARK INTER:                  -5.970
REMARK INTRA:                  -3.761
REMARK UNBOUND:                -2.034
REMARK SMILES CCCCCCCCCCCCCCCCCCCCCCCCCCCC(=O)[O-]
REMARK SMILES IDX 15 1 16 2 17 3 18 4 19 5 20 6 21 7 22 8 23 9 24 10 25 11
REMARK SMILES IDX 26 12 27 13 28 14 29 15 30 16 14 17 13 18 12 19 11 20 10 21
REMARK SMILES IDX 9 22 8 23 7 24 6 25 5 26 4 27 3 28 2 29 1 30
REMARK H PARENT
REMARK Flexibility Score: inf
ROOT
ATOM      1  C   UNL     1      -8.633   4.455  -6.329  1.00  0.00     0.000 C 
ENDROOT
BRANCH   1   2
ATOM      2  C   UNL     1      -7.990   5.694  -5.688  1.00  0.00     0.000 C 
BRANCH   2   3
ATOM      3  C   UNL     1      -6.503   5.847  -6.054  1.00  0.00     0.000 C 
BRANCH   3   4
ATOM      4  C   UNL     1      -6.295   6.394  -7.476  1.00  0.00     0.000 C 
BRANCH   4   5
ATOM      5  C   UNL     1      -5.104   5.738  -8.197  1.00  0.00     0.000 C 
BRANCH   5   6
ATOM      6  C   UNL     1      -4.426   6.675  -9.208  1.00  0.00     0.000 C 
BRANCH   6   7
ATOM      7  C   UNL     1      -5.181   8.005  -9.385  1.00  0.00     0.000 C 
BRANCH   7   8
ATOM      8  C   UNL     1      -4.306   9.233  -9.052  1.00  0.00     0.000 C 
BRANCH   8   9
ATOM      9  C   UNL     1      -3.214   9.531 -10.095  1.00  0.00     0.000 C 
BRANCH   9  10
ATOM     10  C   UNL     1      -1.820   9.056  -9.657  1.00  0.00     0.000 C 
BRANCH  10  11
ATOM     11  C   UNL     1      -1.556   9.254  -8.152  1.00  0.00     0.000 C 
BRANCH  11  12
ATOM     12  C   UNL     1      -0.237   9.969  -7.801  1.00  0.00     0.006 C 
BRANCH  12  13
ATOM     13  C   UNL     1       0.849   9.015  -7.286  1.00  0.00     0.053 C 
BRANCH  13  14
ATOM     14  C   UNL     1       1.784   8.633  -8.390  1.00  0.00     0.041 C 
ATOM     15  O   UNL     1       1.804   9.299  -9.459  1.00  0.00    -0.550 OA
ATOM     16  O   UNL     1       2.645   7.553  -8.235  1.00  0.00    -0.550 OA
ENDBRANCH  13  14
ENDBRANCH  12  13
ENDBRANCH  11  12
ENDBRANCH  10  11
ENDBRANCH   9  10
ENDBRANCH   8   9
ENDBRANCH   7   8
ENDBRANCH   6   7
ENDBRANCH   5   6
ENDBRANCH   4   5
ENDBRANCH   3   4
ENDBRANCH   2   3
ENDBRANCH   1   2
BRANCH   1  17
ATOM     17  C   UNL     1      -8.762   4.576  -7.858  1.00  0.00     0.000 C 
BRANCH  17  18
ATOM     18  C   UNL     1     -10.118   5.176  -8.280  1.00  0.00     0.000 C 
BRANCH  18  19
ATOM     19  C   UNL     1     -10.125   6.716  -8.273  1.00  0.00     0.000 C 
BRANCH  19  20
ATOM     20  C   UNL     1      -9.291   7.308  -9.424  1.00  0.00     0.000 C 
BRANCH  20  21
ATOM     21  C   UNL     1      -9.981   8.521 -10.072  1.00  0.00     0.000 C 
BRANCH  21  22
ATOM     22  C   UNL     1      -9.675   9.844  -9.331  1.00  0.00    -0.000 C 
BRANCH  22  23
ATOM     23  C   UNL     1      -8.418   9.778  -8.447  1.00  0.00    -0.000 C 
BRANCH  23  24
ATOM     24  C   UNL     1      -8.704  10.120  -6.974  1.00  0.00    -0.000 C 
BRANCH  24  25
ATOM     25  C   UNL     1      -8.381   8.943  -6.027  1.00  0.00    -0.000 C 
BRANCH  25  26
ATOM     26  C   UNL     1      -7.259   9.244  -5.018  1.00  0.00    -0.000 C 
BRANCH  26  27
ATOM     27  C   UNL     1      -5.930   9.623  -5.693  1.00  0.00    -0.000 C 
BRANCH  27  28
ATOM     28  C   UNL     1      -4.798   9.850  -4.677  1.00  0.00    -0.000 C 
BRANCH  28  29
ATOM     29  C   UNL     1      -3.965   8.580  -4.390  1.00  0.00    -0.003 C 
ATOM     30  C   UNL     1      -3.415   7.952  -5.674  1.00  0.00     0.004 C 
ENDBRANCH  28  29
ENDBRANCH  27  28
ENDBRANCH  26  27
ENDBRANCH  25  26
ENDBRANCH  24  25
ENDBRANCH  23  24
ENDBRANCH  22  23
ENDBRANCH  21  22
ENDBRANCH  20  21
ENDBRANCH  19  20
ENDBRANCH  18  19
ENDBRANCH  17  18
ENDBRANCH   1  17
TORSDOF 26
ENDMDL
