MODEL 1
REMARK VINA RESULT:    -3.341      0.000      0.000
REMARK INTER + INTRA:         -10.697
REMARK INTER:                  -7.248
REMARK INTRA:                  -3.449
REMARK UNBOUND:                -3.449
REMARK SMILES CCCCCCCCCCCCCCCCCCCCCC(=O)[O-]
REMARK SMILES IDX 12 1 11 2 10 3 9 4 8 5 7 6 6 7 5 8 4 9 3 10 2 11 1 12 13 13
REMARK SMILES IDX 14 14 15 15 16 16 17 17 18 18 19 19 20 20 21 21 22 22 23 23
REMARK SMILES IDX 24 24
REMARK H PARENT
REMARK Flexibility Score: inf
ROOT
ATOM      1  C   UNL     1      59.148  26.623  49.716  1.00  0.00     0.000 C 
ENDROOT
BRANCH   1   2
ATOM      2  C   UNL     1      59.850  27.793  49.005  1.00  0.00     0.000 C 
BRANCH   2   3
ATOM      3  C   UNL     1      59.085  29.119  49.163  1.00  0.00     0.000 C 
BRANCH   3   4
ATOM      4  C   UNL     1      57.851  28.983  50.073  1.00  0.00    -0.000 C 
BRANCH   4   5
ATOM      5  C   UNL     1      58.074  29.595  51.467  1.00  0.00    -0.000 C 
BRANCH   5   6
ATOM      6  C   UNL     1      57.048  29.101  52.501  1.00  0.00    -0.000 C 
BRANCH   6   7
ATOM      7  C   UNL     1      57.020  27.568  52.616  1.00  0.00    -0.000 C 
BRANCH   7   8
ATOM      8  C   UNL     1      55.641  26.974  52.277  1.00  0.00    -0.000 C 
BRANCH   8   9
ATOM      9  C   UNL     1      55.707  25.936  51.146  1.00  0.00    -0.000 C 
BRANCH   9  10
ATOM     10  C   UNL     1      55.180  26.479  49.809  1.00  0.00    -0.000 C 
BRANCH  10  11
ATOM     11  C   UNL     1      54.313  27.724  50.027  1.00  0.00    -0.003 C 
ATOM     12  C   UNL     1      52.899  27.512  49.495  1.00  0.00     0.004 C 
ENDBRANCH  10  11
ENDBRANCH   9  10
ENDBRANCH   8   9
ENDBRANCH   7   8
ENDBRANCH   6   7
ENDBRANCH   5   6
ENDBRANCH   4   5
ENDBRANCH   3   4
ENDBRANCH   2   3
ENDBRANCH   1   2
BRANCH   1  13
ATOM     13  C   UNL     1      60.016  25.980  50.814  1.00  0.00     0.000 C 
BRANCH  13  14
ATOM     14  C   UNL     1      61.237  26.807  51.259  1.00  0.00     0.000 C 
BRANCH  14  15
ATOM     15  C   UNL     1      60.937  27.726  52.456  1.00  0.00     0.000 C 
BRANCH  15  16
ATOM     16  C   UNL     1      61.694  29.064  52.389  1.00  0.00     0.000 C 
BRANCH  16  17
ATOM     17  C   UNL     1      62.419  29.351  51.058  1.00  0.00     0.000 C 
BRANCH  17  18
ATOM     18  C   UNL     1      62.082  30.703  50.402  1.00  0.00     0.000 C 
BRANCH  18  19
ATOM     19  C   UNL     1      63.071  31.089  49.288  1.00  0.00     0.000 C 
BRANCH  19  20
ATOM     20  C   UNL     1      63.357  32.601  49.244  1.00  0.00     0.006 C 
BRANCH  20  21
ATOM     21  C   UNL     1      62.109  33.480  49.071  1.00  0.00     0.053 C 
BRANCH  21  22
ATOM     22  C   UNL     1      61.945  34.452  50.197  1.00  0.00     0.041 C 
ATOM     23  O   UNL     1      62.782  34.482  51.136  1.00  0.00    -0.550 OA
ATOM     24  O   UNL     1      60.880  35.346  50.196  1.00  0.00    -0.550 OA
ENDBRANCH  21  22
ENDBRANCH  20  21
ENDBRANCH  19  20
ENDBRANCH  18  19
ENDBRANCH  17  18
ENDBRANCH  16  17
ENDBRANCH  15  16
ENDBRANCH  14  15
ENDBRANCH  13  14
ENDBRANCH   1  13
TORSDOF 20
ENDMDL
MODEL 2
REMARK VINA RESULT:    -3.154     10.782     13.093
REMARK INTER + INTRA:         -10.291
REMARK INTER:                  -8.122
REMARK INTRA:                  -2.169
REMARK UNBOUND:                -3.449
REMARK SMILES CCCCCCCCCCCCCCCCCCCCCC(=O)[O-]
REMARK SMILES IDX 12 1 11 2 10 3 9 4 8 5 7 6 6 7 5 8 4 9 3 10 2 11 1 12 13 13
REMARK SMILES IDX 14 14 15 15 16 16 17 17 18 18 19 19 20 20 21 21 22 22 23 23
REMARK SMILES IDX 24 24
REMARK H PARENT
REMARK Flexibility Score: inf
ROOT
ATOM      1  C   UNL     1      64.244  27.316  61.079  1.00  0.00     0.000 C 
ENDROOT
BRANCH   1   2
ATOM      2  C   UNL     1      62.957  28.047  60.661  1.00  0.00     0.000 C 
BRANCH   2   3
ATOM      3  C   UNL     1      62.250  28.717  61.852  1.00  0.00     0.000 C 
BRANCH   3   4
ATOM      4  C   UNL     1      62.380  30.250  61.828  1.00  0.00    -0.000 C 
BRANCH   4   5
ATOM      5  C   UNL     1      63.834  30.718  61.644  1.00  0.00    -0.000 C 
BRANCH   5   6
ATOM      6  C   UNL     1      63.993  31.717  60.485  1.00  0.00    -0.000 C 
BRANCH   6   7
ATOM      7  C   UNL     1      62.846  31.620  59.464  1.00  0.00    -0.000 C 
BRANCH   7   8
ATOM      8  C   UNL     1      62.138  32.968  59.241  1.00  0.00    -0.000 C 
BRANCH   8   9
ATOM      9  C   UNL     1      61.761  33.663  60.558  1.00  0.00    -0.000 C 
BRANCH   9  10
ATOM     10  C   UNL     1      62.240  35.122  60.619  1.00  0.00    -0.000 C 
BRANCH  10  11
ATOM     11  C   UNL     1      63.513  35.245  61.465  1.00  0.00    -0.003 C 
ATOM     12  C   UNL     1      64.741  35.462  60.586  1.00  0.00     0.004 C 
ENDBRANCH  10  11
ENDBRANCH   9  10
ENDBRANCH   8   9
ENDBRANCH   7   8
ENDBRANCH   6   7
ENDBRANCH   5   6
ENDBRANCH   4   5
ENDBRANCH   3   4
ENDBRANCH   2   3
ENDBRANCH   1   2
BRANCH   1  13
ATOM     13  C   UNL     1      65.249  27.162  59.922  1.00  0.00     0.000 C 
BRANCH  13  14
ATOM     14  C   UNL     1      66.534  28.001  60.049  1.00  0.00     0.000 C 
BRANCH  14  15
ATOM     15  C   UNL     1      66.799  28.482  61.486  1.00  0.00     0.000 C 
BRANCH  15  16
ATOM     16  C   UNL     1      68.276  28.835  61.738  1.00  0.00     0.000 C 
BRANCH  16  17
ATOM     17  C   UNL     1      69.262  28.387  60.638  1.00  0.00     0.000 C 
BRANCH  17  18
ATOM     18  C   UNL     1      70.568  29.199  60.553  1.00  0.00     0.000 C 
BRANCH  18  19
ATOM     19  C   UNL     1      70.713  30.218  61.696  1.00  0.00     0.000 C 
BRANCH  19  20
ATOM     20  C   UNL     1      72.005  31.049  61.592  1.00  0.00     0.006 C 
BRANCH  20  21
ATOM     21  C   UNL     1      72.242  31.687  60.215  1.00  0.00     0.053 C 
BRANCH  21  22
ATOM     22  C   UNL     1      71.277  32.797  59.935  1.00  0.00     0.041 C 
ATOM     23  O   UNL     1      71.209  33.788  60.709  1.00  0.00    -0.550 OA
ATOM     24  O   UNL     1      70.471  32.750  58.804  1.00  0.00    -0.550 OA
ENDBRANCH  21  22
ENDBRANCH  20  21
ENDBRANCH  19  20
ENDBRANCH  18  19
ENDBRANCH  17  18
ENDBRANCH  16  17
ENDBRANCH  15  16
ENDBRANCH  14  15
ENDBRANCH  13  14
ENDBRANCH   1  13
TORSDOF 20
ENDMDL
MODEL 3
REMARK VINA RESULT:    -3.111      2.489      7.087
REMARK INTER + INTRA:         -10.196
REMARK INTER:                  -6.728
REMARK INTRA:                  -3.468
REMARK UNBOUND:                -3.449
REMARK SMILES CCCCCCCCCCCCCCCCCCCCCC(=O)[O-]
REMARK SMILES IDX 12 1 11 2 10 3 9 4 8 5 7 6 6 7 5 8 4 9 3 10 2 11 1 12 13 13
REMARK SMILES IDX 14 14 15 15 16 16 17 17 18 18 19 19 20 20 21 21 22 22 23 23
REMARK SMILES IDX 24 24
REMARK H PARENT
REMARK Flexibility Score: inf
ROOT
ATOM      1  C   UNL     1      56.347  26.476  51.514  1.00  0.00     0.000 C 
ENDROOT
BRANCH   1   2
ATOM      2  C   UNL     1      57.164  27.725  51.888  1.00  0.00     0.000 C 
BRANCH   2   3
ATOM      3  C   UNL     1      57.192  28.767  50.756  1.00  0.00     0.000 C 
BRANCH   3   4
ATOM      4  C   UNL     1      58.623  29.184  50.373  1.00  0.00    -0.000 C 
BRANCH   4   5
ATOM      5  C   UNL     1      59.075  28.585  49.030  1.00  0.00    -0.000 C 
BRANCH   5   6
ATOM      6  C   UNL     1      59.740  27.207  49.189  1.00  0.00    -0.000 C 
BRANCH   6   7
ATOM      7  C   UNL     1      60.944  27.242  50.146  1.00  0.00    -0.000 C 
BRANCH   7   8
ATOM      8  C   UNL     1      62.285  27.049  49.416  1.00  0.00    -0.000 C 
BRANCH   8   9
ATOM      9  C   UNL     1      63.385  27.983  49.945  1.00  0.00    -0.000 C 
BRANCH   9  10
ATOM     10  C   UNL     1      62.822  29.246  50.614  1.00  0.00    -0.000 C 
BRANCH  10  11
ATOM     11  C   UNL     1      62.935  30.457  49.680  1.00  0.00    -0.003 C 
ATOM     12  C   UNL     1      62.111  31.632  50.198  1.00  0.00     0.004 C 
ENDBRANCH  10  11
ENDBRANCH   9  10
ENDBRANCH   8   9
ENDBRANCH   7   8
ENDBRANCH   6   7
ENDBRANCH   5   6
ENDBRANCH   4   5
ENDBRANCH   3   4
ENDBRANCH   2   3
ENDBRANCH   1   2
BRANCH   1  13
ATOM     13  C   UNL     1      56.200  26.288  49.993  1.00  0.00     0.000 C 
BRANCH  13  14
ATOM     14  C   UNL     1      54.780  25.949  49.504  1.00  0.00     0.000 C 
BRANCH  14  15
ATOM     15  C   UNL     1      53.685  26.732  50.249  1.00  0.00     0.000 C 
BRANCH  15  16
ATOM     16  C   UNL     1      53.503  28.164  49.713  1.00  0.00     0.000 C 
BRANCH  16  17
ATOM     17  C   UNL     1      53.530  29.279  50.779  1.00  0.00     0.000 C 
BRANCH  17  18
ATOM     18  C   UNL     1      53.224  28.824  52.218  1.00  0.00     0.000 C 
BRANCH  18  19
ATOM     19  C   UNL     1      54.217  29.391  53.247  1.00  0.00     0.000 C 
BRANCH  19  20
ATOM     20  C   UNL     1      54.841  30.725  52.800  1.00  0.00     0.006 C 
BRANCH  20  21
ATOM     21  C   UNL     1      55.705  31.414  53.867  1.00  0.00     0.053 C 
BRANCH  21  22
ATOM     22  C   UNL     1      57.148  31.036  53.753  1.00  0.00     0.041 C 
ATOM     23  O   UNL     1      57.889  31.609  52.911  1.00  0.00    -0.550 OA
ATOM     24  O   UNL     1      57.684  30.069  54.595  1.00  0.00    -0.550 OA
ENDBRANCH  21  22
ENDBRANCH  20  21
ENDBRANCH  19  20
ENDBRANCH  18  19
ENDBRANCH  17  18
ENDBRANCH  16  17
ENDBRANCH  15  16
ENDBRANCH  14  15
ENDBRANCH  13  14
ENDBRANCH   1  13
TORSDOF 20
ENDMDL
MODEL 4
REMARK VINA RESULT:    -3.086      1.383      3.655
REMARK INTER + INTRA:         -10.143
REMARK INTER:                  -6.894
REMARK INTRA:                  -3.249
REMARK UNBOUND:                -3.449
REMARK SMILES CCCCCCCCCCCCCCCCCCCCCC(=O)[O-]
REMARK SMILES IDX 12 1 11 2 10 3 9 4 8 5 7 6 6 7 5 8 4 9 3 10 2 11 1 12 13 13
REMARK SMILES IDX 14 14 15 15 16 16 17 17 18 18 19 19 20 20 21 21 22 22 23 23
REMARK SMILES IDX 24 24
REMARK H PARENT
REMARK Flexibility Score: inf
ROOT
ATOM      1  C   UNL     1      57.755  27.385  51.248  1.00  0.00     0.000 C 
ENDROOT
BRANCH   1   2
ATOM      2  C   UNL     1      56.652  26.313  51.223  1.00  0.00     0.000 C 
BRANCH   2   3
ATOM      3  C   UNL     1      55.760  26.419  49.974  1.00  0.00     0.000 C 
BRANCH   3   4
ATOM      4  C   UNL     1      54.271  26.588  50.326  1.00  0.00    -0.000 C 
BRANCH   4   5
ATOM      5  C   UNL     1      53.646  27.832  49.672  1.00  0.00    -0.000 C 
BRANCH   5   6
ATOM      6  C   UNL     1      54.077  29.141  50.358  1.00  0.00    -0.000 C 
BRANCH   6   7
ATOM      7  C   UNL     1      53.656  29.195  51.836  1.00  0.00    -0.000 C 
BRANCH   7   8
ATOM      8  C   UNL     1      54.662  29.968  52.709  1.00  0.00    -0.000 C 
BRANCH   8   9
ATOM      9  C   UNL     1      55.506  29.042  53.598  1.00  0.00    -0.000 C 
BRANCH   9  10
ATOM     10  C   UNL     1      56.891  29.626  53.917  1.00  0.00    -0.000 C 
BRANCH  10  11
ATOM     11  C   UNL     1      57.260  30.735  52.925  1.00  0.00    -0.003 C 
ATOM     12  C   UNL     1      58.768  30.797  52.702  1.00  0.00     0.004 C 
ENDBRANCH  10  11
ENDBRANCH   9  10
ENDBRANCH   8   9
ENDBRANCH   7   8
ENDBRANCH   6   7
ENDBRANCH   5   6
ENDBRANCH   4   5
ENDBRANCH   3   4
ENDBRANCH   2   3
ENDBRANCH   1   2
BRANCH   1  13
ATOM     13  C   UNL     1      57.601  28.431  50.128  1.00  0.00     0.000 C 
BRANCH  13  14
ATOM     14  C   UNL     1      58.837  28.624  49.231  1.00  0.00     0.000 C 
BRANCH  14  15
ATOM     15  C   UNL     1      59.753  27.388  49.196  1.00  0.00     0.000 C 
BRANCH  15  16
ATOM     16  C   UNL     1      61.205  27.707  49.596  1.00  0.00     0.000 C 
BRANCH  16  17
ATOM     17  C   UNL     1      61.392  28.280  51.016  1.00  0.00     0.000 C 
BRANCH  17  18
ATOM     18  C   UNL     1      62.393  29.445  51.130  1.00  0.00     0.000 C 
BRANCH  18  19
ATOM     19  C   UNL     1      61.908  30.720  50.419  1.00  0.00     0.000 C 
BRANCH  19  20
ATOM     20  C   UNL     1      62.845  31.157  49.278  1.00  0.00     0.006 C 
BRANCH  20  21
ATOM     21  C   UNL     1      63.551  32.502  49.513  1.00  0.00     0.053 C 
BRANCH  21  22
ATOM     22  C   UNL     1      62.612  33.660  49.385  1.00  0.00     0.041 C 
ATOM     23  O   UNL     1      62.673  34.619  50.199  1.00  0.00    -0.550 OA
ATOM     24  O   UNL     1      61.687  33.696  48.349  1.00  0.00    -0.550 OA
ENDBRANCH  21  22
ENDBRANCH  20  21
ENDBRANCH  19  20
ENDBRANCH  18  19
ENDBRANCH  17  18
ENDBRANCH  16  17
ENDBRANCH  15  16
ENDBRANCH  14  15
ENDBRANCH  13  14
ENDBRANCH   1  13
TORSDOF 20
ENDMDL
MODEL 5
REMARK VINA RESULT:    -3.084      2.947      3.979
REMARK INTER + INTRA:         -10.138
REMARK INTER:                  -6.509
REMARK INTRA:                  -3.629
REMARK UNBOUND:                -3.449
REMARK SMILES CCCCCCCCCCCCCCCCCCCCCC(=O)[O-]
REMARK SMILES IDX 12 1 11 2 10 3 9 4 8 5 7 6 6 7 5 8 4 9 3 10 2 11 1 12 13 13
REMARK SMILES IDX 14 14 15 15 16 16 17 17 18 18 19 19 20 20 21 21 22 22 23 23
REMARK SMILES IDX 24 24
REMARK H PARENT
REMARK Flexibility Score: inf
ROOT
ATOM      1  C   UNL     1      59.803  28.054  52.943  1.00  0.00     0.000 C 
ENDROOT
BRANCH   1   2
ATOM      2  C   UNL     1      60.793  29.143  52.496  1.00  0.00     0.000 C 
BRANCH   2   3
ATOM      3  C   UNL     1      60.537  29.613  51.054  1.00  0.00     0.000 C 
BRANCH   3   4
ATOM      4  C   UNL     1      59.088  29.362  50.600  1.00  0.00    -0.000 C 
BRANCH   4   5
ATOM      5  C   UNL     1      59.009  28.592  49.271  1.00  0.00    -0.000 C 
BRANCH   5   6
ATOM      6  C   UNL     1      60.098  27.514  49.144  1.00  0.00    -0.000 C 
BRANCH   6   7
ATOM      7  C   UNL     1      59.618  26.134  49.625  1.00  0.00    -0.000 C 
BRANCH   7   8
ATOM      8  C   UNL     1      58.084  26.008  49.620  1.00  0.00    -0.000 C 
BRANCH   8   9
ATOM      9  C   UNL     1      57.505  25.785  51.026  1.00  0.00    -0.000 C 
BRANCH   9  10
ATOM     10  C   UNL     1      56.008  26.122  51.113  1.00  0.00    -0.000 C 
BRANCH  10  11
ATOM     11  C   UNL     1      55.726  27.512  50.531  1.00  0.00    -0.003 C 
ATOM     12  C   UNL     1      54.304  27.604  49.985  1.00  0.00     0.004 C 
ENDBRANCH  10  11
ENDBRANCH   9  10
ENDBRANCH   8   9
ENDBRANCH   7   8
ENDBRANCH   6   7
ENDBRANCH   5   6
ENDBRANCH   4   5
ENDBRANCH   3   4
ENDBRANCH   2   3
ENDBRANCH   1   2
BRANCH   1  13
ATOM     13  C   UNL     1      60.482  26.698  53.211  1.00  0.00     0.000 C 
BRANCH  13  14
ATOM     14  C   UNL     1      61.986  26.639  52.886  1.00  0.00     0.000 C 
BRANCH  14  15
ATOM     15  C   UNL     1      62.350  25.490  51.930  1.00  0.00     0.000 C 
BRANCH  15  16
ATOM     16  C   UNL     1      63.173  25.957  50.716  1.00  0.00     0.000 C 
BRANCH  16  17
ATOM     17  C   UNL     1      63.898  27.308  50.886  1.00  0.00     0.000 C 
BRANCH  17  18
ATOM     18  C   UNL     1      63.675  28.324  49.751  1.00  0.00     0.000 C 
BRANCH  18  19
ATOM     19  C   UNL     1      63.749  27.685  48.354  1.00  0.00     0.000 C 
BRANCH  19  20
ATOM     20  C   UNL     1      64.448  28.589  47.322  1.00  0.00     0.006 C 
BRANCH  20  21
ATOM     21  C   UNL     1      64.914  29.944  47.876  1.00  0.00     0.053 C 
BRANCH  21  22
ATOM     22  C   UNL     1      66.349  30.220  47.555  1.00  0.00     0.041 C 
ATOM     23  O   UNL     1      66.673  31.276  46.950  1.00  0.00    -0.550 OA
ATOM     24  O   UNL     1      67.336  29.323  47.947  1.00  0.00    -0.550 OA
ENDBRANCH  21  22
ENDBRANCH  20  21
ENDBRANCH  19  20
ENDBRANCH  18  19
ENDBRANCH  17  18
ENDBRANCH  16  17
ENDBRANCH  15  16
ENDBRANCH  14  15
ENDBRANCH  13  14
ENDBRANCH   1  13
TORSDOF 20
ENDMDL
MODEL 6
REMARK VINA RESULT:    -3.080      8.904     11.472
REMARK INTER + INTRA:         -10.130
REMARK INTER:                  -6.520
REMARK INTRA:                  -3.610
REMARK UNBOUND:                -3.449
REMARK SMILES CCCCCCCCCCCCCCCCCCCCCC(=O)[O-]
REMARK SMILES IDX 12 1 11 2 10 3 9 4 8 5 7 6 6 7 5 8 4 9 3 10 2 11 1 12 13 13
REMARK SMILES IDX 14 14 15 15 16 16 17 17 18 18 19 19 20 20 21 21 22 22 23 23
REMARK SMILES IDX 24 24
REMARK H PARENT
REMARK Flexibility Score: inf
ROOT
ATOM      1  C   UNL     1      64.242  33.173  59.966  1.00  0.00     0.000 C 
ENDROOT
BRANCH   1   2
ATOM      2  C   UNL     1      63.002  32.288  59.751  1.00  0.00     0.000 C 
BRANCH   2   3
ATOM      3  C   UNL     1      62.015  32.366  60.928  1.00  0.00     0.000 C 
BRANCH   3   4
ATOM      4  C   UNL     1      60.772  31.484  60.716  1.00  0.00    -0.000 C 
BRANCH   4   5
ATOM      5  C   UNL     1      60.788  30.756  59.361  1.00  0.00    -0.000 C 
BRANCH   5   6
ATOM      6  C   UNL     1      60.179  29.345  59.439  1.00  0.00    -0.000 C 
BRANCH   6   7
ATOM      7  C   UNL     1      60.158  28.793  60.875  1.00  0.00    -0.000 C 
BRANCH   7   8
ATOM      8  C   UNL     1      60.967  27.492  61.020  1.00  0.00    -0.000 C 
BRANCH   8   9
ATOM      9  C   UNL     1      62.285  27.698  61.783  1.00  0.00    -0.000 C 
BRANCH   9  10
ATOM     10  C   UNL     1      63.413  28.234  60.888  1.00  0.00    -0.000 C 
BRANCH  10  11
ATOM     11  C   UNL     1      64.122  29.420  61.552  1.00  0.00    -0.003 C 
ATOM     12  C   UNL     1      65.469  29.699  60.889  1.00  0.00     0.004 C 
ENDBRANCH  10  11
ENDBRANCH   9  10
ENDBRANCH   8   9
ENDBRANCH   7   8
ENDBRANCH   6   7
ENDBRANCH   5   6
ENDBRANCH   4   5
ENDBRANCH   3   4
ENDBRANCH   2   3
ENDBRANCH   1   2
BRANCH   1  13
ATOM     13  C   UNL     1      64.162  34.016  61.253  1.00  0.00     0.000 C 
BRANCH  13  14
ATOM     14  C   UNL     1      64.412  35.524  61.070  1.00  0.00     0.000 C 
BRANCH  14  15
ATOM     15  C   UNL     1      63.237  36.391  61.554  1.00  0.00     0.000 C 
BRANCH  15  16
ATOM     16  C   UNL     1      61.897  36.002  60.903  1.00  0.00     0.000 C 
BRANCH  16  17
ATOM     17  C   UNL     1      61.688  36.508  59.461  1.00  0.00     0.000 C 
BRANCH  17  18
ATOM     18  C   UNL     1      61.610  35.412  58.382  1.00  0.00     0.000 C 
BRANCH  18  19
ATOM     19  C   UNL     1      60.359  34.526  58.521  1.00  0.00     0.000 C 
BRANCH  19  20
ATOM     20  C   UNL     1      59.582  34.384  57.199  1.00  0.00     0.006 C 
BRANCH  20  21
ATOM     21  C   UNL     1      59.101  32.957  56.894  1.00  0.00     0.053 C 
BRANCH  21  22
ATOM     22  C   UNL     1      57.800  32.646  57.564  1.00  0.00     0.041 C 
ATOM     23  O   UNL     1      56.919  33.538  57.685  1.00  0.00    -0.550 OA
ATOM     24  O   UNL     1      57.546  31.362  58.031  1.00  0.00    -0.550 OA
ENDBRANCH  21  22
ENDBRANCH  20  21
ENDBRANCH  19  20
ENDBRANCH  18  19
ENDBRANCH  17  18
ENDBRANCH  16  17
ENDBRANCH  15  16
ENDBRANCH  14  15
ENDBRANCH  13  14
ENDBRANCH   1  13
TORSDOF 20
ENDMDL
MODEL 7
REMARK VINA RESULT:    -3.034      9.758     13.137
REMARK INTER + INTRA:         -10.030
REMARK INTER:                  -6.973
REMARK INTRA:                  -3.058
REMARK UNBOUND:                -3.449
REMARK SMILES CCCCCCCCCCCCCCCCCCCCCC(=O)[O-]
REMARK SMILES IDX 12 1 11 2 10 3 9 4 8 5 7 6 6 7 5 8 4 9 3 10 2 11 1 12 13 13
REMARK SMILES IDX 14 14 15 15 16 16 17 17 18 18 19 19 20 20 21 21 22 22 23 23
REMARK SMILES IDX 24 24
REMARK H PARENT
REMARK Flexibility Score: inf
ROOT
ATOM      1  C   UNL     1      64.836  29.748  59.632  1.00  0.00     0.000 C 
ENDROOT
BRANCH   1   2
ATOM      2  C   UNL     1      64.612  31.071  58.880  1.00  0.00     0.000 C 
BRANCH   2   3
ATOM      3  C   UNL     1      64.429  32.264  59.834  1.00  0.00     0.000 C 
BRANCH   3   4
ATOM      4  C   UNL     1      63.128  33.040  59.566  1.00  0.00    -0.000 C 
BRANCH   4   5
ATOM      5  C   UNL     1      62.537  33.665  60.842  1.00  0.00    -0.000 C 
BRANCH   5   6
ATOM      6  C   UNL     1      61.815  34.996  60.571  1.00  0.00    -0.000 C 
BRANCH   6   7
ATOM      7  C   UNL     1      62.723  36.215  60.800  1.00  0.00    -0.000 C 
BRANCH   7   8
ATOM      8  C   UNL     1      63.850  35.932  61.810  1.00  0.00    -0.000 C 
BRANCH   8   9
ATOM      9  C   UNL     1      65.244  35.963  61.165  1.00  0.00    -0.000 C 
BRANCH   9  10
ATOM     10  C   UNL     1      65.241  36.620  59.776  1.00  0.00    -0.000 C 
BRANCH  10  11
ATOM     11  C   UNL     1      65.686  35.623  58.699  1.00  0.00    -0.003 C 
ATOM     12  C   UNL     1      64.721  35.621  57.516  1.00  0.00     0.004 C 
ENDBRANCH  10  11
ENDBRANCH   9  10
ENDBRANCH   8   9
ENDBRANCH   7   8
ENDBRANCH   6   7
ENDBRANCH   5   6
ENDBRANCH   4   5
ENDBRANCH   3   4
ENDBRANCH   2   3
ENDBRANCH   1   2
BRANCH   1  13
ATOM     13  C   UNL     1      64.531  29.853  61.138  1.00  0.00     0.000 C 
BRANCH  13  14
ATOM     14  C   UNL     1      63.218  29.190  61.593  1.00  0.00     0.000 C 
BRANCH  14  15
ATOM     15  C   UNL     1      62.132  30.208  61.978  1.00  0.00     0.000 C 
BRANCH  15  16
ATOM     16  C   UNL     1      60.997  30.296  60.942  1.00  0.00     0.000 C 
BRANCH  16  17
ATOM     17  C   UNL     1      61.031  29.229  59.828  1.00  0.00     0.000 C 
BRANCH  17  18
ATOM     18  C   UNL     1      59.865  28.223  59.843  1.00  0.00     0.000 C 
BRANCH  18  19
ATOM     19  C   UNL     1      59.264  28.027  61.246  1.00  0.00     0.000 C 
BRANCH  19  20
ATOM     20  C   UNL     1      57.955  27.216  61.224  1.00  0.00     0.006 C 
BRANCH  20  21
ATOM     21  C   UNL     1      56.796  27.897  60.479  1.00  0.00     0.053 C 
BRANCH  21  22
ATOM     22  C   UNL     1      55.780  28.465  61.420  1.00  0.00     0.041 C 
ATOM     23  O   UNL     1      54.859  29.207  60.986  1.00  0.00    -0.550 OA
ATOM     24  O   UNL     1      55.831  28.152  62.773  1.00  0.00    -0.550 OA
ENDBRANCH  21  22
ENDBRANCH  20  21
ENDBRANCH  19  20
ENDBRANCH  18  19
ENDBRANCH  17  18
ENDBRANCH  16  17
ENDBRANCH  15  16
ENDBRANCH  14  15
ENDBRANCH  13  14
ENDBRANCH   1  13
TORSDOF 20
ENDMDL
MODEL 8
REMARK VINA RESULT:    -3.030      9.863     12.313
REMARK INTER + INTRA:         -10.021
REMARK INTER:                  -6.202
REMARK INTRA:                  -3.819
REMARK UNBOUND:                -3.449
REMARK SMILES CCCCCCCCCCCCCCCCCCCCCC(=O)[O-]
REMARK SMILES IDX 12 1 11 2 10 3 9 4 8 5 7 6 6 7 5 8 4 9 3 10 2 11 1 12 13 13
REMARK SMILES IDX 14 14 15 15 16 16 17 17 18 18 19 19 20 20 21 21 22 22 23 23
REMARK SMILES IDX 24 24
REMARK H PARENT
REMARK Flexibility Score: inf
ROOT
ATOM      1  C   UNL     1      64.351  28.765  58.456  1.00  0.00     0.000 C 
ENDROOT
BRANCH   1   2
ATOM      2  C   UNL     1      63.804  30.037  59.127  1.00  0.00     0.000 C 
BRANCH   2   3
ATOM      3  C   UNL     1      64.623  30.446  60.364  1.00  0.00     0.000 C 
BRANCH   3   4
ATOM      4  C   UNL     1      63.778  30.465  61.651  1.00  0.00    -0.000 C 
BRANCH   4   5
ATOM      5  C   UNL     1      62.476  29.657  61.516  1.00  0.00    -0.000 C 
BRANCH   5   6
ATOM      6  C   UNL     1      61.244  30.429  62.021  1.00  0.00    -0.000 C 
BRANCH   6   7
ATOM      7  C   UNL     1      61.157  31.847  61.430  1.00  0.00    -0.000 C 
BRANCH   7   8
ATOM      8  C   UNL     1      60.811  31.842  59.930  1.00  0.00    -0.000 C 
BRANCH   8   9
ATOM      9  C   UNL     1      61.540  32.948  59.152  1.00  0.00    -0.000 C 
BRANCH   9  10
ATOM     10  C   UNL     1      62.110  34.042  60.067  1.00  0.00    -0.000 C 
BRANCH  10  11
ATOM     11  C   UNL     1      63.643  34.052  60.020  1.00  0.00    -0.003 C 
ATOM     12  C   UNL     1      64.236  34.376  61.388  1.00  0.00     0.004 C 
ENDBRANCH  10  11
ENDBRANCH   9  10
ENDBRANCH   8   9
ENDBRANCH   7   8
ENDBRANCH   6   7
ENDBRANCH   5   6
ENDBRANCH   4   5
ENDBRANCH   3   4
ENDBRANCH   2   3
ENDBRANCH   1   2
BRANCH   1  13
ATOM     13  C   UNL     1      63.552  27.501  58.825  1.00  0.00     0.000 C 
BRANCH  13  14
ATOM     14  C   UNL     1      64.358  26.394  59.530  1.00  0.00     0.000 C 
BRANCH  14  15
ATOM     15  C   UNL     1      64.236  26.445  61.062  1.00  0.00     0.000 C 
BRANCH  15  16
ATOM     16  C   UNL     1      63.244  25.408  61.620  1.00  0.00     0.000 C 
BRANCH  16  17
ATOM     17  C   UNL     1      62.341  25.905  62.768  1.00  0.00     0.000 C 
BRANCH  17  18
ATOM     18  C   UNL     1      60.943  26.391  62.345  1.00  0.00     0.000 C 
BRANCH  18  19
ATOM     19  C   UNL     1      60.509  25.840  60.975  1.00  0.00     0.000 C 
BRANCH  19  20
ATOM     20  C   UNL     1      60.080  26.949  59.997  1.00  0.00     0.006 C 
BRANCH  20  21
ATOM     21  C   UNL     1      59.086  27.964  60.581  1.00  0.00     0.053 C 
BRANCH  21  22
ATOM     22  C   UNL     1      57.770  27.334  60.916  1.00  0.00     0.041 C 
ATOM     23  O   UNL     1      57.416  27.205  62.118  1.00  0.00    -0.550 OA
ATOM     24  O   UNL     1      56.920  26.913  59.900  1.00  0.00    -0.550 OA
ENDBRANCH  21  22
ENDBRANCH  20  21
ENDBRANCH  19  20
ENDBRANCH  18  19
ENDBRANCH  17  18
ENDBRANCH  16  17
ENDBRANCH  15  16
ENDBRANCH  14  15
ENDBRANCH  13  14
ENDBRANCH   1  13
TORSDOF 20
ENDMDL
MODEL 9
REMARK VINA RESULT:    -3.026      2.868      6.589
REMARK INTER + INTRA:         -10.012
REMARK INTER:                  -6.064
REMARK INTRA:                  -3.948
REMARK UNBOUND:                -3.449
REMARK SMILES CCCCCCCCCCCCCCCCCCCCCC(=O)[O-]
REMARK SMILES IDX 12 1 11 2 10 3 9 4 8 5 7 6 6 7 5 8 4 9 3 10 2 11 1 12 13 13
REMARK SMILES IDX 14 14 15 15 16 16 17 17 18 18 19 19 20 20 21 21 22 22 23 23
REMARK SMILES IDX 24 24
REMARK H PARENT
REMARK Flexibility Score: inf
ROOT
ATOM      1  C   UNL     1      56.730  26.319  51.256  1.00  0.00     0.000 C 
ENDROOT
BRANCH   1   2
ATOM      2  C   UNL     1      57.412  26.921  50.016  1.00  0.00     0.000 C 
BRANCH   2   3
ATOM      3  C   UNL     1      57.694  28.426  50.174  1.00  0.00     0.000 C 
BRANCH   3   4
ATOM      4  C   UNL     1      58.887  28.896  49.323  1.00  0.00    -0.000 C 
BRANCH   4   5
ATOM      5  C   UNL     1      59.984  29.571  50.164  1.00  0.00    -0.000 C 
BRANCH   5   6
ATOM      6  C   UNL     1      59.600  29.697  51.648  1.00  0.00    -0.000 C 
BRANCH   6   7
ATOM      7  C   UNL     1      60.825  29.659  52.577  1.00  0.00    -0.000 C 
BRANCH   7   8
ATOM      8  C   UNL     1      61.313  28.225  52.853  1.00  0.00    -0.000 C 
BRANCH   8   9
ATOM      9  C   UNL     1      60.159  27.214  52.937  1.00  0.00    -0.000 C 
BRANCH   9  10
ATOM     10  C   UNL     1      60.330  26.035  51.967  1.00  0.00    -0.000 C 
BRANCH  10  11
ATOM     11  C   UNL     1      61.659  26.139  51.209  1.00  0.00    -0.003 C 
ATOM     12  C   UNL     1      61.427  26.293  49.708  1.00  0.00     0.004 C 
ENDBRANCH  10  11
ENDBRANCH   9  10
ENDBRANCH   8   9
ENDBRANCH   7   8
ENDBRANCH   6   7
ENDBRANCH   5   6
ENDBRANCH   4   5
ENDBRANCH   3   4
ENDBRANCH   2   3
ENDBRANCH   1   2
BRANCH   1  13
ATOM     13  C   UNL     1      55.276  25.886  50.990  1.00  0.00     0.000 C 
BRANCH  13  14
ATOM     14  C   UNL     1      54.847  25.889  49.511  1.00  0.00     0.000 C 
BRANCH  14  15
ATOM     15  C   UNL     1      53.509  26.611  49.275  1.00  0.00     0.000 C 
BRANCH  15  16
ATOM     16  C   UNL     1      53.173  27.630  50.379  1.00  0.00     0.000 C 
BRANCH  16  17
ATOM     17  C   UNL     1      53.688  29.064  50.136  1.00  0.00     0.000 C 
BRANCH  17  18
ATOM     18  C   UNL     1      54.096  29.841  51.401  1.00  0.00     0.000 C 
BRANCH  18  19
ATOM     19  C   UNL     1      54.233  28.938  52.639  1.00  0.00     0.000 C 
BRANCH  19  20
ATOM     20  C   UNL     1      55.570  29.138  53.377  1.00  0.00     0.006 C 
BRANCH  20  21
ATOM     21  C   UNL     1      56.336  30.407  52.971  1.00  0.00     0.053 C 
BRANCH  21  22
ATOM     22  C   UNL     1      56.241  31.479  54.011  1.00  0.00     0.041 C 
ATOM     23  O   UNL     1      55.493  31.327  55.012  1.00  0.00    -0.550 OA
ATOM     24  O   UNL     1      57.001  32.637  53.889  1.00  0.00    -0.550 OA
ENDBRANCH  21  22
ENDBRANCH  20  21
ENDBRANCH  19  20
ENDBRANCH  18  19
ENDBRANCH  17  18
ENDBRANCH  16  17
ENDBRANCH  15  16
ENDBRANCH  14  15
ENDBRANCH  13  14
ENDBRANCH   1  13
TORSDOF 20
ENDMDL
