MODEL 1
REMARK VINA RESULT:    -2.423      0.000      0.000
REMARK INTER + INTRA:          -3.877
REMARK INTER:                  -3.840
REMARK INTRA:                  -0.037
REMARK UNBOUND:                -0.037
REMARK SMILES CCCCCCCCCCCC(=O)[O-]
REMARK SMILES IDX 7 1 8 2 9 3 10 4 11 5 12 6 13 7 14 8 6 9 5 10 4 11 3 12 2 13
REMARK SMILES IDX 1 14
REMARK H PARENT
REMARK Flexibility Score: inf
ROOT
ATOM      1  C   UNL     1      -3.166   5.390   6.651  1.00  0.00     0.000 C 
ENDROOT
BRANCH   1   2
ATOM      2  C   UNL     1      -3.745   3.970   6.755  1.00  0.00     0.000 C 
BRANCH   2   3
ATOM      3  C   UNL     1      -3.731   3.431   8.196  1.00  0.00     0.000 C 
BRANCH   3   4
ATOM      4  C   UNL     1      -5.079   2.824   8.613  1.00  0.00     0.006 C 
BRANCH   4   5
ATOM      5  C   UNL     1      -5.479   3.203  10.044  1.00  0.00     0.053 C 
BRANCH   5   6
ATOM      6  C   UNL     1      -6.368   4.405  10.037  1.00  0.00     0.041 C 
ATOM      7  O   UNL     1      -7.618   4.271  10.106  1.00  0.00    -0.550 OA
ATOM      8  O   UNL     1      -5.820   5.675   9.905  1.00  0.00    -0.550 OA
ENDBRANCH   5   6
ENDBRANCH   4   5
ENDBRANCH   3   4
ENDBRANCH   2   3
ENDBRANCH   1   2
BRANCH   1   9
ATOM      9  C   UNL     1      -3.380   6.210   7.935  1.00  0.00     0.000 C 
BRANCH   9  10
ATOM     10  C   UNL     1      -2.292   5.949   8.991  1.00  0.00    -0.000 C 
BRANCH  10  11
ATOM     11  C   UNL     1      -2.107   7.134   9.952  1.00  0.00    -0.000 C 
BRANCH  11  12
ATOM     12  C   UNL     1      -0.623   7.502  10.087  1.00  0.00    -0.000 C 
BRANCH  12  13
ATOM     13  C   UNL     1      -0.355   8.989   9.806  1.00  0.00    -0.003 C 
ATOM     14  C   UNL     1       1.080   9.404  10.125  1.00  0.00     0.004 C 
ENDBRANCH  12  13
ENDBRANCH  11  12
ENDBRANCH  10  11
ENDBRANCH   9  10
ENDBRANCH   1   9
TORSDOF 10
ENDMDL
MODEL 2
REMARK VINA RESULT:    -0.924     20.130     21.700
REMARK INTER + INTRA:          -1.501
REMARK INTER:                  -1.040
REMARK INTRA:                  -0.461
REMARK UNBOUND:                -0.037
REMARK SMILES CCCCCCCCCCCC(=O)[O-]
REMARK SMILES IDX 7 1 8 2 9 3 10 4 11 5 12 6 13 7 14 8 6 9 5 10 4 11 3 12 2 13
REMARK SMILES IDX 1 14
REMARK H PARENT
REMARK Flexibility Score: inf
ROOT
ATOM      1  C   UNL     1       2.778  -3.864 -10.029  1.00  0.00     0.000 C 
ENDROOT
BRANCH   1   2
ATOM      2  C   UNL     1       2.158  -5.269  -9.998  1.00  0.00     0.000 C 
BRANCH   2   3
ATOM      3  C   UNL     1       0.621  -5.238 -10.079  1.00  0.00     0.000 C 
BRANCH   3   4
ATOM      4  C   UNL     1       0.004  -6.644 -10.123  1.00  0.00     0.006 C 
BRANCH   4   5
ATOM      5  C   UNL     1      -1.528  -6.618 -10.049  1.00  0.00     0.053 C 
BRANCH   5   6
ATOM      6  C   UNL     1      -2.035  -7.796  -9.280  1.00  0.00     0.041 C 
ATOM      7  O   UNL     1      -2.830  -7.631  -8.318  1.00  0.00    -0.550 OA
ATOM      8  O   UNL     1      -1.591  -9.075  -9.593  1.00  0.00    -0.550 OA
ENDBRANCH   5   6
ENDBRANCH   4   5
ENDBRANCH   3   4
ENDBRANCH   2   3
ENDBRANCH   1   2
BRANCH   1   9
ATOM      9  C   UNL     1       2.009  -2.861  -9.152  1.00  0.00     0.000 C 
BRANCH   9  10
ATOM     10  C   UNL     1       1.749  -1.525  -9.869  1.00  0.00    -0.000 C 
BRANCH  10  11
ATOM     11  C   UNL     1       0.254  -1.177  -9.943  1.00  0.00    -0.000 C 
BRANCH  11  12
ATOM     12  C   UNL     1       0.042   0.342  -9.864  1.00  0.00    -0.000 C 
BRANCH  12  13
ATOM     13  C   UNL     1      -1.443   0.727  -9.777  1.00  0.00    -0.003 C 
ATOM     14  C   UNL     1      -2.377  -0.443 -10.079  1.00  0.00     0.004 C 
ENDBRANCH  12  13
ENDBRANCH  11  12
ENDBRANCH  10  11
ENDBRANCH   9  10
ENDBRANCH   1   9
TORSDOF 10
ENDMDL
MODEL 3
REMARK VINA RESULT:    -0.871     10.773     12.886
REMARK INTER + INTRA:          -1.417
REMARK INTER:                  -0.737
REMARK INTRA:                  -0.680
REMARK UNBOUND:                -0.037
REMARK SMILES CCCCCCCCCCCC(=O)[O-]
REMARK SMILES IDX 7 1 8 2 9 3 10 4 11 5 12 6 13 7 14 8 6 9 5 10 4 11 3 12 2 13
REMARK SMILES IDX 1 14
REMARK H PARENT
REMARK Flexibility Score: inf
ROOT
ATOM      1  C   UNL     1      -1.505   8.022  -1.637  1.00  0.00     0.000 C 
ENDROOT
BRANCH   1   2
ATOM      2  C   UNL     1      -0.029   8.194  -2.029  1.00  0.00     0.000 C 
BRANCH   2   3
ATOM      3  C   UNL     1       0.858   7.053  -1.502  1.00  0.00     0.000 C 
BRANCH   3   4
ATOM      4  C   UNL     1       2.335   7.460  -1.384  1.00  0.00     0.006 C 
BRANCH   4   5
ATOM      5  C   UNL     1       2.681   8.681  -2.247  1.00  0.00     0.053 C 
BRANCH   5   6
ATOM      6  C   UNL     1       3.869   9.395  -1.688  1.00  0.00     0.041 C 
ATOM      7  O   UNL     1       4.989   9.306  -2.258  1.00  0.00    -0.550 OA
ATOM      8  O   UNL     1       3.755  10.121  -0.509  1.00  0.00    -0.550 OA
ENDBRANCH   5   6
ENDBRANCH   4   5
ENDBRANCH   3   4
ENDBRANCH   2   3
ENDBRANCH   1   2
BRANCH   1   9
ATOM      9  C   UNL     1      -1.822   8.625  -0.257  1.00  0.00     0.000 C 
BRANCH   9  10
ATOM     10  C   UNL     1      -3.274   8.368   0.182  1.00  0.00    -0.000 C 
BRANCH  10  11
ATOM     11  C   UNL     1      -4.021   9.663   0.536  1.00  0.00    -0.000 C 
BRANCH  11  12
ATOM     12  C   UNL     1      -4.900  10.125  -0.635  1.00  0.00    -0.000 C 
BRANCH  12  13
ATOM     13  C   UNL     1      -5.180   9.000  -1.644  1.00  0.00    -0.003 C 
ATOM     14  C   UNL     1      -4.742   9.356  -3.064  1.00  0.00     0.004 C 
ENDBRANCH  12  13
ENDBRANCH  11  12
ENDBRANCH  10  11
ENDBRANCH   9  10
ENDBRANCH   1   9
TORSDOF 10
ENDMDL
MODEL 4
REMARK VINA RESULT:    -0.817     10.141     11.602
REMARK INTER + INTRA:          -1.331
REMARK INTER:                  -0.982
REMARK INTRA:                  -0.350
REMARK UNBOUND:                -0.037
REMARK SMILES CCCCCCCCCCCC(=O)[O-]
REMARK SMILES IDX 7 1 8 2 9 3 10 4 11 5 12 6 13 7 14 8 6 9 5 10 4 11 3 12 2 13
REMARK SMILES IDX 1 14
REMARK H PARENT
REMARK Flexibility Score: inf
ROOT
ATOM      1  C   UNL     1      -1.225   8.416  -2.208  1.00  0.00     0.000 C 
ENDROOT
BRANCH   1   2
ATOM      2  C   UNL     1      -1.477   8.346  -0.693  1.00  0.00     0.000 C 
BRANCH   2   3
ATOM      3  C   UNL     1      -2.930   7.970  -0.353  1.00  0.00     0.000 C 
BRANCH   3   4
ATOM      4  C   UNL     1      -3.657   9.073   0.431  1.00  0.00     0.006 C 
BRANCH   4   5
ATOM      5  C   UNL     1      -4.301  10.122  -0.485  1.00  0.00     0.053 C 
BRANCH   5   6
ATOM      6  C   UNL     1      -5.005   9.458  -1.625  1.00  0.00     0.041 C 
ATOM      7  O   UNL     1      -6.214   9.124  -1.517  1.00  0.00    -0.550 OA
ATOM      8  O   UNL     1      -4.312   9.161  -2.793  1.00  0.00    -0.550 OA
ENDBRANCH   5   6
ENDBRANCH   4   5
ENDBRANCH   3   4
ENDBRANCH   2   3
ENDBRANCH   1   2
BRANCH   1   9
ATOM      9  C   UNL     1       0.077   7.709  -2.621  1.00  0.00     0.000 C 
BRANCH   9  10
ATOM     10  C   UNL     1       0.821   7.093  -1.425  1.00  0.00    -0.000 C 
BRANCH  10  11
ATOM     11  C   UNL     1       2.292   7.534  -1.354  1.00  0.00    -0.000 C 
BRANCH  11  12
ATOM     12  C   UNL     1       2.416   9.056  -1.517  1.00  0.00    -0.000 C 
BRANCH  12  13
ATOM     13  C   UNL     1       3.855   9.556  -1.318  1.00  0.00    -0.003 C 
ATOM     14  C   UNL     1       4.817   9.030  -2.382  1.00  0.00     0.004 C 
ENDBRANCH  12  13
ENDBRANCH  11  12
ENDBRANCH  10  11
ENDBRANCH   9  10
ENDBRANCH   1   9
TORSDOF 10
ENDMDL
MODEL 5
REMARK VINA RESULT:    -0.522      1.473      2.249
REMARK INTER + INTRA:          -0.865
REMARK INTER:                  -1.094
REMARK INTRA:                   0.229
REMARK UNBOUND:                -0.037
REMARK SMILES CCCCCCCCCCCC(=O)[O-]
REMARK SMILES IDX 7 1 8 2 9 3 10 4 11 5 12 6 13 7 14 8 6 9 5 10 4 11 3 12 2 13
REMARK SMILES IDX 1 14
REMARK H PARENT
REMARK Flexibility Score: inf
ROOT
ATOM      1  C   UNL     1      -4.068   5.996   9.723  1.00  0.00     0.000 C 
ENDROOT
BRANCH   1   2
ATOM      2  C   UNL     1      -4.328   5.754   8.228  1.00  0.00     0.000 C 
BRANCH   2   3
ATOM      3  C   UNL     1      -3.297   4.804   7.595  1.00  0.00     0.000 C 
BRANCH   3   4
ATOM      4  C   UNL     1      -3.950   3.699   6.753  1.00  0.00     0.006 C 
BRANCH   4   5
ATOM      5  C   UNL     1      -4.274   2.444   7.575  1.00  0.00     0.053 C 
BRANCH   5   6
ATOM      6  C   UNL     1      -5.111   2.800   8.762  1.00  0.00     0.041 C 
ATOM      7  O   UNL     1      -4.723   2.504   9.923  1.00  0.00    -0.550 OA
ATOM      8  O   UNL     1      -6.345   3.414   8.586  1.00  0.00    -0.550 OA
ENDBRANCH   5   6
ENDBRANCH   4   5
ENDBRANCH   3   4
ENDBRANCH   2   3
ENDBRANCH   1   2
BRANCH   1   9
ATOM      9  C   UNL     1      -4.088   7.491  10.090  1.00  0.00     0.000 C 
BRANCH   9  10
ATOM     10  C   UNL     1      -2.687   8.124  10.069  1.00  0.00    -0.000 C 
BRANCH  10  11
ATOM     11  C   UNL     1      -1.619   7.174   9.506  1.00  0.00    -0.000 C 
BRANCH  11  12
ATOM     12  C   UNL     1      -0.210   7.638   9.904  1.00  0.00    -0.000 C 
BRANCH  12  13
ATOM     13  C   UNL     1       0.086   9.079   9.459  1.00  0.00    -0.003 C 
ATOM     14  C   UNL     1       1.391   9.621  10.038  1.00  0.00     0.004 C 
ENDBRANCH  12  13
ENDBRANCH  11  12
ENDBRANCH  10  11
ENDBRANCH   9  10
ENDBRANCH   1   9
TORSDOF 10
ENDMDL
MODEL 6
REMARK VINA RESULT:    -0.282      3.209      6.422
REMARK INTER + INTRA:          -0.484
REMARK INTER:                  -2.902
REMARK INTRA:                   2.418
REMARK UNBOUND:                -0.037
REMARK SMILES CCCCCCCCCCCC(=O)[O-]
REMARK SMILES IDX 7 1 8 2 9 3 10 4 11 5 12 6 13 7 14 8 6 9 5 10 4 11 3 12 2 13
REMARK SMILES IDX 1 14
REMARK H PARENT
REMARK Flexibility Score: inf
ROOT
ATOM      1  C   UNL     1      -2.976   5.201   7.592  1.00  0.00     0.000 C 
ENDROOT
BRANCH   1   2
ATOM      2  C   UNL     1      -2.590   6.649   7.933  1.00  0.00     0.000 C 
BRANCH   2   3
ATOM      3  C   UNL     1      -1.548   6.732   9.062  1.00  0.00     0.000 C 
BRANCH   3   4
ATOM      4  C   UNL     1      -1.909   7.780  10.125  1.00  0.00     0.006 C 
BRANCH   4   5
ATOM      5  C   UNL     1      -1.175   9.110   9.915  1.00  0.00     0.053 C 
BRANCH   5   6
ATOM      6  C   UNL     1       0.302   8.920  10.057  1.00  0.00     0.041 C 
ATOM      7  O   UNL     1       1.068   9.918  10.105  1.00  0.00    -0.550 OA
ATOM      8  O   UNL     1       0.839   7.639  10.088  1.00  0.00    -0.550 OA
ENDBRANCH   5   6
ENDBRANCH   4   5
ENDBRANCH   3   4
ENDBRANCH   2   3
ENDBRANCH   1   2
BRANCH   1   9
ATOM      9  C   UNL     1      -4.358   4.813   8.146  1.00  0.00     0.000 C 
BRANCH   9  10
ATOM     10  C   UNL     1      -4.584   5.323   9.579  1.00  0.00    -0.000 C 
BRANCH  10  11
ATOM     11  C   UNL     1      -5.976   4.962  10.121  1.00  0.00    -0.000 C 
BRANCH  11  12
ATOM     12  C   UNL     1      -6.208   3.445  10.067  1.00  0.00    -0.000 C 
BRANCH  12  13
ATOM     13  C   UNL     1      -5.176   2.721   9.189  1.00  0.00    -0.003 C 
ATOM     14  C   UNL     1      -5.699   2.420   7.785  1.00  0.00     0.004 C 
ENDBRANCH  12  13
ENDBRANCH  11  12
ENDBRANCH  10  11
ENDBRANCH   9  10
ENDBRANCH   1   9
TORSDOF 10
ENDMDL
