MODEL 1
REMARK VINA RESULT:    -7.145      0.000      0.000
REMARK INTER + INTRA:          -8.908
REMARK INTER:                  -8.606
REMARK INTRA:                  -0.302
REMARK UNBOUND:                -0.302
REMARK SMILES O=c1c(O)c(-c2ccc(O)c(O)c2)oc2cc(O)cc(O)c12
REMARK SMILES IDX 5 1 3 2 2 3 1 4 22 5 20 6 19 7 17 8 16 9 15 10 14 11 6 12
REMARK SMILES IDX 7 13 8 14 9 15 13 16 11 17 10 18 12 20 4 22 21 24 18 26
REMARK H PARENT 10 19 12 21 4 23 21 25 18 27
REMARK Flexibility Score: inf
ROOT
ATOM      1  C   UNL     1     -36.525 -13.028 -10.498  1.00  0.00     0.180 A 
ATOM      2  C   UNL     1     -37.514 -12.885 -11.486  1.00  0.00     0.208 A 
ATOM      3  C   UNL     1     -37.455 -13.696 -12.632  1.00  0.00     0.238 A 
ATOM      4  O   UNL     1     -38.311 -13.524 -13.538  1.00  0.00    -0.285 OA
ATOM      5  C   UNL     1     -36.418 -14.649 -12.768  1.00  0.00     0.111 A 
ATOM      6  C   UNL     1     -36.284 -15.550 -13.866  1.00  0.00     0.134 A 
ATOM      7  C   UNL     1     -35.147 -16.362 -13.959  1.00  0.00     0.093 A 
ATOM      8  C   UNL     1     -34.171 -16.351 -12.959  1.00  0.00     0.123 A 
ATOM      9  C   UNL     1     -34.322 -15.519 -11.853  1.00  0.00     0.094 A 
ATOM     10  C   UNL     1     -35.428 -14.671 -11.749  1.00  0.00     0.146 A 
ATOM     11  O   UNL     1     -35.529 -13.886 -10.685  1.00  0.00    -0.452 OA
ENDROOT
BRANCH   1  12
ATOM     12  C   UNL     1     -36.535 -12.228  -9.252  1.00  0.00     0.025 A 
ATOM     13  C   UNL     1     -35.766 -11.058  -9.127  1.00  0.00     0.016 A 
ATOM     14  C   UNL     1     -35.810 -10.306  -7.951  1.00  0.00     0.051 A 
ATOM     15  C   UNL     1     -36.633 -10.703  -6.888  1.00  0.00     0.157 A 
ATOM     16  C   UNL     1     -37.374 -12.610  -8.192  1.00  0.00     0.062 A 
ATOM     17  C   UNL     1     -37.421 -11.860  -7.012  1.00  0.00     0.158 A 
BRANCH  15  18
ATOM     18  O   UNL     1     -36.673  -9.952  -5.715  1.00  0.00    -0.504 OA
ATOM     19  H   UNL     1     -37.524  -9.862  -5.170  1.00  0.00     0.293 HD
ENDBRANCH  15  18
BRANCH  17  20
ATOM     20  O   UNL     1     -38.255 -12.277  -5.976  1.00  0.00    -0.504 OA
ATOM     21  H   UNL     1     -39.259 -12.350  -6.089  1.00  0.00     0.293 HD
ENDBRANCH  17  20
ENDBRANCH   1  12
BRANCH   2  22
ATOM     22  O   UNL     1     -38.517 -11.921 -11.344  1.00  0.00    -0.502 OA
ATOM     23  H   UNL     1     -38.813 -11.573 -10.441  1.00  0.00     0.293 HD
ENDBRANCH   2  22
BRANCH   6  24
ATOM     24  O   UNL     1     -37.245 -15.706 -14.869  1.00  0.00    -0.507 OA
ATOM     25  H   UNL     1     -37.754 -14.949 -15.300  1.00  0.00     0.293 HD
ENDBRANCH   6  24
BRANCH   8  26
ATOM     26  O   UNL     1     -33.050 -17.173 -13.052  1.00  0.00    -0.508 OA
ATOM     27  H   UNL     1     -32.512 -17.244 -13.908  1.00  0.00     0.293 HD
ENDBRANCH   8  26
TORSDOF 6
ENDMDL
MODEL 2
REMARK VINA RESULT:    -6.823      1.444      2.771
REMARK INTER + INTRA:          -8.521
REMARK INTER:                  -8.301
REMARK INTRA:                  -0.221
REMARK UNBOUND:                -0.302
REMARK SMILES O=c1c(O)c(-c2ccc(O)c(O)c2)oc2cc(O)cc(O)c12
REMARK SMILES IDX 5 1 3 2 2 3 1 4 22 5 20 6 19 7 17 8 16 9 15 10 14 11 6 12
REMARK SMILES IDX 7 13 8 14 9 15 13 16 11 17 10 18 12 20 4 22 21 24 18 26
REMARK H PARENT 10 19 12 21 4 23 21 25 18 27
REMARK Flexibility Score: inf
ROOT
ATOM      1  C   UNL     1     -36.392 -13.495 -10.374  1.00  0.00     0.180 A 
ATOM      2  C   UNL     1     -35.967 -14.819 -10.177  1.00  0.00     0.208 A 
ATOM      3  C   UNL     1     -35.984 -15.709 -11.263  1.00  0.00     0.238 A 
ATOM      4  O   UNL     1     -35.655 -16.908 -11.067  1.00  0.00    -0.285 OA
ATOM      5  C   UNL     1     -36.409 -15.260 -12.536  1.00  0.00     0.111 A 
ATOM      6  C   UNL     1     -36.429 -16.064 -13.715  1.00  0.00     0.134 A 
ATOM      7  C   UNL     1     -36.992 -15.552 -14.891  1.00  0.00     0.093 A 
ATOM      8  C   UNL     1     -37.477 -14.242 -14.946  1.00  0.00     0.123 A 
ATOM      9  C   UNL     1     -37.408 -13.431 -13.817  1.00  0.00     0.094 A 
ATOM     10  C   UNL     1     -36.884 -13.924 -12.620  1.00  0.00     0.146 A 
ATOM     11  O   UNL     1     -36.847 -13.121 -11.564  1.00  0.00    -0.452 OA
ENDROOT
BRANCH   1  12
ATOM     12  C   UNL     1     -36.379 -12.492  -9.284  1.00  0.00     0.025 A 
ATOM     13  C   UNL     1     -35.476 -11.415  -9.290  1.00  0.00     0.016 A 
ATOM     14  C   UNL     1     -35.498 -10.469  -8.263  1.00  0.00     0.051 A 
ATOM     15  C   UNL     1     -36.431 -10.576  -7.222  1.00  0.00     0.157 A 
ATOM     16  C   UNL     1     -37.325 -12.584  -8.250  1.00  0.00     0.062 A 
ATOM     17  C   UNL     1     -37.350 -11.638  -7.219  1.00  0.00     0.158 A 
BRANCH  15  18
ATOM     18  O   UNL     1     -36.448  -9.632  -6.198  1.00  0.00    -0.504 OA
ATOM     19  H   UNL     1     -36.194  -9.875  -5.246  1.00  0.00     0.293 HD
ENDBRANCH  15  18
BRANCH  17  20
ATOM     20  O   UNL     1     -38.295 -11.769  -6.202  1.00  0.00    -0.504 OA
ATOM     21  H   UNL     1     -38.868 -12.599  -6.102  1.00  0.00     0.293 HD
ENDBRANCH  17  20
ENDBRANCH   1  12
BRANCH   2  22
ATOM     22  O   UNL     1     -35.572 -15.250  -8.907  1.00  0.00    -0.502 OA
ATOM     23  H   UNL     1     -36.071 -15.967  -8.395  1.00  0.00     0.293 HD
ENDBRANCH   2  22
BRANCH   6  24
ATOM     24  O   UNL     1     -35.887 -17.349 -13.792  1.00  0.00    -0.507 OA
ATOM     25  H   UNL     1     -36.228 -18.082 -14.396  1.00  0.00     0.293 HD
ENDBRANCH   6  24
BRANCH   8  26
ATOM     26  O   UNL     1     -38.021 -13.736 -16.125  1.00  0.00    -0.508 OA
ATOM     27  H   UNL     1     -38.064 -14.292 -16.971  1.00  0.00     0.293 HD
ENDBRANCH   8  26
TORSDOF 6
ENDMDL
MODEL 3
REMARK VINA RESULT:    -6.743      1.660      3.399
REMARK INTER + INTRA:          -8.425
REMARK INTER:                  -8.120
REMARK INTRA:                  -0.305
REMARK UNBOUND:                -0.302
REMARK SMILES O=c1c(O)c(-c2ccc(O)c(O)c2)oc2cc(O)cc(O)c12
REMARK SMILES IDX 5 1 3 2 2 3 1 4 22 5 20 6 19 7 17 8 16 9 15 10 14 11 6 12
REMARK SMILES IDX 7 13 8 14 9 15 13 16 11 17 10 18 12 20 4 22 21 24 18 26
REMARK H PARENT 10 19 12 21 4 23 21 25 18 27
REMARK Flexibility Score: inf
ROOT
ATOM      1  C   UNL     1     -36.097 -14.696 -10.609  1.00  0.00     0.180 A 
ATOM      2  C   UNL     1     -34.793 -15.213 -10.675  1.00  0.00     0.208 A 
ATOM      3  C   UNL     1     -34.377 -15.864 -11.848  1.00  0.00     0.238 A 
ATOM      4  O   UNL     1     -33.226 -16.373 -11.881  1.00  0.00    -0.285 OA
ATOM      5  C   UNL     1     -35.264 -15.975 -12.945  1.00  0.00     0.111 A 
ATOM      6  C   UNL     1     -34.935 -16.578 -14.196  1.00  0.00     0.134 A 
ATOM      7  C   UNL     1     -35.933 -16.747 -15.164  1.00  0.00     0.093 A 
ATOM      8  C   UNL     1     -37.231 -16.278 -14.950  1.00  0.00     0.123 A 
ATOM      9  C   UNL     1     -37.547 -15.634 -13.757  1.00  0.00     0.094 A 
ATOM     10  C   UNL     1     -36.583 -15.482 -12.757  1.00  0.00     0.146 A 
ATOM     11  O   UNL     1     -36.927 -14.873 -11.629  1.00  0.00    -0.452 OA
ENDROOT
BRANCH   1  12
ATOM     12  C   UNL     1     -36.599 -13.975  -9.416  1.00  0.00     0.025 A 
ATOM     13  C   UNL     1     -37.089 -14.667  -8.294  1.00  0.00     0.016 A 
ATOM     14  C   UNL     1     -37.534 -13.966  -7.172  1.00  0.00     0.051 A 
ATOM     15  C   UNL     1     -37.484 -12.565  -7.146  1.00  0.00     0.157 A 
ATOM     16  C   UNL     1     -36.532 -12.573  -9.377  1.00  0.00     0.062 A 
ATOM     17  C   UNL     1     -36.977 -11.867  -8.254  1.00  0.00     0.158 A 
BRANCH  15  18
ATOM     18  O   UNL     1     -37.932 -11.869  -6.025  1.00  0.00    -0.504 OA
ATOM     19  H   UNL     1     -38.101 -12.337  -5.141  1.00  0.00     0.293 HD
ENDBRANCH  15  18
BRANCH  17  20
ATOM     20  O   UNL     1     -36.908 -10.474  -8.257  1.00  0.00    -0.504 OA
ATOM     21  H   UNL     1     -36.864  -9.939  -9.116  1.00  0.00     0.293 HD
ENDBRANCH  17  20
ENDBRANCH   1  12
BRANCH   2  22
ATOM     22  O   UNL     1     -33.939 -15.113  -9.572  1.00  0.00    -0.502 OA
ATOM     23  H   UNL     1     -33.347 -14.308  -9.413  1.00  0.00     0.293 HD
ENDBRANCH   2  22
BRANCH   6  24
ATOM     24  O   UNL     1     -33.649 -16.997 -14.546  1.00  0.00    -0.507 OA
ATOM     25  H   UNL     1     -33.406 -17.936 -14.823  1.00  0.00     0.293 HD
ENDBRANCH   6  24
BRANCH   8  26
ATOM     26  O   UNL     1     -38.214 -16.437 -15.926  1.00  0.00    -0.508 OA
ATOM     27  H   UNL     1     -38.442 -15.694 -16.576  1.00  0.00     0.293 HD
ENDBRANCH   8  26
TORSDOF 6
ENDMDL
MODEL 4
REMARK VINA RESULT:    -6.618      3.504      6.861
REMARK INTER + INTRA:          -8.274
REMARK INTER:                  -8.572
REMARK INTRA:                   0.298
REMARK UNBOUND:                -0.302
REMARK SMILES O=c1c(O)c(-c2ccc(O)c(O)c2)oc2cc(O)cc(O)c12
REMARK SMILES IDX 5 1 3 2 2 3 1 4 22 5 20 6 19 7 17 8 16 9 15 10 14 11 6 12
REMARK SMILES IDX 7 13 8 14 9 15 13 16 11 17 10 18 12 20 4 22 21 24 18 26
REMARK H PARENT 10 19 12 21 4 23 21 25 18 27
REMARK Flexibility Score: inf
ROOT
ATOM      1  C   UNL     1     -36.260 -12.388  -8.216  1.00  0.00     0.180 A 
ATOM      2  C   UNL     1     -35.455 -12.062  -9.321  1.00  0.00     0.208 A 
ATOM      3  C   UNL     1     -34.888 -10.780  -9.396  1.00  0.00     0.238 A 
ATOM      4  O   UNL     1     -34.213 -10.477 -10.415  1.00  0.00    -0.285 OA
ATOM      5  C   UNL     1     -35.119  -9.845  -8.359  1.00  0.00     0.111 A 
ATOM      6  C   UNL     1     -34.562  -8.532  -8.313  1.00  0.00     0.134 A 
ATOM      7  C   UNL     1     -34.962  -7.647  -7.304  1.00  0.00     0.093 A 
ATOM      8  C   UNL     1     -35.851  -8.050  -6.304  1.00  0.00     0.123 A 
ATOM      9  C   UNL     1     -36.354  -9.348  -6.307  1.00  0.00     0.094 A 
ATOM     10  C   UNL     1     -36.001 -10.243  -7.320  1.00  0.00     0.146 A 
ATOM     11  O   UNL     1     -36.511 -11.468  -7.293  1.00  0.00    -0.452 OA
ENDROOT
BRANCH   1  12
ATOM     12  C   UNL     1     -36.872 -13.727  -8.054  1.00  0.00     0.025 A 
ATOM     13  C   UNL     1     -36.311 -14.866  -8.657  1.00  0.00     0.016 A 
ATOM     14  C   UNL     1     -36.891 -16.122  -8.470  1.00  0.00     0.051 A 
ATOM     15  C   UNL     1     -38.032 -16.262  -7.667  1.00  0.00     0.157 A 
ATOM     16  C   UNL     1     -38.002 -13.876  -7.234  1.00  0.00     0.062 A 
ATOM     17  C   UNL     1     -38.587 -15.132  -7.045  1.00  0.00     0.158 A 
BRANCH  15  18
ATOM     18  O   UNL     1     -38.610 -17.517  -7.485  1.00  0.00    -0.504 OA
ATOM     19  H   UNL     1     -39.217 -17.713  -6.697  1.00  0.00     0.293 HD
ENDBRANCH  15  18
BRANCH  17  20
ATOM     20  O   UNL     1     -39.717 -15.239  -6.235  1.00  0.00    -0.504 OA
ATOM     21  H   UNL     1     -40.490 -15.851  -6.467  1.00  0.00     0.293 HD
ENDBRANCH  17  20
ENDBRANCH   1  12
BRANCH   2  22
ATOM     22  O   UNL     1     -35.258 -12.993 -10.346  1.00  0.00    -0.502 OA
ATOM     23  H   UNL     1     -35.346 -13.990 -10.200  1.00  0.00     0.293 HD
ENDBRANCH   2  22
BRANCH   6  24
ATOM     24  O   UNL     1     -33.597  -8.061  -9.208  1.00  0.00    -0.507 OA
ATOM     25  H   UNL     1     -33.734  -7.295  -9.850  1.00  0.00     0.293 HD
ENDBRANCH   6  24
BRANCH   8  26
ATOM     26  O   UNL     1     -36.233  -7.167  -5.296  1.00  0.00    -0.508 OA
ATOM     27  H   UNL     1     -37.204  -6.916  -5.149  1.00  0.00     0.293 HD
ENDBRANCH   8  26
TORSDOF 6
ENDMDL
MODEL 5
REMARK VINA RESULT:    -6.477      3.876      6.261
REMARK INTER + INTRA:          -8.105
REMARK INTER:                  -8.562
REMARK INTRA:                   0.458
REMARK UNBOUND:                -0.302
REMARK SMILES O=c1c(O)c(-c2ccc(O)c(O)c2)oc2cc(O)cc(O)c12
REMARK SMILES IDX 5 1 3 2 2 3 1 4 22 5 20 6 19 7 17 8 16 9 15 10 14 11 6 12
REMARK SMILES IDX 7 13 8 14 9 15 13 16 11 17 10 18 12 20 4 22 21 24 18 26
REMARK H PARENT 10 19 12 21 4 23 21 25 18 27
REMARK Flexibility Score: inf
ROOT
ATOM      1  C   UNL     1     -36.598 -12.594  -7.912  1.00  0.00     0.180 A 
ATOM      2  C   UNL     1     -36.947 -11.599  -6.983  1.00  0.00     0.208 A 
ATOM      3  C   UNL     1     -36.370 -10.324  -7.102  1.00  0.00     0.238 A 
ATOM      4  O   UNL     1     -36.644  -9.453  -6.235  1.00  0.00    -0.285 OA
ATOM      5  C   UNL     1     -35.465 -10.055  -8.156  1.00  0.00     0.111 A 
ATOM      6  C   UNL     1     -34.852  -8.789  -8.396  1.00  0.00     0.134 A 
ATOM      7  C   UNL     1     -33.873  -8.672  -9.391  1.00  0.00     0.093 A 
ATOM      8  C   UNL     1     -33.532  -9.762 -10.196  1.00  0.00     0.123 A 
ATOM      9  C   UNL     1     -34.168 -10.986 -10.009  1.00  0.00     0.094 A 
ATOM     10  C   UNL     1     -35.123 -11.144  -9.002  1.00  0.00     0.146 A 
ATOM     11  O   UNL     1     -35.697 -12.330  -8.850  1.00  0.00    -0.452 OA
ENDROOT
BRANCH   1  12
ATOM     12  C   UNL     1     -37.184 -13.953  -7.867  1.00  0.00     0.025 A 
ATOM     13  C   UNL     1     -36.556 -15.043  -8.495  1.00  0.00     0.016 A 
ATOM     14  C   UNL     1     -37.115 -16.320  -8.418  1.00  0.00     0.051 A 
ATOM     15  C   UNL     1     -38.300 -16.532  -7.701  1.00  0.00     0.157 A 
ATOM     16  C   UNL     1     -38.360 -14.175  -7.132  1.00  0.00     0.062 A 
ATOM     17  C   UNL     1     -38.923 -15.453  -7.053  1.00  0.00     0.158 A 
BRANCH  15  18
ATOM     18  O   UNL     1     -38.856 -17.808  -7.629  1.00  0.00    -0.504 OA
ATOM     19  H   UNL     1     -38.669 -18.511  -8.335  1.00  0.00     0.293 HD
ENDBRANCH  15  18
BRANCH  17  20
ATOM     20  O   UNL     1     -40.099 -15.632  -6.325  1.00  0.00    -0.504 OA
ATOM     21  H   UNL     1     -40.686 -14.854  -6.050  1.00  0.00     0.293 HD
ENDBRANCH  17  20
ENDBRANCH   1  12
BRANCH   2  22
ATOM     22  O   UNL     1     -37.826 -11.890  -5.936  1.00  0.00    -0.502 OA
ATOM     23  H   UNL     1     -38.826 -11.759  -6.012  1.00  0.00     0.293 HD
ENDBRANCH   2  22
BRANCH   6  24
ATOM     24  O   UNL     1     -35.187  -7.618  -7.711  1.00  0.00    -0.507 OA
ATOM     25  H   UNL     1     -35.196  -6.695  -8.119  1.00  0.00     0.293 HD
ENDBRANCH   6  24
BRANCH   8  26
ATOM     26  O   UNL     1     -32.568  -9.633 -11.194  1.00  0.00    -0.508 OA
ATOM     27  H   UNL     1     -32.358 -10.393 -11.831  1.00  0.00     0.293 HD
ENDBRANCH   8  26
TORSDOF 6
ENDMDL
MODEL 6
REMARK VINA RESULT:    -6.417     10.599     12.297
REMARK INTER + INTRA:          -8.031
REMARK INTER:                  -7.819
REMARK INTRA:                  -0.212
REMARK UNBOUND:                -0.302
REMARK SMILES O=c1c(O)c(-c2ccc(O)c(O)c2)oc2cc(O)cc(O)c12
REMARK SMILES IDX 5 1 3 2 2 3 1 4 22 5 20 6 19 7 17 8 16 9 15 10 14 11 6 12
REMARK SMILES IDX 7 13 8 14 9 15 13 16 11 17 10 18 12 20 4 22 21 24 18 26
REMARK H PARENT 10 19 12 21 4 23 21 25 18 27
REMARK Flexibility Score: inf
ROOT
ATOM      1  C   UNL     1     -27.969 -13.407  -1.563  1.00  0.00     0.180 A 
ATOM      2  C   UNL     1     -27.336 -12.907  -2.713  1.00  0.00     0.208 A 
ATOM      3  C   UNL     1     -27.553 -13.549  -3.943  1.00  0.00     0.238 A 
ATOM      4  O   UNL     1     -26.939 -13.130  -4.960  1.00  0.00    -0.285 OA
ATOM      5  C   UNL     1     -28.412 -14.672  -4.011  1.00  0.00     0.111 A 
ATOM      6  C   UNL     1     -28.735 -15.375  -5.210  1.00  0.00     0.134 A 
ATOM      7  C   UNL     1     -29.493 -16.550  -5.139  1.00  0.00     0.093 A 
ATOM      8  C   UNL     1     -29.993 -17.012  -3.918  1.00  0.00     0.123 A 
ATOM      9  C   UNL     1     -29.733 -16.300  -2.750  1.00  0.00     0.094 A 
ATOM     10  C   UNL     1     -28.950 -15.143  -2.784  1.00  0.00     0.146 A 
ATOM     11  O   UNL     1     -28.717 -14.500  -1.646  1.00  0.00    -0.452 OA
ENDROOT
BRANCH   1  12
ATOM     12  C   UNL     1     -27.809 -12.769  -0.236  1.00  0.00     0.025 A 
ATOM     13  C   UNL     1     -27.060 -13.379   0.785  1.00  0.00     0.016 A 
ATOM     14  C   UNL     1     -26.903 -12.746   2.021  1.00  0.00     0.051 A 
ATOM     15  C   UNL     1     -27.480 -11.490   2.251  1.00  0.00     0.157 A 
ATOM     16  C   UNL     1     -28.368 -11.500  -0.007  1.00  0.00     0.062 A 
ATOM     17  C   UNL     1     -28.213 -10.864   1.229  1.00  0.00     0.158 A 
BRANCH  15  18
ATOM     18  O   UNL     1     -27.324 -10.863   3.485  1.00  0.00    -0.504 OA
ATOM     19  H   UNL     1     -28.087 -10.803   4.151  1.00  0.00     0.293 HD
ENDBRANCH  15  18
BRANCH  17  20
ATOM     20  O   UNL     1     -28.794  -9.611   1.424  1.00  0.00    -0.504 OA
ATOM     21  H   UNL     1     -28.372  -8.908   2.018  1.00  0.00     0.293 HD
ENDBRANCH  17  20
ENDBRANCH   1  12
BRANCH   2  22
ATOM     22  O   UNL     1     -26.473 -11.811  -2.622  1.00  0.00    -0.502 OA
ATOM     23  H   UNL     1     -25.781 -11.601  -3.330  1.00  0.00     0.293 HD
ENDBRANCH   2  22
BRANCH   6  24
ATOM     24  O   UNL     1     -28.364 -14.949  -6.488  1.00  0.00    -0.507 OA
ATOM     25  H   UNL     1     -28.996 -14.854  -7.269  1.00  0.00     0.293 HD
ENDBRANCH   6  24
BRANCH   8  26
ATOM     26  O   UNL     1     -30.759 -18.174  -3.859  1.00  0.00    -0.508 OA
ATOM     27  H   UNL     1     -30.830 -18.804  -4.650  1.00  0.00     0.293 HD
ENDBRANCH   8  26
TORSDOF 6
ENDMDL
MODEL 7
REMARK VINA RESULT:    -6.356      2.166      7.151
REMARK INTER + INTRA:          -7.958
REMARK INTER:                  -7.668
REMARK INTRA:                  -0.290
REMARK UNBOUND:                -0.302
REMARK SMILES O=c1c(O)c(-c2ccc(O)c(O)c2)oc2cc(O)cc(O)c12
REMARK SMILES IDX 5 1 3 2 2 3 1 4 22 5 20 6 19 7 17 8 16 9 15 10 14 11 6 12
REMARK SMILES IDX 7 13 8 14 9 15 13 16 11 17 10 18 12 20 4 22 21 24 18 26
REMARK H PARENT 10 19 12 21 4 23 21 25 18 27
REMARK Flexibility Score: inf
ROOT
ATOM      1  C   UNL     1     -35.886 -11.959  -9.462  1.00  0.00     0.180 A 
ATOM      2  C   UNL     1     -36.654 -11.856  -8.289  1.00  0.00     0.208 A 
ATOM      3  C   UNL     1     -36.492 -10.729  -7.466  1.00  0.00     0.238 A 
ATOM      4  O   UNL     1     -37.141 -10.669  -6.390  1.00  0.00    -0.285 OA
ATOM      5  C   UNL     1     -35.577  -9.714  -7.834  1.00  0.00     0.111 A 
ATOM      6  C   UNL     1     -35.362  -8.511  -7.097  1.00  0.00     0.134 A 
ATOM      7  C   UNL     1     -34.340  -7.636  -7.484  1.00  0.00     0.093 A 
ATOM      8  C   UNL     1     -33.568  -7.890  -8.621  1.00  0.00     0.123 A 
ATOM      9  C   UNL     1     -33.810  -9.031  -9.381  1.00  0.00     0.094 A 
ATOM     10  C   UNL     1     -34.799  -9.941  -9.000  1.00  0.00     0.146 A 
ATOM     11  O   UNL     1     -34.991 -11.022  -9.746  1.00  0.00    -0.452 OA
ENDROOT
BRANCH   1  12
ATOM     12  C   UNL     1     -36.020 -13.104 -10.392  1.00  0.00     0.025 A 
ATOM     13  C   UNL     1     -35.414 -14.343 -10.121  1.00  0.00     0.016 A 
ATOM     14  C   UNL     1     -35.574 -15.415 -11.002  1.00  0.00     0.051 A 
ATOM     15  C   UNL     1     -36.353 -15.271 -12.158  1.00  0.00     0.157 A 
ATOM     16  C   UNL     1     -36.816 -12.971 -11.542  1.00  0.00     0.062 A 
ATOM     17  C   UNL     1     -36.979 -14.043 -12.426  1.00  0.00     0.158 A 
BRANCH  15  18
ATOM     18  O   UNL     1     -36.508 -16.342 -13.036  1.00  0.00    -0.504 OA
ATOM     19  H   UNL     1     -37.101 -16.276 -13.856  1.00  0.00     0.293 HD
ENDBRANCH  15  18
BRANCH  17  20
ATOM     20  O   UNL     1     -37.766 -13.869 -13.565  1.00  0.00    -0.504 OA
ATOM     21  H   UNL     1     -38.247 -12.999 -13.759  1.00  0.00     0.293 HD
ENDBRANCH  17  20
ENDBRANCH   1  12
BRANCH   2  22
ATOM     22  O   UNL     1     -37.535 -12.881  -7.932  1.00  0.00    -0.502 OA
ATOM     23  H   UNL     1     -37.731 -13.119  -6.968  1.00  0.00     0.293 HD
ENDBRANCH   2  22
BRANCH   6  24
ATOM     24  O   UNL     1     -36.137  -8.117  -6.002  1.00  0.00    -0.507 OA
ATOM     25  H   UNL     1     -37.109  -7.850  -6.052  1.00  0.00     0.293 HD
ENDBRANCH   6  24
BRANCH   8  26
ATOM     26  O   UNL     1     -32.562  -7.007  -9.009  1.00  0.00    -0.508 OA
ATOM     27  H   UNL     1     -32.378  -6.153  -8.494  1.00  0.00     0.293 HD
ENDBRANCH   8  26
TORSDOF 6
ENDMDL
MODEL 8
REMARK VINA RESULT:    -6.282      2.856      4.440
REMARK INTER + INTRA:          -7.869
REMARK INTER:                  -7.595
REMARK INTRA:                  -0.274
REMARK UNBOUND:                -0.302
REMARK SMILES O=c1c(O)c(-c2ccc(O)c(O)c2)oc2cc(O)cc(O)c12
REMARK SMILES IDX 5 1 3 2 2 3 1 4 22 5 20 6 19 7 17 8 16 9 15 10 14 11 6 12
REMARK SMILES IDX 7 13 8 14 9 15 13 16 11 17 10 18 12 20 4 22 21 24 18 26
REMARK H PARENT 10 19 12 21 4 23 21 25 18 27
REMARK Flexibility Score: inf
ROOT
ATOM      1  C   UNL     1     -36.334 -16.190  -9.775  1.00  0.00     0.180 A 
ATOM      2  C   UNL     1     -35.146 -16.937  -9.711  1.00  0.00     0.208 A 
ATOM      3  C   UNL     1     -34.413 -17.154 -10.890  1.00  0.00     0.238 A 
ATOM      4  O   UNL     1     -33.380 -17.871 -10.836  1.00  0.00    -0.285 OA
ATOM      5  C   UNL     1     -34.869 -16.607 -12.113  1.00  0.00     0.111 A 
ATOM      6  C   UNL     1     -34.186 -16.730 -13.360  1.00  0.00     0.134 A 
ATOM      7  C   UNL     1     -34.794 -16.260 -14.531  1.00  0.00     0.093 A 
ATOM      8  C   UNL     1     -36.033 -15.614 -14.488  1.00  0.00     0.123 A 
ATOM      9  C   UNL     1     -36.679 -15.436 -13.268  1.00  0.00     0.094 A 
ATOM     10  C   UNL     1     -36.114 -15.926 -12.088  1.00  0.00     0.146 A 
ATOM     11  O   UNL     1     -36.769 -15.746 -10.948  1.00  0.00    -0.452 OA
ENDROOT
BRANCH   1  12
ATOM     12  C   UNL     1     -37.146 -15.898  -8.571  1.00  0.00     0.025 A 
ATOM     13  C   UNL     1     -37.135 -14.627  -7.970  1.00  0.00     0.016 A 
ATOM     14  C   UNL     1     -37.928 -14.369  -6.850  1.00  0.00     0.051 A 
ATOM     15  C   UNL     1     -38.754 -15.370  -6.322  1.00  0.00     0.157 A 
ATOM     16  C   UNL     1     -37.992 -16.891  -8.051  1.00  0.00     0.062 A 
ATOM     17  C   UNL     1     -38.788 -16.636  -6.929  1.00  0.00     0.158 A 
BRANCH  15  18
ATOM     18  O   UNL     1     -39.542 -15.110  -5.202  1.00  0.00    -0.504 OA
ATOM     19  H   UNL     1     -39.782 -14.163  -4.929  1.00  0.00     0.293 HD
ENDBRANCH  15  18
BRANCH  17  20
ATOM     20  O   UNL     1     -39.604 -17.652  -6.432  1.00  0.00    -0.504 OA
ATOM     21  H   UNL     1     -39.224 -18.490  -6.010  1.00  0.00     0.293 HD
ENDBRANCH  17  20
ENDBRANCH   1  12
BRANCH   2  22
ATOM     22  O   UNL     1     -34.725 -17.488  -8.497  1.00  0.00    -0.502 OA
ATOM     23  H   UNL     1     -33.884 -18.045  -8.414  1.00  0.00     0.293 HD
ENDBRANCH   2  22
BRANCH   6  24
ATOM     24  O   UNL     1     -32.906 -17.275 -13.499  1.00  0.00    -0.507 OA
ATOM     25  H   UNL     1     -32.370 -17.683 -12.747  1.00  0.00     0.293 HD
ENDBRANCH   6  24
BRANCH   8  26
ATOM     26  O   UNL     1     -36.624 -15.135 -15.656  1.00  0.00    -0.508 OA
ATOM     27  H   UNL     1     -36.217 -15.311 -16.567  1.00  0.00     0.293 HD
ENDBRANCH   8  26
TORSDOF 6
ENDMDL
MODEL 9
REMARK VINA RESULT:    -6.148      5.675      6.601
REMARK INTER + INTRA:          -7.708
REMARK INTER:                  -7.666
REMARK INTRA:                  -0.042
REMARK UNBOUND:                -0.302
REMARK SMILES O=c1c(O)c(-c2ccc(O)c(O)c2)oc2cc(O)cc(O)c12
REMARK SMILES IDX 5 1 3 2 2 3 1 4 22 5 20 6 19 7 17 8 16 9 15 10 14 11 6 12
REMARK SMILES IDX 7 13 8 14 9 15 13 16 11 17 10 18 12 20 4 22 21 24 18 26
REMARK H PARENT 10 19 12 21 4 23 21 25 18 27
REMARK Flexibility Score: inf
ROOT
ATOM      1  C   UNL     1     -37.213 -16.950  -7.172  1.00  0.00     0.180 A 
ATOM      2  C   UNL     1     -38.385 -17.593  -6.741  1.00  0.00     0.208 A 
ATOM      3  C   UNL     1     -38.314 -18.934  -6.331  1.00  0.00     0.238 A 
ATOM      4  O   UNL     1     -39.377 -19.521  -5.998  1.00  0.00    -0.285 OA
ATOM      5  C   UNL     1     -37.071 -19.610  -6.342  1.00  0.00     0.111 A 
ATOM      6  C   UNL     1     -36.876 -20.956  -5.910  1.00  0.00     0.134 A 
ATOM      7  C   UNL     1     -35.627 -21.565  -6.087  1.00  0.00     0.093 A 
ATOM      8  C   UNL     1     -34.549 -20.854  -6.622  1.00  0.00     0.123 A 
ATOM      9  C   UNL     1     -34.714 -19.521  -6.991  1.00  0.00     0.094 A 
ATOM     10  C   UNL     1     -35.957 -18.897  -6.859  1.00  0.00     0.146 A 
ATOM     11  O   UNL     1     -36.074 -17.629  -7.233  1.00  0.00    -0.452 OA
ENDROOT
BRANCH   1  12
ATOM     12  C   UNL     1     -37.203 -15.530  -7.595  1.00  0.00     0.025 A 
ATOM     13  C   UNL     1     -36.751 -15.148  -8.870  1.00  0.00     0.016 A 
ATOM     14  C   UNL     1     -36.775 -13.806  -9.255  1.00  0.00     0.051 A 
ATOM     15  C   UNL     1     -37.262 -12.827  -8.379  1.00  0.00     0.157 A 
ATOM     16  C   UNL     1     -37.710 -14.548  -6.728  1.00  0.00     0.062 A 
ATOM     17  C   UNL     1     -37.735 -13.202  -7.110  1.00  0.00     0.158 A 
BRANCH  15  18
ATOM     18  O   UNL     1     -37.281 -11.488  -8.765  1.00  0.00    -0.504 OA
ATOM     19  H   UNL     1     -36.614 -11.118  -9.433  1.00  0.00     0.293 HD
ENDBRANCH  15  18
BRANCH  17  20
ATOM     20  O   UNL     1     -38.233 -12.253  -6.218  1.00  0.00    -0.504 OA
ATOM     21  H   UNL     1     -38.218 -11.261  -6.423  1.00  0.00     0.293 HD
ENDBRANCH  17  20
ENDBRANCH   1  12
BRANCH   2  22
ATOM     22  O   UNL     1     -39.607 -16.915  -6.759  1.00  0.00    -0.502 OA
ATOM     23  H   UNL     1     -40.491 -17.381  -6.597  1.00  0.00     0.293 HD
ENDBRANCH   2  22
BRANCH   6  24
ATOM     24  O   UNL     1     -37.860 -21.724  -5.280  1.00  0.00    -0.507 OA
ATOM     25  H   UNL     1     -37.685 -22.580  -4.776  1.00  0.00     0.293 HD
ENDBRANCH   6  24
BRANCH   8  26
ATOM     26  O   UNL     1     -33.306 -21.462  -6.780  1.00  0.00    -0.508 OA
ATOM     27  H   UNL     1     -32.447 -20.924  -6.780  1.00  0.00     0.293 HD
ENDBRANCH   8  26
TORSDOF 6
ENDMDL
