MODEL 1
REMARK VINA RESULT:    -5.516      0.000      0.000
REMARK INTER + INTRA:         -12.766
REMARK INTER:                 -10.675
REMARK INTRA:                  -2.091
REMARK UNBOUND:                -2.091
REMARK SMILES CCCCCCCCCCCCCCCCCC(=O)[O-]
REMARK SMILES IDX 10 1 11 2 12 3 13 4 14 5 15 6 16 7 17 8 18 9 19 10 20 11
REMARK SMILES IDX 9 12 8 13 7 14 6 15 5 16 4 17 3 18 2 19 1 20
REMARK H PARENT
REMARK Flexibility Score: inf
ROOT
ATOM      1  C   UNL     1     -23.119  55.601   1.261  1.00  0.00     0.000 C 
ENDROOT
BRANCH   1   2
ATOM      2  C   UNL     1     -23.060  54.242   0.547  1.00  0.00     0.000 C 
BRANCH   2   3
ATOM      3  C   UNL     1     -22.660  54.412  -0.924  1.00  0.00     0.000 C 
BRANCH   3   4
ATOM      4  C   UNL     1     -21.768  53.255  -1.390  1.00  0.00     0.000 C 
BRANCH   4   5
ATOM      5  C   UNL     1     -20.731  52.893  -0.319  1.00  0.00     0.000 C 
BRANCH   5   6
ATOM      6  C   UNL     1     -19.333  52.737  -0.935  1.00  0.00     0.000 C 
BRANCH   6   7
ATOM      7  C   UNL     1     -19.272  53.173  -2.411  1.00  0.00     0.006 C 
BRANCH   7   8
ATOM      8  C   UNL     1     -18.159  54.192  -2.714  1.00  0.00     0.053 C 
BRANCH   8   9
ATOM      9  C   UNL     1     -18.667  55.414  -3.416  1.00  0.00     0.041 C 
ATOM     10  O   UNL     1     -19.799  55.888  -3.130  1.00  0.00    -0.550 OA
ATOM     11  O   UNL     1     -17.879  56.048  -4.368  1.00  0.00    -0.550 OA
ENDBRANCH   8   9
ENDBRANCH   7   8
ENDBRANCH   6   7
ENDBRANCH   5   6
ENDBRANCH   4   5
ENDBRANCH   3   4
ENDBRANCH   2   3
ENDBRANCH   1   2
BRANCH   1  12
ATOM     12  C   UNL     1     -22.330  56.695   0.525  1.00  0.00     0.000 C 
BRANCH  12  13
ATOM     13  C   UNL     1     -21.548  57.607   1.487  1.00  0.00    -0.000 C 
BRANCH  13  14
ATOM     14  C   UNL     1     -20.029  57.539   1.259  1.00  0.00    -0.000 C 
BRANCH  14  15
ATOM     15  C   UNL     1     -19.608  56.326   0.416  1.00  0.00    -0.000 C 
BRANCH  15  16
ATOM     16  C   UNL     1     -18.083  56.270   0.257  1.00  0.00    -0.000 C 
BRANCH  16  17
ATOM     17  C   UNL     1     -17.422  57.522   0.852  1.00  0.00    -0.000 C 
BRANCH  17  18
ATOM     18  C   UNL     1     -16.050  57.820   0.227  1.00  0.00    -0.000 C 
BRANCH  18  19
ATOM     19  C   UNL     1     -15.479  59.174   0.673  1.00  0.00    -0.003 C 
ATOM     20  C   UNL     1     -14.044  59.027   1.172  1.00  0.00     0.004 C 
ENDBRANCH  18  19
ENDBRANCH  17  18
ENDBRANCH  16  17
ENDBRANCH  15  16
ENDBRANCH  14  15
ENDBRANCH  13  14
ENDBRANCH  12  13
ENDBRANCH   1  12
TORSDOF 16
ENDMDL
MODEL 2
REMARK VINA RESULT:    -5.374      2.647      4.783
REMARK INTER + INTRA:         -12.491
REMARK INTER:                 -10.828
REMARK INTRA:                  -1.664
REMARK UNBOUND:                -2.091
REMARK SMILES CCCCCCCCCCCCCCCCCC(=O)[O-]
REMARK SMILES IDX 10 1 11 2 12 3 13 4 14 5 15 6 16 7 17 8 18 9 19 10 20 11
REMARK SMILES IDX 9 12 8 13 7 14 6 15 5 16 4 17 3 18 2 19 1 20
REMARK H PARENT
REMARK Flexibility Score: inf
ROOT
ATOM      1  C   UNL     1     -19.497  56.399  -2.677  1.00  0.00     0.000 C 
ENDROOT
BRANCH   1   2
ATOM      2  C   UNL     1     -20.881  56.554  -3.325  1.00  0.00     0.000 C 
BRANCH   2   3
ATOM      3  C   UNL     1     -21.680  55.249  -3.230  1.00  0.00     0.000 C 
BRANCH   3   4
ATOM      4  C   UNL     1     -21.020  54.267  -2.254  1.00  0.00     0.000 C 
BRANCH   4   5
ATOM      5  C   UNL     1     -22.072  53.434  -1.513  1.00  0.00     0.000 C 
BRANCH   5   6
ATOM      6  C   UNL     1     -22.101  53.784  -0.019  1.00  0.00     0.000 C 
BRANCH   6   7
ATOM      7  C   UNL     1     -22.789  55.130   0.273  1.00  0.00     0.006 C 
BRANCH   7   8
ATOM      8  C   UNL     1     -24.176  54.993   0.926  1.00  0.00     0.053 C 
BRANCH   8   9
ATOM      9  C   UNL     1     -25.296  55.250  -0.035  1.00  0.00     0.041 C 
ATOM     10  O   UNL     1     -25.076  55.286  -1.275  1.00  0.00    -0.550 OA
ATOM     11  O   UNL     1     -26.591  55.421   0.437  1.00  0.00    -0.550 OA
ENDBRANCH   8   9
ENDBRANCH   7   8
ENDBRANCH   6   7
ENDBRANCH   5   6
ENDBRANCH   4   5
ENDBRANCH   3   4
ENDBRANCH   2   3
ENDBRANCH   1   2
BRANCH   1  12
ATOM     12  C   UNL     1     -18.348  56.518  -3.691  1.00  0.00     0.000 C 
BRANCH  12  13
ATOM     13  C   UNL     1     -17.099  55.728  -3.261  1.00  0.00    -0.000 C 
BRANCH  13  14
ATOM     14  C   UNL     1     -17.411  54.665  -2.196  1.00  0.00    -0.000 C 
BRANCH  14  15
ATOM     15  C   UNL     1     -16.707  54.939  -0.858  1.00  0.00    -0.000 C 
BRANCH  15  16
ATOM     16  C   UNL     1     -17.708  55.421   0.200  1.00  0.00    -0.000 C 
BRANCH  16  17
ATOM     17  C   UNL     1     -17.421  56.874   0.608  1.00  0.00    -0.000 C 
BRANCH  17  18
ATOM     18  C   UNL     1     -15.921  57.210   0.583  1.00  0.00    -0.000 C 
BRANCH  18  19
ATOM     19  C   UNL     1     -15.656  58.720   0.505  1.00  0.00    -0.003 C 
ATOM     20  C   UNL     1     -14.307  59.074   1.128  1.00  0.00     0.004 C 
ENDBRANCH  18  19
ENDBRANCH  17  18
ENDBRANCH  16  17
ENDBRANCH  15  16
ENDBRANCH  14  15
ENDBRANCH  13  14
ENDBRANCH  12  13
ENDBRANCH   1  12
TORSDOF 16
ENDMDL
MODEL 3
REMARK VINA RESULT:    -5.363      1.962      4.684
REMARK INTER + INTRA:         -12.470
REMARK INTER:                  -9.894
REMARK INTRA:                  -2.575
REMARK UNBOUND:                -2.091
REMARK SMILES CCCCCCCCCCCCCCCCCC(=O)[O-]
REMARK SMILES IDX 10 1 11 2 12 3 13 4 14 5 15 6 16 7 17 8 18 9 19 10 20 11
REMARK SMILES IDX 9 12 8 13 7 14 6 15 5 16 4 17 3 18 2 19 1 20
REMARK H PARENT
REMARK Flexibility Score: inf
ROOT
ATOM      1  C   UNL     1     -23.561  54.730   1.600  1.00  0.00     0.000 C 
ENDROOT
BRANCH   1   2
ATOM      2  C   UNL     1     -23.868  56.164   1.141  1.00  0.00     0.000 C 
BRANCH   2   3
ATOM      3  C   UNL     1     -23.138  57.189   2.017  1.00  0.00     0.000 C 
BRANCH   3   4
ATOM      4  C   UNL     1     -22.137  58.006   1.192  1.00  0.00     0.000 C 
BRANCH   4   5
ATOM      5  C   UNL     1     -20.700  57.531   1.441  1.00  0.00     0.000 C 
BRANCH   5   6
ATOM      6  C   UNL     1     -20.245  56.553   0.349  1.00  0.00     0.000 C 
BRANCH   6   7
ATOM      7  C   UNL     1     -18.761  56.163   0.467  1.00  0.00     0.006 C 
BRANCH   7   8
ATOM      8  C   UNL     1     -17.796  57.362   0.435  1.00  0.00     0.053 C 
BRANCH   8   9
ATOM      9  C   UNL     1     -16.358  56.951   0.524  1.00  0.00     0.041 C 
ATOM     10  O   UNL     1     -15.978  55.854   0.037  1.00  0.00    -0.550 OA
ATOM     11  O   UNL     1     -15.430  57.795   1.120  1.00  0.00    -0.550 OA
ENDBRANCH   8   9
ENDBRANCH   7   8
ENDBRANCH   6   7
ENDBRANCH   5   6
ENDBRANCH   4   5
ENDBRANCH   3   4
ENDBRANCH   2   3
ENDBRANCH   1   2
BRANCH   1  12
ATOM     12  C   UNL     1     -22.967  53.861   0.479  1.00  0.00     0.000 C 
BRANCH  12  13
ATOM     13  C   UNL     1     -23.017  54.554  -0.894  1.00  0.00    -0.000 C 
BRANCH  13  14
ATOM     14  C   UNL     1     -21.803  54.208  -1.772  1.00  0.00    -0.000 C 
BRANCH  14  15
ATOM     15  C   UNL     1     -20.868  53.181  -1.116  1.00  0.00    -0.000 C 
BRANCH  15  16
ATOM     16  C   UNL     1     -19.714  52.810  -2.056  1.00  0.00    -0.000 C 
BRANCH  16  17
ATOM     17  C   UNL     1     -19.365  53.980  -2.987  1.00  0.00    -0.000 C 
BRANCH  17  18
ATOM     18  C   UNL     1     -17.887  54.391  -2.894  1.00  0.00    -0.000 C 
BRANCH  18  19
ATOM     19  C   UNL     1     -17.684  55.905  -3.045  1.00  0.00    -0.003 C 
ATOM     20  C   UNL     1     -18.939  56.574  -3.601  1.00  0.00     0.004 C 
ENDBRANCH  18  19
ENDBRANCH  17  18
ENDBRANCH  16  17
ENDBRANCH  15  16
ENDBRANCH  14  15
ENDBRANCH  13  14
ENDBRANCH  12  13
ENDBRANCH   1  12
TORSDOF 16
ENDMDL
MODEL 4
REMARK VINA RESULT:    -5.324      2.038      4.125
REMARK INTER + INTRA:         -12.395
REMARK INTER:                 -10.672
REMARK INTRA:                  -1.723
REMARK UNBOUND:                -2.091
REMARK SMILES CCCCCCCCCCCCCCCCCC(=O)[O-]
REMARK SMILES IDX 10 1 11 2 12 3 13 4 14 5 15 6 16 7 17 8 18 9 19 10 20 11
REMARK SMILES IDX 9 12 8 13 7 14 6 15 5 16 4 17 3 18 2 19 1 20
REMARK H PARENT
REMARK Flexibility Score: inf
ROOT
ATOM      1  C   UNL     1     -19.380  55.835  -3.361  1.00  0.00     0.000 C 
ENDROOT
BRANCH   1   2
ATOM      2  C   UNL     1     -20.658  56.653  -3.603  1.00  0.00     0.000 C 
BRANCH   2   3
ATOM      3  C   UNL     1     -21.866  55.997  -2.923  1.00  0.00     0.000 C 
BRANCH   3   4
ATOM      4  C   UNL     1     -22.397  56.870  -1.779  1.00  0.00     0.000 C 
BRANCH   4   5
ATOM      5  C   UNL     1     -22.249  56.159  -0.429  1.00  0.00     0.000 C 
BRANCH   5   6
ATOM      6  C   UNL     1     -23.091  54.876  -0.386  1.00  0.00     0.000 C 
BRANCH   6   7
ATOM      7  C   UNL     1     -22.289  53.641   0.060  1.00  0.00     0.006 C 
BRANCH   7   8
ATOM      8  C   UNL     1     -21.469  52.988  -1.067  1.00  0.00     0.053 C 
BRANCH   8   9
ATOM      9  C   UNL     1     -20.152  52.456  -0.591  1.00  0.00     0.041 C 
ATOM     10  O   UNL     1     -19.437  53.133   0.195  1.00  0.00    -0.550 OA
ATOM     11  O   UNL     1     -19.725  51.197  -0.993  1.00  0.00    -0.550 OA
ENDBRANCH   8   9
ENDBRANCH   7   8
ENDBRANCH   6   7
ENDBRANCH   5   6
ENDBRANCH   4   5
ENDBRANCH   3   4
ENDBRANCH   2   3
ENDBRANCH   1   2
BRANCH   1  12
ATOM     12  C   UNL     1     -18.098  56.637  -3.637  1.00  0.00     0.000 C 
BRANCH  12  13
ATOM     13  C   UNL     1     -16.845  55.966  -3.049  1.00  0.00    -0.000 C 
BRANCH  13  14
ATOM     14  C   UNL     1     -17.187  54.898  -1.996  1.00  0.00    -0.000 C 
BRANCH  14  15
ATOM     15  C   UNL     1     -16.888  55.361  -0.562  1.00  0.00    -0.000 C 
BRANCH  15  16
ATOM     16  C   UNL     1     -18.019  56.248  -0.025  1.00  0.00    -0.000 C 
BRANCH  16  17
ATOM     17  C   UNL     1     -17.463  57.554   0.561  1.00  0.00    -0.000 C 
BRANCH  17  18
ATOM     18  C   UNL     1     -15.953  57.484   0.836  1.00  0.00    -0.000 C 
BRANCH  18  19
ATOM     19  C   UNL     1     -15.187  58.670   0.232  1.00  0.00    -0.003 C 
ATOM     20  C   UNL     1     -14.094  59.157   1.181  1.00  0.00     0.004 C 
ENDBRANCH  18  19
ENDBRANCH  17  18
ENDBRANCH  16  17
ENDBRANCH  15  16
ENDBRANCH  14  15
ENDBRANCH  13  14
ENDBRANCH  12  13
ENDBRANCH   1  12
TORSDOF 16
ENDMDL
MODEL 5
REMARK VINA RESULT:    -5.305      2.706      4.721
REMARK INTER + INTRA:         -12.358
REMARK INTER:                 -10.058
REMARK INTRA:                  -2.300
REMARK UNBOUND:                -2.091
REMARK SMILES CCCCCCCCCCCCCCCCCC(=O)[O-]
REMARK SMILES IDX 10 1 11 2 12 3 13 4 14 5 15 6 16 7 17 8 18 9 19 10 20 11
REMARK SMILES IDX 9 12 8 13 7 14 6 15 5 16 4 17 3 18 2 19 1 20
REMARK H PARENT
REMARK Flexibility Score: inf
ROOT
ATOM      1  C   UNL     1     -19.932  52.963  -2.472  1.00  0.00     0.000 C 
ENDROOT
BRANCH   1   2
ATOM      2  C   UNL     1     -19.881  52.654  -0.969  1.00  0.00     0.000 C 
BRANCH   2   3
ATOM      3  C   UNL     1     -21.120  53.207  -0.253  1.00  0.00     0.000 C 
BRANCH   3   4
ATOM      4  C   UNL     1     -22.064  53.901  -1.242  1.00  0.00     0.000 C 
BRANCH   4   5
ATOM      5  C   UNL     1     -22.496  55.276  -0.718  1.00  0.00     0.000 C 
BRANCH   5   6
ATOM      6  C   UNL     1     -21.351  55.964   0.037  1.00  0.00     0.000 C 
BRANCH   6   7
ATOM      7  C   UNL     1     -21.840  57.014   1.051  1.00  0.00     0.006 C 
BRANCH   7   8
ATOM      8  C   UNL     1     -23.196  56.674   1.695  1.00  0.00     0.053 C 
BRANCH   8   9
ATOM      9  C   UNL     1     -24.282  57.625   1.293  1.00  0.00     0.041 C 
ATOM     10  O   UNL     1     -24.193  58.850   1.577  1.00  0.00    -0.550 OA
ATOM     11  O   UNL     1     -25.381  57.165   0.580  1.00  0.00    -0.550 OA
ENDBRANCH   8   9
ENDBRANCH   7   8
ENDBRANCH   6   7
ENDBRANCH   5   6
ENDBRANCH   4   5
ENDBRANCH   3   4
ENDBRANCH   2   3
ENDBRANCH   1   2
BRANCH   1  12
ATOM     12  C   UNL     1     -18.722  53.781  -2.953  1.00  0.00     0.000 C 
BRANCH  12  13
ATOM     13  C   UNL     1     -19.080  55.249  -3.240  1.00  0.00    -0.000 C 
BRANCH  13  14
ATOM     14  C   UNL     1     -18.480  56.215  -2.206  1.00  0.00    -0.000 C 
BRANCH  14  15
ATOM     15  C   UNL     1     -17.404  55.554  -1.331  1.00  0.00    -0.000 C 
BRANCH  15  16
ATOM     16  C   UNL     1     -17.729  55.721   0.160  1.00  0.00    -0.000 C 
BRANCH  16  17
ATOM     17  C   UNL     1     -17.809  57.206   0.542  1.00  0.00    -0.000 C 
BRANCH  17  18
ATOM     18  C   UNL     1     -16.536  57.707   1.242  1.00  0.00    -0.000 C 
BRANCH  18  19
ATOM     19  C   UNL     1     -15.526  58.321   0.262  1.00  0.00    -0.003 C 
ATOM     20  C   UNL     1     -14.426  59.073   1.007  1.00  0.00     0.004 C 
ENDBRANCH  18  19
ENDBRANCH  17  18
ENDBRANCH  16  17
ENDBRANCH  15  16
ENDBRANCH  14  15
ENDBRANCH  13  14
ENDBRANCH  12  13
ENDBRANCH   1  12
TORSDOF 16
ENDMDL
MODEL 6
REMARK VINA RESULT:    -5.294      2.485      4.534
REMARK INTER + INTRA:         -12.336
REMARK INTER:                 -10.263
REMARK INTRA:                  -2.073
REMARK UNBOUND:                -2.091
REMARK SMILES CCCCCCCCCCCCCCCCCC(=O)[O-]
REMARK SMILES IDX 10 1 11 2 12 3 13 4 14 5 15 6 16 7 17 8 18 9 19 10 20 11
REMARK SMILES IDX 9 12 8 13 7 14 6 15 5 16 4 17 3 18 2 19 1 20
REMARK H PARENT
REMARK Flexibility Score: inf
ROOT
ATOM      1  C   UNL     1     -18.019  53.925  -2.322  1.00  0.00     0.000 C 
ENDROOT
BRANCH   1   2
ATOM      2  C   UNL     1     -18.597  54.457  -3.643  1.00  0.00     0.000 C 
BRANCH   2   3
ATOM      3  C   UNL     1     -18.544  55.989  -3.687  1.00  0.00     0.000 C 
BRANCH   3   4
ATOM      4  C   UNL     1     -19.750  56.603  -2.966  1.00  0.00     0.000 C 
BRANCH   4   5
ATOM      5  C   UNL     1     -21.055  55.924  -3.398  1.00  0.00     0.000 C 
BRANCH   5   6
ATOM      6  C   UNL     1     -22.174  56.180  -2.378  1.00  0.00     0.000 C 
BRANCH   6   7
ATOM      7  C   UNL     1     -22.986  54.916  -2.042  1.00  0.00     0.006 C 
BRANCH   7   8
ATOM      8  C   UNL     1     -22.612  54.274  -0.695  1.00  0.00     0.053 C 
BRANCH   8   9
ATOM      9  C   UNL     1     -23.530  54.681   0.416  1.00  0.00     0.041 C 
ATOM     10  O   UNL     1     -24.209  55.738   0.326  1.00  0.00    -0.550 OA
ATOM     11  O   UNL     1     -23.659  53.878   1.542  1.00  0.00    -0.550 OA
ENDBRANCH   8   9
ENDBRANCH   7   8
ENDBRANCH   6   7
ENDBRANCH   5   6
ENDBRANCH   4   5
ENDBRANCH   3   4
ENDBRANCH   2   3
ENDBRANCH   1   2
BRANCH   1  12
ATOM     12  C   UNL     1     -19.075  53.228  -1.449  1.00  0.00     0.000 C 
BRANCH  12  13
ATOM     13  C   UNL     1     -19.241  53.900  -0.075  1.00  0.00    -0.000 C 
BRANCH  13  14
ATOM     14  C   UNL     1     -18.269  55.074   0.128  1.00  0.00    -0.000 C 
BRANCH  14  15
ATOM     15  C   UNL     1     -18.991  56.409   0.365  1.00  0.00    -0.000 C 
BRANCH  15  16
ATOM     16  C   UNL     1     -18.005  57.494   0.817  1.00  0.00    -0.000 C 
BRANCH  16  17
ATOM     17  C   UNL     1     -16.553  57.019   0.659  1.00  0.00    -0.000 C 
BRANCH  17  18
ATOM     18  C   UNL     1     -15.715  57.959  -0.222  1.00  0.00    -0.000 C 
BRANCH  18  19
ATOM     19  C   UNL     1     -15.300  59.242   0.513  1.00  0.00    -0.003 C 
ATOM     20  C   UNL     1     -14.012  59.029   1.304  1.00  0.00     0.004 C 
ENDBRANCH  18  19
ENDBRANCH  17  18
ENDBRANCH  16  17
ENDBRANCH  15  16
ENDBRANCH  14  15
ENDBRANCH  13  14
ENDBRANCH  12  13
ENDBRANCH   1  12
TORSDOF 16
ENDMDL
MODEL 7
REMARK VINA RESULT:    -5.272      2.601      6.321
REMARK INTER + INTRA:         -12.293
REMARK INTER:                  -9.224
REMARK INTRA:                  -3.069
REMARK UNBOUND:                -2.091
REMARK SMILES CCCCCCCCCCCCCCCCCC(=O)[O-]
REMARK SMILES IDX 10 1 11 2 12 3 13 4 14 5 15 6 16 7 17 8 18 9 19 10 20 11
REMARK SMILES IDX 9 12 8 13 7 14 6 15 5 16 4 17 3 18 2 19 1 20
REMARK H PARENT
REMARK Flexibility Score: inf
ROOT
ATOM      1  C   UNL     1     -17.261  56.627  -1.641  1.00  0.00     0.000 C 
ENDROOT
BRANCH   1   2
ATOM      2  C   UNL     1     -17.025  55.428  -0.711  1.00  0.00     0.000 C 
BRANCH   2   3
ATOM      3  C   UNL     1     -18.094  55.366   0.387  1.00  0.00     0.000 C 
BRANCH   3   4
ATOM      4  C   UNL     1     -18.877  56.682   0.469  1.00  0.00     0.000 C 
BRANCH   4   5
ATOM      5  C   UNL     1     -20.388  56.429   0.410  1.00  0.00     0.000 C 
BRANCH   5   6
ATOM      6  C   UNL     1     -21.149  57.418   1.304  1.00  0.00     0.000 C 
BRANCH   6   7
ATOM      7  C   UNL     1     -22.485  57.880   0.694  1.00  0.00     0.006 C 
BRANCH   7   8
ATOM      8  C   UNL     1     -22.689  57.440  -0.766  1.00  0.00     0.053 C 
BRANCH   8   9
ATOM      9  C   UNL     1     -24.113  57.088  -1.071  1.00  0.00     0.041 C 
ATOM     10  O   UNL     1     -24.388  56.339  -2.046  1.00  0.00    -0.550 OA
ATOM     11  O   UNL     1     -25.136  57.563  -0.261  1.00  0.00    -0.550 OA
ENDBRANCH   8   9
ENDBRANCH   7   8
ENDBRANCH   6   7
ENDBRANCH   5   6
ENDBRANCH   4   5
ENDBRANCH   3   4
ENDBRANCH   2   3
ENDBRANCH   1   2
BRANCH   1  12
ATOM     12  C   UNL     1     -17.006  56.293  -3.120  1.00  0.00     0.000 C 
BRANCH  12  13
ATOM     13  C   UNL     1     -18.255  55.731  -3.822  1.00  0.00    -0.000 C 
BRANCH  13  14
ATOM     14  C   UNL     1     -19.560  56.332  -3.273  1.00  0.00    -0.000 C 
BRANCH  14  15
ATOM     15  C   UNL     1     -20.607  55.262  -2.929  1.00  0.00    -0.000 C 
BRANCH  15  16
ATOM     16  C   UNL     1     -19.953  53.883  -2.772  1.00  0.00    -0.000 C 
BRANCH  16  17
ATOM     17  C   UNL     1     -20.508  53.148  -1.543  1.00  0.00    -0.000 C 
BRANCH  17  18
ATOM     18  C   UNL     1     -21.889  53.670  -1.115  1.00  0.00    -0.000 C 
BRANCH  18  19
ATOM     19  C   UNL     1     -22.238  53.298   0.333  1.00  0.00    -0.003 C 
ATOM     20  C   UNL     1     -23.359  54.184   0.872  1.00  0.00     0.004 C 
ENDBRANCH  18  19
ENDBRANCH  17  18
ENDBRANCH  16  17
ENDBRANCH  15  16
ENDBRANCH  14  15
ENDBRANCH  13  14
ENDBRANCH  12  13
ENDBRANCH   1  12
TORSDOF 16
ENDMDL
MODEL 8
REMARK VINA RESULT:    -5.206      2.767      5.117
REMARK INTER + INTRA:         -12.167
REMARK INTER:                  -9.864
REMARK INTRA:                  -2.303
REMARK UNBOUND:                -2.091
REMARK SMILES CCCCCCCCCCCCCCCCCC(=O)[O-]
REMARK SMILES IDX 10 1 11 2 12 3 13 4 14 5 15 6 16 7 17 8 18 9 19 10 20 11
REMARK SMILES IDX 9 12 8 13 7 14 6 15 5 16 4 17 3 18 2 19 1 20
REMARK H PARENT
REMARK Flexibility Score: inf
ROOT
ATOM      1  C   UNL     1     -20.122  52.649  -2.156  1.00  0.00     0.000 C 
ENDROOT
BRANCH   1   2
ATOM      2  C   UNL     1     -19.582  52.515  -0.724  1.00  0.00     0.000 C 
BRANCH   2   3
ATOM      3  C   UNL     1     -20.703  52.704   0.305  1.00  0.00     0.000 C 
BRANCH   3   4
ATOM      4  C   UNL     1     -21.972  53.254  -0.357  1.00  0.00     0.000 C 
BRANCH   4   5
ATOM      5  C   UNL     1     -22.301  54.658   0.163  1.00  0.00     0.000 C 
BRANCH   5   6
ATOM      6  C   UNL     1     -23.648  54.672   0.901  1.00  0.00     0.000 C 
BRANCH   6   7
ATOM      7  C   UNL     1     -24.516  55.893   0.550  1.00  0.00     0.006 C 
BRANCH   7   8
ATOM      8  C   UNL     1     -25.746  55.557  -0.312  1.00  0.00     0.053 C 
BRANCH   8   9
ATOM      9  C   UNL     1     -25.502  55.769  -1.776  1.00  0.00     0.041 C 
ATOM     10  O   UNL     1     -24.817  54.942  -2.433  1.00  0.00    -0.550 OA
ATOM     11  O   UNL     1     -26.057  56.867  -2.421  1.00  0.00    -0.550 OA
ENDBRANCH   8   9
ENDBRANCH   7   8
ENDBRANCH   6   7
ENDBRANCH   5   6
ENDBRANCH   4   5
ENDBRANCH   3   4
ENDBRANCH   2   3
ENDBRANCH   1   2
BRANCH   1  12
ATOM     12  C   UNL     1     -19.431  53.769  -2.950  1.00  0.00     0.000 C 
BRANCH  12  13
ATOM     13  C   UNL     1     -20.271  55.058  -3.005  1.00  0.00    -0.000 C 
BRANCH  13  14
ATOM     14  C   UNL     1     -19.418  56.306  -3.286  1.00  0.00    -0.000 C 
BRANCH  14  15
ATOM     15  C   UNL     1     -18.120  55.980  -4.040  1.00  0.00    -0.000 C 
BRANCH  15  16
ATOM     16  C   UNL     1     -16.900  56.129  -3.123  1.00  0.00    -0.000 C 
BRANCH  16  17
ATOM     17  C   UNL     1     -17.316  56.621  -1.729  1.00  0.00    -0.000 C 
BRANCH  17  18
ATOM     18  C   UNL     1     -16.914  55.645  -0.612  1.00  0.00    -0.000 C 
BRANCH  18  19
ATOM     19  C   UNL     1     -18.026  55.443   0.426  1.00  0.00    -0.003 C 
ATOM     20  C   UNL     1     -19.030  56.594   0.386  1.00  0.00     0.004 C 
ENDBRANCH  18  19
ENDBRANCH  17  18
ENDBRANCH  16  17
ENDBRANCH  15  16
ENDBRANCH  14  15
ENDBRANCH  13  14
ENDBRANCH  12  13
ENDBRANCH   1  12
TORSDOF 16
ENDMDL
MODEL 9
REMARK VINA RESULT:    -5.120      2.860      4.993
REMARK INTER + INTRA:         -12.001
REMARK INTER:                  -9.642
REMARK INTRA:                  -2.359
REMARK UNBOUND:                -2.091
REMARK SMILES CCCCCCCCCCCCCCCCCC(=O)[O-]
REMARK SMILES IDX 10 1 11 2 12 3 13 4 14 5 15 6 16 7 17 8 18 9 19 10 20 11
REMARK SMILES IDX 9 12 8 13 7 14 6 15 5 16 4 17 3 18 2 19 1 20
REMARK H PARENT
REMARK Flexibility Score: inf
ROOT
ATOM      1  C   UNL     1     -19.988  52.569  -1.495  1.00  0.00     0.000 C 
ENDROOT
BRANCH   1   2
ATOM      2  C   UNL     1     -20.421  53.503  -0.354  1.00  0.00     0.000 C 
BRANCH   2   3
ATOM      3  C   UNL     1     -21.902  53.876  -0.483  1.00  0.00     0.000 C 
BRANCH   3   4
ATOM      4  C   UNL     1     -22.085  55.398  -0.533  1.00  0.00     0.000 C 
BRANCH   4   5
ATOM      5  C   UNL     1     -22.509  55.857  -1.933  1.00  0.00     0.000 C 
BRANCH   5   6
ATOM      6  C   UNL     1     -23.696  55.030  -2.449  1.00  0.00     0.000 C 
BRANCH   6   7
ATOM      7  C   UNL     1     -25.042  55.767  -2.330  1.00  0.00     0.006 C 
BRANCH   7   8
ATOM      8  C   UNL     1     -26.023  55.119  -1.337  1.00  0.00     0.053 C 
BRANCH   8   9
ATOM      9  C   UNL     1     -25.655  55.377   0.093  1.00  0.00     0.041 C 
ATOM     10  O   UNL     1     -25.633  54.432   0.925  1.00  0.00    -0.550 OA
ATOM     11  O   UNL     1     -25.309  56.659   0.501  1.00  0.00    -0.550 OA
ENDBRANCH   8   9
ENDBRANCH   7   8
ENDBRANCH   6   7
ENDBRANCH   5   6
ENDBRANCH   4   5
ENDBRANCH   3   4
ENDBRANCH   2   3
ENDBRANCH   1   2
BRANCH   1  12
ATOM     12  C   UNL     1     -19.989  53.264  -2.866  1.00  0.00     0.000 C 
BRANCH  12  13
ATOM     13  C   UNL     1     -18.702  54.066  -3.122  1.00  0.00    -0.000 C 
BRANCH  13  14
ATOM     14  C   UNL     1     -18.955  55.582  -3.185  1.00  0.00    -0.000 C 
BRANCH  14  15
ATOM     15  C   UNL     1     -18.180  56.358  -2.110  1.00  0.00    -0.000 C 
BRANCH  15  16
ATOM     16  C   UNL     1     -17.382  55.404  -1.211  1.00  0.00    -0.000 C 
BRANCH  16  17
ATOM     17  C   UNL     1     -17.524  55.795   0.268  1.00  0.00    -0.000 C 
BRANCH  17  18
ATOM     18  C   UNL     1     -17.505  57.316   0.483  1.00  0.00    -0.000 C 
BRANCH  18  19
ATOM     19  C   UNL     1     -16.267  57.788   1.259  1.00  0.00    -0.003 C 
ATOM     20  C   UNL     1     -15.503  58.854   0.477  1.00  0.00     0.004 C 
ENDBRANCH  18  19
ENDBRANCH  17  18
ENDBRANCH  16  17
ENDBRANCH  15  16
ENDBRANCH  14  15
ENDBRANCH  13  14
ENDBRANCH  12  13
ENDBRANCH   1  12
TORSDOF 16
ENDMDL
