MODEL 1
REMARK VINA RESULT:     4.707      0.000      0.000
REMARK INTER + INTRA:           6.079
REMARK INTER:                   5.670
REMARK INTRA:                   0.409
REMARK UNBOUND:                 0.409
REMARK SMILES O=c1c(O)c(-c2ccc(O)c(O)c2)oc2cc(O)cc(O)c12
REMARK SMILES IDX 5 1 3 2 2 3 1 4 22 5 20 6 19 7 17 8 16 9 15 10 14 11 6 12
REMARK SMILES IDX 7 13 8 14 9 15 13 16 11 17 10 18 12 20 4 22 21 24 18 26
REMARK H PARENT 10 19 12 21 4 23 21 25 18 27
REMARK Flexibility Score: inf
ROOT
ATOM      1  C   UNL     1      -1.241  31.556   8.852  1.00  0.00     0.180 A 
ATOM      2  C   UNL     1       0.021  31.800   8.282  1.00  0.00     0.208 A 
ATOM      3  C   UNL     1       0.173  31.688   6.890  1.00  0.00     0.238 A 
ATOM      4  O   UNL     1       1.317  31.855   6.391  1.00  0.00    -0.285 OA
ATOM      5  C   UNL     1      -0.941  31.349   6.085  1.00  0.00     0.111 A 
ATOM      6  C   UNL     1      -0.911  31.246   4.662  1.00  0.00     0.134 A 
ATOM      7  C   UNL     1      -2.040  30.776   3.980  1.00  0.00     0.093 A 
ATOM      8  C   UNL     1      -3.216  30.467   4.660  1.00  0.00     0.123 A 
ATOM      9  C   UNL     1      -3.275  30.620   6.046  1.00  0.00     0.094 A 
ATOM     10  C   UNL     1      -2.155  31.053   6.759  1.00  0.00     0.146 A 
ATOM     11  O   UNL     1      -2.250  31.175   8.077  1.00  0.00    -0.452 OA
ENDROOT
BRANCH   1  12
ATOM     12  C   UNL     1      -1.485  31.678  10.307  1.00  0.00     0.025 A 
ATOM     13  C   UNL     1      -0.423  31.696  11.229  1.00  0.00     0.016 A 
ATOM     14  C   UNL     1      -0.676  31.837  12.596  1.00  0.00     0.051 A 
ATOM     15  C   UNL     1      -1.990  31.976  13.061  1.00  0.00     0.157 A 
ATOM     16  C   UNL     1      -2.798  31.838  10.777  1.00  0.00     0.062 A 
ATOM     17  C   UNL     1      -3.056  31.979  12.145  1.00  0.00     0.158 A 
BRANCH  15  18
ATOM     18  O   UNL     1      -2.239  32.114  14.426  1.00  0.00    -0.504 OA
ATOM     19  H   UNL     1      -2.738  31.405  14.948  1.00  0.00     0.293 HD
ENDBRANCH  15  18
BRANCH  17  20
ATOM     20  O   UNL     1      -4.374  32.123  12.575  1.00  0.00    -0.504 OA
ATOM     21  H   UNL     1      -4.975  32.864  12.234  1.00  0.00     0.293 HD
ENDBRANCH  17  20
ENDBRANCH   1  12
BRANCH   2  22
ATOM     22  O   UNL     1       1.113  32.113   9.097  1.00  0.00    -0.502 OA
ATOM     23  H   UNL     1       1.934  31.524   9.156  1.00  0.00     0.293 HD
ENDBRANCH   2  22
BRANCH   6  24
ATOM     24  O   UNL     1       0.184  31.617   3.875  1.00  0.00    -0.507 OA
ATOM     25  H   UNL     1       1.126  31.728   4.219  1.00  0.00     0.293 HD
ENDBRANCH   6  24
BRANCH   8  26
ATOM     26  O   UNL     1      -4.325  30.016   3.948  1.00  0.00    -0.508 OA
ATOM     27  H   UNL     1      -5.104  29.562   4.409  1.00  0.00     0.293 HD
ENDBRANCH   8  26
TORSDOF 6
ENDMDL
MODEL 2
REMARK VINA RESULT:     6.100     22.976     25.244
REMARK INTER + INTRA:           7.756
REMARK INTER:                   7.295
REMARK INTRA:                   0.461
REMARK UNBOUND:                 0.409
REMARK SMILES O=c1c(O)c(-c2ccc(O)c(O)c2)oc2cc(O)cc(O)c12
REMARK SMILES IDX 5 1 3 2 2 3 1 4 22 5 20 6 19 7 17 8 16 9 15 10 14 11 6 12
REMARK SMILES IDX 7 13 8 14 9 15 13 16 11 17 10 18 12 20 4 22 21 24 18 26
REMARK H PARENT 10 19 12 21 4 23 21 25 18 27
REMARK Flexibility Score: inf
ROOT
ATOM      1  C   UNL     1      10.647  13.629  19.946  1.00  0.00     0.180 A 
ATOM      2  C   UNL     1      10.825  12.985  21.183  1.00  0.00     0.208 A 
ATOM      3  C   UNL     1      11.836  13.436  22.047  1.00  0.00     0.238 A 
ATOM      4  O   UNL     1      12.026  12.821  23.129  1.00  0.00    -0.285 OA
ATOM      5  C   UNL     1      12.646  14.534  21.670  1.00  0.00     0.111 A 
ATOM      6  C   UNL     1      13.674  15.100  22.484  1.00  0.00     0.134 A 
ATOM      7  C   UNL     1      14.499  16.100  21.956  1.00  0.00     0.093 A 
ATOM      8  C   UNL     1      14.294  16.601  20.672  1.00  0.00     0.123 A 
ATOM      9  C   UNL     1      13.255  16.096  19.889  1.00  0.00     0.094 A 
ATOM     10  C   UNL     1      12.437  15.072  20.374  1.00  0.00     0.146 A 
ATOM     11  O   UNL     1      11.466  14.613  19.593  1.00  0.00    -0.452 OA
ENDROOT
BRANCH   1  12
ATOM     12  C   UNL     1       9.587  13.227  18.994  1.00  0.00     0.025 A 
ATOM     13  C   UNL     1       8.658  12.221  19.314  1.00  0.00     0.016 A 
ATOM     14  C   UNL     1       7.651  11.875  18.409  1.00  0.00     0.051 A 
ATOM     15  C   UNL     1       7.548  12.537  17.178  1.00  0.00     0.157 A 
ATOM     16  C   UNL     1       9.467  13.901  17.768  1.00  0.00     0.062 A 
ATOM     17  C   UNL     1       8.460  13.557  16.859  1.00  0.00     0.158 A 
BRANCH  15  18
ATOM     18  O   UNL     1       6.544  12.188  16.277  1.00  0.00    -0.504 OA
ATOM     19  H   UNL     1       6.692  12.230  15.276  1.00  0.00     0.293 HD
ENDBRANCH  15  18
BRANCH  17  20
ATOM     20  O   UNL     1       8.381  14.240  15.646  1.00  0.00    -0.504 OA
ATOM     21  H   UNL     1       9.047  14.958  15.386  1.00  0.00     0.293 HD
ENDBRANCH  17  20
ENDBRANCH   1  12
BRANCH   2  22
ATOM     22  O   UNL     1      10.028  11.889  21.527  1.00  0.00    -0.502 OA
ATOM     23  H   UNL     1       9.705  11.215  20.843  1.00  0.00     0.293 HD
ENDBRANCH   2  22
BRANCH   6  24
ATOM     24  O   UNL     1      13.905  14.737  23.814  1.00  0.00    -0.507 OA
ATOM     25  H   UNL     1      13.449  13.971  24.287  1.00  0.00     0.293 HD
ENDBRANCH   6  24
BRANCH   8  26
ATOM     26  O   UNL     1      15.125  17.607  20.184  1.00  0.00    -0.508 OA
ATOM     27  H   UNL     1      15.547  18.292  20.800  1.00  0.00     0.293 HD
ENDBRANCH   8  26
TORSDOF 6
ENDMDL
