MODEL 1
REMARK VINA RESULT:    -4.134      0.000      0.000
REMARK INTER + INTRA:         -15.974
REMARK INTER:                 -10.900
REMARK INTRA:                  -5.074
REMARK UNBOUND:                -5.074
REMARK SMILES CCCCCCCCCCCCCCCCCCCCCCCCCCCCCC(=O)[O-]
REMARK SMILES IDX 16 1 17 2 18 3 19 4 20 5 21 6 22 7 23 8 24 9 25 10 26 11
REMARK SMILES IDX 27 12 28 13 29 14 30 15 31 16 32 17 15 18 14 19 13 20 12 21
REMARK SMILES IDX 11 22 10 23 9 24 8 25 7 26 6 27 5 28 4 29 3 30 2 31 1 32
REMARK H PARENT
REMARK Flexibility Score: inf
ROOT
ATOM      1  C   UNL     1      30.352 -43.777  -2.549  1.00  0.00     0.000 C 
ENDROOT
BRANCH   1   2
ATOM      2  C   UNL     1      30.352 -43.197  -1.125  1.00  0.00     0.000 C 
BRANCH   2   3
ATOM      3  C   UNL     1      31.636 -43.523  -0.344  1.00  0.00     0.000 C 
BRANCH   3   4
ATOM      4  C   UNL     1      32.522 -44.585  -1.026  1.00  0.00     0.000 C 
BRANCH   4   5
ATOM      5  C   UNL     1      33.916 -44.040  -1.386  1.00  0.00     0.000 C 
BRANCH   5   6
ATOM      6  C   UNL     1      34.321 -42.838  -0.519  1.00  0.00     0.000 C 
BRANCH   6   7
ATOM      7  C   UNL     1      35.733 -42.984   0.070  1.00  0.00     0.000 C 
BRANCH   7   8
ATOM      8  C   UNL     1      35.705 -42.858   1.598  1.00  0.00     0.000 C 
BRANCH   8   9
ATOM      9  C   UNL     1      34.468 -43.555   2.184  1.00  0.00     0.000 C 
BRANCH   9  10
ATOM     10  C   UNL     1      34.795 -44.932   2.783  1.00  0.00     0.000 C 
BRANCH  10  11
ATOM     11  C   UNL     1      34.189 -46.090   1.973  1.00  0.00     0.000 C 
BRANCH  11  12
ATOM     12  C   UNL     1      35.142 -46.625   0.893  1.00  0.00     0.000 C 
BRANCH  12  13
ATOM     13  C   UNL     1      34.500 -47.688  -0.024  1.00  0.00     0.006 C 
BRANCH  13  14
ATOM     14  C   UNL     1      33.128 -48.143   0.494  1.00  0.00     0.053 C 
BRANCH  14  15
ATOM     15  C   UNL     1      33.189 -49.555   0.988  1.00  0.00     0.041 C 
ATOM     16  O   UNL     1      34.191 -49.958   1.636  1.00  0.00    -0.550 OA
ATOM     17  O   UNL     1      32.139 -50.430   0.729  1.00  0.00    -0.550 OA
ENDBRANCH  14  15
ENDBRANCH  13  14
ENDBRANCH  12  13
ENDBRANCH  11  12
ENDBRANCH  10  11
ENDBRANCH   9  10
ENDBRANCH   8   9
ENDBRANCH   7   8
ENDBRANCH   6   7
ENDBRANCH   5   6
ENDBRANCH   4   5
ENDBRANCH   3   4
ENDBRANCH   2   3
ENDBRANCH   1   2
BRANCH   1  18
ATOM     18  C   UNL     1      29.124 -43.319  -3.365  1.00  0.00     0.000 C 
BRANCH  18  19
ATOM     19  C   UNL     1      29.447 -42.986  -4.832  1.00  0.00     0.000 C 
BRANCH  19  20
ATOM     20  C   UNL     1      30.270 -41.697  -4.981  1.00  0.00     0.000 C 
BRANCH  20  21
ATOM     21  C   UNL     1      31.419 -41.828  -5.998  1.00  0.00     0.000 C 
BRANCH  21  22
ATOM     22  C   UNL     1      32.837 -41.838  -5.393  1.00  0.00     0.000 C 
BRANCH  22  23
ATOM     23  C   UNL     1      33.307 -43.203  -4.849  1.00  0.00     0.000 C 
BRANCH  23  24
ATOM     24  C   UNL     1      32.959 -44.414  -5.738  1.00  0.00    -0.000 C 
BRANCH  24  25
ATOM     25  C   UNL     1      32.172 -45.531  -5.031  1.00  0.00    -0.000 C 
BRANCH  25  26
ATOM     26  C   UNL     1      33.065 -46.420  -4.149  1.00  0.00    -0.000 C 
BRANCH  26  27
ATOM     27  C   UNL     1      32.257 -47.370  -3.249  1.00  0.00    -0.000 C 
BRANCH  27  28
ATOM     28  C   UNL     1      32.791 -48.815  -3.175  1.00  0.00    -0.000 C 
BRANCH  28  29
ATOM     29  C   UNL     1      33.982 -49.088  -4.120  1.00  0.00    -0.000 C 
BRANCH  29  30
ATOM     30  C   UNL     1      34.167 -50.586  -4.403  1.00  0.00    -0.000 C 
BRANCH  30  31
ATOM     31  C   UNL     1      35.636 -50.999  -4.252  1.00  0.00    -0.003 C 
ATOM     32  C   UNL     1      36.542 -50.144  -5.134  1.00  0.00     0.004 C 
ENDBRANCH  30  31
ENDBRANCH  29  30
ENDBRANCH  28  29
ENDBRANCH  27  28
ENDBRANCH  26  27
ENDBRANCH  25  26
ENDBRANCH  24  25
ENDBRANCH  23  24
ENDBRANCH  22  23
ENDBRANCH  21  22
ENDBRANCH  20  21
ENDBRANCH  19  20
ENDBRANCH  18  19
ENDBRANCH   1  18
TORSDOF 28
ENDMDL
MODEL 2
REMARK VINA RESULT:    -4.074      1.878      6.044
REMARK INTER + INTRA:         -15.816
REMARK INTER:                 -10.310
REMARK INTRA:                  -5.506
REMARK UNBOUND:                -5.074
REMARK SMILES CCCCCCCCCCCCCCCCCCCCCCCCCCCCCC(=O)[O-]
REMARK SMILES IDX 16 1 17 2 18 3 19 4 20 5 21 6 22 7 23 8 24 9 25 10 26 11
REMARK SMILES IDX 27 12 28 13 29 14 30 15 31 16 32 17 15 18 14 19 13 20 12 21
REMARK SMILES IDX 11 22 10 23 9 24 8 25 7 26 6 27 5 28 4 29 3 30 2 31 1 32
REMARK H PARENT
REMARK Flexibility Score: inf
ROOT
ATOM      1  C   UNL     1      29.524 -44.504  -2.869  1.00  0.00     0.000 C 
ENDROOT
BRANCH   1   2
ATOM      2  C   UNL     1      29.492 -44.917  -4.350  1.00  0.00     0.000 C 
BRANCH   2   3
ATOM      3  C   UNL     1      28.638 -43.976  -5.217  1.00  0.00     0.000 C 
BRANCH   3   4
ATOM      4  C   UNL     1      28.539 -42.542  -4.661  1.00  0.00     0.000 C 
BRANCH   4   5
ATOM      5  C   UNL     1      29.622 -41.614  -5.242  1.00  0.00     0.000 C 
BRANCH   5   6
ATOM      6  C   UNL     1      30.081 -42.048  -6.642  1.00  0.00     0.000 C 
BRANCH   6   7
ATOM      7  C   UNL     1      31.597 -42.285  -6.719  1.00  0.00     0.000 C 
BRANCH   7   8
ATOM      8  C   UNL     1      32.265 -42.001  -5.368  1.00  0.00     0.000 C 
BRANCH   8   9
ATOM      9  C   UNL     1      33.197 -43.152  -4.962  1.00  0.00     0.000 C 
BRANCH   9  10
ATOM     10  C   UNL     1      33.037 -44.387  -5.863  1.00  0.00     0.000 C 
BRANCH  10  11
ATOM     11  C   UNL     1      33.008 -45.702  -5.067  1.00  0.00     0.000 C 
BRANCH  11  12
ATOM     12  C   UNL     1      33.964 -45.691  -3.863  1.00  0.00     0.000 C 
BRANCH  12  13
ATOM     13  C   UNL     1      33.644 -46.777  -2.813  1.00  0.00     0.006 C 
BRANCH  13  14
ATOM     14  C   UNL     1      32.400 -47.593  -3.189  1.00  0.00     0.053 C 
BRANCH  14  15
ATOM     15  C   UNL     1      32.727 -49.052  -3.272  1.00  0.00     0.041 C 
ATOM     16  O   UNL     1      33.918 -49.427  -3.435  1.00  0.00    -0.550 OA
ATOM     17  O   UNL     1      31.714 -50.000  -3.173  1.00  0.00    -0.550 OA
ENDBRANCH  14  15
ENDBRANCH  13  14
ENDBRANCH  12  13
ENDBRANCH  11  12
ENDBRANCH  10  11
ENDBRANCH   9  10
ENDBRANCH   8   9
ENDBRANCH   7   8
ENDBRANCH   6   7
ENDBRANCH   5   6
ENDBRANCH   4   5
ENDBRANCH   3   4
ENDBRANCH   2   3
ENDBRANCH   1   2
BRANCH   1  18
ATOM     18  C   UNL     1      30.960 -44.242  -2.368  1.00  0.00     0.000 C 
BRANCH  18  19
ATOM     19  C   UNL     1      31.018 -43.568  -0.986  1.00  0.00     0.000 C 
BRANCH  19  20
ATOM     20  C   UNL     1      32.446 -43.483  -0.425  1.00  0.00     0.000 C 
BRANCH  20  21
ATOM     21  C   UNL     1      32.927 -44.804   0.204  1.00  0.00     0.000 C 
BRANCH  21  22
ATOM     22  C   UNL     1      32.829 -44.877   1.741  1.00  0.00     0.000 C 
BRANCH  22  23
ATOM     23  C   UNL     1      34.157 -44.654   2.492  1.00  0.00     0.000 C 
BRANCH  23  24
ATOM     24  C   UNL     1      35.194 -43.793   1.742  1.00  0.00    -0.000 C 
BRANCH  24  25
ATOM     25  C   UNL     1      36.630 -44.345   1.761  1.00  0.00    -0.000 C 
BRANCH  25  26
ATOM     26  C   UNL     1      37.140 -44.723   0.361  1.00  0.00    -0.000 C 
BRANCH  26  27
ATOM     27  C   UNL     1      36.197 -45.689  -0.376  1.00  0.00    -0.000 C 
BRANCH  27  28
ATOM     28  C   UNL     1      36.492 -47.187  -0.159  1.00  0.00    -0.000 C 
BRANCH  28  29
ATOM     29  C   UNL     1      35.544 -47.869   0.851  1.00  0.00    -0.000 C 
BRANCH  29  30
ATOM     30  C   UNL     1      34.725 -48.998   0.208  1.00  0.00    -0.000 C 
BRANCH  30  31
ATOM     31  C   UNL     1      33.221 -48.766   0.397  1.00  0.00    -0.003 C 
ATOM     32  C   UNL     1      32.531 -50.023   0.917  1.00  0.00     0.004 C 
ENDBRANCH  30  31
ENDBRANCH  29  30
ENDBRANCH  28  29
ENDBRANCH  27  28
ENDBRANCH  26  27
ENDBRANCH  25  26
ENDBRANCH  24  25
ENDBRANCH  23  24
ENDBRANCH  22  23
ENDBRANCH  21  22
ENDBRANCH  20  21
ENDBRANCH  19  20
ENDBRANCH  18  19
ENDBRANCH   1  18
TORSDOF 28
ENDMDL
MODEL 3
REMARK VINA RESULT:    -4.056      1.785      4.273
REMARK INTER + INTRA:         -15.769
REMARK INTER:                 -10.327
REMARK INTRA:                  -5.441
REMARK UNBOUND:                -5.074
REMARK SMILES CCCCCCCCCCCCCCCCCCCCCCCCCCCCCC(=O)[O-]
REMARK SMILES IDX 16 1 17 2 18 3 19 4 20 5 21 6 22 7 23 8 24 9 25 10 26 11
REMARK SMILES IDX 27 12 28 13 29 14 30 15 31 16 32 17 15 18 14 19 13 20 12 21
REMARK SMILES IDX 11 22 10 23 9 24 8 25 7 26 6 27 5 28 4 29 3 30 2 31 1 32
REMARK H PARENT
REMARK Flexibility Score: inf
ROOT
ATOM      1  C   UNL     1      30.140 -43.431  -1.905  1.00  0.00     0.000 C 
ENDROOT
BRANCH   1   2
ATOM      2  C   UNL     1      30.612 -43.116  -0.476  1.00  0.00     0.000 C 
BRANCH   2   3
ATOM      3  C   UNL     1      31.958 -43.774  -0.129  1.00  0.00     0.000 C 
BRANCH   3   4
ATOM      4  C   UNL     1      32.719 -44.311  -1.358  1.00  0.00     0.000 C 
BRANCH   4   5
ATOM      5  C   UNL     1      34.238 -44.086  -1.249  1.00  0.00     0.000 C 
BRANCH   5   6
ATOM      6  C   UNL     1      34.590 -42.795  -0.493  1.00  0.00     0.000 C 
BRANCH   6   7
ATOM      7  C   UNL     1      35.416 -43.060   0.775  1.00  0.00     0.000 C 
BRANCH   7   8
ATOM      8  C   UNL     1      35.740 -44.553   0.916  1.00  0.00     0.000 C 
BRANCH   8   9
ATOM      9  C   UNL     1      35.244 -45.098   2.263  1.00  0.00     0.000 C 
BRANCH   9  10
ATOM     10  C   UNL     1      33.873 -45.784   2.155  1.00  0.00     0.000 C 
BRANCH  10  11
ATOM     11  C   UNL     1      33.975 -47.236   1.659  1.00  0.00     0.000 C 
BRANCH  11  12
ATOM     12  C   UNL     1      33.192 -47.479   0.359  1.00  0.00     0.000 C 
BRANCH  12  13
ATOM     13  C   UNL     1      33.815 -48.567  -0.541  1.00  0.00     0.006 C 
BRANCH  13  14
ATOM     14  C   UNL     1      34.058 -48.063  -1.970  1.00  0.00     0.053 C 
BRANCH  14  15
ATOM     15  C   UNL     1      33.345 -48.925  -2.966  1.00  0.00     0.041 C 
ATOM     16  O   UNL     1      32.223 -49.423  -2.686  1.00  0.00    -0.550 OA
ATOM     17  O   UNL     1      33.924 -49.183  -4.205  1.00  0.00    -0.550 OA
ENDBRANCH  14  15
ENDBRANCH  13  14
ENDBRANCH  12  13
ENDBRANCH  11  12
ENDBRANCH  10  11
ENDBRANCH   9  10
ENDBRANCH   8   9
ENDBRANCH   7   8
ENDBRANCH   6   7
ENDBRANCH   5   6
ENDBRANCH   4   5
ENDBRANCH   3   4
ENDBRANCH   2   3
ENDBRANCH   1   2
BRANCH   1  18
ATOM     18  C   UNL     1      28.688 -42.969  -2.155  1.00  0.00     0.000 C 
BRANCH  18  19
ATOM     19  C   UNL     1      27.868 -43.950  -3.012  1.00  0.00     0.000 C 
BRANCH  19  20
ATOM     20  C   UNL     1      28.749 -44.867  -3.873  1.00  0.00     0.000 C 
BRANCH  20  21
ATOM     21  C   UNL     1      28.358 -44.856  -5.362  1.00  0.00     0.000 C 
BRANCH  21  22
ATOM     22  C   UNL     1      27.287 -43.819  -5.756  1.00  0.00     0.000 C 
BRANCH  22  23
ATOM     23  C   UNL     1      27.536 -43.096  -7.094  1.00  0.00     0.000 C 
BRANCH  23  24
ATOM     24  C   UNL     1      28.052 -41.649  -6.967  1.00  0.00    -0.000 C 
BRANCH  24  25
ATOM     25  C   UNL     1      28.329 -41.183  -5.526  1.00  0.00    -0.000 C 
BRANCH  25  26
ATOM     26  C   UNL     1      29.829 -41.166  -5.186  1.00  0.00    -0.000 C 
BRANCH  26  27
ATOM     27  C   UNL     1      30.723 -41.372  -6.420  1.00  0.00    -0.000 C 
BRANCH  27  28
ATOM     28  C   UNL     1      31.581 -42.654  -6.402  1.00  0.00    -0.000 C 
BRANCH  28  29
ATOM     29  C   UNL     1      31.936 -43.146  -4.982  1.00  0.00    -0.000 C 
BRANCH  29  30
ATOM     30  C   UNL     1      33.452 -43.209  -4.750  1.00  0.00    -0.000 C 
BRANCH  30  31
ATOM     31  C   UNL     1      34.008 -44.592  -5.108  1.00  0.00    -0.003 C 
ATOM     32  C   UNL     1      32.992 -45.689  -4.805  1.00  0.00     0.004 C 
ENDBRANCH  30  31
ENDBRANCH  29  30
ENDBRANCH  28  29
ENDBRANCH  27  28
ENDBRANCH  26  27
ENDBRANCH  25  26
ENDBRANCH  24  25
ENDBRANCH  23  24
ENDBRANCH  22  23
ENDBRANCH  21  22
ENDBRANCH  20  21
ENDBRANCH  19  20
ENDBRANCH  18  19
ENDBRANCH   1  18
TORSDOF 28
ENDMDL
MODEL 4
REMARK VINA RESULT:    -4.028      1.960      4.372
REMARK INTER + INTRA:         -15.695
REMARK INTER:                 -10.653
REMARK INTRA:                  -5.043
REMARK UNBOUND:                -5.074
REMARK SMILES CCCCCCCCCCCCCCCCCCCCCCCCCCCCCC(=O)[O-]
REMARK SMILES IDX 16 1 17 2 18 3 19 4 20 5 21 6 22 7 23 8 24 9 25 10 26 11
REMARK SMILES IDX 27 12 28 13 29 14 30 15 31 16 32 17 15 18 14 19 13 20 12 21
REMARK SMILES IDX 11 22 10 23 9 24 8 25 7 26 6 27 5 28 4 29 3 30 2 31 1 32
REMARK H PARENT
REMARK Flexibility Score: inf
ROOT
ATOM      1  C   UNL     1      30.449 -43.536  -1.866  1.00  0.00     0.000 C 
ENDROOT
BRANCH   1   2
ATOM      2  C   UNL     1      31.036 -43.379  -0.454  1.00  0.00     0.000 C 
BRANCH   2   3
ATOM      3  C   UNL     1      32.492 -43.864  -0.351  1.00  0.00     0.000 C 
BRANCH   3   4
ATOM      4  C   UNL     1      32.776 -44.708   0.907  1.00  0.00     0.000 C 
BRANCH   4   5
ATOM      5  C   UNL     1      34.239 -44.592   1.371  1.00  0.00     0.000 C 
BRANCH   5   6
ATOM      6  C   UNL     1      34.463 -45.189   2.769  1.00  0.00     0.000 C 
BRANCH   6   7
ATOM      7  C   UNL     1      35.470 -46.349   2.762  1.00  0.00     0.000 C 
BRANCH   7   8
ATOM      8  C   UNL     1      34.748 -47.701   2.822  1.00  0.00     0.000 C 
BRANCH   8   9
ATOM      9  C   UNL     1      35.297 -48.664   1.759  1.00  0.00     0.000 C 
BRANCH   9  10
ATOM     10  C   UNL     1      34.199 -49.529   1.122  1.00  0.00     0.000 C 
BRANCH  10  11
ATOM     11  C   UNL     1      33.222 -48.709   0.264  1.00  0.00     0.000 C 
BRANCH  11  12
ATOM     12  C   UNL     1      33.932 -47.877  -0.816  1.00  0.00     0.000 C 
BRANCH  12  13
ATOM     13  C   UNL     1      33.029 -47.532  -2.020  1.00  0.00     0.006 C 
BRANCH  13  14
ATOM     14  C   UNL     1      33.575 -48.107  -3.334  1.00  0.00     0.053 C 
BRANCH  14  15
ATOM     15  C   UNL     1      32.976 -49.450  -3.616  1.00  0.00     0.041 C 
ATOM     16  O   UNL     1      31.840 -49.746  -3.159  1.00  0.00    -0.550 OA
ATOM     17  O   UNL     1      33.674 -50.378  -4.381  1.00  0.00    -0.550 OA
ENDBRANCH  14  15
ENDBRANCH  13  14
ENDBRANCH  12  13
ENDBRANCH  11  12
ENDBRANCH  10  11
ENDBRANCH   9  10
ENDBRANCH   8   9
ENDBRANCH   7   8
ENDBRANCH   6   7
ENDBRANCH   5   6
ENDBRANCH   4   5
ENDBRANCH   3   4
ENDBRANCH   2   3
ENDBRANCH   1   2
BRANCH   1  18
ATOM     18  C   UNL     1      31.022 -44.765  -2.603  1.00  0.00     0.000 C 
BRANCH  18  19
ATOM     19  C   UNL     1      30.130 -45.267  -3.752  1.00  0.00     0.000 C 
BRANCH  19  20
ATOM     20  C   UNL     1      28.760 -44.572  -3.788  1.00  0.00     0.000 C 
BRANCH  20  21
ATOM     21  C   UNL     1      27.873 -45.045  -4.954  1.00  0.00     0.000 C 
BRANCH  21  22
ATOM     22  C   UNL     1      27.490 -43.956  -5.976  1.00  0.00     0.000 C 
BRANCH  22  23
ATOM     23  C   UNL     1      28.312 -42.655  -5.885  1.00  0.00     0.000 C 
BRANCH  23  24
ATOM     24  C   UNL     1      29.079 -42.278  -7.168  1.00  0.00    -0.000 C 
BRANCH  24  25
ATOM     25  C   UNL     1      30.564 -41.933  -6.958  1.00  0.00    -0.000 C 
BRANCH  25  26
ATOM     26  C   UNL     1      31.028 -42.162  -5.510  1.00  0.00    -0.000 C 
BRANCH  26  27
ATOM     27  C   UNL     1      32.502 -42.592  -5.416  1.00  0.00    -0.000 C 
BRANCH  27  28
ATOM     28  C   UNL     1      32.845 -43.914  -6.134  1.00  0.00    -0.000 C 
BRANCH  28  29
ATOM     29  C   UNL     1      33.564 -44.942  -5.235  1.00  0.00    -0.000 C 
BRANCH  29  30
ATOM     30  C   UNL     1      34.824 -44.361  -4.577  1.00  0.00    -0.000 C 
BRANCH  30  31
ATOM     31  C   UNL     1      34.741 -44.450  -3.049  1.00  0.00    -0.003 C 
ATOM     32  C   UNL     1      35.965 -45.154  -2.471  1.00  0.00     0.004 C 
ENDBRANCH  30  31
ENDBRANCH  29  30
ENDBRANCH  28  29
ENDBRANCH  27  28
ENDBRANCH  26  27
ENDBRANCH  25  26
ENDBRANCH  24  25
ENDBRANCH  23  24
ENDBRANCH  22  23
ENDBRANCH  21  22
ENDBRANCH  20  21
ENDBRANCH  19  20
ENDBRANCH  18  19
ENDBRANCH   1  18
TORSDOF 28
ENDMDL
MODEL 5
REMARK VINA RESULT:    -4.008      2.357      6.437
REMARK INTER + INTRA:         -15.643
REMARK INTER:                  -9.557
REMARK INTRA:                  -6.085
REMARK UNBOUND:                -5.074
REMARK SMILES CCCCCCCCCCCCCCCCCCCCCCCCCCCCCC(=O)[O-]
REMARK SMILES IDX 16 1 17 2 18 3 19 4 20 5 21 6 22 7 23 8 24 9 25 10 26 11
REMARK SMILES IDX 27 12 28 13 29 14 30 15 31 16 32 17 15 18 14 19 13 20 12 21
REMARK SMILES IDX 11 22 10 23 9 24 8 25 7 26 6 27 5 28 4 29 3 30 2 31 1 32
REMARK H PARENT
REMARK Flexibility Score: inf
ROOT
ATOM      1  C   UNL     1      37.653 -45.607   0.301  1.00  0.00     0.000 C 
ENDROOT
BRANCH   1   2
ATOM      2  C   UNL     1      37.051 -46.528  -0.772  1.00  0.00     0.000 C 
BRANCH   2   3
ATOM      3  C   UNL     1      35.964 -45.838  -1.615  1.00  0.00     0.000 C 
BRANCH   3   4
ATOM      4  C   UNL     1      36.289 -45.786  -3.121  1.00  0.00     0.000 C 
BRANCH   4   5
ATOM      5  C   UNL     1      36.092 -44.378  -3.713  1.00  0.00     0.000 C 
BRANCH   5   6
ATOM      6  C   UNL     1      34.610 -44.033  -3.929  1.00  0.00     0.000 C 
BRANCH   6   7
ATOM      7  C   UNL     1      34.013 -44.734  -5.159  1.00  0.00     0.000 C 
BRANCH   7   8
ATOM      8  C   UNL     1      32.500 -44.497  -5.242  1.00  0.00     0.000 C 
BRANCH   8   9
ATOM      9  C   UNL     1      31.910 -44.212  -3.853  1.00  0.00     0.000 C 
BRANCH   9  10
ATOM     10  C   UNL     1      31.204 -45.436  -3.249  1.00  0.00     0.000 C 
BRANCH  10  11
ATOM     11  C   UNL     1      32.147 -46.308  -2.404  1.00  0.00     0.000 C 
BRANCH  11  12
ATOM     12  C   UNL     1      32.530 -47.622  -3.103  1.00  0.00     0.000 C 
BRANCH  12  13
ATOM     13  C   UNL     1      33.160 -48.664  -2.153  1.00  0.00     0.006 C 
BRANCH  13  14
ATOM     14  C   UNL     1      34.546 -49.116  -2.632  1.00  0.00     0.053 C 
BRANCH  14  15
ATOM     15  C   UNL     1      34.516 -49.469  -4.087  1.00  0.00     0.041 C 
ATOM     16  O   UNL     1      34.882 -48.629  -4.952  1.00  0.00    -0.550 OA
ATOM     17  O   UNL     1      34.080 -50.727  -4.490  1.00  0.00    -0.550 OA
ENDBRANCH  14  15
ENDBRANCH  13  14
ENDBRANCH  12  13
ENDBRANCH  11  12
ENDBRANCH  10  11
ENDBRANCH   9  10
ENDBRANCH   8   9
ENDBRANCH   7   8
ENDBRANCH   6   7
ENDBRANCH   5   6
ENDBRANCH   4   5
ENDBRANCH   3   4
ENDBRANCH   2   3
ENDBRANCH   1   2
BRANCH   1  18
ATOM     18  C   UNL     1      37.186 -44.145   0.144  1.00  0.00     0.000 C 
BRANCH  18  19
ATOM     19  C   UNL     1      36.724 -43.500   1.463  1.00  0.00     0.000 C 
BRANCH  19  20
ATOM     20  C   UNL     1      35.537 -42.543   1.272  1.00  0.00     0.000 C 
BRANCH  20  21
ATOM     21  C   UNL     1      35.008 -42.516  -0.174  1.00  0.00     0.000 C 
BRANCH  21  22
ATOM     22  C   UNL     1      33.673 -43.253  -0.402  1.00  0.00     0.000 C 
BRANCH  22  23
ATOM     23  C   UNL     1      33.090 -43.952   0.843  1.00  0.00     0.000 C 
BRANCH  23  24
ATOM     24  C   UNL     1      32.933 -45.481   0.719  1.00  0.00    -0.000 C 
BRANCH  24  25
ATOM     25  C   UNL     1      34.051 -46.304   1.382  1.00  0.00    -0.000 C 
BRANCH  25  26
ATOM     26  C   UNL     1      34.380 -45.821   2.805  1.00  0.00    -0.000 C 
BRANCH  26  27
ATOM     27  C   UNL     1      35.216 -46.837   3.601  1.00  0.00    -0.000 C 
BRANCH  27  28
ATOM     28  C   UNL     1      36.009 -47.846   2.745  1.00  0.00    -0.000 C 
BRANCH  28  29
ATOM     29  C   UNL     1      35.495 -49.297   2.856  1.00  0.00    -0.000 C 
BRANCH  29  30
ATOM     30  C   UNL     1      35.026 -49.854   1.504  1.00  0.00    -0.000 C 
BRANCH  30  31
ATOM     31  C   UNL     1      33.496 -49.876   1.416  1.00  0.00    -0.003 C 
ATOM     32  C   UNL     1      32.923 -51.127   2.074  1.00  0.00     0.004 C 
ENDBRANCH  30  31
ENDBRANCH  29  30
ENDBRANCH  28  29
ENDBRANCH  27  28
ENDBRANCH  26  27
ENDBRANCH  25  26
ENDBRANCH  24  25
ENDBRANCH  23  24
ENDBRANCH  22  23
ENDBRANCH  21  22
ENDBRANCH  20  21
ENDBRANCH  19  20
ENDBRANCH  18  19
ENDBRANCH   1  18
TORSDOF 28
ENDMDL
MODEL 6
REMARK VINA RESULT:    -4.004      2.644      4.752
REMARK INTER + INTRA:         -15.631
REMARK INTER:                 -10.133
REMARK INTRA:                  -5.498
REMARK UNBOUND:                -5.074
REMARK SMILES CCCCCCCCCCCCCCCCCCCCCCCCCCCCCC(=O)[O-]
REMARK SMILES IDX 16 1 17 2 18 3 19 4 20 5 21 6 22 7 23 8 24 9 25 10 26 11
REMARK SMILES IDX 27 12 28 13 29 14 30 15 31 16 32 17 15 18 14 19 13 20 12 21
REMARK SMILES IDX 11 22 10 23 9 24 8 25 7 26 6 27 5 28 4 29 3 30 2 31 1 32
REMARK H PARENT
REMARK Flexibility Score: inf
ROOT
ATOM      1  C   UNL     1      36.235 -44.366  -1.400  1.00  0.00     0.000 C 
ENDROOT
BRANCH   1   2
ATOM      2  C   UNL     1      36.476 -45.721  -2.087  1.00  0.00     0.000 C 
BRANCH   2   3
ATOM      3  C   UNL     1      36.451 -46.905  -1.105  1.00  0.00     0.000 C 
BRANCH   3   4
ATOM      4  C   UNL     1      35.478 -48.028  -1.515  1.00  0.00     0.000 C 
BRANCH   4   5
ATOM      5  C   UNL     1      34.020 -47.540  -1.592  1.00  0.00     0.000 C 
BRANCH   5   6
ATOM      6  C   UNL     1      33.261 -47.742  -0.272  1.00  0.00     0.000 C 
BRANCH   6   7
ATOM      7  C   UNL     1      33.531 -49.116   0.360  1.00  0.00     0.000 C 
BRANCH   7   8
ATOM      8  C   UNL     1      34.012 -48.968   1.808  1.00  0.00     0.000 C 
BRANCH   8   9
ATOM      9  C   UNL     1      34.380 -47.509   2.118  1.00  0.00     0.000 C 
BRANCH   9  10
ATOM     10  C   UNL     1      35.400 -47.387   3.262  1.00  0.00     0.000 C 
BRANCH  10  11
ATOM     11  C   UNL     1      36.733 -48.083   2.943  1.00  0.00     0.000 C 
BRANCH  11  12
ATOM     12  C   UNL     1      37.486 -48.536   4.204  1.00  0.00     0.000 C 
BRANCH  12  13
ATOM     13  C   UNL     1      36.632 -49.405   5.152  1.00  0.00     0.006 C 
BRANCH  13  14
ATOM     14  C   UNL     1      37.193 -50.827   5.293  1.00  0.00     0.053 C 
BRANCH  14  15
ATOM     15  C   UNL     1      36.311 -51.817   4.598  1.00  0.00     0.041 C 
ATOM     16  O   UNL     1      35.954 -52.872   5.186  1.00  0.00    -0.550 OA
ATOM     17  O   UNL     1      35.885 -51.577   3.296  1.00  0.00    -0.550 OA
ENDBRANCH  14  15
ENDBRANCH  13  14
ENDBRANCH  12  13
ENDBRANCH  11  12
ENDBRANCH  10  11
ENDBRANCH   9  10
ENDBRANCH   8   9
ENDBRANCH   7   8
ENDBRANCH   6   7
ENDBRANCH   5   6
ENDBRANCH   4   5
ENDBRANCH   3   4
ENDBRANCH   2   3
ENDBRANCH   1   2
BRANCH   1  18
ATOM     18  C   UNL     1      35.847 -44.527   0.085  1.00  0.00     0.000 C 
BRANCH  18  19
ATOM     19  C   UNL     1      34.396 -44.115   0.392  1.00  0.00     0.000 C 
BRANCH  19  20
ATOM     20  C   UNL     1      33.699 -43.459  -0.810  1.00  0.00     0.000 C 
BRANCH  20  21
ATOM     21  C   UNL     1      32.506 -44.278  -1.336  1.00  0.00     0.000 C 
BRANCH  21  22
ATOM     22  C   UNL     1      32.401 -44.380  -2.871  1.00  0.00     0.000 C 
BRANCH  22  23
ATOM     23  C   UNL     1      33.432 -43.543  -3.654  1.00  0.00     0.000 C 
BRANCH  23  24
ATOM     24  C   UNL     1      34.251 -44.328  -4.698  1.00  0.00    -0.000 C 
BRANCH  24  25
ATOM     25  C   UNL     1      33.612 -45.648  -5.165  1.00  0.00    -0.000 C 
BRANCH  25  26
ATOM     26  C   UNL     1      34.572 -46.844  -5.054  1.00  0.00    -0.000 C 
BRANCH  26  27
ATOM     27  C   UNL     1      35.257 -47.185  -6.388  1.00  0.00    -0.000 C 
BRANCH  27  28
ATOM     28  C   UNL     1      36.302 -48.317  -6.317  1.00  0.00    -0.000 C 
BRANCH  28  29
ATOM     29  C   UNL     1      36.396 -48.994  -4.933  1.00  0.00    -0.000 C 
BRANCH  29  30
ATOM     30  C   UNL     1      36.299 -50.524  -5.025  1.00  0.00    -0.000 C 
BRANCH  30  31
ATOM     31  C   UNL     1      35.190 -51.063  -4.114  1.00  0.00    -0.003 C 
ATOM     32  C   UNL     1      33.885 -50.299  -4.324  1.00  0.00     0.004 C 
ENDBRANCH  30  31
ENDBRANCH  29  30
ENDBRANCH  28  29
ENDBRANCH  27  28
ENDBRANCH  26  27
ENDBRANCH  25  26
ENDBRANCH  24  25
ENDBRANCH  23  24
ENDBRANCH  22  23
ENDBRANCH  21  22
ENDBRANCH  20  21
ENDBRANCH  19  20
ENDBRANCH  18  19
ENDBRANCH   1  18
TORSDOF 28
ENDMDL
MODEL 7
REMARK VINA RESULT:    -3.978      2.064      6.154
REMARK INTER + INTRA:         -15.563
REMARK INTER:                  -9.325
REMARK INTRA:                  -6.238
REMARK UNBOUND:                -5.074
REMARK SMILES CCCCCCCCCCCCCCCCCCCCCCCCCCCCCC(=O)[O-]
REMARK SMILES IDX 16 1 17 2 18 3 19 4 20 5 21 6 22 7 23 8 24 9 25 10 26 11
REMARK SMILES IDX 27 12 28 13 29 14 30 15 31 16 32 17 15 18 14 19 13 20 12 21
REMARK SMILES IDX 11 22 10 23 9 24 8 25 7 26 6 27 5 28 4 29 3 30 2 31 1 32
REMARK H PARENT
REMARK Flexibility Score: inf
ROOT
ATOM      1  C   UNL     1      33.020 -45.039   1.103  1.00  0.00     0.000 C 
ENDROOT
BRANCH   1   2
ATOM      2  C   UNL     1      32.779 -43.827   0.188  1.00  0.00     0.000 C 
BRANCH   2   3
ATOM      3  C   UNL     1      32.939 -44.161  -1.305  1.00  0.00     0.000 C 
BRANCH   3   4
ATOM      4  C   UNL     1      32.651 -45.637  -1.644  1.00  0.00     0.000 C 
BRANCH   4   5
ATOM      5  C   UNL     1      31.508 -45.791  -2.664  1.00  0.00     0.000 C 
BRANCH   5   6
ATOM      6  C   UNL     1      30.956 -44.438  -3.139  1.00  0.00     0.000 C 
BRANCH   6   7
ATOM      7  C   UNL     1      30.739 -44.389  -4.659  1.00  0.00     0.000 C 
BRANCH   7   8
ATOM      8  C   UNL     1      31.624 -43.316  -5.304  1.00  0.00     0.000 C 
BRANCH   8   9
ATOM      9  C   UNL     1      32.821 -43.953  -6.027  1.00  0.00     0.000 C 
BRANCH   9  10
ATOM     10  C   UNL     1      34.160 -43.639  -5.342  1.00  0.00     0.000 C 
BRANCH  10  11
ATOM     11  C   UNL     1      34.827 -44.890  -4.746  1.00  0.00     0.000 C 
BRANCH  11  12
ATOM     12  C   UNL     1      34.178 -46.198  -5.226  1.00  0.00     0.000 C 
BRANCH  12  13
ATOM     13  C   UNL     1      34.522 -47.417  -4.343  1.00  0.00     0.006 C 
BRANCH  13  14
ATOM     14  C   UNL     1      34.953 -48.630  -5.178  1.00  0.00     0.053 C 
BRANCH  14  15
ATOM     15  C   UNL     1      34.651 -49.907  -4.456  1.00  0.00     0.041 C 
ATOM     16  O   UNL     1      33.492 -50.398  -4.495  1.00  0.00    -0.550 OA
ATOM     17  O   UNL     1      35.649 -50.552  -3.735  1.00  0.00    -0.550 OA
ENDBRANCH  14  15
ENDBRANCH  13  14
ENDBRANCH  12  13
ENDBRANCH  11  12
ENDBRANCH  10  11
ENDBRANCH   9  10
ENDBRANCH   8   9
ENDBRANCH   7   8
ENDBRANCH   6   7
ENDBRANCH   5   6
ENDBRANCH   4   5
ENDBRANCH   3   4
ENDBRANCH   2   3
ENDBRANCH   1   2
BRANCH   1  18
ATOM     18  C   UNL     1      34.214 -44.820   2.058  1.00  0.00     0.000 C 
BRANCH  18  19
ATOM     19  C   UNL     1      34.746 -43.376   2.057  1.00  0.00     0.000 C 
BRANCH  19  20
ATOM     20  C   UNL     1      36.271 -43.305   1.884  1.00  0.00     0.000 C 
BRANCH  20  21
ATOM     21  C   UNL     1      36.699 -42.644   0.561  1.00  0.00     0.000 C 
BRANCH  21  22
ATOM     22  C   UNL     1      38.099 -43.037   0.050  1.00  0.00     0.000 C 
BRANCH  22  23
ATOM     23  C   UNL     1      38.116 -44.127  -1.041  1.00  0.00     0.000 C 
BRANCH  23  24
ATOM     24  C   UNL     1      36.745 -44.436  -1.675  1.00  0.00    -0.000 C 
BRANCH  24  25
ATOM     25  C   UNL     1      36.229 -45.866  -1.438  1.00  0.00    -0.000 C 
BRANCH  25  26
ATOM     26  C   UNL     1      36.682 -46.446  -0.088  1.00  0.00    -0.000 C 
BRANCH  26  27
ATOM     27  C   UNL     1      35.879 -47.690   0.327  1.00  0.00    -0.000 C 
BRANCH  27  28
ATOM     28  C   UNL     1      35.450 -48.610  -0.835  1.00  0.00    -0.000 C 
BRANCH  28  29
ATOM     29  C   UNL     1      33.925 -48.841  -0.916  1.00  0.00    -0.000 C 
BRANCH  29  30
ATOM     30  C   UNL     1      33.240 -48.688   0.449  1.00  0.00    -0.000 C 
BRANCH  30  31
ATOM     31  C   UNL     1      32.786 -50.046   0.995  1.00  0.00    -0.003 C 
ATOM     32  C   UNL     1      33.731 -50.548   2.082  1.00  0.00     0.004 C 
ENDBRANCH  30  31
ENDBRANCH  29  30
ENDBRANCH  28  29
ENDBRANCH  27  28
ENDBRANCH  26  27
ENDBRANCH  25  26
ENDBRANCH  24  25
ENDBRANCH  23  24
ENDBRANCH  22  23
ENDBRANCH  21  22
ENDBRANCH  20  21
ENDBRANCH  19  20
ENDBRANCH  18  19
ENDBRANCH   1  18
TORSDOF 28
ENDMDL
MODEL 8
REMARK VINA RESULT:    -3.972      1.964      5.436
REMARK INTER + INTRA:         -15.548
REMARK INTER:                  -9.845
REMARK INTRA:                  -5.703
REMARK UNBOUND:                -5.074
REMARK SMILES CCCCCCCCCCCCCCCCCCCCCCCCCCCCCC(=O)[O-]
REMARK SMILES IDX 16 1 17 2 18 3 19 4 20 5 21 6 22 7 23 8 24 9 25 10 26 11
REMARK SMILES IDX 27 12 28 13 29 14 30 15 31 16 32 17 15 18 14 19 13 20 12 21
REMARK SMILES IDX 11 22 10 23 9 24 8 25 7 26 6 27 5 28 4 29 3 30 2 31 1 32
REMARK H PARENT
REMARK Flexibility Score: inf
ROOT
ATOM      1  C   UNL     1      36.953 -47.949  -1.988  1.00  0.00     0.000 C 
ENDROOT
BRANCH   1   2
ATOM      2  C   UNL     1      36.384 -46.889  -1.030  1.00  0.00     0.000 C 
BRANCH   2   3
ATOM      3  C   UNL     1      37.302 -45.664  -0.877  1.00  0.00     0.000 C 
BRANCH   3   4
ATOM      4  C   UNL     1      36.559 -44.317  -0.981  1.00  0.00     0.000 C 
BRANCH   4   5
ATOM      5  C   UNL     1      35.227 -44.441  -1.743  1.00  0.00     0.000 C 
BRANCH   5   6
ATOM      6  C   UNL     1      34.245 -43.310  -1.401  1.00  0.00     0.000 C 
BRANCH   6   7
ATOM      7  C   UNL     1      33.955 -43.215   0.105  1.00  0.00     0.000 C 
BRANCH   7   8
ATOM      8  C   UNL     1      32.684 -43.994   0.467  1.00  0.00     0.000 C 
BRANCH   8   9
ATOM      9  C   UNL     1      32.910 -44.866   1.711  1.00  0.00     0.000 C 
BRANCH   9  10
ATOM     10  C   UNL     1      34.174 -45.733   1.603  1.00  0.00     0.000 C 
BRANCH  10  11
ATOM     11  C   UNL     1      33.929 -47.192   2.021  1.00  0.00     0.000 C 
BRANCH  11  12
ATOM     12  C   UNL     1      33.522 -48.089   0.841  1.00  0.00     0.000 C 
BRANCH  12  13
ATOM     13  C   UNL     1      34.234 -49.459   0.833  1.00  0.00     0.006 C 
BRANCH  13  14
ATOM     14  C   UNL     1      34.223 -50.122   2.218  1.00  0.00     0.053 C 
BRANCH  14  15
ATOM     15  C   UNL     1      35.618 -50.418   2.676  1.00  0.00     0.041 C 
ATOM     16  O   UNL     1      36.605 -50.004   2.013  1.00  0.00    -0.550 OA
ATOM     17  O   UNL     1      35.828 -51.157   3.836  1.00  0.00    -0.550 OA
ENDBRANCH  14  15
ENDBRANCH  13  14
ENDBRANCH  12  13
ENDBRANCH  11  12
ENDBRANCH  10  11
ENDBRANCH   9  10
ENDBRANCH   8   9
ENDBRANCH   7   8
ENDBRANCH   6   7
ENDBRANCH   5   6
ENDBRANCH   4   5
ENDBRANCH   3   4
ENDBRANCH   2   3
ENDBRANCH   1   2
BRANCH   1  18
ATOM     18  C   UNL     1      36.936 -47.475  -3.458  1.00  0.00     0.000 C 
BRANCH  18  19
ATOM     19  C   UNL     1      37.599 -48.465  -4.432  1.00  0.00     0.000 C 
BRANCH  19  20
ATOM     20  C   UNL     1      36.888 -49.826  -4.471  1.00  0.00     0.000 C 
BRANCH  20  21
ATOM     21  C   UNL     1      35.471 -49.751  -5.070  1.00  0.00     0.000 C 
BRANCH  21  22
ATOM     22  C   UNL     1      34.407 -50.607  -4.355  1.00  0.00     0.000 C 
BRANCH  22  23
ATOM     23  C   UNL     1      33.092 -49.873  -4.024  1.00  0.00     0.000 C 
BRANCH  23  24
ATOM     24  C   UNL     1      33.162 -48.927  -2.808  1.00  0.00    -0.000 C 
BRANCH  24  25
ATOM     25  C   UNL     1      33.268 -47.431  -3.156  1.00  0.00    -0.000 C 
BRANCH  25  26
ATOM     26  C   UNL     1      32.503 -46.536  -2.166  1.00  0.00    -0.000 C 
BRANCH  26  27
ATOM     27  C   UNL     1      31.345 -45.771  -2.828  1.00  0.00    -0.000 C 
BRANCH  27  28
ATOM     28  C   UNL     1      31.368 -45.752  -4.370  1.00  0.00    -0.000 C 
BRANCH  28  29
ATOM     29  C   UNL     1      31.959 -44.458  -4.969  1.00  0.00    -0.000 C 
BRANCH  29  30
ATOM     30  C   UNL     1      33.253 -44.718  -5.754  1.00  0.00    -0.000 C 
BRANCH  30  31
ATOM     31  C   UNL     1      34.388 -43.812  -5.264  1.00  0.00    -0.003 C 
ATOM     32  C   UNL     1      35.744 -44.492  -5.425  1.00  0.00     0.004 C 
ENDBRANCH  30  31
ENDBRANCH  29  30
ENDBRANCH  28  29
ENDBRANCH  27  28
ENDBRANCH  26  27
ENDBRANCH  25  26
ENDBRANCH  24  25
ENDBRANCH  23  24
ENDBRANCH  22  23
ENDBRANCH  21  22
ENDBRANCH  20  21
ENDBRANCH  19  20
ENDBRANCH  18  19
ENDBRANCH   1  18
TORSDOF 28
ENDMDL
MODEL 9
REMARK VINA RESULT:    -3.967      2.670      5.449
REMARK INTER + INTRA:         -15.533
REMARK INTER:                  -9.406
REMARK INTRA:                  -6.127
REMARK UNBOUND:                -5.074
REMARK SMILES CCCCCCCCCCCCCCCCCCCCCCCCCCCCCC(=O)[O-]
REMARK SMILES IDX 16 1 17 2 18 3 19 4 20 5 21 6 22 7 23 8 24 9 25 10 26 11
REMARK SMILES IDX 27 12 28 13 29 14 30 15 31 16 32 17 15 18 14 19 13 20 12 21
REMARK SMILES IDX 11 22 10 23 9 24 8 25 7 26 6 27 5 28 4 29 3 30 2 31 1 32
REMARK H PARENT
REMARK Flexibility Score: inf
ROOT
ATOM      1  C   UNL     1      33.724 -45.872   1.704  1.00  0.00     0.000 C 
ENDROOT
BRANCH   1   2
ATOM      2  C   UNL     1      34.719 -45.653   2.855  1.00  0.00     0.000 C 
BRANCH   2   3
ATOM      3  C   UNL     1      36.178 -45.552   2.378  1.00  0.00     0.000 C 
BRANCH   3   4
ATOM      4  C   UNL     1      36.348 -45.761   0.860  1.00  0.00     0.000 C 
BRANCH   4   5
ATOM      5  C   UNL     1      36.867 -47.169   0.517  1.00  0.00     0.000 C 
BRANCH   5   6
ATOM      6  C   UNL     1      36.469 -47.616  -0.898  1.00  0.00     0.000 C 
BRANCH   6   7
ATOM      7  C   UNL     1      34.993 -48.030  -0.994  1.00  0.00     0.000 C 
BRANCH   7   8
ATOM      8  C   UNL     1      34.755 -49.373  -0.293  1.00  0.00     0.000 C 
BRANCH   8   9
ATOM      9  C   UNL     1      33.478 -49.330   0.559  1.00  0.00     0.000 C 
BRANCH   9  10
ATOM     10  C   UNL     1      33.584 -50.193   1.826  1.00  0.00     0.000 C 
BRANCH  10  11
ATOM     11  C   UNL     1      35.015 -50.250   2.386  1.00  0.00     0.000 C 
BRANCH  11  12
ATOM     12  C   UNL     1      35.343 -49.063   3.306  1.00  0.00     0.000 C 
BRANCH  12  13
ATOM     13  C   UNL     1      36.512 -49.339   4.275  1.00  0.00     0.006 C 
BRANCH  13  14
ATOM     14  C   UNL     1      37.762 -48.521   3.919  1.00  0.00     0.053 C 
BRANCH  14  15
ATOM     15  C   UNL     1      38.962 -49.040   4.649  1.00  0.00     0.041 C 
ATOM     16  O   UNL     1      39.631 -48.275   5.394  1.00  0.00    -0.550 OA
ATOM     17  O   UNL     1      39.344 -50.369   4.505  1.00  0.00    -0.550 OA
ENDBRANCH  14  15
ENDBRANCH  13  14
ENDBRANCH  12  13
ENDBRANCH  11  12
ENDBRANCH  10  11
ENDBRANCH   9  10
ENDBRANCH   8   9
ENDBRANCH   7   8
ENDBRANCH   6   7
ENDBRANCH   5   6
ENDBRANCH   4   5
ENDBRANCH   3   4
ENDBRANCH   2   3
ENDBRANCH   1   2
BRANCH   1  18
ATOM     18  C   UNL     1      32.781 -44.665   1.511  1.00  0.00     0.000 C 
BRANCH  18  19
ATOM     19  C   UNL     1      32.810 -44.081   0.087  1.00  0.00     0.000 C 
BRANCH  19  20
ATOM     20  C   UNL     1      33.810 -42.924  -0.060  1.00  0.00     0.000 C 
BRANCH  20  21
ATOM     21  C   UNL     1      34.814 -43.136  -1.208  1.00  0.00     0.000 C 
BRANCH  21  22
ATOM     22  C   UNL     1      34.680 -44.473  -1.964  1.00  0.00     0.000 C 
BRANCH  22  23
ATOM     23  C   UNL     1      35.534 -44.590  -3.243  1.00  0.00     0.000 C 
BRANCH  23  24
ATOM     24  C   UNL     1      35.227 -45.821  -4.120  1.00  0.00    -0.000 C 
BRANCH  24  25
ATOM     25  C   UNL     1      34.705 -45.497  -5.531  1.00  0.00    -0.000 C 
BRANCH  25  26
ATOM     26  C   UNL     1      34.049 -44.109  -5.618  1.00  0.00    -0.000 C 
BRANCH  26  27
ATOM     27  C   UNL     1      32.518 -44.179  -5.745  1.00  0.00    -0.000 C 
BRANCH  27  28
ATOM     28  C   UNL     1      31.735 -43.387  -4.678  1.00  0.00    -0.000 C 
BRANCH  28  29
ATOM     29  C   UNL     1      31.494 -44.171  -3.371  1.00  0.00    -0.000 C 
BRANCH  29  30
ATOM     30  C   UNL     1      31.118 -45.637  -3.633  1.00  0.00    -0.000 C 
BRANCH  30  31
ATOM     31  C   UNL     1      31.855 -46.577  -2.671  1.00  0.00    -0.003 C 
ATOM     32  C   UNL     1      32.208 -47.896  -3.352  1.00  0.00     0.004 C 
ENDBRANCH  30  31
ENDBRANCH  29  30
ENDBRANCH  28  29
ENDBRANCH  27  28
ENDBRANCH  26  27
ENDBRANCH  25  26
ENDBRANCH  24  25
ENDBRANCH  23  24
ENDBRANCH  22  23
ENDBRANCH  21  22
ENDBRANCH  20  21
ENDBRANCH  19  20
ENDBRANCH  18  19
ENDBRANCH   1  18
TORSDOF 28
ENDMDL
