MODEL 1
REMARK VINA RESULT:    -6.331      0.000      0.000
REMARK INTER + INTRA:          -8.009
REMARK INTER:                  -7.626
REMARK INTRA:                  -0.383
REMARK UNBOUND:                -0.383
REMARK SMILES O=c1c(O)c(-c2ccc(O)cc2O)oc2cc(O)cc(O)c12
REMARK SMILES IDX 5 1 3 2 2 3 1 4 22 5 20 6 19 7 17 8 16 9 15 10 14 11 6 12
REMARK SMILES IDX 8 13 7 14 9 15 11 16 12 17 10 18 13 20 4 22 21 24 18 26
REMARK H PARENT 10 19 13 21 4 23 21 25 18 27
REMARK Flexibility Score: inf
ROOT
ATOM      1  C   UNL     1      -0.274  -3.792  -4.514  1.00  0.00     0.184 A 
ATOM      2  C   UNL     1      -1.666  -3.637  -4.595  1.00  0.00     0.208 A 
ATOM      3  C   UNL     1      -2.216  -2.350  -4.488  1.00  0.00     0.238 A 
ATOM      4  O   UNL     1      -3.468  -2.227  -4.488  1.00  0.00    -0.285 OA
ATOM      5  C   UNL     1      -1.361  -1.229  -4.355  1.00  0.00     0.111 A 
ATOM      6  C   UNL     1      -1.804   0.127  -4.281  1.00  0.00     0.134 A 
ATOM      7  C   UNL     1      -0.874   1.147  -4.044  1.00  0.00     0.093 A 
ATOM      8  C   UNL     1       0.488   0.870  -3.942  1.00  0.00     0.123 A 
ATOM      9  C   UNL     1       0.939  -0.445  -4.067  1.00  0.00     0.094 A 
ATOM     10  C   UNL     1       0.032  -1.488  -4.266  1.00  0.00     0.146 A 
ATOM     11  O   UNL     1       0.502  -2.727  -4.357  1.00  0.00    -0.451 OA
ENDROOT
BRANCH   1  12
ATOM     12  C   UNL     1       0.367  -5.119  -4.611  1.00  0.00     0.063 A 
ATOM     13  C   UNL     1       1.578  -6.746  -5.951  1.00  0.00     0.047 A 
ATOM     14  C   UNL     1       0.958  -5.501  -5.826  1.00  0.00     0.020 A 
ATOM     15  C   UNL     1       1.628  -7.620  -4.859  1.00  0.00     0.119 A 
ATOM     16  C   UNL     1       1.063  -7.239  -3.638  1.00  0.00     0.093 A 
ATOM     17  C   UNL     1       0.444  -5.987  -3.503  1.00  0.00     0.130 A 
BRANCH  15  18
ATOM     18  O   UNL     1       2.240  -8.867  -4.974  1.00  0.00    -0.508 OA
ATOM     19  H   UNL     1       1.827  -9.698  -4.570  1.00  0.00     0.293 HD
ENDBRANCH  15  18
BRANCH  17  20
ATOM     20  O   UNL     1      -0.073  -5.599  -2.266  1.00  0.00    -0.507 OA
ATOM     21  H   UNL     1       0.162  -4.706  -1.848  1.00  0.00     0.293 HD
ENDBRANCH  17  20
ENDBRANCH   1  12
BRANCH   2  22
ATOM     22  O   UNL     1      -2.483  -4.753  -4.798  1.00  0.00    -0.502 OA
ATOM     23  H   UNL     1      -3.455  -4.775  -4.511  1.00  0.00     0.293 HD
ENDBRANCH   2  22
BRANCH   6  24
ATOM     24  O   UNL     1      -3.133   0.527  -4.458  1.00  0.00    -0.507 OA
ATOM     25  H   UNL     1      -3.784   0.102  -5.100  1.00  0.00     0.293 HD
ENDBRANCH   6  24
BRANCH   8  26
ATOM     26  O   UNL     1       1.387   1.912  -3.723  1.00  0.00    -0.508 OA
ATOM     27  H   UNL     1       1.099   2.881  -3.784  1.00  0.00     0.293 HD
ENDBRANCH   8  26
TORSDOF 6
ENDMDL
MODEL 2
REMARK VINA RESULT:    -5.602      1.579      6.884
REMARK INTER + INTRA:          -7.131
REMARK INTER:                  -6.745
REMARK INTRA:                  -0.387
REMARK UNBOUND:                -0.383
REMARK SMILES O=c1c(O)c(-c2ccc(O)cc2O)oc2cc(O)cc(O)c12
REMARK SMILES IDX 5 1 3 2 2 3 1 4 22 5 20 6 19 7 17 8 16 9 15 10 14 11 6 12
REMARK SMILES IDX 8 13 7 14 9 15 11 16 12 17 10 18 13 20 4 22 21 24 18 26
REMARK H PARENT 10 19 13 21 4 23 21 25 18 27
REMARK Flexibility Score: inf
ROOT
ATOM      1  C   UNL     1       0.134  -4.691  -4.794  1.00  0.00     0.184 A 
ATOM      2  C   UNL     1       0.165  -5.674  -3.793  1.00  0.00     0.208 A 
ATOM      3  C   UNL     1       0.919  -6.838  -4.004  1.00  0.00     0.238 A 
ATOM      4  O   UNL     1       0.884  -7.747  -3.135  1.00  0.00    -0.285 OA
ATOM      5  C   UNL     1       1.677  -6.979  -5.193  1.00  0.00     0.111 A 
ATOM      6  C   UNL     1       2.513  -8.097  -5.496  1.00  0.00     0.134 A 
ATOM      7  C   UNL     1       3.132  -8.178  -6.750  1.00  0.00     0.093 A 
ATOM      8  C   UNL     1       2.999  -7.154  -7.686  1.00  0.00     0.123 A 
ATOM      9  C   UNL     1       2.229  -6.031  -7.380  1.00  0.00     0.094 A 
ATOM     10  C   UNL     1       1.568  -5.939  -6.153  1.00  0.00     0.146 A 
ATOM     11  O   UNL     1       0.828  -4.863  -5.912  1.00  0.00    -0.451 OA
ENDROOT
BRANCH   1  12
ATOM     12  C   UNL     1      -0.646  -3.447  -4.637  1.00  0.00     0.063 A 
ATOM     13  C   UNL     1      -0.684  -1.071  -4.119  1.00  0.00     0.047 A 
ATOM     14  C   UNL     1       0.021  -2.267  -4.270  1.00  0.00     0.020 A 
ATOM     15  C   UNL     1      -2.065  -1.037  -4.347  1.00  0.00     0.119 A 
ATOM     16  C   UNL     1      -2.735  -2.200  -4.735  1.00  0.00     0.093 A 
ATOM     17  C   UNL     1      -2.031  -3.404  -4.895  1.00  0.00     0.130 A 
BRANCH  15  18
ATOM     18  O   UNL     1      -2.780   0.150  -4.194  1.00  0.00    -0.508 OA
ATOM     19  H   UNL     1      -3.316   0.341  -3.357  1.00  0.00     0.293 HD
ENDBRANCH  15  18
BRANCH  17  20
ATOM     20  O   UNL     1      -2.703  -4.547  -5.330  1.00  0.00    -0.507 OA
ATOM     21  H   UNL     1      -3.002  -5.267  -4.682  1.00  0.00     0.293 HD
ENDBRANCH  17  20
ENDBRANCH   1  12
BRANCH   2  22
ATOM     22  O   UNL     1      -0.534  -5.478  -2.598  1.00  0.00    -0.502 OA
ATOM     23  H   UNL     1      -1.474  -5.100  -2.574  1.00  0.00     0.293 HD
ENDBRANCH   2  22
BRANCH   6  24
ATOM     24  O   UNL     1       2.787  -9.136  -4.599  1.00  0.00    -0.507 OA
ATOM     25  H   UNL     1       3.653  -9.251  -4.096  1.00  0.00     0.293 HD
ENDBRANCH   6  24
BRANCH   8  26
ATOM     26  O   UNL     1       3.645  -7.260  -8.916  1.00  0.00    -0.508 OA
ATOM     27  H   UNL     1       4.642  -7.426  -8.978  1.00  0.00     0.293 HD
ENDBRANCH   8  26
TORSDOF 6
ENDMDL
MODEL 3
REMARK VINA RESULT:    -5.594      1.688      6.740
REMARK INTER + INTRA:          -7.121
REMARK INTER:                  -6.711
REMARK INTRA:                  -0.411
REMARK UNBOUND:                -0.383
REMARK SMILES O=c1c(O)c(-c2ccc(O)cc2O)oc2cc(O)cc(O)c12
REMARK SMILES IDX 5 1 3 2 2 3 1 4 22 5 20 6 19 7 17 8 16 9 15 10 14 11 6 12
REMARK SMILES IDX 8 13 7 14 9 15 11 16 12 17 10 18 13 20 4 22 21 24 18 26
REMARK H PARENT 10 19 13 21 4 23 21 25 18 27
REMARK Flexibility Score: inf
ROOT
ATOM      1  C   UNL     1       0.096  -1.908  -3.523  1.00  0.00     0.184 A 
ATOM      2  C   UNL     1      -0.153  -2.217  -2.178  1.00  0.00     0.208 A 
ATOM      3  C   UNL     1      -0.133  -3.561  -1.773  1.00  0.00     0.238 A 
ATOM      4  O   UNL     1      -0.429  -3.837  -0.582  1.00  0.00    -0.285 OA
ATOM      5  C   UNL     1       0.189  -4.573  -2.710  1.00  0.00     0.111 A 
ATOM      6  C   UNL     1       0.281  -5.965  -2.404  1.00  0.00     0.134 A 
ATOM      7  C   UNL     1       0.503  -6.887  -3.435  1.00  0.00     0.093 A 
ATOM      8  C   UNL     1       0.700  -6.465  -4.748  1.00  0.00     0.123 A 
ATOM      9  C   UNL     1       0.666  -5.104  -5.051  1.00  0.00     0.094 A 
ATOM     10  C   UNL     1       0.409  -4.162  -4.051  1.00  0.00     0.146 A 
ATOM     11  O   UNL     1       0.364  -2.879  -4.387  1.00  0.00    -0.451 OA
ENDROOT
BRANCH   1  12
ATOM     12  C   UNL     1       0.083  -0.514  -4.015  1.00  0.00     0.063 A 
ATOM     13  C   UNL     1       1.275   1.576  -4.364  1.00  0.00     0.047 A 
ATOM     14  C   UNL     1       1.250   0.257  -3.903  1.00  0.00     0.020 A 
ATOM     15  C   UNL     1       0.136   2.135  -4.955  1.00  0.00     0.119 A 
ATOM     16  C   UNL     1      -1.024   1.367  -5.091  1.00  0.00     0.093 A 
ATOM     17  C   UNL     1      -1.054   0.040  -4.637  1.00  0.00     0.130 A 
BRANCH  15  18
ATOM     18  O   UNL     1       0.148   3.451  -5.413  1.00  0.00    -0.508 OA
ATOM     19  H   UNL     1      -0.493   3.767  -6.131  1.00  0.00     0.293 HD
ENDBRANCH  15  18
BRANCH  17  20
ATOM     20  O   UNL     1      -2.202  -0.730  -4.823  1.00  0.00    -0.507 OA
ATOM     21  H   UNL     1      -2.158  -1.663  -5.218  1.00  0.00     0.293 HD
ENDBRANCH  17  20
ENDBRANCH   1  12
BRANCH   2  22
ATOM     22  O   UNL     1      -0.397  -1.193  -1.257  1.00  0.00    -0.502 OA
ATOM     23  H   UNL     1       0.151  -0.342  -1.234  1.00  0.00     0.293 HD
ENDBRANCH   2  22
BRANCH   6  24
ATOM     24  O   UNL     1       0.188  -6.490  -1.110  1.00  0.00    -0.507 OA
ATOM     25  H   UNL     1       0.771  -6.219  -0.334  1.00  0.00     0.293 HD
ENDBRANCH   6  24
BRANCH   8  26
ATOM     26  O   UNL     1       0.936  -7.409  -5.745  1.00  0.00    -0.508 OA
ATOM     27  H   UNL     1       1.218  -8.356  -5.522  1.00  0.00     0.293 HD
ENDBRANCH   8  26
TORSDOF 6
ENDMDL
MODEL 4
REMARK VINA RESULT:    -5.594      2.028      6.936
REMARK INTER + INTRA:          -7.121
REMARK INTER:                  -6.714
REMARK INTRA:                  -0.407
REMARK UNBOUND:                -0.383
REMARK SMILES O=c1c(O)c(-c2ccc(O)cc2O)oc2cc(O)cc(O)c12
REMARK SMILES IDX 5 1 3 2 2 3 1 4 22 5 20 6 19 7 17 8 16 9 15 10 14 11 6 12
REMARK SMILES IDX 8 13 7 14 9 15 11 16 12 17 10 18 13 20 4 22 21 24 18 26
REMARK H PARENT 10 19 13 21 4 23 21 25 18 27
REMARK Flexibility Score: inf
ROOT
ATOM      1  C   UNL     1      -0.282   0.216  -4.295  1.00  0.00     0.184 A 
ATOM      2  C   UNL     1      -1.539  -0.238  -4.724  1.00  0.00     0.208 A 
ATOM      3  C   UNL     1      -1.748  -1.617  -4.877  1.00  0.00     0.238 A 
ATOM      4  O   UNL     1      -2.853  -2.013  -5.332  1.00  0.00    -0.285 OA
ATOM      5  C   UNL     1      -0.714  -2.527  -4.548  1.00  0.00     0.111 A 
ATOM      6  C   UNL     1      -0.828  -3.949  -4.623  1.00  0.00     0.134 A 
ATOM      7  C   UNL     1       0.296  -4.747  -4.374  1.00  0.00     0.093 A 
ATOM      8  C   UNL     1       1.510  -4.181  -3.990  1.00  0.00     0.123 A 
ATOM      9  C   UNL     1       1.619  -2.796  -3.860  1.00  0.00     0.094 A 
ATOM     10  C   UNL     1       0.526  -1.971  -4.139  1.00  0.00     0.146 A 
ATOM     11  O   UNL     1       0.680  -0.657  -4.024  1.00  0.00    -0.451 OA
ENDROOT
BRANCH   1  12
ATOM     12  C   UNL     1       0.005   1.654  -4.121  1.00  0.00     0.063 A 
ATOM     13  C   UNL     1       0.722   3.762  -5.099  1.00  0.00     0.047 A 
ATOM     14  C   UNL     1       0.447   2.398  -5.226  1.00  0.00     0.020 A 
ATOM     15  C   UNL     1       0.545   4.402  -3.866  1.00  0.00     0.119 A 
ATOM     16  C   UNL     1       0.083   3.675  -2.766  1.00  0.00     0.093 A 
ATOM     17  C   UNL     1      -0.201   2.307  -2.888  1.00  0.00     0.130 A 
BRANCH  15  18
ATOM     18  O   UNL     1       0.821   5.761  -3.727  1.00  0.00    -0.508 OA
ATOM     19  H   UNL     1       1.603   6.088  -3.172  1.00  0.00     0.293 HD
ENDBRANCH  15  18
BRANCH  17  20
ATOM     20  O   UNL     1      -0.708   1.603  -1.795  1.00  0.00    -0.507 OA
ATOM     21  H   UNL     1      -0.401   0.662  -1.579  1.00  0.00     0.293 HD
ENDBRANCH  17  20
ENDBRANCH   1  12
BRANCH   2  22
ATOM     22  O   UNL     1      -2.566   0.677  -4.973  1.00  0.00    -0.502 OA
ATOM     23  H   UNL     1      -2.584   1.600  -4.556  1.00  0.00     0.293 HD
ENDBRANCH   2  22
BRANCH   6  24
ATOM     24  O   UNL     1      -2.018  -4.625  -4.911  1.00  0.00    -0.507 OA
ATOM     25  H   UNL     1      -2.210  -5.585  -4.672  1.00  0.00     0.293 HD
ENDBRANCH   6  24
BRANCH   8  26
ATOM     26  O   UNL     1       2.602  -5.006  -3.733  1.00  0.00    -0.508 OA
ATOM     27  H   UNL     1       2.955  -5.141  -2.792  1.00  0.00     0.293 HD
ENDBRANCH   8  26
TORSDOF 6
ENDMDL
MODEL 5
REMARK VINA RESULT:    -5.459      1.298      2.934
REMARK INTER + INTRA:          -6.959
REMARK INTER:                  -6.594
REMARK INTRA:                  -0.364
REMARK UNBOUND:                -0.383
REMARK SMILES O=c1c(O)c(-c2ccc(O)cc2O)oc2cc(O)cc(O)c12
REMARK SMILES IDX 5 1 3 2 2 3 1 4 22 5 20 6 19 7 17 8 16 9 15 10 14 11 6 12
REMARK SMILES IDX 8 13 7 14 9 15 11 16 12 17 10 18 13 20 4 22 21 24 18 26
REMARK H PARENT 10 19 13 21 4 23 21 25 18 27
REMARK Flexibility Score: inf
ROOT
ATOM      1  C   UNL     1       0.852  -3.184  -4.225  1.00  0.00     0.184 A 
ATOM      2  C   UNL     1       1.823  -2.269  -3.791  1.00  0.00     0.208 A 
ATOM      3  C   UNL     1       1.495  -0.906  -3.729  1.00  0.00     0.238 A 
ATOM      4  O   UNL     1       2.392  -0.083  -3.409  1.00  0.00    -0.285 OA
ATOM      5  C   UNL     1       0.182  -0.483  -4.051  1.00  0.00     0.111 A 
ATOM      6  C   UNL     1      -0.276   0.868  -3.982  1.00  0.00     0.134 A 
ATOM      7  C   UNL     1      -1.566   1.184  -4.427  1.00  0.00     0.093 A 
ATOM      8  C   UNL     1      -2.437   0.193  -4.876  1.00  0.00     0.123 A 
ATOM      9  C   UNL     1      -2.019  -1.138  -4.896  1.00  0.00     0.094 A 
ATOM     10  C   UNL     1      -0.725  -1.481  -4.495  1.00  0.00     0.146 A 
ATOM     11  O   UNL     1      -0.362  -2.756  -4.551  1.00  0.00    -0.451 OA
ENDROOT
BRANCH   1  12
ATOM     12  C   UNL     1       1.135  -4.630  -4.320  1.00  0.00     0.063 A 
ATOM     13  C   UNL     1       2.405  -6.435  -5.340  1.00  0.00     0.047 A 
ATOM     14  C   UNL     1       2.107  -5.075  -5.229  1.00  0.00     0.020 A 
ATOM     15  C   UNL     1       1.744  -7.367  -4.532  1.00  0.00     0.119 A 
ATOM     16  C   UNL     1       0.791  -6.932  -3.607  1.00  0.00     0.093 A 
ATOM     17  C   UNL     1       0.491  -5.567  -3.485  1.00  0.00     0.130 A 
BRANCH  15  18
ATOM     18  O   UNL     1       2.030  -8.727  -4.638  1.00  0.00    -0.508 OA
ATOM     19  H   UNL     1       2.074  -9.190  -5.538  1.00  0.00     0.293 HD
ENDBRANCH  15  18
BRANCH  17  20
ATOM     20  O   UNL     1      -0.427  -5.142  -2.524  1.00  0.00    -0.507 OA
ATOM     21  H   UNL     1      -1.256  -4.616  -2.777  1.00  0.00     0.293 HD
ENDBRANCH  17  20
ENDBRANCH   1  12
BRANCH   2  22
ATOM     22  O   UNL     1       3.090  -2.721  -3.410  1.00  0.00    -0.502 OA
ATOM     23  H   UNL     1       3.942  -2.363  -3.824  1.00  0.00     0.293 HD
ENDBRANCH   2  22
BRANCH   6  24
ATOM     24  O   UNL     1       0.480   1.927  -3.467  1.00  0.00    -0.507 OA
ATOM     25  H   UNL     1       0.199   2.895  -3.473  1.00  0.00     0.293 HD
ENDBRANCH   6  24
BRANCH   8  26
ATOM     26  O   UNL     1      -3.719   0.542  -5.294  1.00  0.00    -0.508 OA
ATOM     27  H   UNL     1      -4.392  -0.159  -5.581  1.00  0.00     0.293 HD
ENDBRANCH   8  26
TORSDOF 6
ENDMDL
MODEL 6
REMARK VINA RESULT:    -5.389      2.601      5.208
REMARK INTER + INTRA:          -6.874
REMARK INTER:                  -6.463
REMARK INTRA:                  -0.411
REMARK UNBOUND:                -0.383
REMARK SMILES O=c1c(O)c(-c2ccc(O)cc2O)oc2cc(O)cc(O)c12
REMARK SMILES IDX 5 1 3 2 2 3 1 4 22 5 20 6 19 7 17 8 16 9 15 10 14 11 6 12
REMARK SMILES IDX 8 13 7 14 9 15 11 16 12 17 10 18 13 20 4 22 21 24 18 26
REMARK H PARENT 10 19 13 21 4 23 21 25 18 27
REMARK Flexibility Score: inf
ROOT
ATOM      1  C   UNL     1      -0.348   0.527  -3.788  1.00  0.00     0.184 A 
ATOM      2  C   UNL     1      -0.171   0.929  -2.455  1.00  0.00     0.208 A 
ATOM      3  C   UNL     1       0.179   2.260  -2.185  1.00  0.00     0.238 A 
ATOM      4  O   UNL     1       0.408   2.595  -0.994  1.00  0.00    -0.285 OA
ATOM      5  C   UNL     1       0.295   3.187  -3.250  1.00  0.00     0.111 A 
ATOM      6  C   UNL     1       0.603   4.573  -3.092  1.00  0.00     0.134 A 
ATOM      7  C   UNL     1       0.796   5.372  -4.226  1.00  0.00     0.093 A 
ATOM      8  C   UNL     1       0.630   4.854  -5.509  1.00  0.00     0.123 A 
ATOM      9  C   UNL     1       0.277   3.514  -5.675  1.00  0.00     0.094 A 
ATOM     10  C   UNL     1       0.114   2.682  -4.565  1.00  0.00     0.146 A 
ATOM     11  O   UNL     1      -0.202   1.409  -4.769  1.00  0.00    -0.451 OA
ENDROOT
BRANCH   1  12
ATOM     12  C   UNL     1      -0.709  -0.861  -4.139  1.00  0.00     0.063 A 
ATOM     13  C   UNL     1      -0.042  -3.189  -4.357  1.00  0.00     0.047 A 
ATOM     14  C   UNL     1       0.267  -1.865  -4.038  1.00  0.00     0.020 A 
ATOM     15  C   UNL     1      -1.336  -3.529  -4.767  1.00  0.00     0.119 A 
ATOM     16  C   UNL     1      -2.321  -2.542  -4.848  1.00  0.00     0.093 A 
ATOM     17  C   UNL     1      -2.020  -1.210  -4.524  1.00  0.00     0.130 A 
BRANCH  15  18
ATOM     18  O   UNL     1      -1.654  -4.847  -5.092  1.00  0.00    -0.508 OA
ATOM     19  H   UNL     1      -1.369  -5.259  -5.972  1.00  0.00     0.293 HD
ENDBRANCH  15  18
BRANCH  17  20
ATOM     20  O   UNL     1      -3.025  -0.243  -4.562  1.00  0.00    -0.507 OA
ATOM     21  H   UNL     1      -2.830   0.734  -4.374  1.00  0.00     0.293 HD
ENDBRANCH  17  20
ENDBRANCH   1  12
BRANCH   2  22
ATOM     22  O   UNL     1      -0.362   0.011  -1.417  1.00  0.00    -0.502 OA
ATOM     23  H   UNL     1      -1.185   0.022  -0.827  1.00  0.00     0.293 HD
ENDBRANCH   2  22
BRANCH   6  24
ATOM     24  O   UNL     1       0.704   5.216  -1.854  1.00  0.00    -0.507 OA
ATOM     25  H   UNL     1       0.017   5.164  -1.118  1.00  0.00     0.293 HD
ENDBRANCH   6  24
BRANCH   8  26
ATOM     26  O   UNL     1       0.813   5.683  -6.614  1.00  0.00    -0.508 OA
ATOM     27  H   UNL     1       0.697   6.687  -6.547  1.00  0.00     0.293 HD
ENDBRANCH   8  26
TORSDOF 6
ENDMDL
MODEL 7
REMARK VINA RESULT:    -5.304      2.324      7.329
REMARK INTER + INTRA:          -6.773
REMARK INTER:                  -6.337
REMARK INTRA:                  -0.436
REMARK UNBOUND:                -0.383
REMARK SMILES O=c1c(O)c(-c2ccc(O)cc2O)oc2cc(O)cc(O)c12
REMARK SMILES IDX 5 1 3 2 2 3 1 4 22 5 20 6 19 7 17 8 16 9 15 10 14 11 6 12
REMARK SMILES IDX 8 13 7 14 9 15 11 16 12 17 10 18 13 20 4 22 21 24 18 26
REMARK H PARENT 10 19 13 21 4 23 21 25 18 27
REMARK Flexibility Score: inf
ROOT
ATOM      1  C   UNL     1       0.144   0.220  -3.958  1.00  0.00     0.184 A 
ATOM      2  C   UNL     1       1.263  -0.626  -3.991  1.00  0.00     0.208 A 
ATOM      3  C   UNL     1       1.066  -2.015  -4.015  1.00  0.00     0.238 A 
ATOM      4  O   UNL     1       2.073  -2.768  -3.971  1.00  0.00    -0.285 OA
ATOM      5  C   UNL     1      -0.250  -2.538  -4.060  1.00  0.00     0.111 A 
ATOM      6  C   UNL     1      -0.569  -3.929  -4.131  1.00  0.00     0.134 A 
ATOM      7  C   UNL     1      -1.908  -4.335  -4.064  1.00  0.00     0.093 A 
ATOM      8  C   UNL     1      -2.941  -3.402  -3.994  1.00  0.00     0.123 A 
ATOM      9  C   UNL     1      -2.644  -2.039  -3.979  1.00  0.00     0.094 A 
ATOM     10  C   UNL     1      -1.317  -1.603  -4.006  1.00  0.00     0.146 A 
ATOM     11  O   UNL     1      -1.078  -0.298  -3.969  1.00  0.00    -0.451 OA
ENDROOT
BRANCH   1  12
ATOM     12  C   UNL     1       0.283   1.691  -3.923  1.00  0.00     0.063 A 
ATOM     13  C   UNL     1       0.762   3.759  -5.108  1.00  0.00     0.047 A 
ATOM     14  C   UNL     1       0.628   2.369  -5.103  1.00  0.00     0.020 A 
ATOM     15  C   UNL     1       0.537   4.491  -3.936  1.00  0.00     0.119 A 
ATOM     16  C   UNL     1       0.169   3.827  -2.762  1.00  0.00     0.093 A 
ATOM     17  C   UNL     1       0.027   2.431  -2.751  1.00  0.00     0.130 A 
BRANCH  15  18
ATOM     18  O   UNL     1       0.672   5.878  -3.928  1.00  0.00    -0.508 OA
ATOM     19  H   UNL     1       1.186   6.356  -3.198  1.00  0.00     0.293 HD
ENDBRANCH  15  18
BRANCH  17  20
ATOM     20  O   UNL     1      -0.387   1.785  -1.585  1.00  0.00    -0.507 OA
ATOM     21  H   UNL     1      -0.958   2.255  -0.892  1.00  0.00     0.293 HD
ENDBRANCH  17  20
ENDBRANCH   1  12
BRANCH   2  22
ATOM     22  O   UNL     1       2.551  -0.082  -4.018  1.00  0.00    -0.502 OA
ATOM     23  H   UNL     1       3.012   0.179  -4.881  1.00  0.00     0.293 HD
ENDBRANCH   2  22
BRANCH   6  24
ATOM     24  O   UNL     1       0.381  -4.943  -4.292  1.00  0.00    -0.507 OA
ATOM     25  H   UNL     1       0.453  -5.764  -3.712  1.00  0.00     0.293 HD
ENDBRANCH   6  24
BRANCH   8  26
ATOM     26  O   UNL     1      -4.262  -3.842  -3.947  1.00  0.00    -0.508 OA
ATOM     27  H   UNL     1      -4.953  -3.382  -3.366  1.00  0.00     0.293 HD
ENDBRANCH   8  26
TORSDOF 6
ENDMDL
MODEL 8
REMARK VINA RESULT:    -5.277      2.151      3.292
REMARK INTER + INTRA:          -6.740
REMARK INTER:                  -6.343
REMARK INTRA:                  -0.396
REMARK UNBOUND:                -0.383
REMARK SMILES O=c1c(O)c(-c2ccc(O)cc2O)oc2cc(O)cc(O)c12
REMARK SMILES IDX 5 1 3 2 2 3 1 4 22 5 20 6 19 7 17 8 16 9 15 10 14 11 6 12
REMARK SMILES IDX 8 13 7 14 9 15 11 16 12 17 10 18 13 20 4 22 21 24 18 26
REMARK H PARENT 10 19 13 21 4 23 21 25 18 27
REMARK Flexibility Score: inf
ROOT
ATOM      1  C   UNL     1       0.935  -4.921  -3.195  1.00  0.00     0.184 A 
ATOM      2  C   UNL     1       0.733  -4.798  -1.812  1.00  0.00     0.208 A 
ATOM      3  C   UNL     1      -0.144  -3.811  -1.337  1.00  0.00     0.238 A 
ATOM      4  O   UNL     1      -0.264  -3.657  -0.094  1.00  0.00    -0.285 OA
ATOM      5  C   UNL     1      -0.850  -2.995  -2.256  1.00  0.00     0.111 A 
ATOM      6  C   UNL     1      -1.798  -1.992  -1.891  1.00  0.00     0.134 A 
ATOM      7  C   UNL     1      -2.355  -1.174  -2.882  1.00  0.00     0.093 A 
ATOM      8  C   UNL     1      -2.051  -1.364  -4.228  1.00  0.00     0.123 A 
ATOM      9  C   UNL     1      -1.168  -2.377  -4.603  1.00  0.00     0.094 A 
ATOM     10  C   UNL     1      -0.565  -3.185  -3.634  1.00  0.00     0.146 A 
ATOM     11  O   UNL     1       0.285  -4.123  -4.033  1.00  0.00    -0.451 OA
ENDROOT
BRANCH   1  12
ATOM     12  C   UNL     1       1.851  -5.934  -3.759  1.00  0.00     0.063 A 
ATOM     13  C   UNL     1       4.080  -6.513  -4.539  1.00  0.00     0.047 A 
ATOM     14  C   UNL     1       3.185  -5.579  -4.012  1.00  0.00     0.020 A 
ATOM     15  C   UNL     1       3.655  -7.820  -4.805  1.00  0.00     0.119 A 
ATOM     16  C   UNL     1       2.335  -8.190  -4.534  1.00  0.00     0.093 A 
ATOM     17  C   UNL     1       1.432  -7.259  -3.999  1.00  0.00     0.130 A 
BRANCH  15  18
ATOM     18  O   UNL     1       4.538  -8.759  -5.335  1.00  0.00    -0.508 OA
ATOM     19  H   UNL     1       5.081  -9.371  -4.738  1.00  0.00     0.293 HD
ENDBRANCH  15  18
BRANCH  17  20
ATOM     20  O   UNL     1       0.131  -7.654  -3.688  1.00  0.00    -0.507 OA
ATOM     21  H   UNL     1      -0.054  -8.400  -3.027  1.00  0.00     0.293 HD
ENDBRANCH  17  20
ENDBRANCH   1  12
BRANCH   2  22
ATOM     22  O   UNL     1       1.388  -5.663  -0.929  1.00  0.00    -0.502 OA
ATOM     23  H   UNL     1       1.835  -5.337  -0.081  1.00  0.00     0.293 HD
ENDBRANCH   2  22
BRANCH   6  24
ATOM     24  O   UNL     1      -2.242  -1.774  -0.582  1.00  0.00    -0.507 OA
ATOM     25  H   UNL     1      -3.198  -1.864  -0.274  1.00  0.00     0.293 HD
ENDBRANCH   6  24
BRANCH   8  26
ATOM     26  O   UNL     1      -2.639  -0.543  -5.188  1.00  0.00    -0.508 OA
ATOM     27  H   UNL     1      -2.715  -0.831  -6.157  1.00  0.00     0.293 HD
ENDBRANCH   8  26
TORSDOF 6
ENDMDL
MODEL 9
REMARK VINA RESULT:    -5.113      2.716      3.230
REMARK INTER + INTRA:          -6.542
REMARK INTER:                  -6.155
REMARK INTRA:                  -0.387
REMARK UNBOUND:                -0.383
REMARK SMILES O=c1c(O)c(-c2ccc(O)cc2O)oc2cc(O)cc(O)c12
REMARK SMILES IDX 5 1 3 2 2 3 1 4 22 5 20 6 19 7 17 8 16 9 15 10 14 11 6 12
REMARK SMILES IDX 8 13 7 14 9 15 11 16 12 17 10 18 13 20 4 22 21 24 18 26
REMARK H PARENT 10 19 13 21 4 23 21 25 18 27
REMARK Flexibility Score: inf
ROOT
ATOM      1  C   UNL     1       0.641  -4.813  -3.335  1.00  0.00     0.184 A 
ATOM      2  C   UNL     1      -0.350  -4.269  -4.165  1.00  0.00     0.208 A 
ATOM      3  C   UNL     1      -1.263  -3.350  -3.624  1.00  0.00     0.238 A 
ATOM      4  O   UNL     1      -2.194  -2.923  -4.355  1.00  0.00    -0.285 OA
ATOM      5  C   UNL     1      -1.137  -2.946  -2.273  1.00  0.00     0.111 A 
ATOM      6  C   UNL     1      -1.978  -1.987  -1.629  1.00  0.00     0.134 A 
ATOM      7  C   UNL     1      -1.826  -1.744  -0.258  1.00  0.00     0.093 A 
ATOM      8  C   UNL     1      -0.825  -2.374   0.478  1.00  0.00     0.123 A 
ATOM      9  C   UNL     1       0.038  -3.272  -0.151  1.00  0.00     0.094 A 
ATOM     10  C   UNL     1      -0.112  -3.564  -1.509  1.00  0.00     0.146 A 
ATOM     11  O   UNL     1       0.717  -4.441  -2.063  1.00  0.00    -0.451 OA
ENDROOT
BRANCH   1  12
ATOM     12  C   UNL     1       1.627  -5.791  -3.840  1.00  0.00     0.063 A 
ATOM     13  C   UNL     1       3.877  -6.247  -4.641  1.00  0.00     0.047 A 
ATOM     14  C   UNL     1       2.918  -5.348  -4.167  1.00  0.00     0.020 A 
ATOM     15  C   UNL     1       3.560  -7.603  -4.780  1.00  0.00     0.119 A 
ATOM     16  C   UNL     1       2.285  -8.058  -4.435  1.00  0.00     0.093 A 
ATOM     17  C   UNL     1       1.318  -7.162  -3.952  1.00  0.00     0.130 A 
BRANCH  15  18
ATOM     18  O   UNL     1       4.507  -8.507  -5.257  1.00  0.00    -0.508 OA
ATOM     19  H   UNL     1       4.466  -9.491  -5.019  1.00  0.00     0.293 HD
ENDBRANCH  15  18
BRANCH  17  20
ATOM     20  O   UNL     1       0.065  -7.637  -3.565  1.00  0.00    -0.507 OA
ATOM     21  H   UNL     1      -0.114  -8.627  -3.441  1.00  0.00     0.293 HD
ENDBRANCH  17  20
ENDBRANCH   1  12
BRANCH   2  22
ATOM     22  O   UNL     1      -0.409  -4.631  -5.515  1.00  0.00    -0.502 OA
ATOM     23  H   UNL     1      -1.140  -4.302  -6.134  1.00  0.00     0.293 HD
ENDBRANCH   2  22
BRANCH   6  24
ATOM     24  O   UNL     1      -2.954  -1.233  -2.290  1.00  0.00    -0.507 OA
ATOM     25  H   UNL     1      -3.036  -1.145  -3.291  1.00  0.00     0.293 HD
ENDBRANCH   6  24
BRANCH   8  26
ATOM     26  O   UNL     1      -0.692  -2.094   1.837  1.00  0.00    -0.508 OA
ATOM     27  H   UNL     1      -0.288  -2.766   2.479  1.00  0.00     0.293 HD
ENDBRANCH   8  26
TORSDOF 6
ENDMDL
