MODEL 1
REMARK VINA RESULT:    -5.790      0.000      0.000
REMARK INTER + INTRA:          -7.287
REMARK INTER:                  -6.974
REMARK INTRA:                  -0.312
REMARK UNBOUND:                -0.312
REMARK SMILES O=c1c(O)c(-c2ccc(O)c(O)c2)oc2cc(O)cc(O)c12
REMARK SMILES IDX 5 1 3 2 2 3 1 4 22 5 20 6 19 7 17 8 16 9 15 10 14 11 6 12
REMARK SMILES IDX 7 13 8 14 9 15 13 16 11 17 10 18 12 20 4 22 21 24 18 26
REMARK H PARENT 10 19 12 21 4 23 21 25 18 27
REMARK Flexibility Score: inf
ROOT
ATOM      1  C   UNL     1      56.285 -39.619  50.368  1.00  0.00     0.180 A 
ATOM      2  C   UNL     1      56.341 -39.858  48.984  1.00  0.00     0.208 A 
ATOM      3  C   UNL     1      56.020 -38.816  48.099  1.00  0.00     0.238 A 
ATOM      4  O   UNL     1      56.144 -39.013  46.863  1.00  0.00    -0.285 OA
ATOM      5  C   UNL     1      55.594 -37.564  48.609  1.00  0.00     0.111 A 
ATOM      6  C   UNL     1      55.201 -36.451  47.805  1.00  0.00     0.134 A 
ATOM      7  C   UNL     1      54.899 -35.230  48.419  1.00  0.00     0.093 A 
ATOM      8  C   UNL     1      54.913 -35.098  49.809  1.00  0.00     0.123 A 
ATOM      9  C   UNL     1      55.242 -36.193  50.604  1.00  0.00     0.094 A 
ATOM     10  C   UNL     1      55.585 -37.414  50.020  1.00  0.00     0.146 A 
ATOM     11  O   UNL     1      55.912 -38.426  50.816  1.00  0.00    -0.452 OA
ENDROOT
BRANCH   1  12
ATOM     12  C   UNL     1      56.621 -40.663  51.362  1.00  0.00     0.025 A 
ATOM     13  C   UNL     1      55.675 -41.623  51.765  1.00  0.00     0.016 A 
ATOM     14  C   UNL     1      56.024 -42.615  52.685  1.00  0.00     0.051 A 
ATOM     15  C   UNL     1      57.324 -42.672  53.206  1.00  0.00     0.157 A 
ATOM     16  C   UNL     1      57.929 -40.738  51.870  1.00  0.00     0.062 A 
ATOM     17  C   UNL     1      58.281 -41.730  52.792  1.00  0.00     0.158 A 
BRANCH  15  18
ATOM     18  O   UNL     1      57.667 -43.661  54.125  1.00  0.00    -0.504 OA
ATOM     19  H   UNL     1      58.605 -44.044  54.167  1.00  0.00     0.293 HD
ENDBRANCH  15  18
BRANCH  17  20
ATOM     20  O   UNL     1      59.585 -41.764  53.286  1.00  0.00    -0.504 OA
ATOM     21  H   UNL     1      60.141 -40.924  53.395  1.00  0.00     0.293 HD
ENDBRANCH  17  20
ENDBRANCH   1  12
BRANCH   2  22
ATOM     22  O   UNL     1      56.690 -41.122  48.502  1.00  0.00    -0.502 OA
ATOM     23  H   UNL     1      56.013 -41.867  48.388  1.00  0.00     0.293 HD
ENDBRANCH   2  22
BRANCH   6  24
ATOM     24  O   UNL     1      55.067 -36.498  46.414  1.00  0.00    -0.507 OA
ATOM     25  H   UNL     1      55.096 -37.339  45.859  1.00  0.00     0.293 HD
ENDBRANCH   6  24
BRANCH   8  26
ATOM     26  O   UNL     1      54.594 -33.883  50.412  1.00  0.00    -0.508 OA
ATOM     27  H   UNL     1      54.561 -33.020  49.881  1.00  0.00     0.293 HD
ENDBRANCH   8  26
TORSDOF 6
ENDMDL
MODEL 2
REMARK VINA RESULT:    -5.773      2.938      6.945
REMARK INTER + INTRA:          -7.266
REMARK INTER:                  -7.203
REMARK INTRA:                  -0.063
REMARK UNBOUND:                -0.312
REMARK SMILES O=c1c(O)c(-c2ccc(O)c(O)c2)oc2cc(O)cc(O)c12
REMARK SMILES IDX 5 1 3 2 2 3 1 4 22 5 20 6 19 7 17 8 16 9 15 10 14 11 6 12
REMARK SMILES IDX 7 13 8 14 9 15 13 16 11 17 10 18 12 20 4 22 21 24 18 26
REMARK H PARENT 10 19 12 21 4 23 21 25 18 27
REMARK Flexibility Score: inf
ROOT
ATOM      1  C   UNL     1      55.751 -40.092  48.954  1.00  0.00     0.180 A 
ATOM      2  C   UNL     1      56.517 -40.873  49.836  1.00  0.00     0.208 A 
ATOM      3  C   UNL     1      56.505 -42.270  49.694  1.00  0.00     0.238 A 
ATOM      4  O   UNL     1      57.250 -42.958  50.438  1.00  0.00    -0.285 OA
ATOM      5  C   UNL     1      55.684 -42.872  48.709  1.00  0.00     0.111 A 
ATOM      6  C   UNL     1      55.559 -44.280  48.505  1.00  0.00     0.134 A 
ATOM      7  C   UNL     1      54.799 -44.757  47.431  1.00  0.00     0.093 A 
ATOM      8  C   UNL     1      54.107 -43.881  46.592  1.00  0.00     0.123 A 
ATOM      9  C   UNL     1      54.178 -42.508  46.815  1.00  0.00     0.094 A 
ATOM     10  C   UNL     1      54.959 -42.000  47.856  1.00  0.00     0.146 A 
ATOM     11  O   UNL     1      55.016 -40.682  48.019  1.00  0.00    -0.452 OA
ENDROOT
BRANCH   1  12
ATOM     12  C   UNL     1      55.723 -38.614  49.032  1.00  0.00     0.025 A 
ATOM     13  C   UNL     1      55.371 -37.950  50.221  1.00  0.00     0.016 A 
ATOM     14  C   UNL     1      55.376 -36.553  50.278  1.00  0.00     0.051 A 
ATOM     15  C   UNL     1      55.746 -35.801  49.155  1.00  0.00     0.157 A 
ATOM     16  C   UNL     1      56.114 -37.856  47.916  1.00  0.00     0.062 A 
ATOM     17  C   UNL     1      56.120 -36.457  47.970  1.00  0.00     0.158 A 
BRANCH  15  18
ATOM     18  O   UNL     1      55.749 -34.409  49.215  1.00  0.00    -0.504 OA
ATOM     19  H   UNL     1      55.161 -33.904  49.867  1.00  0.00     0.293 HD
ENDBRANCH  15  18
BRANCH  17  20
ATOM     20  O   UNL     1      56.500 -35.737  46.837  1.00  0.00    -0.504 OA
ATOM     21  H   UNL     1      56.201 -36.001  45.906  1.00  0.00     0.293 HD
ENDBRANCH  17  20
ENDBRANCH   1  12
BRANCH   2  22
ATOM     22  O   UNL     1      57.260 -40.265  50.851  1.00  0.00    -0.502 OA
ATOM     23  H   UNL     1      56.916 -39.469  51.376  1.00  0.00     0.293 HD
ENDBRANCH   2  22
BRANCH   6  24
ATOM     24  O   UNL     1      56.135 -45.246  49.337  1.00  0.00    -0.507 OA
ATOM     25  H   UNL     1      56.977 -45.760  49.128  1.00  0.00     0.293 HD
ENDBRANCH   6  24
BRANCH   8  26
ATOM     26  O   UNL     1      53.339 -44.365  45.536  1.00  0.00    -0.508 OA
ATOM     27  H   UNL     1      52.560 -44.994  45.691  1.00  0.00     0.293 HD
ENDBRANCH   8  26
TORSDOF 6
ENDMDL
MODEL 3
REMARK VINA RESULT:    -5.724      2.937      6.877
REMARK INTER + INTRA:          -7.208
REMARK INTER:                  -7.189
REMARK INTRA:                  -0.018
REMARK UNBOUND:                -0.312
REMARK SMILES O=c1c(O)c(-c2ccc(O)c(O)c2)oc2cc(O)cc(O)c12
REMARK SMILES IDX 5 1 3 2 2 3 1 4 22 5 20 6 19 7 17 8 16 9 15 10 14 11 6 12
REMARK SMILES IDX 7 13 8 14 9 15 13 16 11 17 10 18 12 20 4 22 21 24 18 26
REMARK H PARENT 10 19 12 21 4 23 21 25 18 27
REMARK Flexibility Score: inf
ROOT
ATOM      1  C   UNL     1      55.819 -40.095  48.979  1.00  0.00     0.180 A 
ATOM      2  C   UNL     1      56.545 -40.868  49.902  1.00  0.00     0.208 A 
ATOM      3  C   UNL     1      56.516 -42.267  49.790  1.00  0.00     0.238 A 
ATOM      4  O   UNL     1      57.227 -42.950  50.571  1.00  0.00    -0.285 OA
ATOM      5  C   UNL     1      55.717 -42.878  48.792  1.00  0.00     0.111 A 
ATOM      6  C   UNL     1      55.576 -44.288  48.615  1.00  0.00     0.134 A 
ATOM      7  C   UNL     1      54.842 -44.777  47.528  1.00  0.00     0.093 A 
ATOM      8  C   UNL     1      54.191 -43.909  46.648  1.00  0.00     0.123 A 
ATOM      9  C   UNL     1      54.277 -42.533  46.845  1.00  0.00     0.094 A 
ATOM     10  C   UNL     1      55.033 -42.014  47.898  1.00  0.00     0.146 A 
ATOM     11  O   UNL     1      55.105 -40.695  48.035  1.00  0.00    -0.452 OA
ENDROOT
BRANCH   1  12
ATOM     12  C   UNL     1      55.813 -38.615  49.025  1.00  0.00     0.025 A 
ATOM     13  C   UNL     1      56.112 -37.846  47.886  1.00  0.00     0.016 A 
ATOM     14  C   UNL     1      56.074 -36.450  47.948  1.00  0.00     0.051 A 
ATOM     15  C   UNL     1      55.724 -35.803  49.140  1.00  0.00     0.157 A 
ATOM     16  C   UNL     1      55.442 -37.963  50.212  1.00  0.00     0.062 A 
ATOM     17  C   UNL     1      55.403 -36.565  50.277  1.00  0.00     0.158 A 
BRANCH  15  18
ATOM     18  O   UNL     1      55.689 -34.411  49.198  1.00  0.00    -0.504 OA
ATOM     19  H   UNL     1      54.965 -33.919  49.708  1.00  0.00     0.293 HD
ENDBRANCH  15  18
BRANCH  17  20
ATOM     20  O   UNL     1      55.045 -35.952  51.477  1.00  0.00    -0.504 OA
ATOM     21  H   UNL     1      54.536 -36.443  52.202  1.00  0.00     0.293 HD
ENDBRANCH  17  20
ENDBRANCH   1  12
BRANCH   2  22
ATOM     22  O   UNL     1      57.266 -40.249  50.926  1.00  0.00    -0.502 OA
ATOM     23  H   UNL     1      56.827 -39.655  51.619  1.00  0.00     0.293 HD
ENDBRANCH   2  22
BRANCH   6  24
ATOM     24  O   UNL     1      56.110 -45.245  49.485  1.00  0.00    -0.507 OA
ATOM     25  H   UNL     1      56.940 -45.118  50.043  1.00  0.00     0.293 HD
ENDBRANCH   6  24
BRANCH   8  26
ATOM     26  O   UNL     1      53.449 -44.405  45.579  1.00  0.00    -0.508 OA
ATOM     27  H   UNL     1      53.891 -44.887  44.805  1.00  0.00     0.293 HD
ENDBRANCH   8  26
TORSDOF 6
ENDMDL
MODEL 4
REMARK VINA RESULT:    -5.658      2.637      3.510
REMARK INTER + INTRA:          -7.128
REMARK INTER:                  -6.921
REMARK INTRA:                  -0.207
REMARK UNBOUND:                -0.312
REMARK SMILES O=c1c(O)c(-c2ccc(O)c(O)c2)oc2cc(O)cc(O)c12
REMARK SMILES IDX 5 1 3 2 2 3 1 4 22 5 20 6 19 7 17 8 16 9 15 10 14 11 6 12
REMARK SMILES IDX 7 13 8 14 9 15 13 16 11 17 10 18 12 20 4 22 21 24 18 26
REMARK H PARENT 10 19 12 21 4 23 21 25 18 27
REMARK Flexibility Score: inf
ROOT
ATOM      1  C   UNL     1      55.606 -39.698  48.557  1.00  0.00     0.180 A 
ATOM      2  C   UNL     1      56.084 -38.776  47.609  1.00  0.00     0.208 A 
ATOM      3  C   UNL     1      56.067 -37.407  47.921  1.00  0.00     0.238 A 
ATOM      4  O   UNL     1      56.565 -36.595  47.100  1.00  0.00    -0.285 OA
ATOM      5  C   UNL     1      55.521 -36.972  49.154  1.00  0.00     0.111 A 
ATOM      6  C   UNL     1      55.411 -35.606  49.556  1.00  0.00     0.134 A 
ATOM      7  C   UNL     1      54.950 -35.301  50.843  1.00  0.00     0.093 A 
ATOM      8  C   UNL     1      54.535 -36.307  51.718  1.00  0.00     0.123 A 
ATOM      9  C   UNL     1      54.587 -37.639  51.315  1.00  0.00     0.094 A 
ATOM     10  C   UNL     1      55.078 -37.978  50.052  1.00  0.00     0.146 A 
ATOM     11  O   UNL     1      55.130 -39.263  49.717  1.00  0.00    -0.452 OA
ENDROOT
BRANCH   1  12
ATOM     12  C   UNL     1      55.605 -41.157  48.306  1.00  0.00     0.025 A 
ATOM     13  C   UNL     1      54.761 -41.733  47.339  1.00  0.00     0.016 A 
ATOM     14  C   UNL     1      54.797 -43.110  47.102  1.00  0.00     0.051 A 
ATOM     15  C   UNL     1      55.682 -43.928  47.815  1.00  0.00     0.157 A 
ATOM     16  C   UNL     1      56.507 -41.978  49.003  1.00  0.00     0.062 A 
ATOM     17  C   UNL     1      56.544 -43.358  48.767  1.00  0.00     0.158 A 
BRANCH  15  18
ATOM     18  O   UNL     1      55.713 -45.301  47.577  1.00  0.00    -0.504 OA
ATOM     19  H   UNL     1      55.984 -45.959  48.299  1.00  0.00     0.293 HD
ENDBRANCH  15  18
BRANCH  17  20
ATOM     20  O   UNL     1      57.442 -44.144  49.489  1.00  0.00    -0.504 OA
ATOM     21  H   UNL     1      58.259 -44.560  49.060  1.00  0.00     0.293 HD
ENDBRANCH  17  20
ENDBRANCH   1  12
BRANCH   2  22
ATOM     22  O   UNL     1      56.549 -39.220  46.368  1.00  0.00    -0.502 OA
ATOM     23  H   UNL     1      56.000 -39.821  45.765  1.00  0.00     0.293 HD
ENDBRANCH   2  22
BRANCH   6  24
ATOM     24  O   UNL     1      55.713 -34.519  48.730  1.00  0.00    -0.507 OA
ATOM     25  H   UNL     1      55.132 -34.189  47.975  1.00  0.00     0.293 HD
ENDBRANCH   6  24
BRANCH   8  26
ATOM     26  O   UNL     1      54.062 -35.993  52.990  1.00  0.00    -0.508 OA
ATOM     27  H   UNL     1      53.447 -35.203  53.147  1.00  0.00     0.293 HD
ENDBRANCH   8  26
TORSDOF 6
ENDMDL
MODEL 5
REMARK VINA RESULT:    -5.618      9.346     12.128
REMARK INTER + INTRA:          -7.080
REMARK INTER:                  -6.850
REMARK INTRA:                  -0.230
REMARK UNBOUND:                -0.312
REMARK SMILES O=c1c(O)c(-c2ccc(O)c(O)c2)oc2cc(O)cc(O)c12
REMARK SMILES IDX 5 1 3 2 2 3 1 4 22 5 20 6 19 7 17 8 16 9 15 10 14 11 6 12
REMARK SMILES IDX 7 13 8 14 9 15 13 16 11 17 10 18 12 20 4 22 21 24 18 26
REMARK H PARENT 10 19 12 21 4 23 21 25 18 27
REMARK Flexibility Score: inf
ROOT
ATOM      1  C   UNL     1      55.354 -37.186  38.844  1.00  0.00     0.180 A 
ATOM      2  C   UNL     1      54.300 -37.035  37.926  1.00  0.00     0.208 A 
ATOM      3  C   UNL     1      54.267 -35.894  37.109  1.00  0.00     0.238 A 
ATOM      4  O   UNL     1      53.364 -35.801  36.238  1.00  0.00    -0.285 OA
ATOM      5  C   UNL     1      55.255 -34.890  37.260  1.00  0.00     0.111 A 
ATOM      6  C   UNL     1      55.294 -33.671  36.517  1.00  0.00     0.134 A 
ATOM      7  C   UNL     1      56.379 -32.800  36.676  1.00  0.00     0.093 A 
ATOM      8  C   UNL     1      57.394 -33.073  37.596  1.00  0.00     0.123 A 
ATOM      9  C   UNL     1      57.337 -34.233  38.365  1.00  0.00     0.094 A 
ATOM     10  C   UNL     1      56.286 -35.139  38.202  1.00  0.00     0.146 A 
ATOM     11  O   UNL     1      56.284 -36.244  38.940  1.00  0.00    -0.452 OA
ENDROOT
BRANCH   1  12
ATOM     12  C   UNL     1      55.464 -38.368  39.729  1.00  0.00     0.025 A 
ATOM     13  C   UNL     1      55.174 -38.285  41.102  1.00  0.00     0.016 A 
ATOM     14  C   UNL     1      55.261 -39.420  41.912  1.00  0.00     0.051 A 
ATOM     15  C   UNL     1      55.625 -40.656  41.362  1.00  0.00     0.157 A 
ATOM     16  C   UNL     1      55.808 -39.613  39.177  1.00  0.00     0.062 A 
ATOM     17  C   UNL     1      55.896 -40.752  39.986  1.00  0.00     0.158 A 
BRANCH  15  18
ATOM     18  O   UNL     1      55.713 -41.786  42.173  1.00  0.00    -0.504 OA
ATOM     19  H   UNL     1      55.929 -42.699  41.790  1.00  0.00     0.293 HD
ENDBRANCH  15  18
BRANCH  17  20
ATOM     20  O   UNL     1      56.255 -41.969  39.406  1.00  0.00    -0.504 OA
ATOM     21  H   UNL     1      56.864 -42.629  39.874  1.00  0.00     0.293 HD
ENDBRANCH  17  20
ENDBRANCH   1  12
BRANCH   2  22
ATOM     22  O   UNL     1      53.293 -38.000  37.846  1.00  0.00    -0.502 OA
ATOM     23  H   UNL     1      52.318 -37.759  37.709  1.00  0.00     0.293 HD
ENDBRANCH   2  22
BRANCH   6  24
ATOM     24  O   UNL     1      54.289 -33.256  35.636  1.00  0.00    -0.507 OA
ATOM     25  H   UNL     1      53.321 -33.127  35.886  1.00  0.00     0.293 HD
ENDBRANCH   6  24
BRANCH   8  26
ATOM     26  O   UNL     1      58.461 -32.192  37.760  1.00  0.00    -0.508 OA
ATOM     27  H   UNL     1      58.880 -31.715  36.971  1.00  0.00     0.293 HD
ENDBRANCH   8  26
TORSDOF 6
ENDMDL
MODEL 6
REMARK VINA RESULT:    -5.570      1.841      6.820
REMARK INTER + INTRA:          -7.021
REMARK INTER:                  -6.693
REMARK INTRA:                  -0.328
REMARK UNBOUND:                -0.312
REMARK SMILES O=c1c(O)c(-c2ccc(O)c(O)c2)oc2cc(O)cc(O)c12
REMARK SMILES IDX 5 1 3 2 2 3 1 4 22 5 20 6 19 7 17 8 16 9 15 10 14 11 6 12
REMARK SMILES IDX 7 13 8 14 9 15 13 16 11 17 10 18 12 20 4 22 21 24 18 26
REMARK H PARENT 10 19 12 21 4 23 21 25 18 27
REMARK Flexibility Score: inf
ROOT
ATOM      1  C   UNL     1      55.764 -39.598  48.508  1.00  0.00     0.180 A 
ATOM      2  C   UNL     1      55.629 -40.741  47.701  1.00  0.00     0.208 A 
ATOM      3  C   UNL     1      55.940 -41.999  48.243  1.00  0.00     0.238 A 
ATOM      4  O   UNL     1      55.745 -43.024  47.540  1.00  0.00    -0.285 OA
ATOM      5  C   UNL     1      56.435 -42.092  49.567  1.00  0.00     0.111 A 
ATOM      6  C   UNL     1      56.824 -43.310  50.203  1.00  0.00     0.134 A 
ATOM      7  C   UNL     1      57.200 -43.294  51.552  1.00  0.00     0.093 A 
ATOM      8  C   UNL     1      57.262 -42.097  52.270  1.00  0.00     0.123 A 
ATOM      9  C   UNL     1      56.937 -40.897  51.642  1.00  0.00     0.094 A 
ATOM     10  C   UNL     1      56.522 -40.886  50.308  1.00  0.00     0.146 A 
ATOM     11  O   UNL     1      56.200 -39.721  49.755  1.00  0.00    -0.452 OA
ENDROOT
BRANCH   1  12
ATOM     12  C   UNL     1      55.443 -38.241  48.012  1.00  0.00     0.025 A 
ATOM     13  C   UNL     1      54.167 -37.679  48.190  1.00  0.00     0.016 A 
ATOM     14  C   UNL     1      53.895 -36.386  47.735  1.00  0.00     0.051 A 
ATOM     15  C   UNL     1      54.896 -35.631  47.109  1.00  0.00     0.157 A 
ATOM     16  C   UNL     1      56.450 -37.473  47.403  1.00  0.00     0.062 A 
ATOM     17  C   UNL     1      56.180 -36.177  46.946  1.00  0.00     0.158 A 
BRANCH  15  18
ATOM     18  O   UNL     1      54.621 -34.342  46.655  1.00  0.00    -0.504 OA
ATOM     19  H   UNL     1      55.116 -33.535  47.016  1.00  0.00     0.293 HD
ENDBRANCH  15  18
BRANCH  17  20
ATOM     20  O   UNL     1      57.200 -35.449  46.334  1.00  0.00    -0.504 OA
ATOM     21  H   UNL     1      57.630 -34.646  46.777  1.00  0.00     0.293 HD
ENDBRANCH  17  20
ENDBRANCH   1  12
BRANCH   2  22
ATOM     22  O   UNL     1      55.212 -40.619  46.373  1.00  0.00    -0.502 OA
ATOM     23  H   UNL     1      54.246 -40.739  46.092  1.00  0.00     0.293 HD
ENDBRANCH   2  22
BRANCH   6  24
ATOM     24  O   UNL     1      56.885 -44.549  49.556  1.00  0.00    -0.507 OA
ATOM     25  H   UNL     1      56.384 -44.785  48.714  1.00  0.00     0.293 HD
ENDBRANCH   6  24
BRANCH   8  26
ATOM     26  O   UNL     1      57.653 -42.089  53.606  1.00  0.00    -0.508 OA
ATOM     27  H   UNL     1      57.283 -41.412  54.263  1.00  0.00     0.293 HD
ENDBRANCH   8  26
TORSDOF 6
ENDMDL
MODEL 7
REMARK VINA RESULT:    -5.432     10.815     11.952
REMARK INTER + INTRA:          -6.855
REMARK INTER:                  -6.535
REMARK INTRA:                  -0.320
REMARK UNBOUND:                -0.312
REMARK SMILES O=c1c(O)c(-c2ccc(O)c(O)c2)oc2cc(O)cc(O)c12
REMARK SMILES IDX 5 1 3 2 2 3 1 4 22 5 20 6 19 7 17 8 16 9 15 10 14 11 6 12
REMARK SMILES IDX 7 13 8 14 9 15 13 16 11 17 10 18 12 20 4 22 21 24 18 26
REMARK H PARENT 10 19 12 21 4 23 21 25 18 27
REMARK Flexibility Score: inf
ROOT
ATOM      1  C   UNL     1      55.285 -37.718  38.766  1.00  0.00     0.180 A 
ATOM      2  C   UNL     1      56.545 -37.494  38.185  1.00  0.00     0.208 A 
ATOM      3  C   UNL     1      57.199 -36.275  38.425  1.00  0.00     0.238 A 
ATOM      4  O   UNL     1      58.358 -36.111  37.964  1.00  0.00    -0.285 OA
ATOM      5  C   UNL     1      56.560 -35.273  39.196  1.00  0.00     0.111 A 
ATOM      6  C   UNL     1      57.110 -33.983  39.466  1.00  0.00     0.134 A 
ATOM      7  C   UNL     1      56.434 -33.112  40.329  1.00  0.00     0.093 A 
ATOM      8  C   UNL     1      55.199 -33.458  40.882  1.00  0.00     0.123 A 
ATOM      9  C   UNL     1      54.629 -34.692  40.581  1.00  0.00     0.094 A 
ATOM     10  C   UNL     1      55.296 -35.598  39.753  1.00  0.00     0.146 A 
ATOM     11  O   UNL     1      54.725 -36.773  39.510  1.00  0.00    -0.452 OA
ENDROOT
BRANCH   1  12
ATOM     12  C   UNL     1      54.541 -38.983  38.570  1.00  0.00     0.025 A 
ATOM     13  C   UNL     1      53.713 -39.180  37.450  1.00  0.00     0.016 A 
ATOM     14  C   UNL     1      53.040 -40.392  37.274  1.00  0.00     0.051 A 
ATOM     15  C   UNL     1      53.195 -41.429  38.204  1.00  0.00     0.157 A 
ATOM     16  C   UNL     1      54.710 -40.033  39.488  1.00  0.00     0.062 A 
ATOM     17  C   UNL     1      54.038 -41.248  39.313  1.00  0.00     0.158 A 
BRANCH  15  18
ATOM     18  O   UNL     1      52.522 -42.636  38.025  1.00  0.00    -0.504 OA
ATOM     19  H   UNL     1      52.207 -43.190  38.813  1.00  0.00     0.293 HD
ENDBRANCH  15  18
BRANCH  17  20
ATOM     20  O   UNL     1      54.218 -42.263  40.253  1.00  0.00    -0.504 OA
ATOM     21  H   UNL     1      53.703 -42.288  41.125  1.00  0.00     0.293 HD
ENDBRANCH  17  20
ENDBRANCH   1  12
BRANCH   2  22
ATOM     22  O   UNL     1      57.124 -38.466  37.365  1.00  0.00    -0.502 OA
ATOM     23  H   UNL     1      57.640 -39.255  37.736  1.00  0.00     0.293 HD
ENDBRANCH   2  22
BRANCH   6  24
ATOM     24  O   UNL     1      58.293 -33.500  38.897  1.00  0.00    -0.507 OA
ATOM     25  H   UNL     1      58.557 -32.528  38.853  1.00  0.00     0.293 HD
ENDBRANCH   6  24
BRANCH   8  26
ATOM     26  O   UNL     1      54.526 -32.578  41.726  1.00  0.00    -0.508 OA
ATOM     27  H   UNL     1      54.661 -31.575  41.664  1.00  0.00     0.293 HD
ENDBRANCH   8  26
TORSDOF 6
ENDMDL
MODEL 8
REMARK VINA RESULT:    -5.376      1.647      6.840
REMARK INTER + INTRA:          -6.788
REMARK INTER:                  -6.456
REMARK INTRA:                  -0.331
REMARK UNBOUND:                -0.312
REMARK SMILES O=c1c(O)c(-c2ccc(O)c(O)c2)oc2cc(O)cc(O)c12
REMARK SMILES IDX 5 1 3 2 2 3 1 4 22 5 20 6 19 7 17 8 16 9 15 10 14 11 6 12
REMARK SMILES IDX 7 13 8 14 9 15 13 16 11 17 10 18 12 20 4 22 21 24 18 26
REMARK H PARENT 10 19 12 21 4 23 21 25 18 27
REMARK Flexibility Score: inf
ROOT
ATOM      1  C   UNL     1      55.412 -39.119  50.596  1.00  0.00     0.180 A 
ATOM      2  C   UNL     1      54.399 -40.054  50.322  1.00  0.00     0.208 A 
ATOM      3  C   UNL     1      54.589 -41.394  50.694  1.00  0.00     0.238 A 
ATOM      4  O   UNL     1      53.649 -42.211  50.514  1.00  0.00    -0.285 OA
ATOM      5  C   UNL     1      55.814 -41.794  51.285  1.00  0.00     0.111 A 
ATOM      6  C   UNL     1      56.134 -43.134  51.662  1.00  0.00     0.134 A 
ATOM      7  C   UNL     1      57.333 -43.394  52.335  1.00  0.00     0.093 A 
ATOM      8  C   UNL     1      58.254 -42.374  52.588  1.00  0.00     0.123 A 
ATOM      9  C   UNL     1      57.975 -41.073  52.176  1.00  0.00     0.094 A 
ATOM     10  C   UNL     1      56.769 -40.776  51.536  1.00  0.00     0.146 A 
ATOM     11  O   UNL     1      56.535 -39.518  51.180  1.00  0.00    -0.452 OA
ENDROOT
BRANCH   1  12
ATOM     12  C   UNL     1      55.278 -37.687  50.246  1.00  0.00     0.025 A 
ATOM     13  C   UNL     1      54.731 -36.760  51.151  1.00  0.00     0.016 A 
ATOM     14  C   UNL     1      54.638 -35.408  50.806  1.00  0.00     0.051 A 
ATOM     15  C   UNL     1      55.102 -34.961  49.562  1.00  0.00     0.157 A 
ATOM     16  C   UNL     1      55.761 -37.231  49.008  1.00  0.00     0.062 A 
ATOM     17  C   UNL     1      55.669 -35.878  48.661  1.00  0.00     0.158 A 
BRANCH  15  18
ATOM     18  O   UNL     1      55.006 -33.613  49.222  1.00  0.00    -0.504 OA
ATOM     19  H   UNL     1      55.830 -33.033  49.115  1.00  0.00     0.293 HD
ENDBRANCH  15  18
BRANCH  17  20
ATOM     20  O   UNL     1      56.146 -35.464  47.417  1.00  0.00    -0.504 OA
ATOM     21  H   UNL     1      56.390 -36.123  46.688  1.00  0.00     0.293 HD
ENDBRANCH  17  20
ENDBRANCH   1  12
BRANCH   2  22
ATOM     22  O   UNL     1      53.230 -39.654  49.669  1.00  0.00    -0.502 OA
ATOM     23  H   UNL     1      52.613 -38.942  50.043  1.00  0.00     0.293 HD
ENDBRANCH   2  22
BRANCH   6  24
ATOM     24  O   UNL     1      55.328 -44.242  51.379  1.00  0.00    -0.507 OA
ATOM     25  H   UNL     1      55.507 -44.915  50.649  1.00  0.00     0.293 HD
ENDBRANCH   6  24
BRANCH   8  26
ATOM     26  O   UNL     1      59.453 -42.644  53.244  1.00  0.00    -0.508 OA
ATOM     27  H   UNL     1      59.802 -43.591  53.341  1.00  0.00     0.293 HD
ENDBRANCH   8  26
TORSDOF 6
ENDMDL
MODEL 9
REMARK VINA RESULT:    -5.362      9.333     12.808
REMARK INTER + INTRA:          -6.772
REMARK INTER:                  -6.622
REMARK INTRA:                  -0.150
REMARK UNBOUND:                -0.312
REMARK SMILES O=c1c(O)c(-c2ccc(O)c(O)c2)oc2cc(O)cc(O)c12
REMARK SMILES IDX 5 1 3 2 2 3 1 4 22 5 20 6 19 7 17 8 16 9 15 10 14 11 6 12
REMARK SMILES IDX 7 13 8 14 9 15 13 16 11 17 10 18 12 20 4 22 21 24 18 26
REMARK H PARENT 10 19 12 21 4 23 21 25 18 27
REMARK Flexibility Score: inf
ROOT
ATOM      1  C   UNL     1      55.585 -36.585  39.201  1.00  0.00     0.180 A 
ATOM      2  C   UNL     1      55.154 -37.130  37.980  1.00  0.00     0.208 A 
ATOM      3  C   UNL     1      54.877 -38.505  37.908  1.00  0.00     0.238 A 
ATOM      4  O   UNL     1      54.420 -38.973  36.834  1.00  0.00    -0.285 OA
ATOM      5  C   UNL     1      55.088 -39.327  39.043  1.00  0.00     0.111 A 
ATOM      6  C   UNL     1      54.884 -40.740  39.071  1.00  0.00     0.134 A 
ATOM      7  C   UNL     1      55.023 -41.433  40.279  1.00  0.00     0.093 A 
ATOM      8  C   UNL     1      55.423 -40.777  41.446  1.00  0.00     0.123 A 
ATOM      9  C   UNL     1      55.677 -39.408  41.416  1.00  0.00     0.094 A 
ATOM     10  C   UNL     1      55.510 -38.682  40.234  1.00  0.00     0.146 A 
ATOM     11  O   UNL     1      55.743 -37.374  40.256  1.00  0.00    -0.452 OA
ENDROOT
BRANCH   1  12
ATOM     12  C   UNL     1      55.883 -35.143  39.358  1.00  0.00     0.025 A 
ATOM     13  C   UNL     1      55.151 -34.336  40.247  1.00  0.00     0.016 A 
ATOM     14  C   UNL     1      55.468 -32.983  40.396  1.00  0.00     0.051 A 
ATOM     15  C   UNL     1      56.527 -32.420  39.673  1.00  0.00     0.157 A 
ATOM     16  C   UNL     1      56.958 -34.580  38.651  1.00  0.00     0.062 A 
ATOM     17  C   UNL     1      57.278 -33.225  38.799  1.00  0.00     0.158 A 
BRANCH  15  18
ATOM     18  O   UNL     1      56.839 -31.070  39.823  1.00  0.00    -0.504 OA
ATOM     19  H   UNL     1      57.469 -30.749  40.548  1.00  0.00     0.293 HD
ENDBRANCH  15  18
BRANCH  17  20
ATOM     20  O   UNL     1      58.342 -32.696  38.069  1.00  0.00    -0.504 OA
ATOM     21  H   UNL     1      58.988 -33.284  37.556  1.00  0.00     0.293 HD
ENDBRANCH  17  20
ENDBRANCH   1  12
BRANCH   2  22
ATOM     22  O   UNL     1      55.025 -36.316  36.852  1.00  0.00    -0.502 OA
ATOM     23  H   UNL     1      55.363 -36.594  35.938  1.00  0.00     0.293 HD
ENDBRANCH   2  22
BRANCH   6  24
ATOM     24  O   UNL     1      54.570 -41.510  37.946  1.00  0.00    -0.507 OA
ATOM     25  H   UNL     1      55.241 -41.860  37.281  1.00  0.00     0.293 HD
ENDBRANCH   6  24
BRANCH   8  26
ATOM     26  O   UNL     1      55.576 -41.478  42.640  1.00  0.00    -0.508 OA
ATOM     27  H   UNL     1      56.274 -41.213  43.324  1.00  0.00     0.293 HD
ENDBRANCH   8  26
TORSDOF 6
ENDMDL
