MODEL 1
REMARK VINA RESULT:    12.553      0.000      0.000
REMARK INTER + INTRA:          14.627
REMARK INTER:                  14.755
REMARK INTRA:                  -0.128
REMARK UNBOUND:                -0.128
REMARK SMILES O=C([O-])C=Cc1ccc(O)c(O)c1
REMARK SMILES IDX 6 1 13 2 7 3 11 4 8 5 9 6 5 7 4 8 2 9 1 10 3 11 12 12 10 14
REMARK H PARENT 12 13 10 15
REMARK Flexibility Score: inf
ROOT
ATOM      1  C   UNL     1       4.835  15.947  -6.190  1.00  0.00    -0.022 A 
ATOM      2  C   UNL     1       4.870  15.712  -7.576  1.00  0.00     0.058 A 
ATOM      3  C   UNL     1       4.873  17.277  -5.725  1.00  0.00     0.012 A 
ATOM      4  C   UNL     1       4.967  16.780  -8.481  1.00  0.00     0.157 A 
ATOM      5  C   UNL     1       4.969  18.340  -6.627  1.00  0.00     0.051 A 
ATOM      6  C   UNL     1       5.019  18.095  -8.005  1.00  0.00     0.157 A 
ENDROOT
BRANCH   1   7
ATOM      7  C   UNL     1       4.722  14.784  -5.276  1.00  0.00     0.010 C 
ATOM      8  C   UNL     1       3.666  13.958  -5.248  1.00  0.00     0.025 C 
BRANCH   8   9
ATOM      9  C   UNL     1       3.583  12.820  -4.318  1.00  0.00     0.064 C 
ATOM     10  O   UNL     1       2.470  12.393  -3.908  1.00  0.00    -0.545 OA
ATOM     11  O   UNL     1       4.751  12.206  -3.884  1.00  0.00    -0.545 OA
ENDBRANCH   8   9
ENDBRANCH   1   7
BRANCH   4  12
ATOM     12  O   UNL     1       5.011  16.539  -9.853  1.00  0.00    -0.504 OA
ATOM     13  H   UNL     1       4.417  17.045 -10.499  1.00  0.00     0.293 HD
ENDBRANCH   4  12
BRANCH   6  14
ATOM     14  O   UNL     1       5.116  19.153  -8.908  1.00  0.00    -0.504 OA
ATOM     15  H   UNL     1       5.888  19.224  -9.560  1.00  0.00     0.293 HD
ENDBRANCH   6  14
TORSDOF 4
ENDMDL
