MODEL 1
REMARK VINA RESULT:    -4.480      0.000      0.000
REMARK INTER + INTRA:          -7.654
REMARK INTER:                  -7.099
REMARK INTRA:                  -0.555
REMARK UNBOUND:                -0.555
REMARK SMILES CCCCCCCCCCCC(=O)[O-]
REMARK SMILES IDX 7 1 8 2 9 3 10 4 11 5 12 6 13 7 14 8 6 9 5 10 4 11 3 12 2 13
REMARK SMILES IDX 1 14
REMARK H PARENT
REMARK Flexibility Score: inf
ROOT
ATOM      1  C   UNL     1      10.117 -11.686 -23.744  1.00  0.00     0.000 C 
ENDROOT
BRANCH   1   2
ATOM      2  C   UNL     1       9.421 -12.929 -24.336  1.00  0.00     0.000 C 
BRANCH   2   3
ATOM      3  C   UNL     1      10.061 -14.278 -23.964  1.00  0.00     0.000 C 
BRANCH   3   4
ATOM      4  C   UNL     1      10.901 -14.212 -22.677  1.00  0.00     0.006 C 
BRANCH   4   5
ATOM      5  C   UNL     1      10.100 -14.655 -21.446  1.00  0.00     0.053 C 
BRANCH   5   6
ATOM      6  C   UNL     1      10.240 -13.679 -20.317  1.00  0.00     0.041 C 
ATOM      7  O   UNL     1       9.929 -12.470 -20.481  1.00  0.00    -0.550 OA
ATOM      8  O   UNL     1      10.747 -14.099 -19.094  1.00  0.00    -0.550 OA
ENDBRANCH   5   6
ENDBRANCH   4   5
ENDBRANCH   3   4
ENDBRANCH   2   3
ENDBRANCH   1   2
BRANCH   1   9
ATOM      9  C   UNL     1       9.737 -10.345 -24.398  1.00  0.00     0.000 C 
BRANCH   9  10
ATOM     10  C   UNL     1       9.336 -10.491 -25.875  1.00  0.00    -0.000 C 
BRANCH  10  11
ATOM     11  C   UNL     1       8.443  -9.327 -26.358  1.00  0.00    -0.000 C 
BRANCH  11  12
ATOM     12  C   UNL     1       9.015  -7.929 -26.052  1.00  0.00    -0.000 C 
BRANCH  12  13
ATOM     13  C   UNL     1       9.006  -6.950 -27.238  1.00  0.00    -0.003 C 
ATOM     14  C   UNL     1       9.064  -7.650 -28.594  1.00  0.00     0.004 C 
ENDBRANCH  12  13
ENDBRANCH  11  12
ENDBRANCH  10  11
ENDBRANCH   9  10
ENDBRANCH   1   9
TORSDOF 10
ENDMDL
MODEL 2
REMARK VINA RESULT:    -4.473      1.829      3.366
REMARK INTER + INTRA:          -7.643
REMARK INTER:                  -6.903
REMARK INTRA:                  -0.740
REMARK UNBOUND:                -0.555
REMARK SMILES CCCCCCCCCCCC(=O)[O-]
REMARK SMILES IDX 7 1 8 2 9 3 10 4 11 5 12 6 13 7 14 8 6 9 5 10 4 11 3 12 2 13
REMARK SMILES IDX 1 14
REMARK H PARENT
REMARK Flexibility Score: inf
ROOT
ATOM      1  C   UNL     1      10.011 -15.432 -25.045  1.00  0.00     0.000 C 
ENDROOT
BRANCH   1   2
ATOM      2  C   UNL     1      10.013 -16.417 -23.858  1.00  0.00     0.000 C 
BRANCH   2   3
ATOM      3  C   UNL     1      10.986 -16.068 -22.718  1.00  0.00     0.000 C 
BRANCH   3   4
ATOM      4  C   UNL     1      10.391 -16.316 -21.322  1.00  0.00     0.006 C 
BRANCH   4   5
ATOM      5  C   UNL     1       9.844 -15.028 -20.694  1.00  0.00     0.053 C 
BRANCH   5   6
ATOM      6  C   UNL     1      10.670 -14.593 -19.522  1.00  0.00     0.041 C 
ATOM      7  O   UNL     1      11.196 -15.448 -18.763  1.00  0.00    -0.550 OA
ATOM      8  O   UNL     1      10.831 -13.240 -19.249  1.00  0.00    -0.550 OA
ENDBRANCH   5   6
ENDBRANCH   4   5
ENDBRANCH   3   4
ENDBRANCH   2   3
ENDBRANCH   1   2
BRANCH   1   9
ATOM      9  C   UNL     1       8.666 -14.734 -25.318  1.00  0.00     0.000 C 
BRANCH   9  10
ATOM     10  C   UNL     1       8.513 -13.407 -24.557  1.00  0.00    -0.000 C 
BRANCH  10  11
ATOM     11  C   UNL     1       9.875 -12.797 -24.160  1.00  0.00    -0.000 C 
BRANCH  11  12
ATOM     12  C   UNL     1       9.819 -11.289 -23.847  1.00  0.00    -0.000 C 
BRANCH  12  13
ATOM     13  C   UNL     1       9.873 -10.369 -25.077  1.00  0.00    -0.003 C 
ATOM     14  C   UNL     1       9.434  -8.937 -24.775  1.00  0.00     0.004 C 
ENDBRANCH  12  13
ENDBRANCH  11  12
ENDBRANCH  10  11
ENDBRANCH   9  10
ENDBRANCH   1   9
TORSDOF 10
ENDMDL
MODEL 3
REMARK VINA RESULT:    -4.375      3.903      6.746
REMARK INTER + INTRA:          -7.488
REMARK INTER:                  -6.438
REMARK INTRA:                  -1.050
REMARK UNBOUND:                -0.555
REMARK SMILES CCCCCCCCCCCC(=O)[O-]
REMARK SMILES IDX 7 1 8 2 9 3 10 4 11 5 12 6 13 7 14 8 6 9 5 10 4 11 3 12 2 13
REMARK SMILES IDX 1 14
REMARK H PARENT
REMARK Flexibility Score: inf
ROOT
ATOM      1  C   UNL     1       8.824 -15.054 -25.049  1.00  0.00     0.000 C 
ENDROOT
BRANCH   1   2
ATOM      2  C   UNL     1       9.517 -13.833 -24.408  1.00  0.00     0.000 C 
BRANCH   2   3
ATOM      3  C   UNL     1       9.248 -13.641 -22.905  1.00  0.00     0.000 C 
BRANCH   3   4
ATOM      4  C   UNL     1      10.351 -14.239 -22.015  1.00  0.00     0.006 C 
BRANCH   4   5
ATOM      5  C   UNL     1       9.783 -14.833 -20.719  1.00  0.00     0.053 C 
BRANCH   5   6
ATOM      6  C   UNL     1      10.601 -14.437 -19.528  1.00  0.00     0.041 C 
ATOM      7  O   UNL     1      10.794 -13.222 -19.265  1.00  0.00    -0.550 OA
ATOM      8  O   UNL     1      11.179 -15.414 -18.726  1.00  0.00    -0.550 OA
ENDBRANCH   5   6
ENDBRANCH   4   5
ENDBRANCH   3   4
ENDBRANCH   2   3
ENDBRANCH   1   2
BRANCH   1   9
ATOM      9  C   UNL     1       9.759 -16.028 -25.788  1.00  0.00     0.000 C 
BRANCH   9  10
ATOM     10  C   UNL     1      10.866 -16.599 -24.886  1.00  0.00    -0.000 C 
BRANCH  10  11
ATOM     11  C   UNL     1      10.462 -17.942 -24.239  1.00  0.00    -0.000 C 
BRANCH  11  12
ATOM     12  C   UNL     1      10.668 -17.990 -22.713  1.00  0.00    -0.000 C 
BRANCH  12  13
ATOM     13  C   UNL     1       9.383 -18.185 -21.891  1.00  0.00    -0.003 C 
ATOM     14  C   UNL     1       8.745 -19.558 -22.093  1.00  0.00     0.004 C 
ENDBRANCH  12  13
ENDBRANCH  11  12
ENDBRANCH  10  11
ENDBRANCH   9  10
ENDBRANCH   1   9
TORSDOF 10
ENDMDL
MODEL 4
REMARK VINA RESULT:    -4.237      2.950      6.868
REMARK INTER + INTRA:          -7.269
REMARK INTER:                  -6.193
REMARK INTRA:                  -1.076
REMARK UNBOUND:                -0.555
REMARK SMILES CCCCCCCCCCCC(=O)[O-]
REMARK SMILES IDX 7 1 8 2 9 3 10 4 11 5 12 6 13 7 14 8 6 9 5 10 4 11 3 12 2 13
REMARK SMILES IDX 1 14
REMARK H PARENT
REMARK Flexibility Score: inf
ROOT
ATOM      1  C   UNL     1      10.581 -14.208 -23.706  1.00  0.00     0.000 C 
ENDROOT
BRANCH   1   2
ATOM      2  C   UNL     1      10.410 -12.684 -23.872  1.00  0.00     0.000 C 
BRANCH   2   3
ATOM      3  C   UNL     1       8.982 -12.156 -23.652  1.00  0.00     0.000 C 
BRANCH   3   4
ATOM      4  C   UNL     1       8.505 -11.222 -24.776  1.00  0.00     0.006 C 
BRANCH   4   5
ATOM      5  C   UNL     1       9.627 -10.300 -25.271  1.00  0.00     0.053 C 
BRANCH   5   6
ATOM      6  C   UNL     1       9.390  -8.877 -24.864  1.00  0.00     0.041 C 
ATOM      7  O   UNL     1       8.768  -8.615 -23.802  1.00  0.00    -0.550 OA
ATOM      8  O   UNL     1       9.829  -7.839 -25.678  1.00  0.00    -0.550 OA
ENDBRANCH   5   6
ENDBRANCH   4   5
ENDBRANCH   3   4
ENDBRANCH   2   3
ENDBRANCH   1   2
BRANCH   1   9
ATOM      9  C   UNL     1       9.277 -15.025 -23.758  1.00  0.00     0.000 C 
BRANCH   9  10
ATOM     10  C   UNL     1       9.208 -16.114 -22.674  1.00  0.00    -0.000 C 
BRANCH  10  11
ATOM     11  C   UNL     1      10.380 -16.021 -21.672  1.00  0.00    -0.000 C 
BRANCH  11  12
ATOM     12  C   UNL     1       9.973 -15.503 -20.279  1.00  0.00    -0.000 C 
BRANCH  12  13
ATOM     13  C   UNL     1      10.766 -14.282 -19.785  1.00  0.00    -0.003 C 
ATOM     14  C   UNL     1      10.137 -12.953 -20.198  1.00  0.00     0.004 C 
ENDBRANCH  12  13
ENDBRANCH  11  12
ENDBRANCH  10  11
ENDBRANCH   9  10
ENDBRANCH   1   9
TORSDOF 10
ENDMDL
MODEL 5
REMARK VINA RESULT:    -4.216      3.687      7.125
REMARK INTER + INTRA:          -7.235
REMARK INTER:                  -5.937
REMARK INTRA:                  -1.298
REMARK UNBOUND:                -0.555
REMARK SMILES CCCCCCCCCCCC(=O)[O-]
REMARK SMILES IDX 7 1 8 2 9 3 10 4 11 5 12 6 13 7 14 8 6 9 5 10 4 11 3 12 2 13
REMARK SMILES IDX 1 14
REMARK H PARENT
REMARK Flexibility Score: inf
ROOT
ATOM      1  C   UNL     1      11.143 -17.676 -24.981  1.00  0.00     0.000 C 
ENDROOT
BRANCH   1   2
ATOM      2  C   UNL     1      10.859 -16.159 -24.975  1.00  0.00     0.000 C 
BRANCH   2   3
ATOM      3  C   UNL     1       9.371 -15.771 -24.949  1.00  0.00     0.000 C 
BRANCH   3   4
ATOM      4  C   UNL     1       9.128 -14.352 -24.407  1.00  0.00     0.006 C 
BRANCH   4   5
ATOM      5  C   UNL     1      10.405 -13.735 -23.821  1.00  0.00     0.053 C 
BRANCH   5   6
ATOM      6  C   UNL     1      10.144 -12.380 -23.239  1.00  0.00     0.041 C 
ATOM      7  O   UNL     1       9.876 -12.255 -22.015  1.00  0.00    -0.550 OA
ATOM      8  O   UNL     1      10.165 -11.256 -24.055  1.00  0.00    -0.550 OA
ENDBRANCH   5   6
ENDBRANCH   4   5
ENDBRANCH   3   4
ENDBRANCH   2   3
ENDBRANCH   1   2
BRANCH   1   9
ATOM      9  C   UNL     1      11.390 -18.305 -23.598  1.00  0.00     0.000 C 
BRANCH   9  10
ATOM     10  C   UNL     1      10.106 -18.844 -22.946  1.00  0.00    -0.000 C 
BRANCH  10  11
ATOM     11  C   UNL     1       9.545 -17.885 -21.872  1.00  0.00    -0.000 C 
BRANCH  11  12
ATOM     12  C   UNL     1      10.574 -16.868 -21.343  1.00  0.00    -0.000 C 
BRANCH  12  13
ATOM     13  C   UNL     1       9.970 -15.579 -20.760  1.00  0.00    -0.003 C 
ATOM     14  C   UNL     1      10.859 -14.926 -19.704  1.00  0.00     0.004 C 
ENDBRANCH  12  13
ENDBRANCH  11  12
ENDBRANCH  10  11
ENDBRANCH   9  10
ENDBRANCH   1   9
TORSDOF 10
ENDMDL
MODEL 6
REMARK VINA RESULT:    -4.209      3.847      6.256
REMARK INTER + INTRA:          -7.224
REMARK INTER:                  -5.867
REMARK INTRA:                  -1.357
REMARK UNBOUND:                -0.555
REMARK SMILES CCCCCCCCCCCC(=O)[O-]
REMARK SMILES IDX 7 1 8 2 9 3 10 4 11 5 12 6 13 7 14 8 6 9 5 10 4 11 3 12 2 13
REMARK SMILES IDX 1 14
REMARK H PARENT
REMARK Flexibility Score: inf
ROOT
ATOM      1  C   UNL     1       8.336 -14.338 -24.224  1.00  0.00     0.000 C 
ENDROOT
BRANCH   1   2
ATOM      2  C   UNL     1       9.733 -13.696 -24.348  1.00  0.00     0.000 C 
BRANCH   2   3
ATOM      3  C   UNL     1      10.744 -14.113 -23.265  1.00  0.00     0.000 C 
BRANCH   3   4
ATOM      4  C   UNL     1      10.276 -13.773 -21.841  1.00  0.00     0.006 C 
BRANCH   4   5
ATOM      5  C   UNL     1      10.294 -15.002 -20.922  1.00  0.00     0.053 C 
BRANCH   5   6
ATOM      6  C   UNL     1      10.776 -14.654 -19.547  1.00  0.00     0.041 C 
ATOM      7  O   UNL     1      11.188 -15.556 -18.771  1.00  0.00    -0.550 OA
ATOM      8  O   UNL     1      10.740 -13.336 -19.110  1.00  0.00    -0.550 OA
ENDBRANCH   5   6
ENDBRANCH   4   5
ENDBRANCH   3   4
ENDBRANCH   2   3
ENDBRANCH   1   2
BRANCH   1   9
ATOM      9  C   UNL     1       8.135 -15.635 -25.029  1.00  0.00     0.000 C 
BRANCH   9  10
ATOM     10  C   UNL     1       7.955 -16.874 -24.136  1.00  0.00    -0.000 C 
BRANCH  10  11
ATOM     11  C   UNL     1       9.068 -17.922 -24.355  1.00  0.00    -0.000 C 
BRANCH  11  12
ATOM     12  C   UNL     1      10.289 -17.388 -25.129  1.00  0.00    -0.000 C 
BRANCH  12  13
ATOM     13  C   UNL     1      11.637 -17.556 -24.410  1.00  0.00    -0.003 C 
ATOM     14  C   UNL     1      11.488 -17.926 -22.936  1.00  0.00     0.004 C 
ENDBRANCH  12  13
ENDBRANCH  11  12
ENDBRANCH  10  11
ENDBRANCH   9  10
ENDBRANCH   1   9
TORSDOF 10
ENDMDL
MODEL 7
REMARK VINA RESULT:    -4.163     16.248     17.575
REMARK INTER + INTRA:          -7.152
REMARK INTER:                  -6.255
REMARK INTRA:                  -0.897
REMARK UNBOUND:                -0.555
REMARK SMILES CCCCCCCCCCCC(=O)[O-]
REMARK SMILES IDX 7 1 8 2 9 3 10 4 11 5 12 6 13 7 14 8 6 9 5 10 4 11 3 12 2 13
REMARK SMILES IDX 1 14
REMARK H PARENT
REMARK Flexibility Score: inf
ROOT
ATOM      1  C   UNL     1      23.479  -3.919 -28.894  1.00  0.00     0.000 C 
ENDROOT
BRANCH   1   2
ATOM      2  C   UNL     1      23.590  -2.381 -28.847  1.00  0.00     0.000 C 
BRANCH   2   3
ATOM      3  C   UNL     1      24.354  -1.816 -27.636  1.00  0.00     0.000 C 
BRANCH   3   4
ATOM      4  C   UNL     1      25.346  -2.821 -27.028  1.00  0.00     0.006 C 
BRANCH   4   5
ATOM      5  C   UNL     1      25.099  -3.035 -25.528  1.00  0.00     0.053 C 
BRANCH   5   6
ATOM      6  C   UNL     1      26.288  -2.632 -24.712  1.00  0.00     0.041 C 
ATOM      7  O   UNL     1      27.346  -2.250 -25.276  1.00  0.00    -0.550 OA
ATOM      8  O   UNL     1      26.239  -2.711 -23.325  1.00  0.00    -0.550 OA
ENDBRANCH   5   6
ENDBRANCH   4   5
ENDBRANCH   3   4
ENDBRANCH   2   3
ENDBRANCH   1   2
BRANCH   1   9
ATOM      9  C   UNL     1      24.170  -4.592 -30.094  1.00  0.00     0.000 C 
BRANCH   9  10
ATOM     10  C   UNL     1      24.232  -6.123 -29.969  1.00  0.00    -0.000 C 
BRANCH  10  11
ATOM     11  C   UNL     1      23.185  -6.675 -28.976  1.00  0.00    -0.000 C 
BRANCH  11  12
ATOM     12  C   UNL     1      23.658  -7.914 -28.192  1.00  0.00    -0.000 C 
BRANCH  12  13
ATOM     13  C   UNL     1      23.594  -7.777 -26.662  1.00  0.00    -0.003 C 
ATOM     14  C   UNL     1      23.178  -6.382 -26.202  1.00  0.00     0.004 C 
ENDBRANCH  12  13
ENDBRANCH  11  12
ENDBRANCH  10  11
ENDBRANCH   9  10
ENDBRANCH   1   9
TORSDOF 10
ENDMDL
MODEL 8
REMARK VINA RESULT:    -4.100      4.593      7.735
REMARK INTER + INTRA:          -7.051
REMARK INTER:                  -6.291
REMARK INTRA:                  -0.760
REMARK UNBOUND:                -0.555
REMARK SMILES CCCCCCCCCCCC(=O)[O-]
REMARK SMILES IDX 7 1 8 2 9 3 10 4 11 5 12 6 13 7 14 8 6 9 5 10 4 11 3 12 2 13
REMARK SMILES IDX 1 14
REMARK H PARENT
REMARK Flexibility Score: inf
ROOT
ATOM      1  C   UNL     1      10.946 -16.457 -24.741  1.00  0.00     0.000 C 
ENDROOT
BRANCH   1   2
ATOM      2  C   UNL     1      10.099 -15.633 -23.749  1.00  0.00     0.000 C 
BRANCH   2   3
ATOM      3  C   UNL     1      10.710 -14.285 -23.328  1.00  0.00     0.000 C 
BRANCH   3   4
ATOM      4  C   UNL     1      10.293 -13.850 -21.913  1.00  0.00     0.006 C 
BRANCH   4   5
ATOM      5  C   UNL     1      10.268 -15.032 -20.934  1.00  0.00     0.053 C 
BRANCH   5   6
ATOM      6  C   UNL     1      10.771 -14.635 -19.580  1.00  0.00     0.041 C 
ATOM      7  O   UNL     1      11.185 -15.510 -18.775  1.00  0.00    -0.550 OA
ATOM      8  O   UNL     1      10.749 -13.301 -19.193  1.00  0.00    -0.550 OA
ENDBRANCH   5   6
ENDBRANCH   4   5
ENDBRANCH   3   4
ENDBRANCH   2   3
ENDBRANCH   1   2
BRANCH   1   9
ATOM      9  C   UNL     1      11.753 -17.609 -24.118  1.00  0.00     0.000 C 
BRANCH   9  10
ATOM     10  C   UNL     1      10.917 -18.484 -23.169  1.00  0.00    -0.000 C 
BRANCH  10  11
ATOM     11  C   UNL     1      10.936 -19.974 -23.574  1.00  0.00    -0.000 C 
BRANCH  11  12
ATOM     12  C   UNL     1       9.586 -20.497 -24.102  1.00  0.00    -0.000 C 
BRANCH  12  13
ATOM     13  C   UNL     1       9.596 -20.951 -25.571  1.00  0.00    -0.003 C 
ATOM     14  C   UNL     1      10.700 -20.292 -26.394  1.00  0.00     0.004 C 
ENDBRANCH  12  13
ENDBRANCH  11  12
ENDBRANCH  10  11
ENDBRANCH   9  10
ENDBRANCH   1   9
TORSDOF 10
ENDMDL
MODEL 9
REMARK VINA RESULT:    -4.099      4.816      6.437
REMARK INTER + INTRA:          -7.051
REMARK INTER:                  -5.701
REMARK INTRA:                  -1.350
REMARK UNBOUND:                -0.555
REMARK SMILES CCCCCCCCCCCC(=O)[O-]
REMARK SMILES IDX 7 1 8 2 9 3 10 4 11 5 12 6 13 7 14 8 6 9 5 10 4 11 3 12 2 13
REMARK SMILES IDX 1 14
REMARK H PARENT
REMARK Flexibility Score: inf
ROOT
ATOM      1  C   UNL     1       9.097 -16.938 -23.097  1.00  0.00     0.000 C 
ENDROOT
BRANCH   1   2
ATOM      2  C   UNL     1       9.212 -15.452 -23.494  1.00  0.00     0.000 C 
BRANCH   2   3
ATOM      3  C   UNL     1      10.649 -14.929 -23.665  1.00  0.00     0.000 C 
BRANCH   3   4
ATOM      4  C   UNL     1      11.199 -14.254 -22.397  1.00  0.00     0.006 C 
BRANCH   4   5
ATOM      5  C   UNL     1      10.078 -13.687 -21.517  1.00  0.00     0.053 C 
BRANCH   5   6
ATOM      6  C   UNL     1      10.094 -14.293 -20.146  1.00  0.00     0.041 C 
ATOM      7  O   UNL     1       9.442 -15.342 -19.908  1.00  0.00    -0.550 OA
ATOM      8  O   UNL     1      10.804 -13.677 -19.122  1.00  0.00    -0.550 OA
ENDBRANCH   5   6
ENDBRANCH   4   5
ENDBRANCH   3   4
ENDBRANCH   2   3
ENDBRANCH   1   2
BRANCH   1   9
ATOM      9  C   UNL     1      10.426 -17.631 -22.749  1.00  0.00     0.000 C 
BRANCH   9  10
ATOM     10  C   UNL     1      10.636 -18.947 -23.517  1.00  0.00    -0.000 C 
BRANCH  10  11
ATOM     11  C   UNL     1      10.273 -18.819 -25.013  1.00  0.00    -0.000 C 
BRANCH  11  12
ATOM     12  C   UNL     1      11.367 -18.152 -25.869  1.00  0.00    -0.000 C 
BRANCH  12  13
ATOM     13  C   UNL     1      10.904 -16.928 -26.675  1.00  0.00    -0.003 C 
ATOM     14  C   UNL     1       9.398 -16.911 -26.928  1.00  0.00     0.004 C 
ENDBRANCH  12  13
ENDBRANCH  11  12
ENDBRANCH  10  11
ENDBRANCH   9  10
ENDBRANCH   1   9
TORSDOF 10
ENDMDL
