MODEL 1
REMARK VINA RESULT:    -7.170      0.000      0.000
REMARK INTER + INTRA:         -12.010
REMARK INTER:                 -10.523
REMARK INTRA:                  -1.487
REMARK UNBOUND:                -1.487
REMARK SMILES O=c1c(O[C@@H]2O[C@H](CO)[C@H](O)[C@H](O)[C@@H]2O)c(-c2ccc(O)c(O)c2)oc2cc(O)cc(O)c12
REMARK SMILES IDX 4 1 3 2 16 3 25 4 2 5 26 6 1 7 33 8 27 9 31 10 28 11 30 12
REMARK SMILES IDX 17 13 18 14 19 15 20 16 24 17 22 18 21 19 23 21 32 23 29 25
REMARK SMILES IDX 5 27 14 28 6 29 12 30 7 31 10 32 15 33 13 35 8 37 9 38 11 40
REMARK H PARENT 21 20 23 22 32 24 29 26 15 34 13 36 9 39 11 41
REMARK Flexibility Score: inf
ROOT
ATOM      1  O   UNL     1     144.182 127.306 148.384  1.00  0.00    -0.454 OA
ENDROOT
BRANCH   1   2
ATOM      2  C   UNL     1     144.663 126.675 147.226  1.00  0.00     0.214 A 
ATOM      3  C   UNL     1     145.603 127.290 146.373  1.00  0.00     0.180 A 
ATOM      4  O   UNL     1     145.932 126.705 145.228  1.00  0.00    -0.452 OA
ATOM      5  C   UNL     1     144.188 125.400 146.897  1.00  0.00     0.239 A 
ATOM      6  C   UNL     1     145.475 125.515 144.857  1.00  0.00     0.146 A 
ATOM      7  O   UNL     1     143.344 124.860 147.659  1.00  0.00    -0.285 OA
ATOM      8  C   UNL     1     144.617 124.769 145.706  1.00  0.00     0.111 A 
ATOM      9  C   UNL     1     145.858 125.008 143.613  1.00  0.00     0.094 A 
ATOM     10  C   UNL     1     144.208 123.468 145.287  1.00  0.00     0.134 A 
ATOM     11  C   UNL     1     145.400 123.765 143.184  1.00  0.00     0.123 A 
ATOM     12  C   UNL     1     144.578 123.003 144.018  1.00  0.00     0.093 A 
BRANCH   3  13
ATOM     13  C   UNL     1     146.259 128.573 146.709  1.00  0.00     0.025 A 
ATOM     14  C   UNL     1     147.005 128.715 147.889  1.00  0.00     0.016 A 
ATOM     15  C   UNL     1     147.620 129.932 148.193  1.00  0.00     0.051 A 
ATOM     16  C   UNL     1     147.513 131.016 147.312  1.00  0.00     0.157 A 
ATOM     17  C   UNL     1     146.174 129.652 145.816  1.00  0.00     0.062 A 
ATOM     18  C   UNL     1     146.793 130.874 146.118  1.00  0.00     0.158 A 
BRANCH  16  19
ATOM     19  O   UNL     1     148.122 132.232 147.611  1.00  0.00    -0.504 OA
ATOM     20  H   UNL     1     148.119 133.003 146.953  1.00  0.00     0.293 HD
ENDBRANCH  16  19
BRANCH  18  21
ATOM     21  O   UNL     1     146.694 131.952 145.240  1.00  0.00    -0.504 OA
ATOM     22  H   UNL     1     147.326 132.741 145.295  1.00  0.00     0.293 HD
ENDBRANCH  18  21
ENDBRANCH   3  13
BRANCH  10  23
ATOM     23  O   UNL     1     143.469 122.589 146.083  1.00  0.00    -0.507 OA
ATOM     24  H   UNL     1     142.495 122.366 145.939  1.00  0.00     0.293 HD
ENDBRANCH  10  23
BRANCH  11  25
ATOM     25  O   UNL     1     145.776 123.289 141.930  1.00  0.00    -0.508 OA
ATOM     26  H   UNL     1     145.731 123.876 141.105  1.00  0.00     0.293 HD
ENDBRANCH  11  25
ENDBRANCH   1   2
BRANCH   1  27
ATOM     27  C   UNL     1     143.394 128.501 148.365  1.00  0.00     0.339 C 
ATOM     28  C   UNL     1     141.921 128.240 148.738  1.00  0.00     0.214 C 
ATOM     29  O   UNL     1     143.987 129.516 149.162  1.00  0.00    -0.332 OA
ATOM     30  C   UNL     1     141.727 127.978 150.247  1.00  0.00     0.180 C 
ATOM     31  C   UNL     1     143.955 129.254 150.559  1.00  0.00     0.179 C 
ATOM     32  C   UNL     1     142.521 128.991 151.092  1.00  0.00     0.177 C 
BRANCH  28  33
ATOM     33  O   UNL     1     141.416 127.173 147.977  1.00  0.00    -0.384 OA
ATOM     34  H   UNL     1     141.066 127.563 147.134  1.00  0.00     0.211 HD
ENDBRANCH  28  33
BRANCH  30  35
ATOM     35  O   UNL     1     141.994 126.648 150.628  1.00  0.00    -0.387 OA
ATOM     36  H   UNL     1     142.969 126.524 150.697  1.00  0.00     0.211 HD
ENDBRANCH  30  35
BRANCH  31  37
ATOM     37  C   UNL     1     145.032 128.232 150.993  1.00  0.00     0.191 C 
BRANCH  37  38
ATOM     38  O   UNL     1     145.377 128.411 152.340  1.00  0.00    -0.394 OA
ATOM     39  H   UNL     1     144.595 128.123 152.878  1.00  0.00     0.210 HD
ENDBRANCH  37  38
ENDBRANCH  31  37
BRANCH  32  40
ATOM     40  O   UNL     1     142.559 128.593 152.438  1.00  0.00    -0.387 OA
ATOM     41  H   UNL     1     142.186 127.672 152.476  1.00  0.00     0.211 HD
ENDBRANCH  32  40
ENDBRANCH   1  27
TORSDOF 12
ENDMDL
MODEL 2
REMARK VINA RESULT:    -7.008      5.078      7.450
REMARK INTER + INTRA:         -11.772
REMARK INTER:                 -10.028
REMARK INTRA:                  -1.744
REMARK UNBOUND:                -1.487
REMARK SMILES O=c1c(O[C@@H]2O[C@H](CO)[C@H](O)[C@H](O)[C@@H]2O)c(-c2ccc(O)c(O)c2)oc2cc(O)cc(O)c12
REMARK SMILES IDX 4 1 3 2 16 3 25 4 2 5 26 6 1 7 33 8 27 9 31 10 28 11 30 12
REMARK SMILES IDX 17 13 18 14 19 15 20 16 24 17 22 18 21 19 23 21 32 23 29 25
REMARK SMILES IDX 5 27 14 28 6 29 12 30 7 31 10 32 15 33 13 35 8 37 9 38 11 40
REMARK H PARENT 21 20 23 22 32 24 29 26 15 34 13 36 9 39 11 41
REMARK Flexibility Score: inf
ROOT
ATOM      1  O   UNL     1     139.453 131.283 147.594  1.00  0.00    -0.454 OA
ENDROOT
BRANCH   1   2
ATOM      2  C   UNL     1     140.607 130.847 148.265  1.00  0.00     0.214 A 
ATOM      3  C   UNL     1     141.901 131.234 147.860  1.00  0.00     0.180 A 
ATOM      4  O   UNL     1     142.962 130.695 148.450  1.00  0.00    -0.452 OA
ATOM      5  C   UNL     1     140.472 129.990 149.364  1.00  0.00     0.239 A 
ATOM      6  C   UNL     1     142.880 129.848 149.469  1.00  0.00     0.146 A 
ATOM      7  O   UNL     1     139.314 129.644 149.716  1.00  0.00    -0.285 OA
ATOM      8  C   UNL     1     141.622 129.493 150.020  1.00  0.00     0.111 A 
ATOM      9  C   UNL     1     144.061 129.314 149.991  1.00  0.00     0.094 A 
ATOM     10  C   UNL     1     141.596 128.631 151.157  1.00  0.00     0.134 A 
ATOM     11  C   UNL     1     144.021 128.421 151.059  1.00  0.00     0.123 A 
ATOM     12  C   UNL     1     142.794 128.082 151.635  1.00  0.00     0.093 A 
BRANCH   3  13
ATOM     13  C   UNL     1     142.133 132.237 146.799  1.00  0.00     0.025 A 
ATOM     14  C   UNL     1     142.728 131.873 145.580  1.00  0.00     0.016 A 
ATOM     15  C   UNL     1     142.941 132.830 144.585  1.00  0.00     0.051 A 
ATOM     16  C   UNL     1     142.544 134.159 144.788  1.00  0.00     0.157 A 
ATOM     17  C   UNL     1     141.715 133.563 146.990  1.00  0.00     0.062 A 
ATOM     18  C   UNL     1     141.925 134.525 145.991  1.00  0.00     0.158 A 
BRANCH  16  19
ATOM     19  O   UNL     1     142.756 135.118 143.800  1.00  0.00    -0.504 OA
ATOM     20  H   UNL     1     142.176 135.163 142.971  1.00  0.00     0.293 HD
ENDBRANCH  16  19
BRANCH  18  21
ATOM     21  O   UNL     1     141.525 135.845 146.188  1.00  0.00    -0.504 OA
ATOM     22  H   UNL     1     142.197 136.603 146.227  1.00  0.00     0.293 HD
ENDBRANCH  18  21
ENDBRANCH   3  13
BRANCH  10  23
ATOM     23  O   UNL     1     140.435 128.308 151.864  1.00  0.00    -0.507 OA
ATOM     24  H   UNL     1     140.373 127.584 152.565  1.00  0.00     0.293 HD
ENDBRANCH  10  23
BRANCH  11  25
ATOM     25  O   UNL     1     145.208 127.882 151.549  1.00  0.00    -0.508 OA
ATOM     26  H   UNL     1     145.594 127.023 151.176  1.00  0.00     0.293 HD
ENDBRANCH  11  25
ENDBRANCH   1   2
BRANCH   1  27
ATOM     27  C   UNL     1     139.103 130.867 146.269  1.00  0.00     0.339 C 
ATOM     28  C   UNL     1     137.848 129.973 146.246  1.00  0.00     0.214 C 
ATOM     29  O   UNL     1     138.995 131.983 145.396  1.00  0.00    -0.332 OA
ATOM     30  C   UNL     1     136.547 130.768 146.484  1.00  0.00     0.180 C 
ATOM     31  C   UNL     1     137.882 132.826 145.664  1.00  0.00     0.179 C 
ATOM     32  C   UNL     1     136.530 132.064 145.652  1.00  0.00     0.177 C 
BRANCH  28  33
ATOM     33  O   UNL     1     137.979 128.938 147.187  1.00  0.00    -0.384 OA
ATOM     34  H   UNL     1     138.847 128.493 147.004  1.00  0.00     0.211 HD
ENDBRANCH  28  33
BRANCH  30  35
ATOM     35  O   UNL     1     136.272 131.009 147.843  1.00  0.00    -0.387 OA
ATOM     36  H   UNL     1     136.039 130.156 148.279  1.00  0.00     0.211 HD
ENDBRANCH  30  35
BRANCH  31  37
ATOM     37  C   UNL     1     138.121 133.753 146.879  1.00  0.00     0.191 C 
BRANCH  37  38
ATOM     38  O   UNL     1     138.524 135.030 146.462  1.00  0.00    -0.394 OA
ATOM     39  H   UNL     1     137.961 135.683 146.953  1.00  0.00     0.210 HD
ENDBRANCH  37  38
ENDBRANCH  31  37
BRANCH  32  40
ATOM     40  O   UNL     1     135.484 132.905 146.065  1.00  0.00    -0.387 OA
ATOM     41  H   UNL     1     134.656 132.570 145.629  1.00  0.00     0.211 HD
ENDBRANCH  32  40
ENDBRANCH   1  27
TORSDOF 12
ENDMDL
MODEL 3
REMARK VINA RESULT:    -6.974      1.618      6.234
REMARK INTER + INTRA:         -11.723
REMARK INTER:                 -10.909
REMARK INTRA:                  -0.814
REMARK UNBOUND:                -1.487
REMARK SMILES O=c1c(O[C@@H]2O[C@H](CO)[C@H](O)[C@H](O)[C@@H]2O)c(-c2ccc(O)c(O)c2)oc2cc(O)cc(O)c12
REMARK SMILES IDX 4 1 3 2 16 3 25 4 2 5 26 6 1 7 33 8 27 9 31 10 28 11 30 12
REMARK SMILES IDX 17 13 18 14 19 15 20 16 24 17 22 18 21 19 23 21 32 23 29 25
REMARK SMILES IDX 5 27 14 28 6 29 12 30 7 31 10 32 15 33 13 35 8 37 9 38 11 40
REMARK H PARENT 21 20 23 22 32 24 29 26 15 34 13 36 9 39 11 41
REMARK Flexibility Score: inf
ROOT
ATOM      1  O   UNL     1     144.986 126.148 146.040  1.00  0.00    -0.454 OA
ENDROOT
BRANCH   1   2
ATOM      2  C   UNL     1     144.573 126.839 147.191  1.00  0.00     0.214 A 
ATOM      3  C   UNL     1     145.020 128.143 147.484  1.00  0.00     0.180 A 
ATOM      4  O   UNL     1     144.698 128.703 148.644  1.00  0.00    -0.452 OA
ATOM      5  C   UNL     1     143.696 126.210 148.084  1.00  0.00     0.239 A 
ATOM      6  C   UNL     1     143.903 128.127 149.538  1.00  0.00     0.146 A 
ATOM      7  O   UNL     1     143.306 125.043 147.820  1.00  0.00    -0.285 OA
ATOM      8  C   UNL     1     143.311 126.864 149.277  1.00  0.00     0.111 A 
ATOM      9  C   UNL     1     143.659 128.790 150.743  1.00  0.00     0.094 A 
ATOM     10  C   UNL     1     142.412 126.321 150.244  1.00  0.00     0.134 A 
ATOM     11  C   UNL     1     142.833 128.221 151.709  1.00  0.00     0.123 A 
ATOM     12  C   UNL     1     142.217 126.993 151.458  1.00  0.00     0.093 A 
BRANCH   3  13
ATOM     13  C   UNL     1     145.836 128.933 146.537  1.00  0.00     0.025 A 
ATOM     14  C   UNL     1     147.234 128.805 146.507  1.00  0.00     0.016 A 
ATOM     15  C   UNL     1     147.993 129.556 145.607  1.00  0.00     0.051 A 
ATOM     16  C   UNL     1     147.363 130.431 144.712  1.00  0.00     0.157 A 
ATOM     17  C   UNL     1     145.206 129.791 145.622  1.00  0.00     0.062 A 
ATOM     18  C   UNL     1     145.966 130.545 144.716  1.00  0.00     0.158 A 
BRANCH  16  19
ATOM     19  O   UNL     1     148.115 131.184 143.813  1.00  0.00    -0.504 OA
ATOM     20  H   UNL     1     148.993 130.842 143.438  1.00  0.00     0.293 HD
ENDBRANCH  16  19
BRANCH  18  21
ATOM     21  O   UNL     1     145.342 131.410 143.819  1.00  0.00    -0.504 OA
ATOM     22  H   UNL     1     145.666 132.360 143.685  1.00  0.00     0.293 HD
ENDBRANCH  18  21
ENDBRANCH   3  13
BRANCH  10  23
ATOM     23  O   UNL     1     141.674 125.152 150.051  1.00  0.00    -0.507 OA
ATOM     24  H   UNL     1     141.122 124.697 150.764  1.00  0.00     0.293 HD
ENDBRANCH  10  23
BRANCH  11  25
ATOM     25  O   UNL     1     142.622 128.889 152.912  1.00  0.00    -0.508 OA
ATOM     26  H   UNL     1     141.934 129.628 152.995  1.00  0.00     0.293 HD
ENDBRANCH  11  25
ENDBRANCH   1   2
BRANCH   1  27
ATOM     27  C   UNL     1     144.256 126.155 144.808  1.00  0.00     0.339 C 
ATOM     28  C   UNL     1     145.182 126.148 143.577  1.00  0.00     0.214 C 
ATOM     29  O   UNL     1     143.299 125.106 144.778  1.00  0.00    -0.332 OA
ATOM     30  C   UNL     1     145.840 124.773 143.334  1.00  0.00     0.180 C 
ATOM     31  C   UNL     1     143.864 123.804 144.692  1.00  0.00     0.179 C 
ATOM     32  C   UNL     1     144.812 123.635 143.475  1.00  0.00     0.177 C 
BRANCH  28  33
ATOM     33  O   UNL     1     146.157 127.152 143.704  1.00  0.00    -0.384 OA
ATOM     34  H   UNL     1     146.663 126.956 144.535  1.00  0.00     0.211 HD
ENDBRANCH  28  33
BRANCH  30  35
ATOM     35  O   UNL     1     146.987 124.550 144.118  1.00  0.00    -0.387 OA
ATOM     36  H   UNL     1     146.710 124.362 145.045  1.00  0.00     0.211 HD
ENDBRANCH  30  35
BRANCH  31  37
ATOM     37  C   UNL     1     144.417 123.309 146.049  1.00  0.00     0.191 C 
BRANCH  37  38
ATOM     38  O   UNL     1     143.685 122.208 146.516  1.00  0.00    -0.394 OA
ATOM     39  H   UNL     1     143.950 121.430 145.961  1.00  0.00     0.210 HD
ENDBRANCH  37  38
ENDBRANCH  31  37
BRANCH  32  40
ATOM     40  O   UNL     1     145.455 122.388 143.518  1.00  0.00    -0.387 OA
ATOM     41  H   UNL     1     145.827 122.287 144.435  1.00  0.00     0.211 HD
ENDBRANCH  32  40
ENDBRANCH   1  27
TORSDOF 12
ENDMDL
MODEL 4
REMARK VINA RESULT:    -6.943      3.246      6.460
REMARK INTER + INTRA:         -11.677
REMARK INTER:                  -9.899
REMARK INTRA:                  -1.778
REMARK UNBOUND:                -1.487
REMARK SMILES O=c1c(O[C@@H]2O[C@H](CO)[C@H](O)[C@H](O)[C@@H]2O)c(-c2ccc(O)c(O)c2)oc2cc(O)cc(O)c12
REMARK SMILES IDX 4 1 3 2 16 3 25 4 2 5 26 6 1 7 33 8 27 9 31 10 28 11 30 12
REMARK SMILES IDX 17 13 18 14 19 15 20 16 24 17 22 18 21 19 23 21 32 23 29 25
REMARK SMILES IDX 5 27 14 28 6 29 12 30 7 31 10 32 15 33 13 35 8 37 9 38 11 40
REMARK H PARENT 21 20 23 22 32 24 29 26 15 34 13 36 9 39 11 41
REMARK Flexibility Score: inf
ROOT
ATOM      1  O   UNL     1     142.451 129.521 148.626  1.00  0.00    -0.454 OA
ENDROOT
BRANCH   1   2
ATOM      2  C   UNL     1     142.538 130.368 147.509  1.00  0.00     0.214 A 
ATOM      3  C   UNL     1     143.206 129.985 146.328  1.00  0.00     0.180 A 
ATOM      4  O   UNL     1     143.366 130.867 145.349  1.00  0.00    -0.452 OA
ATOM      5  C   UNL     1     141.953 131.639 147.571  1.00  0.00     0.239 A 
ATOM      6  C   UNL     1     142.863 132.096 145.382  1.00  0.00     0.146 A 
ATOM      7  O   UNL     1     141.363 131.977 148.631  1.00  0.00    -0.285 OA
ATOM      8  C   UNL     1     142.076 132.529 146.479  1.00  0.00     0.111 A 
ATOM      9  C   UNL     1     143.123 132.955 144.311  1.00  0.00     0.094 A 
ATOM     10  C   UNL     1     141.505 133.837 146.433  1.00  0.00     0.134 A 
ATOM     11  C   UNL     1     142.617 134.251 144.306  1.00  0.00     0.123 A 
ATOM     12  C   UNL     1     141.814 134.688 145.364  1.00  0.00     0.093 A 
BRANCH   3  13
ATOM     13  C   UNL     1     143.735 128.620 146.123  1.00  0.00     0.025 A 
ATOM     14  C   UNL     1     145.052 128.294 146.485  1.00  0.00     0.016 A 
ATOM     15  C   UNL     1     145.539 127.000 146.288  1.00  0.00     0.051 A 
ATOM     16  C   UNL     1     144.710 126.010 145.743  1.00  0.00     0.157 A 
ATOM     17  C   UNL     1     142.900 127.620 145.601  1.00  0.00     0.062 A 
ATOM     18  C   UNL     1     143.386 126.319 145.404  1.00  0.00     0.158 A 
BRANCH  16  19
ATOM     19  O   UNL     1     145.192 124.718 145.541  1.00  0.00    -0.504 OA
ATOM     20  H   UNL     1     146.176 124.538 145.379  1.00  0.00     0.293 HD
ENDBRANCH  16  19
BRANCH  18  21
ATOM     21  O   UNL     1     142.562 125.331 144.870  1.00  0.00    -0.504 OA
ATOM     22  H   UNL     1     142.844 124.358 144.850  1.00  0.00     0.293 HD
ENDBRANCH  18  21
ENDBRANCH   3  13
BRANCH  10  23
ATOM     23  O   UNL     1     140.615 134.332 147.389  1.00  0.00    -0.507 OA
ATOM     24  H   UNL     1     140.746 134.260 148.387  1.00  0.00     0.293 HD
ENDBRANCH  10  23
BRANCH  11  25
ATOM     25  O   UNL     1     142.907 135.099 143.240  1.00  0.00    -0.508 OA
ATOM     26  H   UNL     1     142.175 135.567 142.719  1.00  0.00     0.293 HD
ENDBRANCH  11  25
ENDBRANCH   1   2
BRANCH   1  27
ATOM     27  C   UNL     1     143.426 129.493 149.674  1.00  0.00     0.339 C 
ATOM     28  C   UNL     1     142.817 129.817 151.052  1.00  0.00     0.214 C 
ATOM     29  O   UNL     1     144.145 128.267 149.669  1.00  0.00    -0.332 OA
ATOM     30  C   UNL     1     141.977 128.653 151.620  1.00  0.00     0.180 C 
ATOM     31  C   UNL     1     143.372 127.138 150.056  1.00  0.00     0.179 C 
ATOM     32  C   UNL     1     142.707 127.308 151.447  1.00  0.00     0.177 C 
BRANCH  28  33
ATOM     33  O   UNL     1     142.051 130.992 150.974  1.00  0.00    -0.384 OA
ATOM     34  H   UNL     1     142.692 131.748 150.919  1.00  0.00     0.211 HD
ENDBRANCH  28  33
BRANCH  30  35
ATOM     35  O   UNL     1     140.662 128.609 151.119  1.00  0.00    -0.387 OA
ATOM     36  H   UNL     1     140.420 127.670 150.937  1.00  0.00     0.211 HD
ENDBRANCH  30  35
BRANCH  31  37
ATOM     37  C   UNL     1     142.444 126.641 148.923  1.00  0.00     0.191 C 
BRANCH  37  38
ATOM     38  O   UNL     1     142.516 125.247 148.793  1.00  0.00    -0.394 OA
ATOM     39  H   UNL     1     142.895 124.898 149.640  1.00  0.00     0.210 HD
ENDBRANCH  37  38
ENDBRANCH  31  37
BRANCH  32  40
ATOM     40  O   UNL     1     141.841 126.236 151.716  1.00  0.00    -0.387 OA
ATOM     41  H   UNL     1     140.935 126.623 151.848  1.00  0.00     0.211 HD
ENDBRANCH  32  40
ENDBRANCH   1  27
TORSDOF 12
ENDMDL
MODEL 5
REMARK VINA RESULT:    -6.847      4.985      8.068
REMARK INTER + INTRA:         -11.536
REMARK INTER:                 -10.417
REMARK INTRA:                  -1.119
REMARK UNBOUND:                -1.487
REMARK SMILES O=c1c(O[C@@H]2O[C@H](CO)[C@H](O)[C@H](O)[C@@H]2O)c(-c2ccc(O)c(O)c2)oc2cc(O)cc(O)c12
REMARK SMILES IDX 4 1 3 2 16 3 25 4 2 5 26 6 1 7 33 8 27 9 31 10 28 11 30 12
REMARK SMILES IDX 17 13 18 14 19 15 20 16 24 17 22 18 21 19 23 21 32 23 29 25
REMARK SMILES IDX 5 27 14 28 6 29 12 30 7 31 10 32 15 33 13 35 8 37 9 38 11 40
REMARK H PARENT 21 20 23 22 32 24 29 26 15 34 13 36 9 39 11 41
REMARK Flexibility Score: inf
ROOT
ATOM      1  O   UNL     1     143.281 124.394 142.617  1.00  0.00    -0.454 OA
ENDROOT
BRANCH   1   2
ATOM      2  C   UNL     1     142.305 124.257 141.616  1.00  0.00     0.214 A 
ATOM      3  C   UNL     1     142.622 124.342 140.244  1.00  0.00     0.180 A 
ATOM      4  O   UNL     1     141.647 124.329 139.344  1.00  0.00    -0.452 OA
ATOM      5  C   UNL     1     140.973 124.040 141.989  1.00  0.00     0.239 A 
ATOM      6  C   UNL     1     140.366 124.167 139.655  1.00  0.00     0.146 A 
ATOM      7  O   UNL     1     140.697 123.972 143.214  1.00  0.00    -0.285 OA
ATOM      8  C   UNL     1     139.966 123.955 140.999  1.00  0.00     0.111 A 
ATOM      9  C   UNL     1     139.418 124.206 138.630  1.00  0.00     0.094 A 
ATOM     10  C   UNL     1     138.584 123.720 141.270  1.00  0.00     0.134 A 
ATOM     11  C   UNL     1     138.064 124.041 138.912  1.00  0.00     0.123 A 
ATOM     12  C   UNL     1     137.653 123.803 140.226  1.00  0.00     0.093 A 
BRANCH   3  13
ATOM     13  C   UNL     1     144.014 124.435 139.756  1.00  0.00     0.025 A 
ATOM     14  C   UNL     1     144.876 123.328 139.817  1.00  0.00     0.016 A 
ATOM     15  C   UNL     1     146.189 123.428 139.351  1.00  0.00     0.051 A 
ATOM     16  C   UNL     1     146.651 124.631 138.799  1.00  0.00     0.157 A 
ATOM     17  C   UNL     1     144.472 125.630 139.180  1.00  0.00     0.062 A 
ATOM     18  C   UNL     1     145.790 125.732 138.709  1.00  0.00     0.158 A 
BRANCH  16  19
ATOM     19  O   UNL     1     147.960 124.738 138.335  1.00  0.00    -0.504 OA
ATOM     20  H   UNL     1     148.735 124.909 138.966  1.00  0.00     0.293 HD
ENDBRANCH  16  19
BRANCH  18  21
ATOM     21  O   UNL     1     146.249 126.925 138.153  1.00  0.00    -0.504 OA
ATOM     22  H   UNL     1     146.965 127.480 138.607  1.00  0.00     0.293 HD
ENDBRANCH  18  21
ENDBRANCH   3  13
BRANCH  10  23
ATOM     23  O   UNL     1     138.084 123.378 142.528  1.00  0.00    -0.507 OA
ATOM     24  H   UNL     1     137.722 124.039 143.200  1.00  0.00     0.293 HD
ENDBRANCH  10  23
BRANCH  11  25
ATOM     25  O   UNL     1     137.134 124.107 137.878  1.00  0.00    -0.508 OA
ATOM     26  H   UNL     1     137.121 124.881 137.224  1.00  0.00     0.293 HD
ENDBRANCH  11  25
ENDBRANCH   1   2
BRANCH   1  27
ATOM     27  C   UNL     1     143.065 125.109 143.839  1.00  0.00     0.339 C 
ATOM     28  C   UNL     1     143.423 124.271 145.081  1.00  0.00     0.214 C 
ATOM     29  O   UNL     1     143.729 126.365 143.818  1.00  0.00    -0.332 OA
ATOM     30  C   UNL     1     144.946 124.122 145.281  1.00  0.00     0.180 C 
ATOM     31  C   UNL     1     145.147 126.275 143.863  1.00  0.00     0.179 C 
ATOM     32  C   UNL     1     145.664 125.470 145.084  1.00  0.00     0.177 C 
BRANCH  28  33
ATOM     33  O   UNL     1     142.805 123.011 145.003  1.00  0.00    -0.384 OA
ATOM     34  H   UNL     1     141.880 123.124 145.346  1.00  0.00     0.211 HD
ENDBRANCH  28  33
BRANCH  30  35
ATOM     35  O   UNL     1     145.520 123.099 144.503  1.00  0.00    -0.387 OA
ATOM     36  H   UNL     1     144.869 122.365 144.408  1.00  0.00     0.211 HD
ENDBRANCH  30  35
BRANCH  31  37
ATOM     37  C   UNL     1     145.758 125.889 142.495  1.00  0.00     0.191 C 
BRANCH  37  38
ATOM     38  O   UNL     1     146.279 124.587 142.530  1.00  0.00    -0.394 OA
ATOM     39  H   UNL     1     147.232 124.666 142.795  1.00  0.00     0.210 HD
ENDBRANCH  37  38
ENDBRANCH  31  37
BRANCH  32  40
ATOM     40  O   UNL     1     147.053 125.285 145.003  1.00  0.00    -0.387 OA
ATOM     41  H   UNL     1     147.475 126.090 145.406  1.00  0.00     0.211 HD
ENDBRANCH  32  40
ENDBRANCH   1  27
TORSDOF 12
ENDMDL
MODEL 6
REMARK VINA RESULT:    -6.628      7.615     10.078
REMARK INTER + INTRA:         -11.214
REMARK INTER:                  -9.522
REMARK INTRA:                  -1.692
REMARK UNBOUND:                -1.487
REMARK SMILES O=c1c(O[C@@H]2O[C@H](CO)[C@H](O)[C@H](O)[C@@H]2O)c(-c2ccc(O)c(O)c2)oc2cc(O)cc(O)c12
REMARK SMILES IDX 4 1 3 2 16 3 25 4 2 5 26 6 1 7 33 8 27 9 31 10 28 11 30 12
REMARK SMILES IDX 17 13 18 14 19 15 20 16 24 17 22 18 21 19 23 21 32 23 29 25
REMARK SMILES IDX 5 27 14 28 6 29 12 30 7 31 10 32 15 33 13 35 8 37 9 38 11 40
REMARK H PARENT 21 20 23 22 32 24 29 26 15 34 13 36 9 39 11 41
REMARK Flexibility Score: inf
ROOT
ATOM      1  O   UNL     1     139.283 135.263 144.484  1.00  0.00    -0.454 OA
ENDROOT
BRANCH   1   2
ATOM      2  C   UNL     1     139.662 134.127 145.217  1.00  0.00     0.214 A 
ATOM      3  C   UNL     1     140.967 133.597 145.157  1.00  0.00     0.180 A 
ATOM      4  O   UNL     1     141.240 132.452 145.770  1.00  0.00    -0.452 OA
ATOM      5  C   UNL     1     138.712 133.491 146.025  1.00  0.00     0.239 A 
ATOM      6  C   UNL     1     140.358 131.794 146.515  1.00  0.00     0.146 A 
ATOM      7  O   UNL     1     137.547 133.966 146.069  1.00  0.00    -0.285 OA
ATOM      8  C   UNL     1     139.056 132.313 146.729  1.00  0.00     0.111 A 
ATOM      9  C   UNL     1     140.741 130.578 147.086  1.00  0.00     0.094 A 
ATOM     10  C   UNL     1     138.171 131.598 147.591  1.00  0.00     0.134 A 
ATOM     11  C   UNL     1     139.848 129.855 147.873  1.00  0.00     0.123 A 
ATOM     12  C   UNL     1     138.570 130.364 148.119  1.00  0.00     0.093 A 
BRANCH   3  13
ATOM     13  C   UNL     1     142.067 134.276 144.438  1.00  0.00     0.025 A 
ATOM     14  C   UNL     1     142.446 133.869 143.149  1.00  0.00     0.016 A 
ATOM     15  C   UNL     1     143.486 134.520 142.481  1.00  0.00     0.051 A 
ATOM     16  C   UNL     1     144.147 135.598 143.084  1.00  0.00     0.157 A 
ATOM     17  C   UNL     1     142.713 135.372 145.030  1.00  0.00     0.062 A 
ATOM     18  C   UNL     1     143.756 136.028 144.360  1.00  0.00     0.158 A 
BRANCH  16  19
ATOM     19  O   UNL     1     145.186 136.249 142.424  1.00  0.00    -0.504 OA
ATOM     20  H   UNL     1     146.020 135.754 142.128  1.00  0.00     0.293 HD
ENDBRANCH  16  19
BRANCH  18  21
ATOM     21  O   UNL     1     144.410 137.106 144.955  1.00  0.00    -0.504 OA
ATOM     22  H   UNL     1     144.831 137.029 145.873  1.00  0.00     0.293 HD
ENDBRANCH  18  21
ENDBRANCH   3  13
BRANCH  10  23
ATOM     23  O   UNL     1     136.913 132.066 147.978  1.00  0.00    -0.507 OA
ATOM     24  H   UNL     1     136.422 131.770 148.809  1.00  0.00     0.293 HD
ENDBRANCH  10  23
BRANCH  11  25
ATOM     25  O   UNL     1     140.242 128.633 148.414  1.00  0.00    -0.508 OA
ATOM     26  H   UNL     1     141.046 128.559 149.026  1.00  0.00     0.293 HD
ENDBRANCH  11  25
ENDBRANCH   1   2
BRANCH   1  27
ATOM     27  C   UNL     1     139.029 135.247 143.074  1.00  0.00     0.339 C 
ATOM     28  C   UNL     1     137.553 135.540 142.741  1.00  0.00     0.214 C 
ATOM     29  O   UNL     1     139.926 136.105 142.384  1.00  0.00    -0.332 OA
ATOM     30  C   UNL     1     137.186 137.028 142.925  1.00  0.00     0.180 C 
ATOM     31  C   UNL     1     139.713 137.489 142.631  1.00  0.00     0.179 C 
ATOM     32  C   UNL     1     138.263 137.944 142.316  1.00  0.00     0.177 C 
BRANCH  28  33
ATOM     33  O   UNL     1     136.714 134.720 143.514  1.00  0.00    -0.384 OA
ATOM     34  H   UNL     1     137.285 134.003 143.893  1.00  0.00     0.211 HD
ENDBRANCH  28  33
BRANCH  30  35
ATOM     35  O   UNL     1     136.887 137.376 144.256  1.00  0.00    -0.387 OA
ATOM     36  H   UNL     1     137.559 136.968 144.851  1.00  0.00     0.211 HD
ENDBRANCH  30  35
BRANCH  31  37
ATOM     37  C   UNL     1     140.277 137.940 143.999  1.00  0.00     0.191 C 
BRANCH  37  38
ATOM     38  O   UNL     1     141.593 138.406 143.868  1.00  0.00    -0.394 OA
ATOM     39  H   UNL     1     142.153 137.861 144.479  1.00  0.00     0.210 HD
ENDBRANCH  37  38
ENDBRANCH  31  37
BRANCH  32  40
ATOM     40  O   UNL     1     138.065 139.276 142.713  1.00  0.00    -0.387 OA
ATOM     41  H   UNL     1     138.134 139.294 143.705  1.00  0.00     0.211 HD
ENDBRANCH  32  40
ENDBRANCH   1  27
TORSDOF 12
ENDMDL
MODEL 7
REMARK VINA RESULT:    -6.626      3.853      7.852
REMARK INTER + INTRA:         -11.211
REMARK INTER:                  -9.502
REMARK INTRA:                  -1.709
REMARK UNBOUND:                -1.487
REMARK SMILES O=c1c(O[C@@H]2O[C@H](CO)[C@H](O)[C@H](O)[C@@H]2O)c(-c2ccc(O)c(O)c2)oc2cc(O)cc(O)c12
REMARK SMILES IDX 4 1 3 2 16 3 25 4 2 5 26 6 1 7 33 8 27 9 31 10 28 11 30 12
REMARK SMILES IDX 17 13 18 14 19 15 20 16 24 17 22 18 21 19 23 21 32 23 29 25
REMARK SMILES IDX 5 27 14 28 6 29 12 30 7 31 10 32 15 33 13 35 8 37 9 38 11 40
REMARK H PARENT 21 20 23 22 32 24 29 26 15 34 13 36 9 39 11 41
REMARK Flexibility Score: inf
ROOT
ATOM      1  O   UNL     1     143.813 130.912 147.091  1.00  0.00    -0.454 OA
ENDROOT
BRANCH   1   2
ATOM      2  C   UNL     1     142.521 131.464 147.070  1.00  0.00     0.214 A 
ATOM      3  C   UNL     1     141.497 131.005 147.925  1.00  0.00     0.180 A 
ATOM      4  O   UNL     1     140.263 131.473 147.781  1.00  0.00    -0.452 OA
ATOM      5  C   UNL     1     142.235 132.494 146.166  1.00  0.00     0.239 A 
ATOM      6  C   UNL     1     139.938 132.421 146.909  1.00  0.00     0.146 A 
ATOM      7  O   UNL     1     143.151 132.894 145.403  1.00  0.00    -0.285 OA
ATOM      8  C   UNL     1     140.926 133.025 146.090  1.00  0.00     0.111 A 
ATOM      9  C   UNL     1     138.601 132.814 146.816  1.00  0.00     0.094 A 
ATOM     10  C   UNL     1     140.533 134.085 145.218  1.00  0.00     0.134 A 
ATOM     11  C   UNL     1     138.216 133.803 145.915  1.00  0.00     0.123 A 
ATOM     12  C   UNL     1     139.179 134.431 145.120  1.00  0.00     0.093 A 
BRANCH   3  13
ATOM     13  C   UNL     1     141.742 130.019 148.999  1.00  0.00     0.025 A 
ATOM     14  C   UNL     1     141.937 130.431 150.326  1.00  0.00     0.016 A 
ATOM     15  C   UNL     1     142.166 129.488 151.332  1.00  0.00     0.051 A 
ATOM     16  C   UNL     1     142.184 128.121 151.026  1.00  0.00     0.157 A 
ATOM     17  C   UNL     1     141.736 128.647 148.699  1.00  0.00     0.062 A 
ATOM     18  C   UNL     1     141.964 127.700 149.708  1.00  0.00     0.158 A 
BRANCH  16  19
ATOM     19  O   UNL     1     142.415 127.177 152.024  1.00  0.00    -0.504 OA
ATOM     20  H   UNL     1     143.289 127.149 152.536  1.00  0.00     0.293 HD
ENDBRANCH  16  19
BRANCH  18  21
ATOM     21  O   UNL     1     141.975 126.339 149.407  1.00  0.00    -0.504 OA
ATOM     22  H   UNL     1     141.199 125.894 148.932  1.00  0.00     0.293 HD
ENDBRANCH  18  21
ENDBRANCH   3  13
BRANCH  10  23
ATOM     23  O   UNL     1     141.428 134.839 144.456  1.00  0.00    -0.507 OA
ATOM     24  H   UNL     1     141.629 135.817 144.608  1.00  0.00     0.293 HD
ENDBRANCH  10  23
BRANCH  11  25
ATOM     25  O   UNL     1     136.874 134.164 145.821  1.00  0.00    -0.508 OA
ATOM     26  H   UNL     1     136.133 133.480 145.919  1.00  0.00     0.293 HD
ENDBRANCH  11  25
ENDBRANCH   1   2
BRANCH   1  27
ATOM     27  C   UNL     1     144.235 129.855 146.222  1.00  0.00     0.339 C 
ATOM     28  C   UNL     1     145.491 130.229 145.410  1.00  0.00     0.214 C 
ATOM     29  O   UNL     1     144.389 128.638 146.938  1.00  0.00    -0.332 OA
ATOM     30  C   UNL     1     146.776 130.220 146.264  1.00  0.00     0.180 C 
ATOM     31  C   UNL     1     145.485 128.630 147.844  1.00  0.00     0.179 C 
ATOM     32  C   UNL     1     146.837 128.970 147.161  1.00  0.00     0.177 C 
BRANCH  28  33
ATOM     33  O   UNL     1     145.309 131.478 144.794  1.00  0.00    -0.384 OA
ATOM     34  H   UNL     1     145.856 131.471 143.966  1.00  0.00     0.211 HD
ENDBRANCH  28  33
BRANCH  30  35
ATOM     35  O   UNL     1     146.975 131.406 146.997  1.00  0.00    -0.387 OA
ATOM     36  H   UNL     1     147.377 131.180 147.868  1.00  0.00     0.211 HD
ENDBRANCH  30  35
BRANCH  31  37
ATOM     37  C   UNL     1     145.179 129.402 149.149  1.00  0.00     0.191 C 
BRANCH  37  38
ATOM     38  O   UNL     1     145.676 128.714 150.265  1.00  0.00    -0.394 OA
ATOM     39  H   UNL     1     146.291 129.334 150.735  1.00  0.00     0.210 HD
ENDBRANCH  37  38
ENDBRANCH  31  37
BRANCH  32  40
ATOM     40  O   UNL     1     147.857 129.094 148.117  1.00  0.00    -0.387 OA
ATOM     41  H   UNL     1     148.029 130.067 148.230  1.00  0.00     0.211 HD
ENDBRANCH  32  40
ENDBRANCH   1  27
TORSDOF 12
ENDMDL
MODEL 8
REMARK VINA RESULT:    -6.606      2.753      4.771
REMARK INTER + INTRA:         -11.183
REMARK INTER:                  -9.447
REMARK INTRA:                  -1.736
REMARK UNBOUND:                -1.487
REMARK SMILES O=c1c(O[C@@H]2O[C@H](CO)[C@H](O)[C@H](O)[C@@H]2O)c(-c2ccc(O)c(O)c2)oc2cc(O)cc(O)c12
REMARK SMILES IDX 4 1 3 2 16 3 25 4 2 5 26 6 1 7 33 8 27 9 31 10 28 11 30 12
REMARK SMILES IDX 17 13 18 14 19 15 20 16 24 17 22 18 21 19 23 21 32 23 29 25
REMARK SMILES IDX 5 27 14 28 6 29 12 30 7 31 10 32 15 33 13 35 8 37 9 38 11 40
REMARK H PARENT 21 20 23 22 32 24 29 26 15 34 13 36 9 39 11 41
REMARK Flexibility Score: inf
ROOT
ATOM      1  O   UNL     1     142.307 129.227 146.639  1.00  0.00    -0.454 OA
ENDROOT
BRANCH   1   2
ATOM      2  C   UNL     1     143.109 128.131 146.280  1.00  0.00     0.214 A 
ATOM      3  C   UNL     1     143.856 127.407 147.232  1.00  0.00     0.180 A 
ATOM      4  O   UNL     1     144.693 126.459 146.826  1.00  0.00    -0.452 OA
ATOM      5  C   UNL     1     143.180 127.751 144.935  1.00  0.00     0.239 A 
ATOM      6  C   UNL     1     144.823 126.094 145.556  1.00  0.00     0.146 A 
ATOM      7  O   UNL     1     142.516 128.406 144.090  1.00  0.00    -0.285 OA
ATOM      8  C   UNL     1     144.025 126.686 144.544  1.00  0.00     0.111 A 
ATOM      9  C   UNL     1     145.761 125.109 145.235  1.00  0.00     0.094 A 
ATOM     10  C   UNL     1     144.158 126.208 143.205  1.00  0.00     0.134 A 
ATOM     11  C   UNL     1     145.930 124.697 143.917  1.00  0.00     0.123 A 
ATOM     12  C   UNL     1     145.133 125.247 142.909  1.00  0.00     0.093 A 
BRANCH   3  13
ATOM     13  C   UNL     1     143.739 127.651 148.685  1.00  0.00     0.025 A 
ATOM     14  C   UNL     1     144.720 128.380 149.376  1.00  0.00     0.016 A 
ATOM     15  C   UNL     1     144.597 128.604 150.750  1.00  0.00     0.051 A 
ATOM     16  C   UNL     1     143.482 128.119 151.446  1.00  0.00     0.157 A 
ATOM     17  C   UNL     1     142.611 127.188 149.381  1.00  0.00     0.062 A 
ATOM     18  C   UNL     1     142.484 127.414 150.759  1.00  0.00     0.158 A 
BRANCH  16  19
ATOM     19  O   UNL     1     143.355 128.338 152.816  1.00  0.00    -0.504 OA
ATOM     20  H   UNL     1     144.067 128.831 153.343  1.00  0.00     0.293 HD
ENDBRANCH  16  19
BRANCH  18  21
ATOM     21  O   UNL     1     141.373 126.939 151.453  1.00  0.00    -0.504 OA
ATOM     22  H   UNL     1     140.451 127.338 151.315  1.00  0.00     0.293 HD
ENDBRANCH  18  21
ENDBRANCH   3  13
BRANCH  10  23
ATOM     23  O   UNL     1     143.346 126.622 142.146  1.00  0.00    -0.507 OA
ATOM     24  H   UNL     1     142.341 126.703 142.192  1.00  0.00     0.293 HD
ENDBRANCH  10  23
BRANCH  11  25
ATOM     25  O   UNL     1     146.887 123.731 143.616  1.00  0.00    -0.508 OA
ATOM     26  H   UNL     1     147.819 123.766 144.012  1.00  0.00     0.293 HD
ENDBRANCH  11  25
ENDBRANCH   1   2
BRANCH   1  27
ATOM     27  C   UNL     1     142.835 130.505 147.011  1.00  0.00     0.339 C 
ATOM     28  C   UNL     1     142.493 131.603 145.985  1.00  0.00     0.214 C 
ATOM     29  O   UNL     1     142.445 130.852 148.332  1.00  0.00    -0.332 OA
ATOM     30  C   UNL     1     141.016 132.044 146.054  1.00  0.00     0.180 C 
ATOM     31  C   UNL     1     141.059 131.136 148.475  1.00  0.00     0.179 C 
ATOM     32  C   UNL     1     140.567 132.249 147.513  1.00  0.00     0.177 C 
BRANCH  28  33
ATOM     33  O   UNL     1     142.825 131.170 144.690  1.00  0.00    -0.384 OA
ATOM     34  H   UNL     1     143.137 130.231 144.774  1.00  0.00     0.211 HD
ENDBRANCH  28  33
BRANCH  30  35
ATOM     35  O   UNL     1     140.141 131.199 145.346  1.00  0.00    -0.387 OA
ATOM     36  H   UNL     1     140.453 131.124 144.414  1.00  0.00     0.211 HD
ENDBRANCH  30  35
BRANCH  31  37
ATOM     37  C   UNL     1     140.195 129.853 148.517  1.00  0.00     0.191 C 
BRANCH  37  38
ATOM     38  O   UNL     1     139.955 129.455 149.840  1.00  0.00    -0.394 OA
ATOM     39  H   UNL     1     140.588 129.962 150.412  1.00  0.00     0.210 HD
ENDBRANCH  37  38
ENDBRANCH  31  37
BRANCH  32  40
ATOM     40  O   UNL     1     139.172 132.388 147.588  1.00  0.00    -0.387 OA
ATOM     41  H   UNL     1     138.906 132.123 148.509  1.00  0.00     0.211 HD
ENDBRANCH  32  40
ENDBRANCH   1  27
TORSDOF 12
ENDMDL
MODEL 9
REMARK VINA RESULT:    -6.574      3.376      5.538
REMARK INTER + INTRA:         -11.135
REMARK INTER:                 -10.026
REMARK INTRA:                  -1.109
REMARK UNBOUND:                -1.487
REMARK SMILES O=c1c(O[C@@H]2O[C@H](CO)[C@H](O)[C@H](O)[C@@H]2O)c(-c2ccc(O)c(O)c2)oc2cc(O)cc(O)c12
REMARK SMILES IDX 4 1 3 2 16 3 25 4 2 5 26 6 1 7 33 8 27 9 31 10 28 11 30 12
REMARK SMILES IDX 17 13 18 14 19 15 20 16 24 17 22 18 21 19 23 21 32 23 29 25
REMARK SMILES IDX 5 27 14 28 6 29 12 30 7 31 10 32 15 33 13 35 8 37 9 38 11 40
REMARK H PARENT 21 20 23 22 32 24 29 26 15 34 13 36 9 39 11 41
REMARK Flexibility Score: inf
ROOT
ATOM      1  O   UNL     1     143.202 129.526 148.425  1.00  0.00    -0.454 OA
ENDROOT
BRANCH   1   2
ATOM      2  C   UNL     1     143.857 130.041 147.294  1.00  0.00     0.214 A 
ATOM      3  C   UNL     1     143.262 131.011 146.461  1.00  0.00     0.180 A 
ATOM      4  O   UNL     1     143.870 131.373 145.338  1.00  0.00    -0.452 OA
ATOM      5  C   UNL     1     145.136 129.571 146.976  1.00  0.00     0.239 A 
ATOM      6  C   UNL     1     145.066 130.922 144.976  1.00  0.00     0.146 A 
ATOM      7  O   UNL     1     145.658 128.701 147.720  1.00  0.00    -0.285 OA
ATOM      8  C   UNL     1     145.791 130.034 145.811  1.00  0.00     0.111 A 
ATOM      9  C   UNL     1     145.598 131.342 143.754  1.00  0.00     0.094 A 
ATOM     10  C   UNL     1     147.099 129.633 145.405  1.00  0.00     0.134 A 
ATOM     11  C   UNL     1     146.847 130.893 143.335  1.00  0.00     0.123 A 
ATOM     12  C   UNL     1     147.590 130.042 144.157  1.00  0.00     0.093 A 
BRANCH   3  13
ATOM     13  C   UNL     1     141.976 131.661 146.792  1.00  0.00     0.025 A 
ATOM     14  C   UNL     1     140.786 130.918 146.850  1.00  0.00     0.016 A 
ATOM     15  C   UNL     1     139.577 131.545 147.166  1.00  0.00     0.051 A 
ATOM     16  C   UNL     1     139.547 132.917 147.446  1.00  0.00     0.157 A 
ATOM     17  C   UNL     1     141.946 133.030 147.098  1.00  0.00     0.062 A 
ATOM     18  C   UNL     1     140.734 133.660 147.418  1.00  0.00     0.158 A 
BRANCH  16  19
ATOM     19  O   UNL     1     138.344 133.547 147.759  1.00  0.00    -0.504 OA
ATOM     20  H   UNL     1     137.921 134.222 147.133  1.00  0.00     0.293 HD
ENDBRANCH  16  19
BRANCH  18  21
ATOM     21  O   UNL     1     140.702 135.024 147.705  1.00  0.00    -0.504 OA
ATOM     22  H   UNL     1     139.830 135.538 147.740  1.00  0.00     0.293 HD
ENDBRANCH  18  21
ENDBRANCH   3  13
BRANCH  10  23
ATOM     23  O   UNL     1     147.959 128.865 146.193  1.00  0.00    -0.507 OA
ATOM     24  H   UNL     1     147.697 128.419 147.060  1.00  0.00     0.293 HD
ENDBRANCH  10  23
BRANCH  11  25
ATOM     25  O   UNL     1     147.349 131.306 142.104  1.00  0.00    -0.508 OA
ATOM     26  H   UNL     1     147.877 132.165 142.007  1.00  0.00     0.293 HD
ENDBRANCH  11  25
ENDBRANCH   1   2
BRANCH   1  27
ATOM     27  C   UNL     1     143.672 129.711 149.765  1.00  0.00     0.339 C 
ATOM     28  C   UNL     1     142.561 130.200 150.715  1.00  0.00     0.214 C 
ATOM     29  O   UNL     1     144.325 128.544 150.242  1.00  0.00    -0.332 OA
ATOM     30  C   UNL     1     141.558 129.085 151.080  1.00  0.00     0.180 C 
ATOM     31  C   UNL     1     143.456 127.441 150.464  1.00  0.00     0.179 C 
ATOM     32  C   UNL     1     142.288 127.776 151.429  1.00  0.00     0.177 C 
BRANCH  28  33
ATOM     33  O   UNL     1     141.899 131.303 150.151  1.00  0.00    -0.384 OA
ATOM     34  H   UNL     1     141.980 131.214 149.166  1.00  0.00     0.211 HD
ENDBRANCH  28  33
BRANCH  30  35
ATOM     35  O   UNL     1     140.555 128.889 150.111  1.00  0.00    -0.387 OA
ATOM     36  H   UNL     1     139.717 129.300 150.430  1.00  0.00     0.211 HD
ENDBRANCH  30  35
BRANCH  31  37
ATOM     37  C   UNL     1     143.059 126.726 149.151  1.00  0.00     0.191 C 
BRANCH  37  38
ATOM     38  O   UNL     1     141.715 126.971 148.834  1.00  0.00    -0.394 OA
ATOM     39  H   UNL     1     141.239 127.111 149.693  1.00  0.00     0.210 HD
ENDBRANCH  37  38
ENDBRANCH  31  37
BRANCH  32  40
ATOM     40  O   UNL     1     141.381 126.706 151.499  1.00  0.00    -0.387 OA
ATOM     41  H   UNL     1     141.411 126.364 152.433  1.00  0.00     0.211 HD
ENDBRANCH  32  40
ENDBRANCH   1  27
TORSDOF 12
ENDMDL
