MODEL 1
REMARK VINA RESULT:    -5.848      0.000      0.000
REMARK INTER + INTRA:          -7.167
REMARK INTER:                  -6.874
REMARK INTRA:                  -0.293
REMARK UNBOUND:                -0.293
REMARK SMILES O=c1cc(-c2ccc(O)c(O)c2)oc2cc(O)cc(O)c12
REMARK SMILES IDX 4 1 3 2 2 3 1 4 21 5 19 6 18 7 16 8 15 9 14 10 13 11 5 12
REMARK SMILES IDX 6 13 7 14 8 15 12 16 10 17 9 18 11 20 20 22 17 24
REMARK H PARENT 9 19 11 21 20 23 17 25
REMARK Flexibility Score: inf
ROOT
ATOM      1  C   UNL     1      19.544  20.105  20.317  1.00  0.00     0.138 A 
ATOM      2  C   UNL     1      18.325  19.585  19.858  1.00  0.00     0.100 A 
ATOM      3  C   UNL     1      18.001  18.253  20.119  1.00  0.00     0.197 A 
ATOM      4  O   UNL     1      16.875  17.832  19.749  1.00  0.00    -0.289 OA
ATOM      5  C   UNL     1      18.918  17.429  20.817  1.00  0.00     0.107 A 
ATOM      6  C   UNL     1      18.713  16.047  21.104  1.00  0.00     0.134 A 
ATOM      7  C   UNL     1      19.638  15.363  21.903  1.00  0.00     0.093 A 
ATOM      8  C   UNL     1      20.790  15.997  22.374  1.00  0.00     0.123 A 
ATOM      9  C   UNL     1      21.027  17.332  22.054  1.00  0.00     0.094 A 
ATOM     10  C   UNL     1      20.106  18.050  21.289  1.00  0.00     0.146 A 
ATOM     11  O   UNL     1      20.362  19.326  21.018  1.00  0.00    -0.456 OA
ENDROOT
BRANCH   1  12
ATOM     12  C   UNL     1      19.938  21.514  20.066  1.00  0.00     0.021 A 
ATOM     13  C   UNL     1      21.250  21.968  20.297  1.00  0.00     0.016 A 
ATOM     14  C   UNL     1      21.591  23.303  20.063  1.00  0.00     0.051 A 
ATOM     15  C   UNL     1      20.628  24.208  19.602  1.00  0.00     0.157 A 
ATOM     16  C   UNL     1      18.973  22.433  19.615  1.00  0.00     0.062 A 
ATOM     17  C   UNL     1      19.312  23.770  19.379  1.00  0.00     0.158 A 
BRANCH  15  18
ATOM     18  O   UNL     1      20.971  25.539  19.367  1.00  0.00    -0.504 OA
ATOM     19  H   UNL     1      20.635  26.286  19.964  1.00  0.00     0.293 HD
ENDBRANCH  15  18
BRANCH  17  20
ATOM     20  O   UNL     1      18.329  24.648  18.924  1.00  0.00    -0.504 OA
ATOM     21  H   UNL     1      17.976  24.617  17.975  1.00  0.00     0.293 HD
ENDBRANCH  17  20
ENDBRANCH   1  12
BRANCH   6  22
ATOM     22  O   UNL     1      17.639  15.298  20.613  1.00  0.00    -0.507 OA
ATOM     23  H   UNL     1      16.690  15.362  20.948  1.00  0.00     0.293 HD
ENDBRANCH   6  22
BRANCH   8  24
ATOM     24  O   UNL     1      21.713  15.304  23.156  1.00  0.00    -0.508 OA
ATOM     25  H   UNL     1      21.421  14.743  23.948  1.00  0.00     0.293 HD
ENDBRANCH   8  24
TORSDOF 5
ENDMDL
MODEL 2
REMARK VINA RESULT:    -5.787      4.782      5.387
REMARK INTER + INTRA:          -7.095
REMARK INTER:                  -6.808
REMARK INTRA:                  -0.287
REMARK UNBOUND:                -0.293
REMARK SMILES O=c1cc(-c2ccc(O)c(O)c2)oc2cc(O)cc(O)c12
REMARK SMILES IDX 4 1 3 2 2 3 1 4 21 5 19 6 18 7 16 8 15 9 14 10 13 11 5 12
REMARK SMILES IDX 6 13 7 14 8 15 12 16 10 17 9 18 11 20 20 22 17 24
REMARK H PARENT 9 19 11 21 20 23 17 25
REMARK Flexibility Score: inf
ROOT
ATOM      1  C   UNL     1      21.727  16.648  20.925  1.00  0.00     0.138 A 
ATOM      2  C   UNL     1      20.796  16.338  19.923  1.00  0.00     0.100 A 
ATOM      3  C   UNL     1      19.508  15.935  20.278  1.00  0.00     0.197 A 
ATOM      4  O   UNL     1      18.677  15.723  19.358  1.00  0.00    -0.289 OA
ATOM      5  C   UNL     1      19.161  15.813  21.646  1.00  0.00     0.107 A 
ATOM      6  C   UNL     1      17.891  15.372  22.125  1.00  0.00     0.134 A 
ATOM      7  C   UNL     1      17.624  15.403  23.500  1.00  0.00     0.093 A 
ATOM      8  C   UNL     1      18.602  15.801  24.415  1.00  0.00     0.123 A 
ATOM      9  C   UNL     1      19.862  16.182  23.960  1.00  0.00     0.094 A 
ATOM     10  C   UNL     1      20.148  16.195  22.593  1.00  0.00     0.146 A 
ATOM     11  O   UNL     1      21.358  16.579  22.201  1.00  0.00    -0.456 OA
ENDROOT
BRANCH   1  12
ATOM     12  C   UNL     1      23.110  17.081  20.603  1.00  0.00     0.021 A 
ATOM     13  C   UNL     1      23.847  17.908  21.470  1.00  0.00     0.016 A 
ATOM     14  C   UNL     1      25.144  18.309  21.135  1.00  0.00     0.051 A 
ATOM     15  C   UNL     1      25.723  17.898  19.929  1.00  0.00     0.157 A 
ATOM     16  C   UNL     1      23.693  16.683  19.386  1.00  0.00     0.062 A 
ATOM     17  C   UNL     1      24.992  17.082  19.049  1.00  0.00     0.158 A 
BRANCH  15  18
ATOM     18  O   UNL     1      27.017  18.298  19.600  1.00  0.00    -0.504 OA
ATOM     19  H   UNL     1      27.488  19.039  20.106  1.00  0.00     0.293 HD
ENDBRANCH  15  18
BRANCH  17  20
ATOM     20  O   UNL     1      25.538  16.659  17.838  1.00  0.00    -0.504 OA
ATOM     21  H   UNL     1      25.284  17.084  16.955  1.00  0.00     0.293 HD
ENDBRANCH  17  20
ENDBRANCH   1  12
BRANCH   6  22
ATOM     22  O   UNL     1      16.875  14.876  21.303  1.00  0.00    -0.507 OA
ATOM     23  H   UNL     1      16.724  15.149  20.345  1.00  0.00     0.293 HD
ENDBRANCH   6  22
BRANCH   8  24
ATOM     24  O   UNL     1      18.332  15.814  25.782  1.00  0.00    -0.508 OA
ATOM     25  H   UNL     1      18.210  14.955  26.306  1.00  0.00     0.293 HD
ENDBRANCH   8  24
TORSDOF 5
ENDMDL
MODEL 3
REMARK VINA RESULT:    -5.779      1.720      7.042
REMARK INTER + INTRA:          -7.085
REMARK INTER:                  -6.816
REMARK INTRA:                  -0.269
REMARK UNBOUND:                -0.293
REMARK SMILES O=c1cc(-c2ccc(O)c(O)c2)oc2cc(O)cc(O)c12
REMARK SMILES IDX 4 1 3 2 2 3 1 4 21 5 19 6 18 7 16 8 15 9 14 10 13 11 5 12
REMARK SMILES IDX 6 13 7 14 8 15 12 16 10 17 9 18 11 20 20 22 17 24
REMARK H PARENT 9 19 11 21 20 23 17 25
REMARK Flexibility Score: inf
ROOT
ATOM      1  C   UNL     1      19.253  20.015  20.365  1.00  0.00     0.138 A 
ATOM      2  C   UNL     1      18.872  20.111  19.019  1.00  0.00     0.100 A 
ATOM      3  C   UNL     1      18.877  21.355  18.386  1.00  0.00     0.197 A 
ATOM      4  O   UNL     1      18.591  21.400  17.162  1.00  0.00    -0.289 OA
ATOM      5  C   UNL     1      19.237  22.514  19.116  1.00  0.00     0.107 A 
ATOM      6  C   UNL     1      19.239  23.839  18.587  1.00  0.00     0.134 A 
ATOM      7  C   UNL     1      19.725  24.893  19.370  1.00  0.00     0.093 A 
ATOM      8  C   UNL     1      20.152  24.679  20.682  1.00  0.00     0.123 A 
ATOM      9  C   UNL     1      20.103  23.398  21.226  1.00  0.00     0.094 A 
ATOM     10  C   UNL     1      19.656  22.320  20.459  1.00  0.00     0.146 A 
ATOM     11  O   UNL     1      19.639  21.111  21.012  1.00  0.00    -0.456 OA
ENDROOT
BRANCH   1  12
ATOM     12  C   UNL     1      19.264  18.717  21.086  1.00  0.00     0.021 A 
ATOM     13  C   UNL     1      18.077  18.110  21.535  1.00  0.00     0.016 A 
ATOM     14  C   UNL     1      18.119  16.894  22.221  1.00  0.00     0.051 A 
ATOM     15  C   UNL     1      19.344  16.267  22.476  1.00  0.00     0.157 A 
ATOM     16  C   UNL     1      20.493  18.088  21.358  1.00  0.00     0.062 A 
ATOM     17  C   UNL     1      20.537  16.869  22.043  1.00  0.00     0.158 A 
BRANCH  15  18
ATOM     18  O   UNL     1      19.382  15.051  23.159  1.00  0.00    -0.504 OA
ATOM     19  H   UNL     1      19.681  14.197  22.704  1.00  0.00     0.293 HD
ENDBRANCH  15  18
BRANCH  17  20
ATOM     20  O   UNL     1      21.774  16.272  22.286  1.00  0.00    -0.504 OA
ATOM     21  H   UNL     1      22.521  16.285  21.603  1.00  0.00     0.293 HD
ENDBRANCH  17  20
ENDBRANCH   1  12
BRANCH   6  22
ATOM     22  O   UNL     1      18.755  24.174  17.319  1.00  0.00    -0.507 OA
ATOM     23  H   UNL     1      18.031  24.852  17.139  1.00  0.00     0.293 HD
ENDBRANCH   6  22
BRANCH   8  24
ATOM     24  O   UNL     1      20.620  25.738  21.459  1.00  0.00    -0.508 OA
ATOM     25  H   UNL     1      20.167  26.644  21.448  1.00  0.00     0.293 HD
ENDBRANCH   8  24
TORSDOF 5
ENDMDL
MODEL 4
REMARK VINA RESULT:    -5.609      1.551      2.888
REMARK INTER + INTRA:          -6.886
REMARK INTER:                  -6.626
REMARK INTRA:                  -0.259
REMARK UNBOUND:                -0.293
REMARK SMILES O=c1cc(-c2ccc(O)c(O)c2)oc2cc(O)cc(O)c12
REMARK SMILES IDX 4 1 3 2 2 3 1 4 21 5 19 6 18 7 16 8 15 9 14 10 13 11 5 12
REMARK SMILES IDX 6 13 7 14 8 15 12 16 10 17 9 18 11 20 20 22 17 24
REMARK H PARENT 9 19 11 21 20 23 17 25
REMARK Flexibility Score: inf
ROOT
ATOM      1  C   UNL     1      19.873  19.825  20.871  1.00  0.00     0.138 A 
ATOM      2  C   UNL     1      21.188  19.347  20.955  1.00  0.00     0.100 A 
ATOM      3  C   UNL     1      21.431  18.087  21.506  1.00  0.00     0.197 A 
ATOM      4  O   UNL     1      22.613  17.660  21.511  1.00  0.00    -0.289 OA
ATOM      5  C   UNL     1      20.352  17.317  22.004  1.00  0.00     0.107 A 
ATOM      6  C   UNL     1      20.484  16.039  22.623  1.00  0.00     0.134 A 
ATOM      7  C   UNL     1      19.334  15.319  22.972  1.00  0.00     0.093 A 
ATOM      8  C   UNL     1      18.060  15.858  22.778  1.00  0.00     0.123 A 
ATOM      9  C   UNL     1      17.923  17.128  22.224  1.00  0.00     0.094 A 
ATOM     10  C   UNL     1      19.049  17.856  21.834  1.00  0.00     0.146 A 
ATOM     11  O   UNL     1      18.873  19.059  21.295  1.00  0.00    -0.456 OA
ENDROOT
BRANCH   1  12
ATOM     12  C   UNL     1      19.559  21.157  20.295  1.00  0.00     0.021 A 
ATOM     13  C   UNL     1      19.060  21.298  18.987  1.00  0.00     0.016 A 
ATOM     14  C   UNL     1      18.784  22.566  18.467  1.00  0.00     0.051 A 
ATOM     15  C   UNL     1      19.007  23.712  19.239  1.00  0.00     0.157 A 
ATOM     16  C   UNL     1      19.794  22.314  21.060  1.00  0.00     0.062 A 
ATOM     17  C   UNL     1      19.516  23.584  20.542  1.00  0.00     0.158 A 
BRANCH  15  18
ATOM     18  O   UNL     1      18.729  24.975  18.717  1.00  0.00    -0.504 OA
ATOM     19  H   UNL     1      18.860  25.183  17.734  1.00  0.00     0.293 HD
ENDBRANCH  15  18
BRANCH  17  20
ATOM     20  O   UNL     1      19.754  24.707  21.334  1.00  0.00    -0.504 OA
ATOM     21  H   UNL     1      20.349  25.466  21.028  1.00  0.00     0.293 HD
ENDBRANCH  17  20
ENDBRANCH   1  12
BRANCH   6  22
ATOM     22  O   UNL     1      21.711  15.447  22.939  1.00  0.00    -0.507 OA
ATOM     23  H   UNL     1      22.235  14.844  22.323  1.00  0.00     0.293 HD
ENDBRANCH   6  22
BRANCH   8  24
ATOM     24  O   UNL     1      16.923  15.140  23.142  1.00  0.00    -0.508 OA
ATOM     25  H   UNL     1      16.441  15.317  24.016  1.00  0.00     0.293 HD
ENDBRANCH   8  24
TORSDOF 5
ENDMDL
MODEL 5
REMARK VINA RESULT:    -5.586      2.090      7.043
REMARK INTER + INTRA:          -6.858
REMARK INTER:                  -6.548
REMARK INTRA:                  -0.310
REMARK UNBOUND:                -0.293
REMARK SMILES O=c1cc(-c2ccc(O)c(O)c2)oc2cc(O)cc(O)c12
REMARK SMILES IDX 4 1 3 2 2 3 1 4 21 5 19 6 18 7 16 8 15 9 14 10 13 11 5 12
REMARK SMILES IDX 6 13 7 14 8 15 12 16 10 17 9 18 11 20 20 22 17 24
REMARK H PARENT 9 19 11 21 20 23 17 25
REMARK Flexibility Score: inf
ROOT
ATOM      1  C   UNL     1      18.592  20.241  20.079  1.00  0.00     0.138 A 
ATOM      2  C   UNL     1      18.327  20.710  18.784  1.00  0.00     0.100 A 
ATOM      3  C   UNL     1      18.596  22.041  18.463  1.00  0.00     0.197 A 
ATOM      4  O   UNL     1      18.407  22.416  17.278  1.00  0.00    -0.289 OA
ATOM      5  C   UNL     1      19.105  22.914  19.455  1.00  0.00     0.107 A 
ATOM      6  C   UNL     1      19.379  24.300  19.254  1.00  0.00     0.134 A 
ATOM      7  C   UNL     1      19.991  25.038  20.275  1.00  0.00     0.093 A 
ATOM      8  C   UNL     1      20.283  24.454  21.510  1.00  0.00     0.123 A 
ATOM      9  C   UNL     1      19.970  23.116  21.735  1.00  0.00     0.094 A 
ATOM     10  C   UNL     1      19.391  22.345  20.724  1.00  0.00     0.146 A 
ATOM     11  O   UNL     1      19.122  21.067  20.975  1.00  0.00    -0.456 OA
ENDROOT
BRANCH   1  12
ATOM     12  C   UNL     1      18.323  18.835  20.473  1.00  0.00     0.021 A 
ATOM     13  C   UNL     1      18.237  17.803  19.520  1.00  0.00     0.016 A 
ATOM     14  C   UNL     1      17.972  16.490  19.919  1.00  0.00     0.051 A 
ATOM     15  C   UNL     1      17.781  16.187  21.272  1.00  0.00     0.157 A 
ATOM     16  C   UNL     1      18.117  18.524  21.830  1.00  0.00     0.062 A 
ATOM     17  C   UNL     1      17.853  17.210  22.232  1.00  0.00     0.158 A 
BRANCH  15  18
ATOM     18  O   UNL     1      17.519  14.875  21.667  1.00  0.00    -0.504 OA
ATOM     19  H   UNL     1      17.845  14.083  21.125  1.00  0.00     0.293 HD
ENDBRANCH  15  18
BRANCH  17  20
ATOM     20  O   UNL     1      17.663  16.941  23.587  1.00  0.00    -0.504 OA
ATOM     21  H   UNL     1      18.416  16.622  24.183  1.00  0.00     0.293 HD
ENDBRANCH  17  20
ENDBRANCH   1  12
BRANCH   6  22
ATOM     22  O   UNL     1      19.051  25.000  18.089  1.00  0.00    -0.507 OA
ATOM     23  H   UNL     1      18.746  24.575  17.227  1.00  0.00     0.293 HD
ENDBRANCH   6  22
BRANCH   8  24
ATOM     24  O   UNL     1      20.877  25.200  22.526  1.00  0.00    -0.508 OA
ATOM     25  H   UNL     1      21.558  24.792  23.155  1.00  0.00     0.293 HD
ENDBRANCH   8  24
TORSDOF 5
ENDMDL
MODEL 6
REMARK VINA RESULT:    -5.508      1.589      1.903
REMARK INTER + INTRA:          -6.766
REMARK INTER:                  -6.504
REMARK INTRA:                  -0.262
REMARK UNBOUND:                -0.293
REMARK SMILES O=c1cc(-c2ccc(O)c(O)c2)oc2cc(O)cc(O)c12
REMARK SMILES IDX 4 1 3 2 2 3 1 4 21 5 19 6 18 7 16 8 15 9 14 10 13 11 5 12
REMARK SMILES IDX 6 13 7 14 8 15 12 16 10 17 9 18 11 20 20 22 17 24
REMARK H PARENT 9 19 11 21 20 23 17 25
REMARK Flexibility Score: inf
ROOT
ATOM      1  C   UNL     1      18.976  19.793  20.852  1.00  0.00     0.138 A 
ATOM      2  C   UNL     1      17.909  19.312  21.624  1.00  0.00     0.100 A 
ATOM      3  C   UNL     1      17.942  18.004  22.109  1.00  0.00     0.197 A 
ATOM      4  O   UNL     1      17.000  17.621  22.849  1.00  0.00    -0.289 OA
ATOM      5  C   UNL     1      19.038  17.164  21.794  1.00  0.00     0.107 A 
ATOM      6  C   UNL     1      19.160  15.802  22.199  1.00  0.00     0.134 A 
ATOM      7  C   UNL     1      20.343  15.104  21.927  1.00  0.00     0.093 A 
ATOM      8  C   UNL     1      21.383  15.701  21.210  1.00  0.00     0.123 A 
ATOM      9  C   UNL     1      21.251  17.014  20.763  1.00  0.00     0.094 A 
ATOM     10  C   UNL     1      20.098  17.747  21.050  1.00  0.00     0.146 A 
ATOM     11  O   UNL     1      20.019  19.001  20.617  1.00  0.00    -0.456 OA
ENDROOT
BRANCH   1  12
ATOM     12  C   UNL     1      18.991  21.175  20.310  1.00  0.00     0.021 A 
ATOM     13  C   UNL     1      18.725  21.441  18.955  1.00  0.00     0.016 A 
ATOM     14  C   UNL     1      18.757  22.751  18.469  1.00  0.00     0.051 A 
ATOM     15  C   UNL     1      19.062  23.816  19.326  1.00  0.00     0.157 A 
ATOM     16  C   UNL     1      19.310  22.249  21.162  1.00  0.00     0.062 A 
ATOM     17  C   UNL     1      19.341  23.562  20.679  1.00  0.00     0.158 A 
BRANCH  15  18
ATOM     18  O   UNL     1      19.090  25.122  18.839  1.00  0.00    -0.504 OA
ATOM     19  H   UNL     1      19.441  25.889  19.401  1.00  0.00     0.293 HD
ENDBRANCH  15  18
BRANCH  17  20
ATOM     20  O   UNL     1      19.652  24.599  21.557  1.00  0.00    -0.504 OA
ATOM     21  H   UNL     1      19.231  24.673  22.475  1.00  0.00     0.293 HD
ENDBRANCH  17  20
ENDBRANCH   1  12
BRANCH   6  22
ATOM     22  O   UNL     1      18.148  15.085  22.845  1.00  0.00    -0.507 OA
ATOM     23  H   UNL     1      17.758  15.321  23.745  1.00  0.00     0.293 HD
ENDBRANCH   6  22
BRANCH   8  24
ATOM     24  O   UNL     1      22.551  14.994  20.931  1.00  0.00    -0.508 OA
ATOM     25  H   UNL     1      22.924  14.937  19.990  1.00  0.00     0.293 HD
ENDBRANCH   8  24
TORSDOF 5
ENDMDL
MODEL 7
REMARK VINA RESULT:    -5.473      5.051      6.849
REMARK INTER + INTRA:          -6.725
REMARK INTER:                  -6.423
REMARK INTRA:                  -0.302
REMARK UNBOUND:                -0.293
REMARK SMILES O=c1cc(-c2ccc(O)c(O)c2)oc2cc(O)cc(O)c12
REMARK SMILES IDX 4 1 3 2 2 3 1 4 21 5 19 6 18 7 16 8 15 9 14 10 13 11 5 12
REMARK SMILES IDX 6 13 7 14 8 15 12 16 10 17 9 18 11 20 20 22 17 24
REMARK H PARENT 9 19 11 21 20 23 17 25
REMARK Flexibility Score: inf
ROOT
ATOM      1  C   UNL     1      21.366  16.396  21.154  1.00  0.00     0.138 A 
ATOM      2  C   UNL     1      21.203  15.656  19.974  1.00  0.00     0.100 A 
ATOM      3  C   UNL     1      22.237  15.616  19.036  1.00  0.00     0.197 A 
ATOM      4  O   UNL     1      22.085  14.894  18.017  1.00  0.00    -0.289 OA
ATOM      5  C   UNL     1      23.427  16.346  19.269  1.00  0.00     0.107 A 
ATOM      6  C   UNL     1      24.529  16.411  18.366  1.00  0.00     0.134 A 
ATOM      7  C   UNL     1      25.702  17.071  18.755  1.00  0.00     0.093 A 
ATOM      8  C   UNL     1      25.789  17.718  19.990  1.00  0.00     0.123 A 
ATOM      9  C   UNL     1      24.698  17.706  20.856  1.00  0.00     0.094 A 
ATOM     10  C   UNL     1      23.528  17.027  20.512  1.00  0.00     0.146 A 
ATOM     11  O   UNL     1      22.515  17.028  21.373  1.00  0.00    -0.456 OA
ENDROOT
BRANCH   1  12
ATOM     12  C   UNL     1      20.299  16.474  22.183  1.00  0.00     0.021 A 
ATOM     13  C   UNL     1      18.937  16.520  21.835  1.00  0.00     0.016 A 
ATOM     14  C   UNL     1      17.954  16.604  22.825  1.00  0.00     0.051 A 
ATOM     15  C   UNL     1      18.314  16.651  24.177  1.00  0.00     0.157 A 
ATOM     16  C   UNL     1      20.653  16.535  23.543  1.00  0.00     0.062 A 
ATOM     17  C   UNL     1      19.671  16.618  24.537  1.00  0.00     0.158 A 
BRANCH  15  18
ATOM     18  O   UNL     1      17.330  16.733  25.162  1.00  0.00    -0.504 OA
ATOM     19  H   UNL     1      17.328  16.110  25.961  1.00  0.00     0.293 HD
ENDBRANCH  15  18
BRANCH  17  20
ATOM     20  O   UNL     1      20.062  16.669  25.874  1.00  0.00    -0.504 OA
ATOM     21  H   UNL     1      19.424  16.457  26.631  1.00  0.00     0.293 HD
ENDBRANCH  17  20
ENDBRANCH   1  12
BRANCH   6  22
ATOM     22  O   UNL     1      24.516  15.872  17.077  1.00  0.00    -0.507 OA
ATOM     23  H   UNL     1      24.440  16.409  16.227  1.00  0.00     0.293 HD
ENDBRANCH   6  22
BRANCH   8  24
ATOM     24  O   UNL     1      26.954  18.385  20.362  1.00  0.00    -0.508 OA
ATOM     25  H   UNL     1      27.859  18.117  19.994  1.00  0.00     0.293 HD
ENDBRANCH   8  24
TORSDOF 5
ENDMDL
MODEL 8
REMARK VINA RESULT:    -5.312      1.290      1.358
REMARK INTER + INTRA:          -6.536
REMARK INTER:                  -6.241
REMARK INTRA:                  -0.295
REMARK UNBOUND:                -0.293
REMARK SMILES O=c1cc(-c2ccc(O)c(O)c2)oc2cc(O)cc(O)c12
REMARK SMILES IDX 4 1 3 2 2 3 1 4 21 5 19 6 18 7 16 8 15 9 14 10 13 11 5 12
REMARK SMILES IDX 6 13 7 14 8 15 12 16 10 17 9 18 11 20 20 22 17 24
REMARK H PARENT 9 19 11 21 20 23 17 25
REMARK Flexibility Score: inf
ROOT
ATOM      1  C   UNL     1      19.188  20.441  19.995  1.00  0.00     0.138 A 
ATOM      2  C   UNL     1      18.565  19.936  18.845  1.00  0.00     0.100 A 
ATOM      3  C   UNL     1      18.336  18.564  18.728  1.00  0.00     0.197 A 
ATOM      4  O   UNL     1      17.720  18.150  17.714  1.00  0.00    -0.289 OA
ATOM      5  C   UNL     1      18.763  17.690  19.757  1.00  0.00     0.107 A 
ATOM      6  C   UNL     1      18.619  16.271  19.729  1.00  0.00     0.134 A 
ATOM      7  C   UNL     1      18.973  15.519  20.856  1.00  0.00     0.093 A 
ATOM      8  C   UNL     1      19.521  16.130  21.987  1.00  0.00     0.123 A 
ATOM      9  C   UNL     1      19.715  17.508  22.003  1.00  0.00     0.094 A 
ATOM     10  C   UNL     1      19.340  18.290  20.909  1.00  0.00     0.146 A 
ATOM     11  O   UNL     1      19.529  19.604  20.971  1.00  0.00    -0.456 OA
ENDROOT
BRANCH   1  12
ATOM     12  C   UNL     1      19.456  21.890  20.170  1.00  0.00     0.021 A 
ATOM     13  C   UNL     1      20.035  22.399  21.347  1.00  0.00     0.016 A 
ATOM     14  C   UNL     1      20.265  23.770  21.489  1.00  0.00     0.051 A 
ATOM     15  C   UNL     1      19.916  24.656  20.462  1.00  0.00     0.157 A 
ATOM     16  C   UNL     1      19.096  22.788  19.148  1.00  0.00     0.062 A 
ATOM     17  C   UNL     1      19.328  24.162  19.287  1.00  0.00     0.158 A 
BRANCH  15  18
ATOM     18  O   UNL     1      20.150  26.023  20.606  1.00  0.00    -0.504 OA
ATOM     19  H   UNL     1      20.647  26.553  19.899  1.00  0.00     0.293 HD
ENDBRANCH  15  18
BRANCH  17  20
ATOM     20  O   UNL     1      18.965  25.018  18.248  1.00  0.00    -0.504 OA
ATOM     21  H   UNL     1      18.949  24.717  17.282  1.00  0.00     0.293 HD
ENDBRANCH  17  20
ENDBRANCH   1  12
BRANCH   6  22
ATOM     22  O   UNL     1      18.162  15.555  18.619  1.00  0.00    -0.507 OA
ATOM     23  H   UNL     1      17.633  14.697  18.664  1.00  0.00     0.293 HD
ENDBRANCH   6  22
BRANCH   8  24
ATOM     24  O   UNL     1      19.884  15.371  23.097  1.00  0.00    -0.508 OA
ATOM     25  H   UNL     1      20.224  15.804  23.948  1.00  0.00     0.293 HD
ENDBRANCH   8  24
TORSDOF 5
ENDMDL
MODEL 9
REMARK VINA RESULT:    -5.168      3.586      6.132
REMARK INTER + INTRA:          -6.367
REMARK INTER:                  -6.098
REMARK INTRA:                  -0.269
REMARK UNBOUND:                -0.293
REMARK SMILES O=c1cc(-c2ccc(O)c(O)c2)oc2cc(O)cc(O)c12
REMARK SMILES IDX 4 1 3 2 2 3 1 4 21 5 19 6 18 7 16 8 15 9 14 10 13 11 5 12
REMARK SMILES IDX 6 13 7 14 8 15 12 16 10 17 9 18 11 20 20 22 17 24
REMARK H PARENT 9 19 11 21 20 23 17 25
REMARK Flexibility Score: inf
ROOT
ATOM      1  C   UNL     1      21.995  16.800  20.978  1.00  0.00     0.138 A 
ATOM      2  C   UNL     1      21.747  15.879  22.006  1.00  0.00     0.100 A 
ATOM      3  C   UNL     1      20.567  15.972  22.746  1.00  0.00     0.197 A 
ATOM      4  O   UNL     1      20.345  15.094  23.620  1.00  0.00    -0.289 OA
ATOM      5  C   UNL     1      19.646  17.012  22.475  1.00  0.00     0.107 A 
ATOM      6  C   UNL     1      18.432  17.229  23.193  1.00  0.00     0.134 A 
ATOM      7  C   UNL     1      17.543  18.220  22.759  1.00  0.00     0.093 A 
ATOM      8  C   UNL     1      17.853  19.041  21.672  1.00  0.00     0.123 A 
ATOM      9  C   UNL     1      19.060  18.873  20.999  1.00  0.00     0.094 A 
ATOM     10  C   UNL     1      19.952  17.870  21.385  1.00  0.00     0.146 A 
ATOM     11  O   UNL     1      21.087  17.734  20.707  1.00  0.00    -0.456 OA
ENDROOT
BRANCH   1  12
ATOM     12  C   UNL     1      23.232  16.747  20.160  1.00  0.00     0.021 A 
ATOM     13  C   UNL     1      23.433  15.754  19.184  1.00  0.00     0.016 A 
ATOM     14  C   UNL     1      24.613  15.722  18.436  1.00  0.00     0.051 A 
ATOM     15  C   UNL     1      25.615  16.675  18.655  1.00  0.00     0.157 A 
ATOM     16  C   UNL     1      24.249  17.694  20.383  1.00  0.00     0.062 A 
ATOM     17  C   UNL     1      25.432  17.665  19.634  1.00  0.00     0.158 A 
BRANCH  15  18
ATOM     18  O   UNL     1      26.790  16.641  17.905  1.00  0.00    -0.504 OA
ATOM     19  H   UNL     1      26.911  17.221  17.082  1.00  0.00     0.293 HD
ENDBRANCH  15  18
BRANCH  17  20
ATOM     20  O   UNL     1      26.412  18.625  19.879  1.00  0.00    -0.504 OA
ATOM     21  H   UNL     1      26.182  19.576  20.139  1.00  0.00     0.293 HD
ENDBRANCH  17  20
ENDBRANCH   1  12
BRANCH   6  22
ATOM     22  O   UNL     1      18.067  16.522  24.342  1.00  0.00    -0.507 OA
ATOM     23  H   UNL     1      18.475  16.654  25.254  1.00  0.00     0.293 HD
ENDBRANCH   6  22
BRANCH   8  24
ATOM     24  O   UNL     1      16.968  20.035  21.258  1.00  0.00    -0.508 OA
ATOM     25  H   UNL     1      17.263  20.999  21.156  1.00  0.00     0.293 HD
ENDBRANCH   8  24
TORSDOF 5
ENDMDL
