MODEL 1
REMARK VINA RESULT:    -3.194      0.000      0.000
REMARK INTER + INTRA:          -8.727
REMARK INTER:                  -6.181
REMARK INTRA:                  -2.545
REMARK UNBOUND:                -2.545
REMARK SMILES CCCCCCCCCCCCCCCCCC(=O)[O-]
REMARK SMILES IDX 10 1 11 2 12 3 13 4 14 5 15 6 16 7 17 8 18 9 19 10 20 11
REMARK SMILES IDX 9 12 8 13 7 14 6 15 5 16 4 17 3 18 2 19 1 20
REMARK H PARENT
REMARK Flexibility Score: inf
ROOT
ATOM      1  C   UNL     1      41.643  32.925   5.554  1.00  0.00     0.000 C 
ENDROOT
BRANCH   1   2
ATOM      2  C   UNL     1      43.184  32.909   5.587  1.00  0.00     0.000 C 
BRANCH   2   3
ATOM      3  C   UNL     1      43.864  33.122   4.222  1.00  0.00     0.000 C 
BRANCH   3   4
ATOM      4  C   UNL     1      43.984  31.829   3.401  1.00  0.00     0.000 C 
BRANCH   4   5
ATOM      5  C   UNL     1      43.173  31.927   2.103  1.00  0.00     0.000 C 
BRANCH   5   6
ATOM      6  C   UNL     1      43.964  32.669   1.014  1.00  0.00     0.000 C 
BRANCH   6   7
ATOM      7  C   UNL     1      43.056  33.454   0.054  1.00  0.00     0.006 C 
BRANCH   7   8
ATOM      8  C   UNL     1      42.189  32.539  -0.820  1.00  0.00     0.053 C 
BRANCH   8   9
ATOM      9  C   UNL     1      40.750  32.931  -0.721  1.00  0.00     0.041 C 
ATOM     10  O   UNL     1      40.022  32.941  -1.749  1.00  0.00    -0.550 OA
ATOM     11  O   UNL     1      40.200  33.252   0.514  1.00  0.00    -0.550 OA
ENDBRANCH   8   9
ENDBRANCH   7   8
ENDBRANCH   6   7
ENDBRANCH   5   6
ENDBRANCH   4   5
ENDBRANCH   3   4
ENDBRANCH   2   3
ENDBRANCH   1   2
BRANCH   1  12
ATOM     12  C   UNL     1      40.968  32.667   6.914  1.00  0.00     0.000 C 
BRANCH  12  13
ATOM     13  C   UNL     1      41.921  32.067   7.975  1.00  0.00    -0.000 C 
BRANCH  13  14
ATOM     14  C   UNL     1      41.793  30.540   8.117  1.00  0.00    -0.000 C 
BRANCH  14  15
ATOM     15  C   UNL     1      43.123  29.818   7.838  1.00  0.00    -0.000 C 
BRANCH  15  16
ATOM     16  C   UNL     1      43.207  29.271   6.404  1.00  0.00    -0.000 C 
BRANCH  16  17
ATOM     17  C   UNL     1      41.832  28.872   5.842  1.00  0.00    -0.000 C 
BRANCH  17  18
ATOM     18  C   UNL     1      41.534  29.521   4.478  1.00  0.00    -0.000 C 
BRANCH  18  19
ATOM     19  C   UNL     1      40.040  29.755   4.190  1.00  0.00    -0.003 C 
ATOM     20  C   UNL     1      39.175  29.726   5.449  1.00  0.00     0.004 C 
ENDBRANCH  18  19
ENDBRANCH  17  18
ENDBRANCH  16  17
ENDBRANCH  15  16
ENDBRANCH  14  15
ENDBRANCH  13  14
ENDBRANCH  12  13
ENDBRANCH   1  12
TORSDOF 16
ENDMDL
MODEL 2
REMARK VINA RESULT:    -3.127      1.892      3.523
REMARK INTER + INTRA:          -8.596
REMARK INTER:                  -7.337
REMARK INTRA:                  -1.259
REMARK UNBOUND:                -2.545
REMARK SMILES CCCCCCCCCCCCCCCCCC(=O)[O-]
REMARK SMILES IDX 10 1 11 2 12 3 13 4 14 5 15 6 16 7 17 8 18 9 19 10 20 11
REMARK SMILES IDX 9 12 8 13 7 14 6 15 5 16 4 17 3 18 2 19 1 20
REMARK H PARENT
REMARK Flexibility Score: inf
ROOT
ATOM      1  C   UNL     1      42.053  31.162   3.874  1.00  0.00     0.000 C 
ENDROOT
BRANCH   1   2
ATOM      2  C   UNL     1      43.523  31.541   3.610  1.00  0.00     0.000 C 
BRANCH   2   3
ATOM      3  C   UNL     1      43.860  31.854   2.141  1.00  0.00     0.000 C 
BRANCH   3   4
ATOM      4  C   UNL     1      42.670  32.438   1.363  1.00  0.00     0.000 C 
BRANCH   4   5
ATOM      5  C   UNL     1      43.102  32.894  -0.037  1.00  0.00     0.000 C 
BRANCH   5   6
ATOM      6  C   UNL     1      42.106  32.414  -1.104  1.00  0.00     0.000 C 
BRANCH   6   7
ATOM      7  C   UNL     1      41.117  33.512  -1.528  1.00  0.00     0.006 C 
BRANCH   7   8
ATOM      8  C   UNL     1      39.668  33.179  -1.150  1.00  0.00     0.053 C 
BRANCH   8   9
ATOM      9  C   UNL     1      39.221  34.025  -0.000  1.00  0.00     0.041 C 
ATOM     10  O   UNL     1      39.278  33.579   1.177  1.00  0.00    -0.550 OA
ATOM     11  O   UNL     1      38.774  35.321  -0.224  1.00  0.00    -0.550 OA
ENDBRANCH   8   9
ENDBRANCH   7   8
ENDBRANCH   6   7
ENDBRANCH   5   6
ENDBRANCH   4   5
ENDBRANCH   3   4
ENDBRANCH   2   3
ENDBRANCH   1   2
BRANCH   1  12
ATOM     12  C   UNL     1      41.823  29.678   4.218  1.00  0.00     0.000 C 
BRANCH  12  13
ATOM     13  C   UNL     1      41.742  29.401   5.737  1.00  0.00    -0.000 C 
BRANCH  13  14
ATOM     14  C   UNL     1      42.728  28.320   6.214  1.00  0.00    -0.000 C 
BRANCH  14  15
ATOM     15  C   UNL     1      42.029  26.974   6.477  1.00  0.00    -0.000 C 
BRANCH  15  16
ATOM     16  C   UNL     1      40.736  27.130   7.291  1.00  0.00    -0.000 C 
BRANCH  16  17
ATOM     17  C   UNL     1      40.969  26.996   8.806  1.00  0.00    -0.000 C 
BRANCH  17  18
ATOM     18  C   UNL     1      40.728  28.312   9.566  1.00  0.00    -0.000 C 
BRANCH  18  19
ATOM     19  C   UNL     1      41.917  28.789  10.420  1.00  0.00    -0.003 C 
ATOM     20  C   UNL     1      42.900  29.663   9.643  1.00  0.00     0.004 C 
ENDBRANCH  18  19
ENDBRANCH  17  18
ENDBRANCH  16  17
ENDBRANCH  15  16
ENDBRANCH  14  15
ENDBRANCH  13  14
ENDBRANCH  12  13
ENDBRANCH   1  12
TORSDOF 16
ENDMDL
MODEL 3
REMARK VINA RESULT:    -3.119     16.543     18.890
REMARK INTER + INTRA:          -8.581
REMARK INTER:                  -6.613
REMARK INTRA:                  -1.968
REMARK UNBOUND:                -2.545
REMARK SMILES CCCCCCCCCCCCCCCCCC(=O)[O-]
REMARK SMILES IDX 10 1 11 2 12 3 13 4 14 5 15 6 16 7 17 8 18 9 19 10 20 11
REMARK SMILES IDX 9 12 8 13 7 14 6 15 5 16 4 17 3 18 2 19 1 20
REMARK H PARENT
REMARK Flexibility Score: inf
ROOT
ATOM      1  C   UNL     1      25.238  38.857   0.703  1.00  0.00     0.000 C 
ENDROOT
BRANCH   1   2
ATOM      2  C   UNL     1      24.840  39.276   2.132  1.00  0.00     0.000 C 
BRANCH   2   3
ATOM      3  C   UNL     1      24.227  40.684   2.249  1.00  0.00     0.000 C 
BRANCH   3   4
ATOM      4  C   UNL     1      24.645  41.417   3.533  1.00  0.00     0.000 C 
BRANCH   4   5
ATOM      5  C   UNL     1      26.028  40.950   4.003  1.00  0.00     0.000 C 
BRANCH   5   6
ATOM      6  C   UNL     1      27.084  42.045   3.782  1.00  0.00     0.000 C 
BRANCH   6   7
ATOM      7  C   UNL     1      26.489  43.461   3.839  1.00  0.00     0.006 C 
BRANCH   7   8
ATOM      8  C   UNL     1      26.808  44.183   5.155  1.00  0.00     0.053 C 
BRANCH   8   9
ATOM      9  C   UNL     1      25.638  45.001   5.599  1.00  0.00     0.041 C 
ATOM     10  O   UNL     1      24.666  44.454   6.185  1.00  0.00    -0.550 OA
ATOM     11  O   UNL     1      25.636  46.376   5.400  1.00  0.00    -0.550 OA
ENDBRANCH   8   9
ENDBRANCH   7   8
ENDBRANCH   6   7
ENDBRANCH   5   6
ENDBRANCH   4   5
ENDBRANCH   3   4
ENDBRANCH   2   3
ENDBRANCH   1   2
BRANCH   1  12
ATOM     12  C   UNL     1      25.293  40.012  -0.314  1.00  0.00     0.000 C 
BRANCH  12  13
ATOM     13  C   UNL     1      26.159  39.701  -1.557  1.00  0.00    -0.000 C 
BRANCH  13  14
ATOM     14  C   UNL     1      27.120  38.517  -1.352  1.00  0.00    -0.000 C 
BRANCH  14  15
ATOM     15  C   UNL     1      28.523  38.804  -1.916  1.00  0.00    -0.000 C 
BRANCH  15  16
ATOM     16  C   UNL     1      29.571  37.791  -1.430  1.00  0.00    -0.000 C 
BRANCH  16  17
ATOM     17  C   UNL     1      30.201  38.189  -0.085  1.00  0.00    -0.000 C 
BRANCH  17  18
ATOM     18  C   UNL     1      29.855  37.208   1.050  1.00  0.00    -0.000 C 
BRANCH  18  19
ATOM     19  C   UNL     1      28.951  37.792   2.151  1.00  0.00    -0.003 C 
ATOM     20  C   UNL     1      28.638  39.273   1.947  1.00  0.00     0.004 C 
ENDBRANCH  18  19
ENDBRANCH  17  18
ENDBRANCH  16  17
ENDBRANCH  15  16
ENDBRANCH  14  15
ENDBRANCH  13  14
ENDBRANCH  12  13
ENDBRANCH   1  12
TORSDOF 16
ENDMDL
MODEL 4
REMARK VINA RESULT:    -3.116     16.003     18.380
REMARK INTER + INTRA:          -8.576
REMARK INTER:                  -5.879
REMARK INTRA:                  -2.697
REMARK UNBOUND:                -2.545
REMARK SMILES CCCCCCCCCCCCCCCCCC(=O)[O-]
REMARK SMILES IDX 10 1 11 2 12 3 13 4 14 5 15 6 16 7 17 8 18 9 19 10 20 11
REMARK SMILES IDX 9 12 8 13 7 14 6 15 5 16 4 17 3 18 2 19 1 20
REMARK H PARENT
REMARK Flexibility Score: inf
ROOT
ATOM      1  C   UNL     1      28.041  37.714  -1.478  1.00  0.00     0.000 C 
ENDROOT
BRANCH   1   2
ATOM      2  C   UNL     1      28.897  36.885  -0.501  1.00  0.00     0.000 C 
BRANCH   2   3
ATOM      3  C   UNL     1      28.824  37.337   0.970  1.00  0.00     0.000 C 
BRANCH   3   4
ATOM      4  C   UNL     1      27.484  36.995   1.638  1.00  0.00     0.000 C 
BRANCH   4   5
ATOM      5  C   UNL     1      27.132  38.026   2.717  1.00  0.00     0.000 C 
BRANCH   5   6
ATOM      6  C   UNL     1      28.270  39.041   2.902  1.00  0.00     0.000 C 
BRANCH   6   7
ATOM      7  C   UNL     1      27.777  40.497   2.867  1.00  0.00     0.006 C 
BRANCH   7   8
ATOM      8  C   UNL     1      28.516  41.395   3.868  1.00  0.00     0.053 C 
BRANCH   8   9
ATOM      9  C   UNL     1      27.622  42.499   4.337  1.00  0.00     0.041 C 
ATOM     10  O   UNL     1      27.179  43.349   3.520  1.00  0.00    -0.550 OA
ATOM     11  O   UNL     1      27.248  42.568   5.673  1.00  0.00    -0.550 OA
ENDBRANCH   8   9
ENDBRANCH   7   8
ENDBRANCH   6   7
ENDBRANCH   5   6
ENDBRANCH   4   5
ENDBRANCH   3   4
ENDBRANCH   2   3
ENDBRANCH   1   2
BRANCH   1  12
ATOM     12  C   UNL     1      28.183  39.240  -1.324  1.00  0.00     0.000 C 
BRANCH  12  13
ATOM     13  C   UNL     1      27.052  40.041  -2.010  1.00  0.00    -0.000 C 
BRANCH  13  14
ATOM     14  C   UNL     1      25.644  39.618  -1.558  1.00  0.00    -0.000 C 
BRANCH  14  15
ATOM     15  C   UNL     1      25.396  39.925  -0.070  1.00  0.00    -0.000 C 
BRANCH  15  16
ATOM     16  C   UNL     1      24.290  39.048   0.537  1.00  0.00    -0.000 C 
BRANCH  16  17
ATOM     17  C   UNL     1      23.896  39.490   1.956  1.00  0.00    -0.000 C 
BRANCH  17  18
ATOM     18  C   UNL     1      24.494  40.854   2.344  1.00  0.00    -0.000 C 
BRANCH  18  19
ATOM     19  C   UNL     1      24.134  41.335   3.762  1.00  0.00    -0.003 C 
ATOM     20  C   UNL     1      24.514  40.331   4.849  1.00  0.00     0.004 C 
ENDBRANCH  18  19
ENDBRANCH  17  18
ENDBRANCH  16  17
ENDBRANCH  15  16
ENDBRANCH  14  15
ENDBRANCH  13  14
ENDBRANCH  12  13
ENDBRANCH   1  12
TORSDOF 16
ENDMDL
MODEL 5
REMARK VINA RESULT:    -3.101     17.907     19.896
REMARK INTER + INTRA:          -8.546
REMARK INTER:                  -5.616
REMARK INTRA:                  -2.931
REMARK UNBOUND:                -2.545
REMARK SMILES CCCCCCCCCCCCCCCCCC(=O)[O-]
REMARK SMILES IDX 10 1 11 2 12 3 13 4 14 5 15 6 16 7 17 8 18 9 19 10 20 11
REMARK SMILES IDX 9 12 8 13 7 14 6 15 5 16 4 17 3 18 2 19 1 20
REMARK H PARENT
REMARK Flexibility Score: inf
ROOT
ATOM      1  C   UNL     1      28.538  41.395   5.268  1.00  0.00     0.000 C 
ENDROOT
BRANCH   1   2
ATOM      2  C   UNL     1      28.158  41.973   3.890  1.00  0.00     0.000 C 
BRANCH   2   3
ATOM      3  C   UNL     1      27.548  43.387   3.925  1.00  0.00     0.000 C 
BRANCH   3   4
ATOM      4  C   UNL     1      27.745  44.093   5.275  1.00  0.00     0.000 C 
BRANCH   4   5
ATOM      5  C   UNL     1      26.484  44.868   5.676  1.00  0.00     0.000 C 
BRANCH   5   6
ATOM      6  C   UNL     1      25.261  43.940   5.732  1.00  0.00     0.000 C 
BRANCH   6   7
ATOM      7  C   UNL     1      24.718  43.761   7.158  1.00  0.00     0.006 C 
BRANCH   7   8
ATOM      8  C   UNL     1      25.670  42.960   8.056  1.00  0.00     0.053 C 
BRANCH   8   9
ATOM      9  C   UNL     1      26.008  43.741   9.286  1.00  0.00     0.041 C 
ATOM     10  O   UNL     1      26.451  44.916   9.190  1.00  0.00    -0.550 OA
ATOM     11  O   UNL     1      25.800  43.184  10.542  1.00  0.00    -0.550 OA
ENDBRANCH   8   9
ENDBRANCH   7   8
ENDBRANCH   6   7
ENDBRANCH   5   6
ENDBRANCH   4   5
ENDBRANCH   3   4
ENDBRANCH   2   3
ENDBRANCH   1   2
BRANCH   1  12
ATOM     12  C   UNL     1      27.504  40.422   5.864  1.00  0.00     0.000 C 
BRANCH  12  13
ATOM     13  C   UNL     1      26.347  40.078   4.898  1.00  0.00    -0.000 C 
BRANCH  13  14
ATOM     14  C   UNL     1      24.958  40.148   5.558  1.00  0.00    -0.000 C 
BRANCH  14  15
ATOM     15  C   UNL     1      23.885  40.686   4.595  1.00  0.00    -0.000 C 
BRANCH  15  16
ATOM     16  C   UNL     1      24.490  41.321   3.333  1.00  0.00    -0.000 C 
BRANCH  16  17
ATOM     17  C   UNL     1      23.967  40.678   2.037  1.00  0.00    -0.000 C 
BRANCH  17  18
ATOM     18  C   UNL     1      24.701  39.373   1.681  1.00  0.00    -0.000 C 
BRANCH  18  19
ATOM     19  C   UNL     1      25.807  39.525   0.621  1.00  0.00    -0.003 C 
ATOM     20  C   UNL     1      27.212  39.550   1.220  1.00  0.00     0.004 C 
ENDBRANCH  18  19
ENDBRANCH  17  18
ENDBRANCH  16  17
ENDBRANCH  15  16
ENDBRANCH  14  15
ENDBRANCH  13  14
ENDBRANCH  12  13
ENDBRANCH   1  12
TORSDOF 16
ENDMDL
MODEL 6
REMARK VINA RESULT:    -3.099     17.588     19.890
REMARK INTER + INTRA:          -8.543
REMARK INTER:                  -6.271
REMARK INTRA:                  -2.272
REMARK UNBOUND:                -2.545
REMARK SMILES CCCCCCCCCCCCCCCCCC(=O)[O-]
REMARK SMILES IDX 10 1 11 2 12 3 13 4 14 5 15 6 16 7 17 8 18 9 19 10 20 11
REMARK SMILES IDX 9 12 8 13 7 14 6 15 5 16 4 17 3 18 2 19 1 20
REMARK H PARENT
REMARK Flexibility Score: inf
ROOT
ATOM      1  C   UNL     1      27.400  42.657   3.964  1.00  0.00     0.000 C 
ENDROOT
BRANCH   1   2
ATOM      2  C   UNL     1      26.280  43.703   4.123  1.00  0.00     0.000 C 
BRANCH   2   3
ATOM      3  C   UNL     1      26.130  44.284   5.542  1.00  0.00     0.000 C 
BRANCH   3   4
ATOM      4  C   UNL     1      24.683  44.254   6.055  1.00  0.00     0.000 C 
BRANCH   4   5
ATOM      5  C   UNL     1      23.974  42.965   5.618  1.00  0.00     0.000 C 
BRANCH   5   6
ATOM      6  C   UNL     1      23.902  41.957   6.775  1.00  0.00     0.000 C 
BRANCH   6   7
ATOM      7  C   UNL     1      24.859  40.770   6.587  1.00  0.00     0.006 C 
BRANCH   7   8
ATOM      8  C   UNL     1      26.234  41.013   7.224  1.00  0.00     0.053 C 
BRANCH   8   9
ATOM      9  C   UNL     1      26.080  41.609   8.587  1.00  0.00     0.041 C 
ATOM     10  O   UNL     1      26.484  42.779   8.818  1.00  0.00    -0.550 OA
ATOM     11  O   UNL     1      25.457  40.884   9.596  1.00  0.00    -0.550 OA
ENDBRANCH   8   9
ENDBRANCH   7   8
ENDBRANCH   6   7
ENDBRANCH   5   6
ENDBRANCH   4   5
ENDBRANCH   3   4
ENDBRANCH   2   3
ENDBRANCH   1   2
BRANCH   1  12
ATOM     12  C   UNL     1      26.938  41.302   3.397  1.00  0.00     0.000 C 
BRANCH  12  13
ATOM     13  C   UNL     1      25.503  41.327   2.822  1.00  0.00    -0.000 C 
BRANCH  13  14
ATOM     14  C   UNL     1      24.767  39.983   2.959  1.00  0.00    -0.000 C 
BRANCH  14  15
ATOM     15  C   UNL     1      24.096  39.552   1.642  1.00  0.00    -0.000 C 
BRANCH  15  16
ATOM     16  C   UNL     1      24.955  39.877   0.410  1.00  0.00    -0.000 C 
BRANCH  16  17
ATOM     17  C   UNL     1      25.999  38.789   0.112  1.00  0.00    -0.000 C 
BRANCH  17  18
ATOM     18  C   UNL     1      27.395  39.367  -0.187  1.00  0.00    -0.000 C 
BRANCH  18  19
ATOM     19  C   UNL     1      27.792  39.353  -1.675  1.00  0.00    -0.003 C 
ATOM     20  C   UNL     1      28.686  38.171  -2.045  1.00  0.00     0.004 C 
ENDBRANCH  18  19
ENDBRANCH  17  18
ENDBRANCH  16  17
ENDBRANCH  15  16
ENDBRANCH  14  15
ENDBRANCH  13  14
ENDBRANCH  12  13
ENDBRANCH   1  12
TORSDOF 16
ENDMDL
MODEL 7
REMARK VINA RESULT:    -3.097     17.405     19.212
REMARK INTER + INTRA:          -8.539
REMARK INTER:                  -6.219
REMARK INTRA:                  -2.320
REMARK UNBOUND:                -2.545
REMARK SMILES CCCCCCCCCCCCCCCCCC(=O)[O-]
REMARK SMILES IDX 10 1 11 2 12 3 13 4 14 5 15 6 16 7 17 8 18 9 19 10 20 11
REMARK SMILES IDX 9 12 8 13 7 14 6 15 5 16 4 17 3 18 2 19 1 20
REMARK H PARENT
REMARK Flexibility Score: inf
ROOT
ATOM      1  C   UNL     1      26.105  42.098   3.408  1.00  0.00     0.000 C 
ENDROOT
BRANCH   1   2
ATOM      2  C   UNL     1      24.721  41.793   4.014  1.00  0.00     0.000 C 
BRANCH   2   3
ATOM      3  C   UNL     1      24.257  40.332   3.871  1.00  0.00     0.000 C 
BRANCH   3   4
ATOM      4  C   UNL     1      25.180  39.493   2.975  1.00  0.00     0.000 C 
BRANCH   4   5
ATOM      5  C   UNL     1      24.366  38.550   2.080  1.00  0.00     0.000 C 
BRANCH   5   6
ATOM      6  C   UNL     1      24.076  39.199   0.718  1.00  0.00     0.000 C 
BRANCH   6   7
ATOM      7  C   UNL     1      25.269  40.005   0.179  1.00  0.00     0.006 C 
BRANCH   7   8
ATOM      8  C   UNL     1      25.765  39.491  -1.178  1.00  0.00     0.053 C 
BRANCH   8   9
ATOM      9  C   UNL     1      27.163  38.973  -1.061  1.00  0.00     0.041 C 
ATOM     10  O   UNL     1      27.535  38.379  -0.014  1.00  0.00    -0.550 OA
ATOM     11  O   UNL     1      28.047  39.114  -2.124  1.00  0.00    -0.550 OA
ENDBRANCH   8   9
ENDBRANCH   7   8
ENDBRANCH   6   7
ENDBRANCH   5   6
ENDBRANCH   4   5
ENDBRANCH   3   4
ENDBRANCH   2   3
ENDBRANCH   1   2
BRANCH   1  12
ATOM     12  C   UNL     1      26.724  43.434   3.857  1.00  0.00     0.000 C 
BRANCH  12  13
ATOM     13  C   UNL     1      27.117  43.465   5.352  1.00  0.00    -0.000 C 
BRANCH  13  14
ATOM     14  C   UNL     1      26.373  44.544   6.158  1.00  0.00    -0.000 C 
BRANCH  14  15
ATOM     15  C   UNL     1      25.107  43.990   6.837  1.00  0.00    -0.000 C 
BRANCH  15  16
ATOM     16  C   UNL     1      25.307  43.737   8.339  1.00  0.00    -0.000 C 
BRANCH  16  17
ATOM     17  C   UNL     1      25.386  42.240   8.682  1.00  0.00    -0.000 C 
BRANCH  17  18
ATOM     18  C   UNL     1      24.678  41.352   7.642  1.00  0.00    -0.000 C 
BRANCH  18  19
ATOM     19  C   UNL     1      25.398  40.027   7.330  1.00  0.00    -0.003 C 
ATOM     20  C   UNL     1      26.796  40.227   6.748  1.00  0.00     0.004 C 
ENDBRANCH  18  19
ENDBRANCH  17  18
ENDBRANCH  16  17
ENDBRANCH  15  16
ENDBRANCH  14  15
ENDBRANCH  13  14
ENDBRANCH  12  13
ENDBRANCH   1  12
TORSDOF 16
ENDMDL
MODEL 8
REMARK VINA RESULT:    -3.091     18.422     20.375
REMARK INTER + INTRA:          -8.526
REMARK INTER:                  -6.323
REMARK INTRA:                  -2.204
REMARK UNBOUND:                -2.545
REMARK SMILES CCCCCCCCCCCCCCCCCC(=O)[O-]
REMARK SMILES IDX 10 1 11 2 12 3 13 4 14 5 15 6 16 7 17 8 18 9 19 10 20 11
REMARK SMILES IDX 9 12 8 13 7 14 6 15 5 16 4 17 3 18 2 19 1 20
REMARK H PARENT
REMARK Flexibility Score: inf
ROOT
ATOM      1  C   UNL     1      26.679  44.356   5.636  1.00  0.00     0.000 C 
ENDROOT
BRANCH   1   2
ATOM      2  C   UNL     1      25.388  44.603   6.442  1.00  0.00     0.000 C 
BRANCH   2   3
ATOM      3  C   UNL     1      24.219  43.661   6.100  1.00  0.00     0.000 C 
BRANCH   3   4
ATOM      4  C   UNL     1      24.069  42.502   7.097  1.00  0.00     0.000 C 
BRANCH   4   5
ATOM      5  C   UNL     1      24.893  41.287   6.652  1.00  0.00     0.000 C 
BRANCH   5   6
ATOM      6  C   UNL     1      25.783  40.776   7.795  1.00  0.00     0.000 C 
BRANCH   6   7
ATOM      7  C   UNL     1      25.324  41.280   9.173  1.00  0.00     0.006 C 
BRANCH   7   8
ATOM      8  C   UNL     1      26.464  41.916   9.979  1.00  0.00     0.053 C 
BRANCH   8   9
ATOM      9  C   UNL     1      26.476  43.399   9.787  1.00  0.00     0.041 C 
ATOM     10  O   UNL     1      25.457  44.084  10.068  1.00  0.00    -0.550 OA
ATOM     11  O   UNL     1      27.627  44.031   9.331  1.00  0.00    -0.550 OA
ENDBRANCH   8   9
ENDBRANCH   7   8
ENDBRANCH   6   7
ENDBRANCH   5   6
ENDBRANCH   4   5
ENDBRANCH   3   4
ENDBRANCH   2   3
ENDBRANCH   1   2
BRANCH   1  12
ATOM     12  C   UNL     1      26.460  43.732   4.246  1.00  0.00     0.000 C 
BRANCH  12  13
ATOM     13  C   UNL     1      27.536  42.691   3.857  1.00  0.00    -0.000 C 
BRANCH  13  14
ATOM     14  C   UNL     1      26.948  41.327   3.453  1.00  0.00    -0.000 C 
BRANCH  14  15
ATOM     15  C   UNL     1      25.505  41.449   2.933  1.00  0.00    -0.000 C 
BRANCH  15  16
ATOM     16  C   UNL     1      24.691  40.163   3.149  1.00  0.00    -0.000 C 
BRANCH  16  17
ATOM     17  C   UNL     1      24.083  39.622   1.844  1.00  0.00    -0.000 C 
BRANCH  17  18
ATOM     18  C   UNL     1      24.905  40.004   0.599  1.00  0.00    -0.000 C 
BRANCH  18  19
ATOM     19  C   UNL     1      25.897  38.924   0.128  1.00  0.00    -0.003 C 
ATOM     20  C   UNL     1      26.454  39.192  -1.269  1.00  0.00     0.004 C 
ENDBRANCH  18  19
ENDBRANCH  17  18
ENDBRANCH  16  17
ENDBRANCH  15  16
ENDBRANCH  14  15
ENDBRANCH  13  14
ENDBRANCH  12  13
ENDBRANCH   1  12
TORSDOF 16
ENDMDL
MODEL 9
REMARK VINA RESULT:    -3.007     17.573     19.566
REMARK INTER + INTRA:          -8.365
REMARK INTER:                  -6.287
REMARK INTRA:                  -2.078
REMARK UNBOUND:                -2.545
REMARK SMILES CCCCCCCCCCCCCCCCCC(=O)[O-]
REMARK SMILES IDX 10 1 11 2 12 3 13 4 14 5 15 6 16 7 17 8 18 9 19 10 20 11
REMARK SMILES IDX 9 12 8 13 7 14 6 15 5 16 4 17 3 18 2 19 1 20
REMARK H PARENT
REMARK Flexibility Score: inf
ROOT
ATOM      1  C   UNL     1      27.822  39.945   4.986  1.00  0.00     0.000 C 
ENDROOT
BRANCH   1   2
ATOM      2  C   UNL     1      28.280  40.792   3.782  1.00  0.00     0.000 C 
BRANCH   2   3
ATOM      3  C   UNL     1      29.149  42.012   4.139  1.00  0.00     0.000 C 
BRANCH   3   4
ATOM      4  C   UNL     1      28.435  43.350   3.895  1.00  0.00     0.000 C 
BRANCH   4   5
ATOM      5  C   UNL     1      27.648  43.786   5.138  1.00  0.00     0.000 C 
BRANCH   5   6
ATOM      6  C   UNL     1      26.155  43.947   4.816  1.00  0.00     0.000 C 
BRANCH   6   7
ATOM      7  C   UNL     1      25.453  44.947   5.749  1.00  0.00     0.006 C 
BRANCH   7   8
ATOM      8  C   UNL     1      24.146  44.394   6.332  1.00  0.00     0.053 C 
BRANCH   8   9
ATOM      9  C   UNL     1      24.435  43.414   7.424  1.00  0.00     0.041 C 
ATOM     10  O   UNL     1      25.017  43.789   8.476  1.00  0.00    -0.550 OA
ATOM     11  O   UNL     1      24.028  42.092   7.296  1.00  0.00    -0.550 OA
ENDBRANCH   8   9
ENDBRANCH   7   8
ENDBRANCH   6   7
ENDBRANCH   5   6
ENDBRANCH   4   5
ENDBRANCH   3   4
ENDBRANCH   2   3
ENDBRANCH   1   2
BRANCH   1  12
ATOM     12  C   UNL     1      26.408  40.270   5.501  1.00  0.00     0.000 C 
BRANCH  12  13
ATOM     13  C   UNL     1      25.282  39.838   4.533  1.00  0.00    -0.000 C 
BRANCH  13  14
ATOM     14  C   UNL     1      24.541  41.023   3.889  1.00  0.00    -0.000 C 
BRANCH  14  15
ATOM     15  C   UNL     1      24.315  40.815   2.381  1.00  0.00    -0.000 C 
BRANCH  15  16
ATOM     16  C   UNL     1      25.068  39.591   1.836  1.00  0.00    -0.000 C 
BRANCH  16  17
ATOM     17  C   UNL     1      26.300  39.978   1.000  1.00  0.00    -0.000 C 
BRANCH  17  18
ATOM     18  C   UNL     1      26.879  38.791   0.208  1.00  0.00    -0.000 C 
BRANCH  18  19
ATOM     19  C   UNL     1      26.670  38.871  -1.315  1.00  0.00    -0.003 C 
ATOM     20  C   UNL     1      25.959  40.150  -1.756  1.00  0.00     0.004 C 
ENDBRANCH  18  19
ENDBRANCH  17  18
ENDBRANCH  16  17
ENDBRANCH  15  16
ENDBRANCH  14  15
ENDBRANCH  13  14
ENDBRANCH  12  13
ENDBRANCH   1  12
TORSDOF 16
ENDMDL
