MODEL 1
REMARK VINA RESULT:    -2.739      0.000      0.000
REMARK INTER + INTRA:          -5.068
REMARK INTER:                  -4.340
REMARK INTRA:                  -0.728
REMARK UNBOUND:                -0.728
REMARK SMILES CCCCCCCCCCCC(=O)[O-]
REMARK SMILES IDX 7 1 8 2 9 3 10 4 11 5 12 6 13 7 14 8 6 9 5 10 4 11 3 12 2 13
REMARK SMILES IDX 1 14
REMARK H PARENT
REMARK Flexibility Score: inf
ROOT
ATOM      1  C   UNL     1      -9.687 -20.930  19.537  1.00  0.00     0.000 C 
ENDROOT
BRANCH   1   2
ATOM      2  C   UNL     1     -10.156 -19.697  20.325  1.00  0.00     0.000 C 
BRANCH   2   3
ATOM      3  C   UNL     1     -10.933 -20.066  21.599  1.00  0.00     0.000 C 
BRANCH   3   4
ATOM      4  C   UNL     1      -9.977 -20.494  22.720  1.00  0.00     0.006 C 
BRANCH   4   5
ATOM      5  C   UNL     1     -10.173 -21.971  23.075  1.00  0.00     0.053 C 
BRANCH   5   6
ATOM      6  C   UNL     1      -8.852 -22.668  23.162  1.00  0.00     0.041 C 
ATOM      7  O   UNL     1      -8.337 -22.911  24.284  1.00  0.00    -0.550 OA
ATOM      8  O   UNL     1      -8.166 -23.005  22.002  1.00  0.00    -0.550 OA
ENDBRANCH   5   6
ENDBRANCH   4   5
ENDBRANCH   3   4
ENDBRANCH   2   3
ENDBRANCH   1   2
BRANCH   1   9
ATOM      9  C   UNL     1     -10.814 -21.954  19.316  1.00  0.00     0.000 C 
BRANCH   9  10
ATOM     10  C   UNL     1     -10.891 -22.441  17.860  1.00  0.00    -0.000 C 
BRANCH  10  11
ATOM     11  C   UNL     1     -10.206 -21.483  16.875  1.00  0.00    -0.000 C 
BRANCH  11  12
ATOM     12  C   UNL     1     -11.122 -21.178  15.680  1.00  0.00    -0.000 C 
BRANCH  12  13
ATOM     13  C   UNL     1     -10.377 -20.495  14.522  1.00  0.00    -0.003 C 
ATOM     14  C   UNL     1      -8.864 -20.698  14.590  1.00  0.00     0.004 C 
ENDBRANCH  12  13
ENDBRANCH  11  12
ENDBRANCH  10  11
ENDBRANCH   9  10
ENDBRANCH   1   9
TORSDOF 10
ENDMDL
MODEL 2
REMARK VINA RESULT:    -2.634      1.777      2.326
REMARK INTER + INTRA:          -4.902
REMARK INTER:                  -4.223
REMARK INTRA:                  -0.679
REMARK UNBOUND:                -0.728
REMARK SMILES CCCCCCCCCCCC(=O)[O-]
REMARK SMILES IDX 7 1 8 2 9 3 10 4 11 5 12 6 13 7 14 8 6 9 5 10 4 11 3 12 2 13
REMARK SMILES IDX 1 14
REMARK H PARENT
REMARK Flexibility Score: inf
ROOT
ATOM      1  C   UNL     1      -8.432 -21.958  18.574  1.00  0.00     0.000 C 
ENDROOT
BRANCH   1   2
ATOM      2  C   UNL     1      -7.714 -22.807  19.635  1.00  0.00     0.000 C 
BRANCH   2   3
ATOM      3  C   UNL     1      -8.605 -23.123  20.846  1.00  0.00     0.000 C 
BRANCH   3   4
ATOM      4  C   UNL     1      -7.874 -22.818  22.160  1.00  0.00     0.006 C 
BRANCH   4   5
ATOM      5  C   UNL     1      -8.869 -22.601  23.304  1.00  0.00     0.053 C 
BRANCH   5   6
ATOM      6  C   UNL     1      -9.787 -21.462  22.991  1.00  0.00     0.041 C 
ATOM      7  O   UNL     1     -11.026 -21.656  22.888  1.00  0.00    -0.550 OA
ATOM      8  O   UNL     1      -9.267 -20.193  22.763  1.00  0.00    -0.550 OA
ENDBRANCH   5   6
ENDBRANCH   4   5
ENDBRANCH   3   4
ENDBRANCH   2   3
ENDBRANCH   1   2
BRANCH   1   9
ATOM      9  C   UNL     1      -9.962 -21.982  18.735  1.00  0.00     0.000 C 
BRANCH   9  10
ATOM     10  C   UNL     1     -10.664 -20.932  17.858  1.00  0.00    -0.000 C 
BRANCH  10  11
ATOM     11  C   UNL     1     -10.962 -21.443  16.441  1.00  0.00    -0.000 C 
BRANCH  11  12
ATOM     12  C   UNL     1     -10.901 -20.295  15.421  1.00  0.00    -0.000 C 
BRANCH  12  13
ATOM     13  C   UNL     1      -9.866 -20.545  14.312  1.00  0.00    -0.003 C 
ATOM     14  C   UNL     1      -8.514 -21.001  14.855  1.00  0.00     0.004 C 
ENDBRANCH  12  13
ENDBRANCH  11  12
ENDBRANCH  10  11
ENDBRANCH   9  10
ENDBRANCH   1   9
TORSDOF 10
ENDMDL
MODEL 3
REMARK VINA RESULT:    -2.616      3.331      6.526
REMARK INTER + INTRA:          -4.874
REMARK INTER:                  -4.143
REMARK INTRA:                  -0.731
REMARK UNBOUND:                -0.728
REMARK SMILES CCCCCCCCCCCC(=O)[O-]
REMARK SMILES IDX 7 1 8 2 9 3 10 4 11 5 12 6 13 7 14 8 6 9 5 10 4 11 3 12 2 13
REMARK SMILES IDX 1 14
REMARK H PARENT
REMARK Flexibility Score: inf
ROOT
ATOM      1  C   UNL     1     -10.077 -19.961  20.445  1.00  0.00     0.000 C 
ENDROOT
BRANCH   1   2
ATOM      2  C   UNL     1     -10.782 -20.399  19.151  1.00  0.00     0.000 C 
BRANCH   2   3
ATOM      3  C   UNL     1     -10.408 -21.827  18.725  1.00  0.00     0.000 C 
BRANCH   3   4
ATOM      4  C   UNL     1      -9.882 -21.849  17.284  1.00  0.00     0.006 C 
BRANCH   4   5
ATOM      5  C   UNL     1     -10.456 -20.686  16.471  1.00  0.00     0.053 C 
BRANCH   5   6
ATOM      6  C   UNL     1      -9.824 -20.631  15.116  1.00  0.00     0.041 C 
ATOM      7  O   UNL     1     -10.531 -20.427  14.095  1.00  0.00    -0.550 OA
ATOM      8  O   UNL     1      -8.460 -20.856  14.977  1.00  0.00    -0.550 OA
ENDBRANCH   5   6
ENDBRANCH   4   5
ENDBRANCH   3   4
ENDBRANCH   2   3
ENDBRANCH   1   2
BRANCH   1   9
ATOM      9  C   UNL     1     -10.984 -20.083  21.681  1.00  0.00     0.000 C 
BRANCH   9  10
ATOM     10  C   UNL     1     -10.988 -21.502  22.273  1.00  0.00    -0.000 C 
BRANCH  10  11
ATOM     11  C   UNL     1     -10.087 -21.633  23.511  1.00  0.00    -0.000 C 
BRANCH  11  12
ATOM     12  C   UNL     1      -8.608 -21.719  23.106  1.00  0.00    -0.000 C 
BRANCH  12  13
ATOM     13  C   UNL     1      -8.205 -23.125  22.633  1.00  0.00    -0.003 C 
ATOM     14  C   UNL     1      -7.506 -23.115  21.275  1.00  0.00     0.004 C 
ENDBRANCH  12  13
ENDBRANCH  11  12
ENDBRANCH  10  11
ENDBRANCH   9  10
ENDBRANCH   1   9
TORSDOF 10
ENDMDL
MODEL 4
REMARK VINA RESULT:    -2.614      3.225      6.083
REMARK INTER + INTRA:          -4.871
REMARK INTER:                  -3.842
REMARK INTRA:                  -1.029
REMARK UNBOUND:                -0.728
REMARK SMILES CCCCCCCCCCCC(=O)[O-]
REMARK SMILES IDX 7 1 8 2 9 3 10 4 11 5 12 6 13 7 14 8 6 9 5 10 4 11 3 12 2 13
REMARK SMILES IDX 1 14
REMARK H PARENT
REMARK Flexibility Score: inf
ROOT
ATOM      1  C   UNL     1      -9.790 -20.392  20.078  1.00  0.00     0.000 C 
ENDROOT
BRANCH   1   2
ATOM      2  C   UNL     1     -10.437 -21.348  19.062  1.00  0.00     0.000 C 
BRANCH   2   3
ATOM      3  C   UNL     1      -9.616 -22.628  18.845  1.00  0.00     0.000 C 
BRANCH   3   4
ATOM      4  C   UNL     1      -8.584 -22.435  17.727  1.00  0.00     0.006 C 
BRANCH   4   5
ATOM      5  C   UNL     1      -7.163 -22.679  18.243  1.00  0.00     0.053 C 
BRANCH   5   6
ATOM      6  C   UNL     1      -6.200 -22.769  17.101  1.00  0.00     0.041 C 
ATOM      7  O   UNL     1      -6.624 -22.873  15.921  1.00  0.00    -0.550 OA
ATOM      8  O   UNL     1      -4.833 -22.788  17.346  1.00  0.00    -0.550 OA
ENDBRANCH   5   6
ENDBRANCH   4   5
ENDBRANCH   3   4
ENDBRANCH   2   3
ENDBRANCH   1   2
BRANCH   1   9
ATOM      9  C   UNL     1     -10.782 -19.913  21.152  1.00  0.00     0.000 C 
BRANCH   9  10
ATOM     10  C   UNL     1     -10.379 -20.356  22.568  1.00  0.00    -0.000 C 
BRANCH  10  11
ATOM     11  C   UNL     1     -10.813 -21.794  22.887  1.00  0.00    -0.000 C 
BRANCH  11  12
ATOM     12  C   UNL     1      -9.744 -22.517  23.720  1.00  0.00    -0.000 C 
BRANCH  12  13
ATOM     13  C   UNL     1      -8.314 -22.187  23.263  1.00  0.00    -0.003 C 
ATOM     14  C   UNL     1      -7.893 -22.972  22.022  1.00  0.00     0.004 C 
ENDBRANCH  12  13
ENDBRANCH  11  12
ENDBRANCH  10  11
ENDBRANCH   9  10
ENDBRANCH   1   9
TORSDOF 10
ENDMDL
MODEL 5
REMARK VINA RESULT:    -2.393      1.616      2.185
REMARK INTER + INTRA:          -4.520
REMARK INTER:                  -3.717
REMARK INTRA:                  -0.803
REMARK UNBOUND:                -0.728
REMARK SMILES CCCCCCCCCCCC(=O)[O-]
REMARK SMILES IDX 7 1 8 2 9 3 10 4 11 5 12 6 13 7 14 8 6 9 5 10 4 11 3 12 2 13
REMARK SMILES IDX 1 14
REMARK H PARENT
REMARK Flexibility Score: inf
ROOT
ATOM      1  C   UNL     1      -8.697 -22.292  19.765  1.00  0.00     0.000 C 
ENDROOT
BRANCH   1   2
ATOM      2  C   UNL     1      -9.386 -20.987  19.336  1.00  0.00     0.000 C 
BRANCH   2   3
ATOM      3  C   UNL     1     -10.402 -20.482  20.371  1.00  0.00     0.000 C 
BRANCH   3   4
ATOM      4  C   UNL     1     -10.682 -21.554  21.433  1.00  0.00     0.006 C 
BRANCH   4   5
ATOM      5  C   UNL     1     -10.354 -21.037  22.836  1.00  0.00     0.053 C 
BRANCH   5   6
ATOM      6  C   UNL     1      -9.345 -21.922  23.497  1.00  0.00     0.041 C 
ATOM      7  O   UNL     1      -8.115 -21.716  23.330  1.00  0.00    -0.550 OA
ATOM      8  O   UNL     1      -9.765 -23.006  24.259  1.00  0.00    -0.550 OA
ENDBRANCH   5   6
ENDBRANCH   4   5
ENDBRANCH   3   4
ENDBRANCH   2   3
ENDBRANCH   1   2
BRANCH   1   9
ATOM      9  C   UNL     1      -7.654 -22.773  18.742  1.00  0.00     0.000 C 
BRANCH   9  10
ATOM     10  C   UNL     1      -8.167 -22.696  17.295  1.00  0.00    -0.000 C 
BRANCH  10  11
ATOM     11  C   UNL     1      -7.165 -22.025  16.344  1.00  0.00    -0.000 C 
BRANCH  11  12
ATOM     12  C   UNL     1      -7.893 -21.182  15.286  1.00  0.00    -0.000 C 
BRANCH  12  13
ATOM     13  C   UNL     1      -9.366 -20.928  15.643  1.00  0.00    -0.003 C 
ATOM     14  C   UNL     1     -10.224 -20.600  14.423  1.00  0.00     0.004 C 
ENDBRANCH  12  13
ENDBRANCH  11  12
ENDBRANCH  10  11
ENDBRANCH   9  10
ENDBRANCH   1   9
TORSDOF 10
ENDMDL
MODEL 6
REMARK VINA RESULT:    -2.361      2.411      3.970
REMARK INTER + INTRA:          -4.469
REMARK INTER:                  -3.678
REMARK INTRA:                  -0.791
REMARK UNBOUND:                -0.728
REMARK SMILES CCCCCCCCCCCC(=O)[O-]
REMARK SMILES IDX 7 1 8 2 9 3 10 4 11 5 12 6 13 7 14 8 6 9 5 10 4 11 3 12 2 13
REMARK SMILES IDX 1 14
REMARK H PARENT
REMARK Flexibility Score: inf
ROOT
ATOM      1  C   UNL     1     -10.443 -20.501  16.652  1.00  0.00     0.000 C 
ENDROOT
BRANCH   1   2
ATOM      2  C   UNL     1     -11.080 -21.809  17.148  1.00  0.00     0.000 C 
BRANCH   2   3
ATOM      3  C   UNL     1     -10.183 -22.569  18.137  1.00  0.00     0.000 C 
BRANCH   3   4
ATOM      4  C   UNL     1     -10.634 -22.326  19.584  1.00  0.00     0.006 C 
BRANCH   4   5
ATOM      5  C   UNL     1      -9.541 -21.617  20.388  1.00  0.00     0.053 C 
BRANCH   5   6
ATOM      6  C   UNL     1     -10.079 -20.371  21.017  1.00  0.00     0.041 C 
ATOM      7  O   UNL     1      -9.901 -20.152  22.243  1.00  0.00    -0.550 OA
ATOM      8  O   UNL     1     -10.821 -19.474  20.257  1.00  0.00    -0.550 OA
ENDBRANCH   5   6
ENDBRANCH   4   5
ENDBRANCH   3   4
ENDBRANCH   2   3
ENDBRANCH   1   2
BRANCH   1   9
ATOM      9  C   UNL     1     -10.510 -20.355  15.122  1.00  0.00     0.000 C 
BRANCH   9  10
ATOM     10  C   UNL     1      -9.260 -20.912  14.421  1.00  0.00    -0.000 C 
BRANCH  10  11
ATOM     11  C   UNL     1      -7.974 -20.686  15.229  1.00  0.00    -0.000 C 
BRANCH  11  12
ATOM     12  C   UNL     1      -7.364 -22.024  15.674  1.00  0.00    -0.000 C 
BRANCH  12  13
ATOM     13  C   UNL     1      -5.919 -21.877  16.178  1.00  0.00    -0.003 C 
ATOM     14  C   UNL     1      -5.495 -23.019  17.100  1.00  0.00     0.004 C 
ENDBRANCH  12  13
ENDBRANCH  11  12
ENDBRANCH  10  11
ENDBRANCH   9  10
ENDBRANCH   1   9
TORSDOF 10
ENDMDL
MODEL 7
REMARK VINA RESULT:    -2.306     15.708     17.434
REMARK INTER + INTRA:          -4.382
REMARK INTER:                  -3.659
REMARK INTRA:                  -0.723
REMARK UNBOUND:                -0.728
REMARK SMILES CCCCCCCCCCCC(=O)[O-]
REMARK SMILES IDX 7 1 8 2 9 3 10 4 11 5 12 6 13 7 14 8 6 9 5 10 4 11 3 12 2 13
REMARK SMILES IDX 1 14
REMARK H PARENT
REMARK Flexibility Score: inf
ROOT
ATOM      1  C   UNL     1       8.397 -21.323  16.273  1.00  0.00     0.000 C 
ENDROOT
BRANCH   1   2
ATOM      2  C   UNL     1       6.965 -21.060  16.767  1.00  0.00     0.000 C 
BRANCH   2   3
ATOM      3  C   UNL     1       6.244 -22.343  17.209  1.00  0.00     0.000 C 
BRANCH   3   4
ATOM      4  C   UNL     1       5.428 -22.939  16.055  1.00  0.00     0.006 C 
BRANCH   4   5
ATOM      5  C   UNL     1       3.926 -22.757  16.293  1.00  0.00     0.053 C 
BRANCH   5   6
ATOM      6  C   UNL     1       3.168 -22.939  15.017  1.00  0.00     0.041 C 
ATOM      7  O   UNL     1       3.765 -22.880  13.911  1.00  0.00    -0.550 OA
ATOM      8  O   UNL     1       1.791 -23.125  15.047  1.00  0.00    -0.550 OA
ENDBRANCH   5   6
ENDBRANCH   4   5
ENDBRANCH   3   4
ENDBRANCH   2   3
ENDBRANCH   1   2
BRANCH   1   9
ATOM      9  C   UNL     1       8.757 -20.482  15.036  1.00  0.00     0.000 C 
BRANCH   9  10
ATOM     10  C   UNL     1       9.110 -21.349  13.816  1.00  0.00    -0.000 C 
BRANCH  10  11
ATOM     11  C   UNL     1       8.177 -22.559  13.657  1.00  0.00    -0.000 C 
BRANCH  11  12
ATOM     12  C   UNL     1       6.950 -22.198  12.806  1.00  0.00    -0.000 C 
BRANCH  12  13
ATOM     13  C   UNL     1       7.053 -22.726  11.366  1.00  0.00    -0.003 C 
ATOM     14  C   UNL     1       8.477 -23.124  10.982  1.00  0.00     0.004 C 
ENDBRANCH  12  13
ENDBRANCH  11  12
ENDBRANCH  10  11
ENDBRANCH   9  10
ENDBRANCH   1   9
TORSDOF 10
ENDMDL
MODEL 8
REMARK VINA RESULT:    -2.236      1.723      2.142
REMARK INTER + INTRA:          -4.272
REMARK INTER:                  -3.608
REMARK INTRA:                  -0.664
REMARK UNBOUND:                -0.728
REMARK SMILES CCCCCCCCCCCC(=O)[O-]
REMARK SMILES IDX 7 1 8 2 9 3 10 4 11 5 12 6 13 7 14 8 6 9 5 10 4 11 3 12 2 13
REMARK SMILES IDX 1 14
REMARK H PARENT
REMARK Flexibility Score: inf
ROOT
ATOM      1  C   UNL     1      -9.620 -20.774  19.624  1.00  0.00     0.000 C 
ENDROOT
BRANCH   1   2
ATOM      2  C   UNL     1     -10.265 -19.616  20.403  1.00  0.00     0.000 C 
BRANCH   2   3
ATOM      3  C   UNL     1     -11.107 -20.098  21.595  1.00  0.00     0.000 C 
BRANCH   3   4
ATOM      4  C   UNL     1     -10.209 -20.604  22.732  1.00  0.00     0.006 C 
BRANCH   4   5
ATOM      5  C   UNL     1     -10.268 -22.130  22.841  1.00  0.00     0.053 C 
BRANCH   5   6
ATOM      6  C   UNL     1      -8.896 -22.694  23.031  1.00  0.00     0.041 C 
ATOM      7  O   UNL     1      -8.402 -22.784  24.185  1.00  0.00    -0.550 OA
ATOM      8  O   UNL     1      -8.142 -23.075  21.927  1.00  0.00    -0.550 OA
ENDBRANCH   5   6
ENDBRANCH   4   5
ENDBRANCH   3   4
ENDBRANCH   2   3
ENDBRANCH   1   2
BRANCH   1   9
ATOM      9  C   UNL     1     -10.649 -21.820  19.161  1.00  0.00     0.000 C 
BRANCH   9  10
ATOM     10  C   UNL     1     -10.077 -22.786  18.111  1.00  0.00    -0.000 C 
BRANCH  10  11
ATOM     11  C   UNL     1      -8.759 -22.287  17.500  1.00  0.00    -0.000 C 
BRANCH  11  12
ATOM     12  C   UNL     1      -7.572 -23.125  17.998  1.00  0.00    -0.000 C 
BRANCH  12  13
ATOM     13  C   UNL     1      -6.363 -23.059  17.051  1.00  0.00    -0.003 C 
ATOM     14  C   UNL     1      -6.536 -22.025  15.940  1.00  0.00     0.004 C 
ENDBRANCH  12  13
ENDBRANCH  11  12
ENDBRANCH  10  11
ENDBRANCH   9  10
ENDBRANCH   1   9
TORSDOF 10
ENDMDL
MODEL 9
REMARK VINA RESULT:    -2.224      2.658      3.248
REMARK INTER + INTRA:          -4.252
REMARK INTER:                  -3.646
REMARK INTRA:                  -0.606
REMARK UNBOUND:                -0.728
REMARK SMILES CCCCCCCCCCCC(=O)[O-]
REMARK SMILES IDX 7 1 8 2 9 3 10 4 11 5 12 6 13 7 14 8 6 9 5 10 4 11 3 12 2 13
REMARK SMILES IDX 1 14
REMARK H PARENT
REMARK Flexibility Score: inf
ROOT
ATOM      1  C   UNL     1     -10.154 -20.881  17.990  1.00  0.00     0.000 C 
ENDROOT
BRANCH   1   2
ATOM      2  C   UNL     1     -10.949 -21.050  19.295  1.00  0.00     0.000 C 
BRANCH   2   3
ATOM      3  C   UNL     1     -11.120 -22.522  19.700  1.00  0.00     0.000 C 
BRANCH   3   4
ATOM      4  C   UNL     1     -10.959 -22.696  21.216  1.00  0.00     0.006 C 
BRANCH   4   5
ATOM      5  C   UNL     1      -9.492 -22.555  21.633  1.00  0.00     0.053 C 
BRANCH   5   6
ATOM      6  C   UNL     1      -9.340 -21.474  22.656  1.00  0.00     0.041 C 
ATOM      7  O   UNL     1      -8.206 -21.205  23.130  1.00  0.00    -0.550 OA
ATOM      8  O   UNL     1     -10.460 -20.797  23.122  1.00  0.00    -0.550 OA
ENDBRANCH   5   6
ENDBRANCH   4   5
ENDBRANCH   3   4
ENDBRANCH   2   3
ENDBRANCH   1   2
BRANCH   1   9
ATOM      9  C   UNL     1      -9.371 -22.149  17.608  1.00  0.00     0.000 C 
BRANCH   9  10
ATOM     10  C   UNL     1      -8.062 -22.296  18.401  1.00  0.00    -0.000 C 
BRANCH  10  11
ATOM     11  C   UNL     1      -6.937 -22.942  17.578  1.00  0.00    -0.000 C 
BRANCH  11  12
ATOM     12  C   UNL     1      -6.796 -22.257  16.210  1.00  0.00    -0.000 C 
BRANCH  12  13
ATOM     13  C   UNL     1      -5.406 -21.637  16.000  1.00  0.00    -0.003 C 
ATOM     14  C   UNL     1      -4.307 -22.375  16.762  1.00  0.00     0.004 C 
ENDBRANCH  12  13
ENDBRANCH  11  12
ENDBRANCH  10  11
ENDBRANCH   9  10
ENDBRANCH   1   9
TORSDOF 10
ENDMDL
