MODEL 1
REMARK VINA RESULT:    -4.671      0.000      0.000
REMARK INTER + INTRA:         -13.672
REMARK INTER:                 -10.678
REMARK INTRA:                  -2.993
REMARK UNBOUND:                -2.993
REMARK SMILES CCCCCCCCCCCCCCCCCCCCCCCC(=O)[O-]
REMARK SMILES IDX 13 1 14 2 15 3 16 4 17 5 18 6 19 7 20 8 21 9 22 10 23 11
REMARK SMILES IDX 24 12 25 13 26 14 12 15 11 16 10 17 9 18 8 19 7 20 6 21 5 22
REMARK SMILES IDX 4 23 3 24 2 25 1 26
REMARK H PARENT
REMARK Flexibility Score: inf
ROOT
ATOM      1  C   UNL     1      69.868 -38.055   9.299  1.00  0.00     0.000 C 
ENDROOT
BRANCH   1   2
ATOM      2  C   UNL     1      70.134 -36.687   8.637  1.00  0.00     0.000 C 
BRANCH   2   3
ATOM      3  C   UNL     1      69.286 -36.385   7.387  1.00  0.00     0.000 C 
BRANCH   3   4
ATOM      4  C   UNL     1      68.167 -35.344   7.592  1.00  0.00     0.000 C 
BRANCH   4   5
ATOM      5  C   UNL     1      66.736 -35.913   7.569  1.00  0.00     0.000 C 
BRANCH   5   6
ATOM      6  C   UNL     1      66.144 -36.105   8.973  1.00  0.00     0.000 C 
BRANCH   6   7
ATOM      7  C   UNL     1      66.186 -37.580   9.388  1.00  0.00     0.000 C 
BRANCH   7   8
ATOM      8  C   UNL     1      66.464 -37.724  10.890  1.00  0.00     0.000 C 
BRANCH   8   9
ATOM      9  C   UNL     1      66.040 -36.459  11.650  1.00  0.00     0.000 C 
BRANCH   9  10
ATOM     10  C   UNL     1      64.995 -36.737  12.747  1.00  0.00     0.006 C 
BRANCH  10  11
ATOM     11  C   UNL     1      65.106 -35.805  13.967  1.00  0.00     0.053 C 
BRANCH  11  12
ATOM     12  C   UNL     1      63.983 -34.817  14.045  1.00  0.00     0.041 C 
ATOM     13  O   UNL     1      63.663 -34.135  13.035  1.00  0.00    -0.550 OA
ATOM     14  O   UNL     1      63.299 -34.635  15.240  1.00  0.00    -0.550 OA
ENDBRANCH  11  12
ENDBRANCH  10  11
ENDBRANCH   9  10
ENDBRANCH   8   9
ENDBRANCH   7   8
ENDBRANCH   6   7
ENDBRANCH   5   6
ENDBRANCH   4   5
ENDBRANCH   3   4
ENDBRANCH   2   3
ENDBRANCH   1   2
BRANCH   1  15
ATOM     15  C   UNL     1      70.106 -38.113  10.822  1.00  0.00     0.000 C 
BRANCH  15  16
ATOM     16  C   UNL     1      71.322 -38.961  11.258  1.00  0.00     0.000 C 
BRANCH  16  17
ATOM     17  C   UNL     1      72.500 -38.134  11.811  1.00  0.00     0.000 C 
BRANCH  17  18
ATOM     18  C   UNL     1      73.087 -37.093  10.838  1.00  0.00    -0.000 C 
BRANCH  18  19
ATOM     19  C   UNL     1      74.496 -37.414  10.302  1.00  0.00    -0.000 C 
BRANCH  19  20
ATOM     20  C   UNL     1      74.751 -36.830   8.903  1.00  0.00    -0.000 C 
BRANCH  20  21
ATOM     21  C   UNL     1      73.474 -36.277   8.245  1.00  0.00    -0.000 C 
BRANCH  21  22
ATOM     22  C   UNL     1      73.565 -36.053   6.722  1.00  0.00    -0.000 C 
BRANCH  22  23
ATOM     23  C   UNL     1      72.846 -34.792   6.204  1.00  0.00    -0.000 C 
BRANCH  23  24
ATOM     24  C   UNL     1      72.266 -33.876   7.300  1.00  0.00    -0.000 C 
BRANCH  24  25
ATOM     25  C   UNL     1      71.129 -32.950   6.833  1.00  0.00    -0.003 C 
ATOM     26  C   UNL     1      70.523 -33.377   5.496  1.00  0.00     0.004 C 
ENDBRANCH  24  25
ENDBRANCH  23  24
ENDBRANCH  22  23
ENDBRANCH  21  22
ENDBRANCH  20  21
ENDBRANCH  19  20
ENDBRANCH  18  19
ENDBRANCH  17  18
ENDBRANCH  16  17
ENDBRANCH  15  16
ENDBRANCH   1  15
TORSDOF 22
ENDMDL
MODEL 2
REMARK VINA RESULT:    -4.669      1.469      4.581
REMARK INTER + INTRA:         -13.666
REMARK INTER:                 -10.030
REMARK INTRA:                  -3.636
REMARK UNBOUND:                -2.993
REMARK SMILES CCCCCCCCCCCCCCCCCCCCCCCC(=O)[O-]
REMARK SMILES IDX 13 1 14 2 15 3 16 4 17 5 18 6 19 7 20 8 21 9 22 10 23 11
REMARK SMILES IDX 24 12 25 13 26 14 12 15 11 16 10 17 9 18 8 19 7 20 6 21 5 22
REMARK SMILES IDX 4 23 3 24 2 25 1 26
REMARK H PARENT
REMARK Flexibility Score: inf
ROOT
ATOM      1  C   UNL     1      72.181 -36.745   9.471  1.00  0.00     0.000 C 
ENDROOT
BRANCH   1   2
ATOM      2  C   UNL     1      73.163 -37.082  10.613  1.00  0.00     0.000 C 
BRANCH   2   3
ATOM      3  C   UNL     1      72.666 -38.142  11.615  1.00  0.00     0.000 C 
BRANCH   3   4
ATOM      4  C   UNL     1      71.140 -38.356  11.638  1.00  0.00     0.000 C 
BRANCH   4   5
ATOM      5  C   UNL     1      70.660 -39.697  11.053  1.00  0.00     0.000 C 
BRANCH   5   6
ATOM      6  C   UNL     1      69.666 -39.526   9.895  1.00  0.00     0.000 C 
BRANCH   6   7
ATOM      7  C   UNL     1      68.992 -38.150   9.951  1.00  0.00     0.000 C 
BRANCH   7   8
ATOM      8  C   UNL     1      67.477 -38.285  10.150  1.00  0.00     0.000 C 
BRANCH   8   9
ATOM      9  C   UNL     1      66.742 -37.041   9.631  1.00  0.00     0.000 C 
BRANCH   9  10
ATOM     10  C   UNL     1      65.392 -36.801  10.333  1.00  0.00     0.006 C 
BRANCH  10  11
ATOM     11  C   UNL     1      65.269 -37.495  11.703  1.00  0.00     0.053 C 
BRANCH  11  12
ATOM     12  C   UNL     1      65.390 -36.537  12.849  1.00  0.00     0.041 C 
ATOM     13  O   UNL     1      64.401 -36.308  13.594  1.00  0.00    -0.550 OA
ATOM     14  O   UNL     1      66.593 -35.884  13.083  1.00  0.00    -0.550 OA
ENDBRANCH  11  12
ENDBRANCH  10  11
ENDBRANCH   9  10
ENDBRANCH   8   9
ENDBRANCH   7   8
ENDBRANCH   6   7
ENDBRANCH   5   6
ENDBRANCH   4   5
ENDBRANCH   3   4
ENDBRANCH   2   3
ENDBRANCH   1   2
BRANCH   1  15
ATOM     15  C   UNL     1      72.756 -35.867   8.340  1.00  0.00     0.000 C 
BRANCH  15  16
ATOM     16  C   UNL     1      72.908 -36.579   6.976  1.00  0.00     0.000 C 
BRANCH  16  17
ATOM     17  C   UNL     1      73.678 -35.760   5.922  1.00  0.00     0.000 C 
BRANCH  17  18
ATOM     18  C   UNL     1      72.803 -34.910   4.980  1.00  0.00    -0.000 C 
BRANCH  18  19
ATOM     19  C   UNL     1      72.849 -33.390   5.233  1.00  0.00    -0.000 C 
BRANCH  19  20
ATOM     20  C   UNL     1      71.742 -32.908   6.185  1.00  0.00    -0.000 C 
BRANCH  20  21
ATOM     21  C   UNL     1      70.387 -33.588   5.918  1.00  0.00    -0.000 C 
BRANCH  21  22
ATOM     22  C   UNL     1      69.521 -33.839   7.169  1.00  0.00    -0.000 C 
BRANCH  22  23
ATOM     23  C   UNL     1      69.096 -35.305   7.384  1.00  0.00    -0.000 C 
BRANCH  23  24
ATOM     24  C   UNL     1      69.413 -36.255   6.212  1.00  0.00    -0.000 C 
BRANCH  24  25
ATOM     25  C   UNL     1      68.934 -37.704   6.407  1.00  0.00    -0.003 C 
ATOM     26  C   UNL     1      70.058 -38.729   6.257  1.00  0.00     0.004 C 
ENDBRANCH  24  25
ENDBRANCH  23  24
ENDBRANCH  22  23
ENDBRANCH  21  22
ENDBRANCH  20  21
ENDBRANCH  19  20
ENDBRANCH  18  19
ENDBRANCH  17  18
ENDBRANCH  16  17
ENDBRANCH  15  16
ENDBRANCH   1  15
TORSDOF 22
ENDMDL
MODEL 3
REMARK VINA RESULT:    -4.633      1.409      3.520
REMARK INTER + INTRA:         -13.584
REMARK INTER:                  -9.900
REMARK INTRA:                  -3.685
REMARK UNBOUND:                -2.993
REMARK SMILES CCCCCCCCCCCCCCCCCCCCCCCC(=O)[O-]
REMARK SMILES IDX 13 1 14 2 15 3 16 4 17 5 18 6 19 7 20 8 21 9 22 10 23 11
REMARK SMILES IDX 24 12 25 13 26 14 12 15 11 16 10 17 9 18 8 19 7 20 6 21 5 22
REMARK SMILES IDX 4 23 3 24 2 25 1 26
REMARK H PARENT
REMARK Flexibility Score: inf
ROOT
ATOM      1  C   UNL     1      70.824 -38.173  11.338  1.00  0.00     0.000 C 
ENDROOT
BRANCH   1   2
ATOM      2  C   UNL     1      70.787 -39.715  11.283  1.00  0.00     0.000 C 
BRANCH   2   3
ATOM      3  C   UNL     1      70.066 -40.312  10.059  1.00  0.00     0.000 C 
BRANCH   3   4
ATOM      4  C   UNL     1      68.538 -40.106  10.035  1.00  0.00     0.000 C 
BRANCH   4   5
ATOM      5  C   UNL     1      67.972 -39.581   8.704  1.00  0.00     0.000 C 
BRANCH   5   6
ATOM      6  C   UNL     1      66.927 -38.471   8.892  1.00  0.00     0.000 C 
BRANCH   6   7
ATOM      7  C   UNL     1      67.301 -37.561  10.068  1.00  0.00     0.000 C 
BRANCH   7   8
ATOM      8  C   UNL     1      66.216 -36.506  10.316  1.00  0.00     0.000 C 
BRANCH   8   9
ATOM      9  C   UNL     1      64.915 -37.160  10.806  1.00  0.00     0.000 C 
BRANCH   9  10
ATOM     10  C   UNL     1      65.023 -37.716  12.239  1.00  0.00     0.006 C 
BRANCH  10  11
ATOM     11  C   UNL     1      64.197 -36.933  13.276  1.00  0.00     0.053 C 
BRANCH  11  12
ATOM     12  C   UNL     1      64.757 -35.571  13.552  1.00  0.00     0.041 C 
ATOM     13  O   UNL     1      65.988 -35.422  13.778  1.00  0.00    -0.550 OA
ATOM     14  O   UNL     1      63.916 -34.467  13.578  1.00  0.00    -0.550 OA
ENDBRANCH  11  12
ENDBRANCH  10  11
ENDBRANCH   9  10
ENDBRANCH   8   9
ENDBRANCH   7   8
ENDBRANCH   6   7
ENDBRANCH   5   6
ENDBRANCH   4   5
ENDBRANCH   3   4
ENDBRANCH   2   3
ENDBRANCH   1   2
BRANCH   1  15
ATOM     15  C   UNL     1      72.122 -37.522  10.818  1.00  0.00     0.000 C 
BRANCH  15  16
ATOM     16  C   UNL     1      71.996 -36.829   9.441  1.00  0.00     0.000 C 
BRANCH  16  17
ATOM     17  C   UNL     1      70.569 -36.844   8.858  1.00  0.00     0.000 C 
BRANCH  17  18
ATOM     18  C   UNL     1      70.478 -37.128   7.346  1.00  0.00    -0.000 C 
BRANCH  18  19
ATOM     19  C   UNL     1      69.578 -36.163   6.550  1.00  0.00    -0.000 C 
BRANCH  19  20
ATOM     20  C   UNL     1      68.944 -35.072   7.428  1.00  0.00    -0.000 C 
BRANCH  20  21
ATOM     21  C   UNL     1      69.539 -33.676   7.167  1.00  0.00    -0.000 C 
BRANCH  21  22
ATOM     22  C   UNL     1      70.305 -33.528   5.836  1.00  0.00    -0.000 C 
BRANCH  22  23
ATOM     23  C   UNL     1      71.790 -33.142   5.977  1.00  0.00    -0.000 C 
BRANCH  23  24
ATOM     24  C   UNL     1      72.670 -34.184   6.696  1.00  0.00    -0.000 C 
BRANCH  24  25
ATOM     25  C   UNL     1      73.535 -35.051   5.765  1.00  0.00    -0.003 C 
ATOM     26  C   UNL     1      74.099 -36.292   6.459  1.00  0.00     0.004 C 
ENDBRANCH  24  25
ENDBRANCH  23  24
ENDBRANCH  22  23
ENDBRANCH  21  22
ENDBRANCH  20  21
ENDBRANCH  19  20
ENDBRANCH  18  19
ENDBRANCH  17  18
ENDBRANCH  16  17
ENDBRANCH  15  16
ENDBRANCH   1  15
TORSDOF 22
ENDMDL
MODEL 4
REMARK VINA RESULT:    -4.593      1.061      3.835
REMARK INTER + INTRA:         -13.494
REMARK INTER:                 -10.711
REMARK INTRA:                  -2.783
REMARK UNBOUND:                -2.993
REMARK SMILES CCCCCCCCCCCCCCCCCCCCCCCC(=O)[O-]
REMARK SMILES IDX 13 1 14 2 15 3 16 4 17 5 18 6 19 7 20 8 21 9 22 10 23 11
REMARK SMILES IDX 24 12 25 13 26 14 12 15 11 16 10 17 9 18 8 19 7 20 6 21 5 22
REMARK SMILES IDX 4 23 3 24 2 25 1 26
REMARK H PARENT
REMARK Flexibility Score: inf
ROOT
ATOM      1  C   UNL     1      73.010 -37.091  10.562  1.00  0.00     0.000 C 
ENDROOT
BRANCH   1   2
ATOM      2  C   UNL     1      72.723 -38.181  11.617  1.00  0.00     0.000 C 
BRANCH   2   3
ATOM      3  C   UNL     1      71.283 -38.729  11.621  1.00  0.00     0.000 C 
BRANCH   3   4
ATOM      4  C   UNL     1      70.315 -38.031  10.644  1.00  0.00     0.000 C 
BRANCH   4   5
ATOM      5  C   UNL     1      69.587 -38.971   9.666  1.00  0.00     0.000 C 
BRANCH   5   6
ATOM      6  C   UNL     1      68.058 -38.887   9.781  1.00  0.00     0.000 C 
BRANCH   6   7
ATOM      7  C   UNL     1      67.628 -37.559  10.414  1.00  0.00     0.000 C 
BRANCH   7   8
ATOM      8  C   UNL     1      66.144 -37.587  10.803  1.00  0.00     0.000 C 
BRANCH   8   9
ATOM      9  C   UNL     1      65.721 -36.262  11.454  1.00  0.00     0.000 C 
BRANCH   9  10
ATOM     10  C   UNL     1      65.555 -36.369  12.982  1.00  0.00     0.006 C 
BRANCH  10  11
ATOM     11  C   UNL     1      64.090 -36.471  13.445  1.00  0.00     0.053 C 
BRANCH  11  12
ATOM     12  C   UNL     1      63.578 -35.192  14.033  1.00  0.00     0.041 C 
ATOM     13  O   UNL     1      64.135 -34.689  15.045  1.00  0.00    -0.550 OA
ATOM     14  O   UNL     1      62.473 -34.564  13.474  1.00  0.00    -0.550 OA
ENDBRANCH  11  12
ENDBRANCH  10  11
ENDBRANCH   9  10
ENDBRANCH   8   9
ENDBRANCH   7   8
ENDBRANCH   6   7
ENDBRANCH   5   6
ENDBRANCH   4   5
ENDBRANCH   3   4
ENDBRANCH   2   3
ENDBRANCH   1   2
BRANCH   1  15
ATOM     15  C   UNL     1      74.419 -37.129   9.936  1.00  0.00     0.000 C 
BRANCH  15  16
ATOM     16  C   UNL     1      74.484 -36.690   8.454  1.00  0.00     0.000 C 
BRANCH  16  17
ATOM     17  C   UNL     1      73.215 -35.970   7.956  1.00  0.00     0.000 C 
BRANCH  17  18
ATOM     18  C   UNL     1      73.193 -35.641   6.451  1.00  0.00    -0.000 C 
BRANCH  18  19
ATOM     19  C   UNL     1      72.808 -34.191   6.100  1.00  0.00    -0.000 C 
BRANCH  19  20
ATOM     20  C   UNL     1      71.709 -34.105   5.028  1.00  0.00    -0.000 C 
BRANCH  20  21
ATOM     21  C   UNL     1      70.509 -33.249   5.471  1.00  0.00    -0.000 C 
BRANCH  21  22
ATOM     22  C   UNL     1      70.150 -33.348   6.968  1.00  0.00    -0.000 C 
BRANCH  22  23
ATOM     23  C   UNL     1      69.044 -34.367   7.307  1.00  0.00    -0.000 C 
BRANCH  23  24
ATOM     24  C   UNL     1      69.549 -35.743   7.783  1.00  0.00    -0.000 C 
BRANCH  24  25
ATOM     25  C   UNL     1      69.627 -36.818   6.685  1.00  0.00    -0.003 C 
ATOM     26  C   UNL     1      68.277 -37.089   6.019  1.00  0.00     0.004 C 
ENDBRANCH  24  25
ENDBRANCH  23  24
ENDBRANCH  22  23
ENDBRANCH  21  22
ENDBRANCH  20  21
ENDBRANCH  19  20
ENDBRANCH  18  19
ENDBRANCH  17  18
ENDBRANCH  16  17
ENDBRANCH  15  16
ENDBRANCH   1  15
TORSDOF 22
ENDMDL
MODEL 5
REMARK VINA RESULT:    -4.540      3.717      8.651
REMARK INTER + INTRA:         -13.373
REMARK INTER:                 -10.859
REMARK INTRA:                  -2.515
REMARK UNBOUND:                -2.993
REMARK SMILES CCCCCCCCCCCCCCCCCCCCCCCC(=O)[O-]
REMARK SMILES IDX 13 1 14 2 15 3 16 4 17 5 18 6 19 7 20 8 21 9 22 10 23 11
REMARK SMILES IDX 24 12 25 13 26 14 12 15 11 16 10 17 9 18 8 19 7 20 6 21 5 22
REMARK SMILES IDX 4 23 3 24 2 25 1 26
REMARK H PARENT
REMARK Flexibility Score: inf
ROOT
ATOM      1  C   UNL     1      69.330 -34.602   7.472  1.00  0.00     0.000 C 
ENDROOT
BRANCH   1   2
ATOM      2  C   UNL     1      69.795 -33.323   6.745  1.00  0.00     0.000 C 
BRANCH   2   3
ATOM      3  C   UNL     1      71.288 -32.979   6.910  1.00  0.00     0.000 C 
BRANCH   3   4
ATOM      4  C   UNL     1      72.151 -33.191   5.650  1.00  0.00     0.000 C 
BRANCH   4   5
ATOM      5  C   UNL     1      73.261 -34.248   5.791  1.00  0.00     0.000 C 
BRANCH   5   6
ATOM      6  C   UNL     1      72.839 -35.634   5.284  1.00  0.00     0.000 C 
BRANCH   6   7
ATOM      7  C   UNL     1      72.895 -36.670   6.412  1.00  0.00     0.000 C 
BRANCH   7   8
ATOM      8  C   UNL     1      73.226 -36.007   7.755  1.00  0.00     0.000 C 
BRANCH   8   9
ATOM      9  C   UNL     1      72.312 -36.538   8.870  1.00  0.00     0.000 C 
BRANCH   9  10
ATOM     10  C   UNL     1      73.093 -37.076  10.084  1.00  0.00     0.006 C 
BRANCH  10  11
ATOM     11  C   UNL     1      74.613 -37.169   9.858  1.00  0.00     0.053 C 
BRANCH  11  12
ATOM     12  C   UNL     1      75.381 -37.306  11.137  1.00  0.00     0.041 C 
ATOM     13  O   UNL     1      75.009 -38.127  12.017  1.00  0.00    -0.550 OA
ATOM     14  O   UNL     1      76.499 -36.514  11.364  1.00  0.00    -0.550 OA
ENDBRANCH  11  12
ENDBRANCH  10  11
ENDBRANCH   9  10
ENDBRANCH   8   9
ENDBRANCH   7   8
ENDBRANCH   6   7
ENDBRANCH   5   6
ENDBRANCH   4   5
ENDBRANCH   3   4
ENDBRANCH   2   3
ENDBRANCH   1   2
BRANCH   1  15
ATOM     15  C   UNL     1      69.362 -35.893   6.629  1.00  0.00     0.000 C 
BRANCH  15  16
ATOM     16  C   UNL     1      68.093 -36.771   6.735  1.00  0.00     0.000 C 
BRANCH  16  17
ATOM     17  C   UNL     1      66.926 -36.101   7.486  1.00  0.00     0.000 C 
BRANCH  17  18
ATOM     18  C   UNL     1      66.363 -36.901   8.677  1.00  0.00    -0.000 C 
BRANCH  18  19
ATOM     19  C   UNL     1      65.624 -36.065   9.740  1.00  0.00    -0.000 C 
BRANCH  19  20
ATOM     20  C   UNL     1      64.664 -36.904  10.600  1.00  0.00    -0.000 C 
BRANCH  20  21
ATOM     21  C   UNL     1      65.253 -37.260  11.977  1.00  0.00    -0.000 C 
BRANCH  21  22
ATOM     22  C   UNL     1      66.406 -36.351  12.452  1.00  0.00    -0.000 C 
BRANCH  22  23
ATOM     23  C   UNL     1      65.989 -35.212  13.403  1.00  0.00    -0.000 C 
BRANCH  23  24
ATOM     24  C   UNL     1      64.896 -35.583  14.425  1.00  0.00    -0.000 C 
BRANCH  24  25
ATOM     25  C   UNL     1      63.575 -34.810  14.267  1.00  0.00    -0.003 C 
ATOM     26  C   UNL     1      63.470 -34.075  12.931  1.00  0.00     0.004 C 
ENDBRANCH  24  25
ENDBRANCH  23  24
ENDBRANCH  22  23
ENDBRANCH  21  22
ENDBRANCH  20  21
ENDBRANCH  19  20
ENDBRANCH  18  19
ENDBRANCH  17  18
ENDBRANCH  16  17
ENDBRANCH  15  16
ENDBRANCH   1  15
TORSDOF 22
ENDMDL
MODEL 6
REMARK VINA RESULT:    -4.475      1.163      2.802
REMARK INTER + INTRA:         -13.224
REMARK INTER:                 -11.008
REMARK INTRA:                  -2.215
REMARK UNBOUND:                -2.993
REMARK SMILES CCCCCCCCCCCCCCCCCCCCCCCC(=O)[O-]
REMARK SMILES IDX 13 1 14 2 15 3 16 4 17 5 18 6 19 7 20 8 21 9 22 10 23 11
REMARK SMILES IDX 24 12 25 13 26 14 12 15 11 16 10 17 9 18 8 19 7 20 6 21 5 22
REMARK SMILES IDX 4 23 3 24 2 25 1 26
REMARK H PARENT
REMARK Flexibility Score: inf
ROOT
ATOM      1  C   UNL     1      72.465 -38.232  11.611  1.00  0.00     0.000 C 
ENDROOT
BRANCH   1   2
ATOM      2  C   UNL     1      70.924 -38.301  11.636  1.00  0.00     0.000 C 
BRANCH   2   3
ATOM      3  C   UNL     1      70.217 -37.657  10.428  1.00  0.00     0.000 C 
BRANCH   3   4
ATOM      4  C   UNL     1      69.635 -38.652   9.404  1.00  0.00     0.000 C 
BRANCH   4   5
ATOM      5  C   UNL     1      68.137 -38.964   9.578  1.00  0.00     0.000 C 
BRANCH   5   6
ATOM      6  C   UNL     1      67.317 -37.742  10.016  1.00  0.00     0.000 C 
BRANCH   6   7
ATOM      7  C   UNL     1      66.186 -38.154  10.965  1.00  0.00     0.000 C 
BRANCH   7   8
ATOM      8  C   UNL     1      65.224 -36.986  11.220  1.00  0.00     0.000 C 
BRANCH   8   9
ATOM      9  C   UNL     1      65.963 -35.792  11.842  1.00  0.00     0.000 C 
BRANCH   9  10
ATOM     10  C   UNL     1      65.845 -35.744  13.377  1.00  0.00     0.006 C 
BRANCH  10  11
ATOM     11  C   UNL     1      64.460 -36.154  13.910  1.00  0.00     0.053 C 
BRANCH  11  12
ATOM     12  C   UNL     1      63.524 -34.992  14.043  1.00  0.00     0.041 C 
ATOM     13  O   UNL     1      62.856 -34.596  13.051  1.00  0.00    -0.550 OA
ATOM     14  O   UNL     1      63.403 -34.334  15.260  1.00  0.00    -0.550 OA
ENDBRANCH  11  12
ENDBRANCH  10  11
ENDBRANCH   9  10
ENDBRANCH   8   9
ENDBRANCH   7   8
ENDBRANCH   6   7
ENDBRANCH   5   6
ENDBRANCH   4   5
ENDBRANCH   3   4
ENDBRANCH   2   3
ENDBRANCH   1   2
BRANCH   1  15
ATOM     15  C   UNL     1      73.066 -37.161  10.677  1.00  0.00     0.000 C 
BRANCH  15  16
ATOM     16  C   UNL     1      74.519 -37.436  10.223  1.00  0.00     0.000 C 
BRANCH  16  17
ATOM     17  C   UNL     1      74.923 -36.699   8.931  1.00  0.00     0.000 C 
BRANCH  17  18
ATOM     18  C   UNL     1      73.760 -36.340   7.986  1.00  0.00    -0.000 C 
BRANCH  18  19
ATOM     19  C   UNL     1      73.980 -36.704   6.505  1.00  0.00    -0.000 C 
BRANCH  19  20
ATOM     20  C   UNL     1      73.110 -35.872   5.548  1.00  0.00    -0.000 C 
BRANCH  20  21
ATOM     21  C   UNL     1      73.619 -34.428   5.383  1.00  0.00    -0.000 C 
BRANCH  21  22
ATOM     22  C   UNL     1      72.551 -33.331   5.572  1.00  0.00    -0.000 C 
BRANCH  22  23
ATOM     23  C   UNL     1      71.774 -33.400   6.900  1.00  0.00    -0.000 C 
BRANCH  23  24
ATOM     24  C   UNL     1      70.282 -33.022   6.803  1.00  0.00    -0.000 C 
BRANCH  24  25
ATOM     25  C   UNL     1      69.306 -34.125   7.251  1.00  0.00    -0.003 C 
ATOM     26  C   UNL     1      69.980 -35.487   7.415  1.00  0.00     0.004 C 
ENDBRANCH  24  25
ENDBRANCH  23  24
ENDBRANCH  22  23
ENDBRANCH  21  22
ENDBRANCH  20  21
ENDBRANCH  19  20
ENDBRANCH  18  19
ENDBRANCH  17  18
ENDBRANCH  16  17
ENDBRANCH  15  16
ENDBRANCH   1  15
TORSDOF 22
ENDMDL
MODEL 7
REMARK VINA RESULT:    -4.472      1.127      3.386
REMARK INTER + INTRA:         -13.216
REMARK INTER:                 -10.490
REMARK INTRA:                  -2.726
REMARK UNBOUND:                -2.993
REMARK SMILES CCCCCCCCCCCCCCCCCCCCCCCC(=O)[O-]
REMARK SMILES IDX 13 1 14 2 15 3 16 4 17 5 18 6 19 7 20 8 21 9 22 10 23 11
REMARK SMILES IDX 24 12 25 13 26 14 12 15 11 16 10 17 9 18 8 19 7 20 6 21 5 22
REMARK SMILES IDX 4 23 3 24 2 25 1 26
REMARK H PARENT
REMARK Flexibility Score: inf
ROOT
ATOM      1  C   UNL     1      72.926 -37.232  10.527  1.00  0.00     0.000 C 
ENDROOT
BRANCH   1   2
ATOM      2  C   UNL     1      72.455 -38.270  11.567  1.00  0.00     0.000 C 
BRANCH   2   3
ATOM      3  C   UNL     1      71.009 -38.771  11.387  1.00  0.00     0.000 C 
BRANCH   3   4
ATOM      4  C   UNL     1      70.034 -37.747  10.773  1.00  0.00     0.000 C 
BRANCH   4   5
ATOM      5  C   UNL     1      69.095 -38.310   9.690  1.00  0.00     0.000 C 
BRANCH   5   6
ATOM      6  C   UNL     1      67.619 -38.303  10.112  1.00  0.00     0.000 C 
BRANCH   6   7
ATOM      7  C   UNL     1      66.895 -37.074   9.553  1.00  0.00     0.000 C 
BRANCH   7   8
ATOM      8  C   UNL     1      65.911 -36.497  10.579  1.00  0.00     0.000 C 
BRANCH   8   9
ATOM      9  C   UNL     1      66.408 -36.738  12.012  1.00  0.00     0.000 C 
BRANCH   9  10
ATOM     10  C   UNL     1      66.147 -35.544  12.950  1.00  0.00     0.006 C 
BRANCH  10  11
ATOM     11  C   UNL     1      64.775 -35.586  13.648  1.00  0.00     0.053 C 
BRANCH  11  12
ATOM     12  C   UNL     1      63.811 -34.583  13.092  1.00  0.00     0.041 C 
ATOM     13  O   UNL     1      64.157 -33.825  12.147  1.00  0.00    -0.550 OA
ATOM     14  O   UNL     1      62.536 -34.473  13.630  1.00  0.00    -0.550 OA
ENDBRANCH  11  12
ENDBRANCH  10  11
ENDBRANCH   9  10
ENDBRANCH   8   9
ENDBRANCH   7   8
ENDBRANCH   6   7
ENDBRANCH   5   6
ENDBRANCH   4   5
ENDBRANCH   3   4
ENDBRANCH   2   3
ENDBRANCH   1   2
BRANCH   1  15
ATOM     15  C   UNL     1      74.422 -37.296  10.156  1.00  0.00     0.000 C 
BRANCH  15  16
ATOM     16  C   UNL     1      74.768 -36.754   8.750  1.00  0.00     0.000 C 
BRANCH  16  17
ATOM     17  C   UNL     1      73.545 -36.273   7.944  1.00  0.00     0.000 C 
BRANCH  17  18
ATOM     18  C   UNL     1      73.710 -36.312   6.412  1.00  0.00    -0.000 C 
BRANCH  18  19
ATOM     19  C   UNL     1      72.394 -36.314   5.609  1.00  0.00    -0.000 C 
BRANCH  19  20
ATOM     20  C   UNL     1      71.685 -37.678   5.625  1.00  0.00    -0.000 C 
BRANCH  20  21
ATOM     21  C   UNL     1      70.326 -37.635   6.348  1.00  0.00    -0.000 C 
BRANCH  21  22
ATOM     22  C   UNL     1      69.556 -36.305   6.216  1.00  0.00    -0.000 C 
BRANCH  22  23
ATOM     23  C   UNL     1      69.491 -35.459   7.502  1.00  0.00    -0.000 C 
BRANCH  23  24
ATOM     24  C   UNL     1      69.246 -33.953   7.281  1.00  0.00    -0.000 C 
BRANCH  24  25
ATOM     25  C   UNL     1      70.282 -33.255   6.381  1.00  0.00    -0.003 C 
ATOM     26  C   UNL     1      71.597 -32.962   7.102  1.00  0.00     0.004 C 
ENDBRANCH  24  25
ENDBRANCH  23  24
ENDBRANCH  22  23
ENDBRANCH  21  22
ENDBRANCH  20  21
ENDBRANCH  19  20
ENDBRANCH  18  19
ENDBRANCH  17  18
ENDBRANCH  16  17
ENDBRANCH  15  16
ENDBRANCH   1  15
TORSDOF 22
ENDMDL
MODEL 8
REMARK VINA RESULT:    -4.423      1.280      4.233
REMARK INTER + INTRA:         -13.106
REMARK INTER:                 -10.527
REMARK INTRA:                  -2.578
REMARK UNBOUND:                -2.993
REMARK SMILES CCCCCCCCCCCCCCCCCCCCCCCC(=O)[O-]
REMARK SMILES IDX 13 1 14 2 15 3 16 4 17 5 18 6 19 7 20 8 21 9 22 10 23 11
REMARK SMILES IDX 24 12 25 13 26 14 12 15 11 16 10 17 9 18 8 19 7 20 6 21 5 22
REMARK SMILES IDX 4 23 3 24 2 25 1 26
REMARK H PARENT
REMARK Flexibility Score: inf
ROOT
ATOM      1  C   UNL     1      72.087 -33.434   6.741  1.00  0.00     0.000 C 
ENDROOT
BRANCH   1   2
ATOM      2  C   UNL     1      70.650 -33.110   6.280  1.00  0.00     0.000 C 
BRANCH   2   3
ATOM      3  C   UNL     1      69.529 -33.702   7.155  1.00  0.00     0.000 C 
BRANCH   3   4
ATOM      4  C   UNL     1      69.684 -35.199   7.490  1.00  0.00     0.000 C 
BRANCH   4   5
ATOM      5  C   UNL     1      68.519 -36.094   7.029  1.00  0.00     0.000 C 
BRANCH   5   6
ATOM      6  C   UNL     1      67.240 -35.887   7.854  1.00  0.00     0.000 C 
BRANCH   6   7
ATOM      7  C   UNL     1      66.143 -36.865   7.418  1.00  0.00     0.000 C 
BRANCH   7   8
ATOM      8  C   UNL     1      65.075 -37.019   8.509  1.00  0.00     0.000 C 
BRANCH   8   9
ATOM      9  C   UNL     1      65.628 -36.607   9.881  1.00  0.00     0.000 C 
BRANCH   9  10
ATOM     10  C   UNL     1      64.676 -35.680  10.661  1.00  0.00     0.006 C 
BRANCH  10  11
ATOM     11  C   UNL     1      65.393 -34.716  11.624  1.00  0.00     0.053 C 
BRANCH  11  12
ATOM     12  C   UNL     1      65.624 -35.315  12.978  1.00  0.00     0.041 C 
ATOM     13  O   UNL     1      66.726 -35.859  13.253  1.00  0.00    -0.550 OA
ATOM     14  O   UNL     1      64.613 -35.289  13.930  1.00  0.00    -0.550 OA
ENDBRANCH  11  12
ENDBRANCH  10  11
ENDBRANCH   9  10
ENDBRANCH   8   9
ENDBRANCH   7   8
ENDBRANCH   6   7
ENDBRANCH   5   6
ENDBRANCH   4   5
ENDBRANCH   3   4
ENDBRANCH   2   3
ENDBRANCH   1   2
BRANCH   1  15
ATOM     15  C   UNL     1      72.997 -34.075   5.673  1.00  0.00     0.000 C 
BRANCH  15  16
ATOM     16  C   UNL     1      73.013 -35.621   5.674  1.00  0.00     0.000 C 
BRANCH  16  17
ATOM     17  C   UNL     1      74.107 -36.238   6.568  1.00  0.00     0.000 C 
BRANCH  17  18
ATOM     18  C   UNL     1      73.726 -36.410   8.051  1.00  0.00    -0.000 C 
BRANCH  18  19
ATOM     19  C   UNL     1      74.876 -36.851   8.978  1.00  0.00    -0.000 C 
BRANCH  19  20
ATOM     20  C   UNL     1      74.385 -37.326  10.356  1.00  0.00    -0.000 C 
BRANCH  20  21
ATOM     21  C   UNL     1      72.863 -37.176  10.531  1.00  0.00    -0.000 C 
BRANCH  21  22
ATOM     22  C   UNL     1      72.255 -37.978  11.700  1.00  0.00    -0.000 C 
BRANCH  22  23
ATOM     23  C   UNL     1      70.937 -38.707  11.375  1.00  0.00    -0.000 C 
BRANCH  23  24
ATOM     24  C   UNL     1      69.909 -37.873  10.585  1.00  0.00    -0.000 C 
BRANCH  24  25
ATOM     25  C   UNL     1      68.878 -38.699   9.795  1.00  0.00    -0.003 C 
ATOM     26  C   UNL     1      69.453 -39.303   8.514  1.00  0.00     0.004 C 
ENDBRANCH  24  25
ENDBRANCH  23  24
ENDBRANCH  22  23
ENDBRANCH  21  22
ENDBRANCH  20  21
ENDBRANCH  19  20
ENDBRANCH  18  19
ENDBRANCH  17  18
ENDBRANCH  16  17
ENDBRANCH  15  16
ENDBRANCH   1  15
TORSDOF 22
ENDMDL
MODEL 9
REMARK VINA RESULT:    -4.370      3.871      7.772
REMARK INTER + INTRA:         -12.984
REMARK INTER:                  -9.503
REMARK INTRA:                  -3.481
REMARK UNBOUND:                -2.993
REMARK SMILES CCCCCCCCCCCCCCCCCCCCCCCC(=O)[O-]
REMARK SMILES IDX 13 1 14 2 15 3 16 4 17 5 18 6 19 7 20 8 21 9 22 10 23 11
REMARK SMILES IDX 24 12 25 13 26 14 12 15 11 16 10 17 9 18 8 19 7 20 6 21 5 22
REMARK SMILES IDX 4 23 3 24 2 25 1 26
REMARK H PARENT
REMARK Flexibility Score: inf
ROOT
ATOM      1  C   UNL     1      69.048 -34.933   7.400  1.00  0.00     0.000 C 
ENDROOT
BRANCH   1   2
ATOM      2  C   UNL     1      69.554 -33.502   7.121  1.00  0.00     0.000 C 
BRANCH   2   3
ATOM      3  C   UNL     1      70.860 -33.414   6.308  1.00  0.00     0.000 C 
BRANCH   3   4
ATOM      4  C   UNL     1      72.135 -33.820   7.073  1.00  0.00     0.000 C 
BRANCH   4   5
ATOM      5  C   UNL     1      72.950 -34.954   6.426  1.00  0.00     0.000 C 
BRANCH   5   6
ATOM      6  C   UNL     1      72.901 -36.262   7.229  1.00  0.00     0.000 C 
BRANCH   6   7
ATOM      7  C   UNL     1      72.468 -36.000   8.676  1.00  0.00     0.000 C 
BRANCH   7   8
ATOM      8  C   UNL     1      71.429 -37.031   9.137  1.00  0.00     0.000 C 
BRANCH   8   9
ATOM      9  C   UNL     1      71.766 -37.561  10.538  1.00  0.00     0.000 C 
BRANCH   9  10
ATOM     10  C   UNL     1      73.014 -36.896  11.150  1.00  0.00     0.006 C 
BRANCH  10  11
ATOM     11  C   UNL     1      74.135 -37.888  11.513  1.00  0.00     0.053 C 
BRANCH  11  12
ATOM     12  C   UNL     1      75.488 -37.416  11.077  1.00  0.00     0.041 C 
ATOM     13  O   UNL     1      75.622 -36.774  10.001  1.00  0.00    -0.550 OA
ATOM     14  O   UNL     1      76.605 -37.700  11.852  1.00  0.00    -0.550 OA
ENDBRANCH  11  12
ENDBRANCH  10  11
ENDBRANCH   9  10
ENDBRANCH   8   9
ENDBRANCH   7   8
ENDBRANCH   6   7
ENDBRANCH   5   6
ENDBRANCH   4   5
ENDBRANCH   3   4
ENDBRANCH   2   3
ENDBRANCH   1   2
BRANCH   1  15
ATOM     15  C   UNL     1      69.372 -35.976   6.310  1.00  0.00     0.000 C 
BRANCH  15  16
ATOM     16  C   UNL     1      68.579 -37.299   6.419  1.00  0.00     0.000 C 
BRANCH  16  17
ATOM     17  C   UNL     1      69.455 -38.565   6.338  1.00  0.00     0.000 C 
BRANCH  17  18
ATOM     18  C   UNL     1      69.087 -39.685   7.330  1.00  0.00    -0.000 C 
BRANCH  18  19
ATOM     19  C   UNL     1      67.939 -39.351   8.303  1.00  0.00    -0.000 C 
BRANCH  19  20
ATOM     20  C   UNL     1      68.412 -39.209   9.760  1.00  0.00    -0.000 C 
BRANCH  20  21
ATOM     21  C   UNL     1      68.059 -37.841  10.370  1.00  0.00    -0.000 C 
BRANCH  21  22
ATOM     22  C   UNL     1      66.924 -37.077   9.657  1.00  0.00    -0.000 C 
BRANCH  22  23
ATOM     23  C   UNL     1      65.570 -37.085  10.394  1.00  0.00    -0.000 C 
BRANCH  23  24
ATOM     24  C   UNL     1      65.230 -35.783  11.146  1.00  0.00    -0.000 C 
BRANCH  24  25
ATOM     25  C   UNL     1      65.009 -35.950  12.659  1.00  0.00    -0.003 C 
ATOM     26  C   UNL     1      64.529 -37.351  13.041  1.00  0.00     0.004 C 
ENDBRANCH  24  25
ENDBRANCH  23  24
ENDBRANCH  22  23
ENDBRANCH  21  22
ENDBRANCH  20  21
ENDBRANCH  19  20
ENDBRANCH  18  19
ENDBRANCH  17  18
ENDBRANCH  16  17
ENDBRANCH  15  16
ENDBRANCH   1  15
TORSDOF 22
ENDMDL
