MODEL 1
REMARK VINA RESULT:    -1.599      0.000      0.000
REMARK INTER + INTRA:          -4.755
REMARK INTER:                  -4.031
REMARK INTRA:                  -0.724
REMARK UNBOUND:                -0.724
REMARK SMILES CCCCCCCCCCCCCCCCCCCCCCCCCCCC(=O)[O-]
REMARK SMILES IDX 15 1 16 2 17 3 18 4 19 5 20 6 21 7 22 8 23 9 24 10 25 11
REMARK SMILES IDX 26 12 27 13 28 14 29 15 30 16 14 17 13 18 12 19 11 20 10 21
REMARK SMILES IDX 9 22 8 23 7 24 6 25 5 26 4 27 3 28 2 29 1 30
REMARK H PARENT
REMARK Flexibility Score: inf
ROOT
ATOM      1  C   UNL     1      32.462  13.350  21.699  1.00  0.00     0.000 C 
ENDROOT
BRANCH   1   2
ATOM      2  C   UNL     1      33.314  14.629  21.745  1.00  0.00     0.000 C 
BRANCH   2   3
ATOM      3  C   UNL     1      33.170  15.395  23.069  1.00  0.00     0.000 C 
BRANCH   3   4
ATOM      4  C   UNL     1      32.005  16.401  23.054  1.00  0.00     0.000 C 
BRANCH   4   5
ATOM      5  C   UNL     1      31.707  16.929  21.640  1.00  0.00     0.000 C 
BRANCH   5   6
ATOM      6  C   UNL     1      32.972  17.002  20.770  1.00  0.00     0.000 C 
BRANCH   6   7
ATOM      7  C   UNL     1      32.615  17.122  19.284  1.00  0.00     0.000 C 
BRANCH   7   8
ATOM      8  C   UNL     1      31.470  16.164  18.921  1.00  0.00     0.000 C 
BRANCH   8   9
ATOM      9  C   UNL     1      30.624  16.661  17.736  1.00  0.00     0.000 C 
BRANCH   9  10
ATOM     10  C   UNL     1      30.135  15.557  16.780  1.00  0.00     0.000 C 
BRANCH  10  11
ATOM     11  C   UNL     1      31.087  15.296  15.592  1.00  0.00     0.000 C 
BRANCH  11  12
ATOM     12  C   UNL     1      31.413  16.584  14.816  1.00  0.00     0.006 C 
BRANCH  12  13
ATOM     13  C   UNL     1      30.549  16.740  13.558  1.00  0.00     0.053 C 
BRANCH  13  14
ATOM     14  C   UNL     1      31.139  16.018  12.384  1.00  0.00     0.041 C 
ATOM     15  O   UNL     1      30.529  15.046  11.865  1.00  0.00    -0.550 OA
ATOM     16  O   UNL     1      32.357  16.428  11.856  1.00  0.00    -0.550 OA
ENDBRANCH  13  14
ENDBRANCH  12  13
ENDBRANCH  11  12
ENDBRANCH  10  11
ENDBRANCH   9  10
ENDBRANCH   8   9
ENDBRANCH   7   8
ENDBRANCH   6   7
ENDBRANCH   5   6
ENDBRANCH   4   5
ENDBRANCH   3   4
ENDBRANCH   2   3
ENDBRANCH   1   2
BRANCH   1  17
ATOM     17  C   UNL     1      31.717  13.094  23.021  1.00  0.00     0.000 C 
BRANCH  17  18
ATOM     18  C   UNL     1      30.745  11.903  22.931  1.00  0.00     0.000 C 
BRANCH  18  19
ATOM     19  C   UNL     1      29.275  12.334  23.124  1.00  0.00     0.000 C 
BRANCH  19  20
ATOM     20  C   UNL     1      28.259  11.190  22.927  1.00  0.00     0.000 C 
BRANCH  20  21
ATOM     21  C   UNL     1      28.701  10.090  21.947  1.00  0.00     0.000 C 
BRANCH  21  22
ATOM     22  C   UNL     1      27.958  10.156  20.603  1.00  0.00    -0.000 C 
BRANCH  22  23
ATOM     23  C   UNL     1      27.424  11.564  20.285  1.00  0.00    -0.000 C 
BRANCH  23  24
ATOM     24  C   UNL     1      28.202  12.332  19.197  1.00  0.00    -0.000 C 
BRANCH  24  25
ATOM     25  C   UNL     1      29.004  13.549  19.695  1.00  0.00    -0.000 C 
BRANCH  25  26
ATOM     26  C   UNL     1      28.145  14.819  19.817  1.00  0.00    -0.000 C 
BRANCH  26  27
ATOM     27  C   UNL     1      26.964  14.642  20.785  1.00  0.00    -0.000 C 
BRANCH  27  28
ATOM     28  C   UNL     1      27.182  15.367  22.123  1.00  0.00    -0.000 C 
BRANCH  28  29
ATOM     29  C   UNL     1      27.733  16.780  21.897  1.00  0.00    -0.003 C 
ATOM     30  C   UNL     1      29.160  16.907  22.423  1.00  0.00     0.004 C 
ENDBRANCH  28  29
ENDBRANCH  27  28
ENDBRANCH  26  27
ENDBRANCH  25  26
ENDBRANCH  24  25
ENDBRANCH  23  24
ENDBRANCH  22  23
ENDBRANCH  21  22
ENDBRANCH  20  21
ENDBRANCH  19  20
ENDBRANCH  18  19
ENDBRANCH  17  18
ENDBRANCH   1  17
TORSDOF 26
ENDMDL
MODEL 2
REMARK VINA RESULT:    -0.545      3.196      7.648
REMARK INTER + INTRA:          -2.099
REMARK INTER:                  -4.293
REMARK INTRA:                   2.194
REMARK UNBOUND:                -0.724
REMARK SMILES CCCCCCCCCCCCCCCCCCCCCCCCCCCC(=O)[O-]
REMARK SMILES IDX 15 1 16 2 17 3 18 4 19 5 20 6 21 7 22 8 23 9 24 10 25 11
REMARK SMILES IDX 26 12 27 13 28 14 29 15 30 16 14 17 13 18 12 19 11 20 10 21
REMARK SMILES IDX 9 22 8 23 7 24 6 25 5 26 4 27 3 28 2 29 1 30
REMARK H PARENT
REMARK Flexibility Score: inf
ROOT
ATOM      1  C   UNL     1      30.956  14.642  16.945  1.00  0.00     0.000 C 
ENDROOT
BRANCH   1   2
ATOM      2  C   UNL     1      29.790  14.358  17.907  1.00  0.00     0.000 C 
BRANCH   2   3
ATOM      3  C   UNL     1      29.948  13.028  18.660  1.00  0.00     0.000 C 
BRANCH   3   4
ATOM      4  C   UNL     1      31.387  12.785  19.150  1.00  0.00     0.000 C 
BRANCH   4   5
ATOM      5  C   UNL     1      31.777  13.723  20.304  1.00  0.00     0.000 C 
BRANCH   5   6
ATOM      6  C   UNL     1      32.194  12.950  21.565  1.00  0.00     0.000 C 
BRANCH   6   7
ATOM      7  C   UNL     1      31.241  13.238  22.731  1.00  0.00     0.000 C 
BRANCH   7   8
ATOM      8  C   UNL     1      30.434  11.983  23.097  1.00  0.00     0.000 C 
BRANCH   8   9
ATOM      9  C   UNL     1      29.959  11.195  21.864  1.00  0.00     0.000 C 
BRANCH   9  10
ATOM     10  C   UNL     1      29.576   9.729  22.140  1.00  0.00     0.000 C 
BRANCH  10  11
ATOM     11  C   UNL     1      28.145   9.553  22.695  1.00  0.00     0.000 C 
BRANCH  11  12
ATOM     12  C   UNL     1      27.338  10.862  22.643  1.00  0.00     0.006 C 
BRANCH  12  13
ATOM     13  C   UNL     1      27.626  11.673  21.373  1.00  0.00     0.053 C 
BRANCH  13  14
ATOM     14  C   UNL     1      27.337  13.131  21.566  1.00  0.00     0.041 C 
ATOM     15  O   UNL     1      26.880  13.820  20.615  1.00  0.00    -0.550 OA
ATOM     16  O   UNL     1      27.559  13.726  22.802  1.00  0.00    -0.550 OA
ENDBRANCH  13  14
ENDBRANCH  12  13
ENDBRANCH  11  12
ENDBRANCH  10  11
ENDBRANCH   9  10
ENDBRANCH   8   9
ENDBRANCH   7   8
ENDBRANCH   6   7
ENDBRANCH   5   6
ENDBRANCH   4   5
ENDBRANCH   3   4
ENDBRANCH   2   3
ENDBRANCH   1   2
BRANCH   1  17
ATOM     17  C   UNL     1      31.970  15.639  17.530  1.00  0.00     0.000 C 
BRANCH  17  18
ATOM     18  C   UNL     1      31.361  17.034  17.761  1.00  0.00     0.000 C 
BRANCH  18  19
ATOM     19  C   UNL     1      30.551  17.109  19.074  1.00  0.00     0.000 C 
BRANCH  19  20
ATOM     20  C   UNL     1      29.399  16.087  19.155  1.00  0.00     0.000 C 
BRANCH  20  21
ATOM     21  C   UNL     1      28.099  16.621  19.782  1.00  0.00     0.000 C 
BRANCH  21  22
ATOM     22  C   UNL     1      26.925  16.643  18.790  1.00  0.00    -0.000 C 
BRANCH  22  23
ATOM     23  C   UNL     1      27.337  17.125  17.388  1.00  0.00    -0.000 C 
BRANCH  23  24
ATOM     24  C   UNL     1      27.013  16.151  16.236  1.00  0.00    -0.000 C 
BRANCH  24  25
ATOM     25  C   UNL     1      27.478  16.604  14.839  1.00  0.00    -0.000 C 
BRANCH  25  26
ATOM     26  C   UNL     1      28.926  17.125  14.833  1.00  0.00    -0.000 C 
BRANCH  26  27
ATOM     27  C   UNL     1      29.604  16.968  13.463  1.00  0.00    -0.000 C 
BRANCH  27  28
ATOM     28  C   UNL     1      30.909  16.159  13.538  1.00  0.00    -0.000 C 
BRANCH  28  29
ATOM     29  C   UNL     1      31.363  15.721  12.141  1.00  0.00    -0.003 C 
ATOM     30  C   UNL     1      32.643  16.442  11.724  1.00  0.00     0.004 C 
ENDBRANCH  28  29
ENDBRANCH  27  28
ENDBRANCH  26  27
ENDBRANCH  25  26
ENDBRANCH  24  25
ENDBRANCH  23  24
ENDBRANCH  22  23
ENDBRANCH  21  22
ENDBRANCH  20  21
ENDBRANCH  19  20
ENDBRANCH  18  19
ENDBRANCH  17  18
ENDBRANCH   1  17
TORSDOF 26
ENDMDL
MODEL 3
REMARK VINA RESULT:     0.409      3.046      7.233
REMARK INTER + INTRA:           0.307
REMARK INTER:                  -1.109
REMARK INTRA:                   1.416
REMARK UNBOUND:                -0.724
REMARK SMILES CCCCCCCCCCCCCCCCCCCCCCCCCCCC(=O)[O-]
REMARK SMILES IDX 15 1 16 2 17 3 18 4 19 5 20 6 21 7 22 8 23 9 24 10 25 11
REMARK SMILES IDX 26 12 27 13 28 14 29 15 30 16 14 17 13 18 12 19 11 20 10 21
REMARK SMILES IDX 9 22 8 23 7 24 6 25 5 26 4 27 3 28 2 29 1 30
REMARK H PARENT
REMARK Flexibility Score: inf
ROOT
ATOM      1  C   UNL     1      31.103  14.449  16.367  1.00  0.00     0.000 C 
ENDROOT
BRANCH   1   2
ATOM      2  C   UNL     1      30.155  13.617  17.248  1.00  0.00     0.000 C 
BRANCH   2   3
ATOM      3  C   UNL     1      30.823  12.357  17.819  1.00  0.00     0.000 C 
BRANCH   3   4
ATOM      4  C   UNL     1      31.509  12.605  19.174  1.00  0.00     0.000 C 
BRANCH   4   5
ATOM      5  C   UNL     1      30.504  12.972  20.279  1.00  0.00     0.000 C 
BRANCH   5   6
ATOM      6  C   UNL     1      29.501  11.839  20.550  1.00  0.00     0.000 C 
BRANCH   6   7
ATOM      7  C   UNL     1      29.501  11.444  22.032  1.00  0.00     0.000 C 
BRANCH   7   8
ATOM      8  C   UNL     1      28.947  12.585  22.899  1.00  0.00     0.000 C 
BRANCH   8   9
ATOM      9  C   UNL     1      28.102  13.591  22.098  1.00  0.00     0.000 C 
BRANCH   9  10
ATOM     10  C   UNL     1      27.930  14.968  22.765  1.00  0.00     0.000 C 
BRANCH  10  11
ATOM     11  C   UNL     1      29.264  15.658  23.124  1.00  0.00     0.000 C 
BRANCH  11  12
ATOM     12  C   UNL     1      30.113  15.963  21.878  1.00  0.00     0.006 C 
BRANCH  12  13
ATOM     13  C   UNL     1      31.250  16.950  22.175  1.00  0.00     0.053 C 
BRANCH  13  14
ATOM     14  C   UNL     1      32.557  16.479  21.614  1.00  0.00     0.041 C 
ATOM     15  O   UNL     1      33.337  15.783  22.317  1.00  0.00    -0.550 OA
ATOM     16  O   UNL     1      32.909  16.798  20.308  1.00  0.00    -0.550 OA
ENDBRANCH  13  14
ENDBRANCH  12  13
ENDBRANCH  11  12
ENDBRANCH  10  11
ENDBRANCH   9  10
ENDBRANCH   8   9
ENDBRANCH   7   8
ENDBRANCH   6   7
ENDBRANCH   5   6
ENDBRANCH   4   5
ENDBRANCH   3   4
ENDBRANCH   2   3
ENDBRANCH   1   2
BRANCH   1  17
ATOM     17  C   UNL     1      31.594  15.723  17.076  1.00  0.00     0.000 C 
BRANCH  17  18
ATOM     18  C   UNL     1      30.449  16.699  17.399  1.00  0.00     0.000 C 
BRANCH  18  19
ATOM     19  C   UNL     1      29.874  16.479  18.815  1.00  0.00     0.000 C 
BRANCH  19  20
ATOM     20  C   UNL     1      28.931  15.263  18.924  1.00  0.00     0.000 C 
BRANCH  20  21
ATOM     21  C   UNL     1      27.488  15.595  19.341  1.00  0.00     0.000 C 
BRANCH  21  22
ATOM     22  C   UNL     1      26.910  16.800  18.580  1.00  0.00    -0.000 C 
BRANCH  22  23
ATOM     23  C   UNL     1      27.691  17.124  17.295  1.00  0.00    -0.000 C 
BRANCH  23  24
ATOM     24  C   UNL     1      27.793  15.969  16.278  1.00  0.00    -0.000 C 
BRANCH  24  25
ATOM     25  C   UNL     1      27.017  16.176  14.964  1.00  0.00    -0.000 C 
BRANCH  25  26
ATOM     26  C   UNL     1      27.743  17.113  13.984  1.00  0.00    -0.000 C 
BRANCH  26  27
ATOM     27  C   UNL     1      29.273  17.012  14.095  1.00  0.00    -0.000 C 
BRANCH  27  28
ATOM     28  C   UNL     1      29.951  16.782  12.735  1.00  0.00    -0.000 C 
BRANCH  28  29
ATOM     29  C   UNL     1      31.391  16.288  12.917  1.00  0.00    -0.003 C 
ATOM     30  C   UNL     1      31.676  15.076  12.034  1.00  0.00     0.004 C 
ENDBRANCH  28  29
ENDBRANCH  27  28
ENDBRANCH  26  27
ENDBRANCH  25  26
ENDBRANCH  24  25
ENDBRANCH  23  24
ENDBRANCH  22  23
ENDBRANCH  21  22
ENDBRANCH  20  21
ENDBRANCH  19  20
ENDBRANCH  18  19
ENDBRANCH  17  18
ENDBRANCH   1  17
TORSDOF 26
ENDMDL
