MODEL 1
REMARK VINA RESULT:    -5.434      0.000      0.000
REMARK INTER + INTRA:          -6.940
REMARK INTER:                  -6.546
REMARK INTRA:                  -0.393
REMARK UNBOUND:                -0.393
REMARK SMILES O=c1c(O)c(-c2ccc(O)cc2O)oc2cc(O)cc(O)c12
REMARK SMILES IDX 5 1 3 2 2 3 1 4 22 5 20 6 19 7 17 8 16 9 15 10 14 11 6 12
REMARK SMILES IDX 8 13 7 14 9 15 11 16 12 17 10 18 13 20 4 22 21 24 18 26
REMARK H PARENT 10 19 13 21 4 23 21 25 18 27
REMARK Flexibility Score: inf
ROOT
ATOM      1  C   UNL     1       8.827  -3.404   9.497  1.00  0.00     0.184 A 
ATOM      2  C   UNL     1       9.501  -2.179   9.607  1.00  0.00     0.208 A 
ATOM      3  C   UNL     1       9.557  -1.543  10.857  1.00  0.00     0.238 A 
ATOM      4  O   UNL     1      10.116  -0.418  10.940  1.00  0.00    -0.285 OA
ATOM      5  C   UNL     1       8.950  -2.150  11.983  1.00  0.00     0.111 A 
ATOM      6  C   UNL     1       8.978  -1.615  13.306  1.00  0.00     0.134 A 
ATOM      7  C   UNL     1       8.233  -2.235  14.318  1.00  0.00     0.093 A 
ATOM      8  C   UNL     1       7.516  -3.405  14.070  1.00  0.00     0.123 A 
ATOM      9  C   UNL     1       7.530  -3.970  12.795  1.00  0.00     0.094 A 
ATOM     10  C   UNL     1       8.233  -3.356  11.756  1.00  0.00     0.146 A 
ATOM     11  O   UNL     1       8.211  -3.918  10.554  1.00  0.00    -0.451 OA
ENDROOT
BRANCH   1  12
ATOM     12  C   UNL     1       8.747  -4.134   8.214  1.00  0.00     0.063 A 
ATOM     13  C   UNL     1       7.861  -4.271   5.953  1.00  0.00     0.047 A 
ATOM     14  C   UNL     1       7.963  -3.604   7.177  1.00  0.00     0.020 A 
ATOM     15  C   UNL     1       8.531  -5.484   5.756  1.00  0.00     0.119 A 
ATOM     16  C   UNL     1       9.294  -6.032   6.792  1.00  0.00     0.093 A 
ATOM     17  C   UNL     1       9.398  -5.371   8.025  1.00  0.00     0.130 A 
BRANCH  15  18
ATOM     18  O   UNL     1       8.440  -6.156   4.540  1.00  0.00    -0.508 OA
ATOM     19  H   UNL     1       8.462  -7.168   4.491  1.00  0.00     0.293 HD
ENDBRANCH  15  18
BRANCH  17  20
ATOM     20  O   UNL     1      10.123  -5.953   9.065  1.00  0.00    -0.507 OA
ATOM     21  H   UNL     1       9.868  -5.812  10.035  1.00  0.00     0.293 HD
ENDBRANCH  17  20
ENDBRANCH   1  12
BRANCH   2  22
ATOM     22  O   UNL     1      10.076  -1.593   8.476  1.00  0.00    -0.502 OA
ATOM     23  H   UNL     1      10.824  -0.912   8.538  1.00  0.00     0.293 HD
ENDBRANCH   2  22
BRANCH   6  24
ATOM     24  O   UNL     1       9.737  -0.503  13.682  1.00  0.00    -0.507 OA
ATOM     25  H   UNL     1       9.806   0.351  13.151  1.00  0.00     0.293 HD
ENDBRANCH   6  24
BRANCH   8  26
ATOM     26  O   UNL     1       6.800  -4.004  15.104  1.00  0.00    -0.508 OA
ATOM     27  H   UNL     1       7.260  -4.559  15.816  1.00  0.00     0.293 HD
ENDBRANCH   8  26
TORSDOF 6
ENDMDL
MODEL 2
REMARK VINA RESULT:    -5.333     14.721     17.317
REMARK INTER + INTRA:          -6.818
REMARK INTER:                  -6.423
REMARK INTRA:                  -0.395
REMARK UNBOUND:                -0.393
REMARK SMILES O=c1c(O)c(-c2ccc(O)cc2O)oc2cc(O)cc(O)c12
REMARK SMILES IDX 5 1 3 2 2 3 1 4 22 5 20 6 19 7 17 8 16 9 15 10 14 11 6 12
REMARK SMILES IDX 8 13 7 14 9 15 11 16 12 17 10 18 13 20 4 22 21 24 18 26
REMARK H PARENT 10 19 13 21 4 23 21 25 18 27
REMARK Flexibility Score: inf
ROOT
ATOM      1  C   UNL     1      -5.037   0.530   3.157  1.00  0.00     0.184 A 
ATOM      2  C   UNL     1      -3.676   0.213   3.288  1.00  0.00     0.208 A 
ATOM      3  C   UNL     1      -3.149  -0.849   2.538  1.00  0.00     0.238 A 
ATOM      4  O   UNL     1      -1.940  -1.164   2.700  1.00  0.00    -0.285 OA
ATOM      5  C   UNL     1      -3.987  -1.570   1.652  1.00  0.00     0.111 A 
ATOM      6  C   UNL     1      -3.551  -2.638   0.812  1.00  0.00     0.134 A 
ATOM      7  C   UNL     1      -4.494  -3.364   0.073  1.00  0.00     0.093 A 
ATOM      8  C   UNL     1      -5.845  -3.019   0.092  1.00  0.00     0.123 A 
ATOM      9  C   UNL     1      -6.274  -1.938   0.863  1.00  0.00     0.094 A 
ATOM     10  C   UNL     1      -5.363  -1.218   1.640  1.00  0.00     0.146 A 
ATOM     11  O   UNL     1      -5.813  -0.204   2.369  1.00  0.00    -0.451 OA
ENDROOT
BRANCH   1  12
ATOM     12  C   UNL     1      -5.651   1.646   3.906  1.00  0.00     0.063 A 
ATOM     13  C   UNL     1      -6.394   2.561   6.032  1.00  0.00     0.047 A 
ATOM     14  C   UNL     1      -5.813   1.526   5.295  1.00  0.00     0.020 A 
ATOM     15  C   UNL     1      -6.834   3.723   5.387  1.00  0.00     0.119 A 
ATOM     16  C   UNL     1      -6.698   3.841   4.001  1.00  0.00     0.093 A 
ATOM     17  C   UNL     1      -6.120   2.805   3.252  1.00  0.00     0.130 A 
BRANCH  15  18
ATOM     18  O   UNL     1      -7.411   4.762   6.112  1.00  0.00    -0.508 OA
ATOM     19  H   UNL     1      -7.761   5.597   5.655  1.00  0.00     0.293 HD
ENDBRANCH  15  18
BRANCH  17  20
ATOM     20  O   UNL     1      -6.036   2.916   1.864  1.00  0.00    -0.507 OA
ATOM     21  H   UNL     1      -5.144   3.002   1.391  1.00  0.00     0.293 HD
ENDBRANCH  17  20
ENDBRANCH   1  12
BRANCH   2  22
ATOM     22  O   UNL     1      -2.876   0.928   4.183  1.00  0.00    -0.502 OA
ATOM     23  H   UNL     1      -2.010   0.555   4.555  1.00  0.00     0.293 HD
ENDBRANCH   2  22
BRANCH   6  24
ATOM     24  O   UNL     1      -2.212  -3.006   0.649  1.00  0.00    -0.507 OA
ATOM     25  H   UNL     1      -1.541  -2.499   0.092  1.00  0.00     0.293 HD
ENDBRANCH   6  24
BRANCH   8  26
ATOM     26  O   UNL     1      -6.752  -3.753  -0.669  1.00  0.00    -0.508 OA
ATOM     27  H   UNL     1      -7.065  -3.431  -1.577  1.00  0.00     0.293 HD
ENDBRANCH   8  26
TORSDOF 6
ENDMDL
MODEL 3
REMARK VINA RESULT:    -5.321     11.071     13.690
REMARK INTER + INTRA:          -6.802
REMARK INTER:                  -6.383
REMARK INTRA:                  -0.419
REMARK UNBOUND:                -0.393
REMARK SMILES O=c1c(O)c(-c2ccc(O)cc2O)oc2cc(O)cc(O)c12
REMARK SMILES IDX 5 1 3 2 2 3 1 4 22 5 20 6 19 7 17 8 16 9 15 10 14 11 6 12
REMARK SMILES IDX 8 13 7 14 9 15 11 16 12 17 10 18 13 20 4 22 21 24 18 26
REMARK H PARENT 10 19 13 21 4 23 21 25 18 27
REMARK Flexibility Score: inf
ROOT
ATOM      1  C   UNL     1      -1.698  -2.007   1.987  1.00  0.00     0.184 A 
ATOM      2  C   UNL     1      -0.979  -3.024   2.633  1.00  0.00     0.208 A 
ATOM      3  C   UNL     1       0.276  -2.726   3.185  1.00  0.00     0.238 A 
ATOM      4  O   UNL     1       0.941  -3.654   3.715  1.00  0.00    -0.285 OA
ATOM      5  C   UNL     1       0.788  -1.408   3.096  1.00  0.00     0.111 A 
ATOM      6  C   UNL     1       2.032  -0.983   3.654  1.00  0.00     0.134 A 
ATOM      7  C   UNL     1       2.498   0.312   3.392  1.00  0.00     0.093 A 
ATOM      8  C   UNL     1       1.739   1.216   2.651  1.00  0.00     0.123 A 
ATOM      9  C   UNL     1       0.494   0.829   2.151  1.00  0.00     0.094 A 
ATOM     10  C   UNL     1       0.018  -0.466   2.364  1.00  0.00     0.146 A 
ATOM     11  O   UNL     1      -1.166  -0.798   1.861  1.00  0.00    -0.451 OA
ENDROOT
BRANCH   1  12
ATOM     12  C   UNL     1      -3.033  -2.251   1.401  1.00  0.00     0.063 A 
ATOM     13  C   UNL     1      -4.371  -3.186  -0.401  1.00  0.00     0.047 A 
ATOM     14  C   UNL     1      -3.125  -2.943   0.183  1.00  0.00     0.020 A 
ATOM     15  C   UNL     1      -5.539  -2.727   0.218  1.00  0.00     0.119 A 
ATOM     16  C   UNL     1      -5.456  -2.015   1.418  1.00  0.00     0.093 A 
ATOM     17  C   UNL     1      -4.209  -1.763   2.009  1.00  0.00     0.130 A 
BRANCH  15  18
ATOM     18  O   UNL     1      -6.786  -2.966  -0.354  1.00  0.00    -0.508 OA
ATOM     19  H   UNL     1      -7.346  -2.213  -0.738  1.00  0.00     0.293 HD
ENDBRANCH  15  18
BRANCH  17  20
ATOM     20  O   UNL     1      -4.136  -1.010   3.182  1.00  0.00    -0.507 OA
ATOM     21  H   UNL     1      -3.739  -1.389   4.034  1.00  0.00     0.293 HD
ENDBRANCH  17  20
ENDBRANCH   1  12
BRANCH   2  22
ATOM     22  O   UNL     1      -1.501  -4.320   2.691  1.00  0.00    -0.502 OA
ATOM     23  H   UNL     1      -2.021  -4.730   1.924  1.00  0.00     0.293 HD
ENDBRANCH   2  22
BRANCH   6  24
ATOM     24  O   UNL     1       2.826  -1.777   4.486  1.00  0.00    -0.507 OA
ATOM     25  H   UNL     1       3.362  -1.432   5.268  1.00  0.00     0.293 HD
ENDBRANCH   6  24
BRANCH   8  26
ATOM     26  O   UNL     1       2.227   2.501   2.424  1.00  0.00    -0.508 OA
ATOM     27  H   UNL     1       3.219   2.703   2.450  1.00  0.00     0.293 HD
ENDBRANCH   8  26
TORSDOF 6
ENDMDL
MODEL 4
REMARK VINA RESULT:    -5.319      7.507     10.710
REMARK INTER + INTRA:          -6.801
REMARK INTER:                  -6.411
REMARK INTRA:                  -0.390
REMARK UNBOUND:                -0.393
REMARK SMILES O=c1c(O)c(-c2ccc(O)cc2O)oc2cc(O)cc(O)c12
REMARK SMILES IDX 5 1 3 2 2 3 1 4 22 5 20 6 19 7 17 8 16 9 15 10 14 11 6 12
REMARK SMILES IDX 8 13 7 14 9 15 11 16 12 17 10 18 13 20 4 22 21 24 18 26
REMARK H PARENT 10 19 13 21 4 23 21 25 18 27
REMARK Flexibility Score: inf
ROOT
ATOM      1  C   UNL     1       4.998  -0.192   3.127  1.00  0.00     0.184 A 
ATOM      2  C   UNL     1       3.642   0.142   3.260  1.00  0.00     0.208 A 
ATOM      3  C   UNL     1       3.121   1.195   2.492  1.00  0.00     0.238 A 
ATOM      4  O   UNL     1       1.917   1.526   2.655  1.00  0.00    -0.285 OA
ATOM      5  C   UNL     1       3.962   1.889   1.589  1.00  0.00     0.111 A 
ATOM      6  C   UNL     1       3.532   2.946   0.731  1.00  0.00     0.134 A 
ATOM      7  C   UNL     1       4.479   3.648  -0.028  1.00  0.00     0.093 A 
ATOM      8  C   UNL     1       5.826   3.289  -0.009  1.00  0.00     0.123 A 
ATOM      9  C   UNL     1       6.248   2.219   0.780  1.00  0.00     0.094 A 
ATOM     10  C   UNL     1       5.335   1.523   1.575  1.00  0.00     0.146 A 
ATOM     11  O   UNL     1       5.778   0.518   2.322  1.00  0.00    -0.451 OA
ENDROOT
BRANCH   1  12
ATOM     12  C   UNL     1       5.605  -1.300   3.894  1.00  0.00     0.063 A 
ATOM     13  C   UNL     1       6.334  -2.189   6.036  1.00  0.00     0.047 A 
ATOM     14  C   UNL     1       5.760  -1.163   5.282  1.00  0.00     0.020 A 
ATOM     15  C   UNL     1       6.774  -3.361   5.409  1.00  0.00     0.119 A 
ATOM     16  C   UNL     1       6.646  -3.497   4.023  1.00  0.00     0.093 A 
ATOM     17  C   UNL     1       6.075  -2.469   3.258  1.00  0.00     0.130 A 
BRANCH  15  18
ATOM     18  O   UNL     1       7.344  -4.392   6.151  1.00  0.00    -0.508 OA
ATOM     19  H   UNL     1       7.346  -4.377   7.165  1.00  0.00     0.293 HD
ENDBRANCH  15  18
BRANCH  17  20
ATOM     20  O   UNL     1       5.998  -2.597   1.871  1.00  0.00    -0.507 OA
ATOM     21  H   UNL     1       5.431  -3.315   1.434  1.00  0.00     0.293 HD
ENDBRANCH  17  20
ENDBRANCH   1  12
BRANCH   2  22
ATOM     22  O   UNL     1       2.839  -0.548   4.173  1.00  0.00    -0.502 OA
ATOM     23  H   UNL     1       2.178  -1.260   3.885  1.00  0.00     0.293 HD
ENDBRANCH   2  22
BRANCH   6  24
ATOM     24  O   UNL     1       2.196   3.325   0.568  1.00  0.00    -0.507 OA
ATOM     25  H   UNL     1       1.416   2.686   0.551  1.00  0.00     0.293 HD
ENDBRANCH   6  24
BRANCH   8  26
ATOM     26  O   UNL     1       6.737   3.999  -0.789  1.00  0.00    -0.508 OA
ATOM     27  H   UNL     1       6.430   4.670  -1.483  1.00  0.00     0.293 HD
ENDBRANCH   8  26
TORSDOF 6
ENDMDL
MODEL 5
REMARK VINA RESULT:    -5.268     15.223     17.736
REMARK INTER + INTRA:          -6.739
REMARK INTER:                  -6.498
REMARK INTRA:                  -0.240
REMARK UNBOUND:                -0.393
REMARK SMILES O=c1c(O)c(-c2ccc(O)cc2O)oc2cc(O)cc(O)c12
REMARK SMILES IDX 5 1 3 2 2 3 1 4 22 5 20 6 19 7 17 8 16 9 15 10 14 11 6 12
REMARK SMILES IDX 8 13 7 14 9 15 11 16 12 17 10 18 13 20 4 22 21 24 18 26
REMARK H PARENT 10 19 13 21 4 23 21 25 18 27
REMARK Flexibility Score: inf
ROOT
ATOM      1  C   UNL     1      -5.643   0.444   2.469  1.00  0.00     0.184 A 
ATOM      2  C   UNL     1      -4.991  -0.206   3.528  1.00  0.00     0.208 A 
ATOM      3  C   UNL     1      -4.630  -1.554   3.381  1.00  0.00     0.238 A 
ATOM      4  O   UNL     1      -4.093  -2.147   4.353  1.00  0.00    -0.285 OA
ATOM      5  C   UNL     1      -4.913  -2.229   2.168  1.00  0.00     0.111 A 
ATOM      6  C   UNL     1      -4.557  -3.584   1.893  1.00  0.00     0.134 A 
ATOM      7  C   UNL     1      -5.002  -4.188   0.710  1.00  0.00     0.093 A 
ATOM      8  C   UNL     1      -5.732  -3.470  -0.235  1.00  0.00     0.123 A 
ATOM      9  C   UNL     1      -6.035  -2.127  -0.004  1.00  0.00     0.094 A 
ATOM     10  C   UNL     1      -5.636  -1.507   1.182  1.00  0.00     0.146 A 
ATOM     11  O   UNL     1      -5.954  -0.231   1.370  1.00  0.00    -0.451 OA
ENDROOT
BRANCH   1  12
ATOM     12  C   UNL     1      -6.035   1.867   2.554  1.00  0.00     0.063 A 
ATOM     13  C   UNL     1      -7.795   3.543   2.504  1.00  0.00     0.047 A 
ATOM     14  C   UNL     1      -7.391   2.208   2.434  1.00  0.00     0.020 A 
ATOM     15  C   UNL     1      -6.846   4.557   2.680  1.00  0.00     0.119 A 
ATOM     16  C   UNL     1      -5.490   4.228   2.777  1.00  0.00     0.093 A 
ATOM     17  C   UNL     1      -5.075   2.890   2.702  1.00  0.00     0.130 A 
BRANCH  15  18
ATOM     18  O   UNL     1      -7.237   5.891   2.756  1.00  0.00    -0.508 OA
ATOM     19  H   UNL     1      -8.214   6.154   2.819  1.00  0.00     0.293 HD
ENDBRANCH  15  18
BRANCH  17  20
ATOM     20  O   UNL     1      -3.716   2.582   2.751  1.00  0.00    -0.507 OA
ATOM     21  H   UNL     1      -3.154   2.781   3.570  1.00  0.00     0.293 HD
ENDBRANCH  17  20
ENDBRANCH   1  12
BRANCH   2  22
ATOM     22  O   UNL     1      -4.740   0.480   4.720  1.00  0.00    -0.502 OA
ATOM     23  H   UNL     1      -5.390   0.471   5.498  1.00  0.00     0.293 HD
ENDBRANCH   2  22
BRANCH   6  24
ATOM     24  O   UNL     1      -3.752  -4.365   2.728  1.00  0.00    -0.507 OA
ATOM     25  H   UNL     1      -4.086  -4.891   3.520  1.00  0.00     0.293 HD
ENDBRANCH   6  24
BRANCH   8  26
ATOM     26  O   UNL     1      -6.145  -4.098  -1.408  1.00  0.00    -0.508 OA
ATOM     27  H   UNL     1      -5.511  -4.237  -2.186  1.00  0.00     0.293 HD
ENDBRANCH   8  26
TORSDOF 6
ENDMDL
MODEL 6
REMARK VINA RESULT:    -5.250     10.356     13.140
REMARK INTER + INTRA:          -6.718
REMARK INTER:                  -6.451
REMARK INTRA:                  -0.267
REMARK UNBOUND:                -0.393
REMARK SMILES O=c1c(O)c(-c2ccc(O)cc2O)oc2cc(O)cc(O)c12
REMARK SMILES IDX 5 1 3 2 2 3 1 4 22 5 20 6 19 7 17 8 16 9 15 10 14 11 6 12
REMARK SMILES IDX 8 13 7 14 9 15 11 16 12 17 10 18 13 20 4 22 21 24 18 26
REMARK H PARENT 10 19 13 21 4 23 21 25 18 27
REMARK Flexibility Score: inf
ROOT
ATOM      1  C   UNL     1       1.888   1.942   2.280  1.00  0.00     0.184 A 
ATOM      2  C   UNL     1       2.727   1.088   3.012  1.00  0.00     0.208 A 
ATOM      3  C   UNL     1       4.097   1.056   2.710  1.00  0.00     0.238 A 
ATOM      4  O   UNL     1       4.836   0.248   3.333  1.00  0.00    -0.285 OA
ATOM      5  C   UNL     1       4.612   1.892   1.689  1.00  0.00     0.111 A 
ATOM      6  C   UNL     1       5.990   1.972   1.326  1.00  0.00     0.134 A 
ATOM      7  C   UNL     1       6.368   2.737   0.215  1.00  0.00     0.093 A 
ATOM      8  C   UNL     1       5.429   3.475  -0.504  1.00  0.00     0.123 A 
ATOM      9  C   UNL     1       4.088   3.452  -0.121  1.00  0.00     0.094 A 
ATOM     10  C   UNL     1       3.674   2.670   0.960  1.00  0.00     0.146 A 
ATOM     11  O   UNL     1       2.387   2.666   1.285  1.00  0.00    -0.451 OA
ENDROOT
BRANCH   1  12
ATOM     12  C   UNL     1       0.440   2.036   2.559  1.00  0.00     0.063 A 
ATOM     13  C   UNL     1      -1.713   0.924   2.760  1.00  0.00     0.047 A 
ATOM     14  C   UNL     1      -0.340   0.870   2.506  1.00  0.00     0.020 A 
ATOM     15  C   UNL     1      -2.326   2.147   3.055  1.00  0.00     0.119 A 
ATOM     16  C   UNL     1      -1.561   3.317   3.085  1.00  0.00     0.093 A 
ATOM     17  C   UNL     1      -0.183   3.273   2.827  1.00  0.00     0.130 A 
BRANCH  15  18
ATOM     18  O   UNL     1      -3.693   2.213   3.313  1.00  0.00    -0.508 OA
ATOM     19  H   UNL     1      -4.364   1.711   2.743  1.00  0.00     0.293 HD
ENDBRANCH  15  18
BRANCH  17  20
ATOM     20  O   UNL     1       0.559   4.454   2.813  1.00  0.00    -0.507 OA
ATOM     21  H   UNL     1       0.344   5.209   2.172  1.00  0.00     0.293 HD
ENDBRANCH  17  20
ENDBRANCH   1  12
BRANCH   2  22
ATOM     22  O   UNL     1       2.189   0.260   4.001  1.00  0.00    -0.502 OA
ATOM     23  H   UNL     1       1.366   0.516   4.534  1.00  0.00     0.293 HD
ENDBRANCH   2  22
BRANCH   6  24
ATOM     24  O   UNL     1       7.022   1.347   2.033  1.00  0.00    -0.507 OA
ATOM     25  H   UNL     1       6.932   0.966   2.963  1.00  0.00     0.293 HD
ENDBRANCH   6  24
BRANCH   8  26
ATOM     26  O   UNL     1       5.843   4.238  -1.594  1.00  0.00    -0.508 OA
ATOM     27  H   UNL     1       6.563   3.911  -2.228  1.00  0.00     0.293 HD
ENDBRANCH   8  26
TORSDOF 6
ENDMDL
MODEL 7
REMARK VINA RESULT:    -5.250     17.844     18.871
REMARK INTER + INTRA:          -6.718
REMARK INTER:                  -6.308
REMARK INTRA:                  -0.409
REMARK UNBOUND:                -0.393
REMARK SMILES O=c1c(O)c(-c2ccc(O)cc2O)oc2cc(O)cc(O)c12
REMARK SMILES IDX 5 1 3 2 2 3 1 4 22 5 20 6 19 7 17 8 16 9 15 10 14 11 6 12
REMARK SMILES IDX 8 13 7 14 9 15 11 16 12 17 10 18 13 20 4 22 21 24 18 26
REMARK H PARENT 10 19 13 21 4 23 21 25 18 27
REMARK Flexibility Score: inf
ROOT
ATOM      1  C   UNL     1      -8.509   3.250   9.505  1.00  0.00     0.184 A 
ATOM      2  C   UNL     1      -9.221   2.057   9.699  1.00  0.00     0.208 A 
ATOM      3  C   UNL     1      -9.352   1.546  10.999  1.00  0.00     0.238 A 
ATOM      4  O   UNL     1      -9.945   0.447  11.161  1.00  0.00    -0.285 OA
ATOM      5  C   UNL     1      -8.782   2.245  12.091  1.00  0.00     0.111 A 
ATOM      6  C   UNL     1      -8.888   1.841  13.456  1.00  0.00     0.134 A 
ATOM      7  C   UNL     1      -8.175   2.539  14.440  1.00  0.00     0.093 A 
ATOM      8  C   UNL     1      -7.415   3.663  14.117  1.00  0.00     0.123 A 
ATOM      9  C   UNL     1      -7.353   4.102  12.795  1.00  0.00     0.094 A 
ATOM     10  C   UNL     1      -8.023   3.406  11.786  1.00  0.00     0.146 A 
ATOM     11  O   UNL     1      -7.929   3.850  10.538  1.00  0.00    -0.451 OA
ENDROOT
BRANCH   1  12
ATOM     12  C   UNL     1      -8.348   3.851   8.164  1.00  0.00     0.063 A 
ATOM     13  C   UNL     1      -7.160   3.911   6.044  1.00  0.00     0.047 A 
ATOM     14  C   UNL     1      -7.342   3.362   7.316  1.00  0.00     0.020 A 
ATOM     15  C   UNL     1      -7.972   4.965   5.609  1.00  0.00     0.119 A 
ATOM     16  C   UNL     1      -8.961   5.474   6.457  1.00  0.00     0.093 A 
ATOM     17  C   UNL     1      -9.147   4.932   7.738  1.00  0.00     0.130 A 
BRANCH  15  18
ATOM     18  O   UNL     1      -7.802   5.517   4.343  1.00  0.00    -0.508 OA
ATOM     19  H   UNL     1      -8.415   5.274   3.572  1.00  0.00     0.293 HD
ENDBRANCH  15  18
BRANCH  17  20
ATOM     20  O   UNL     1     -10.104   5.482   8.591  1.00  0.00    -0.507 OA
ATOM     21  H   UNL     1     -11.065   5.160   8.590  1.00  0.00     0.293 HD
ENDBRANCH  17  20
ENDBRANCH   1  12
BRANCH   2  22
ATOM     22  O   UNL     1      -9.757   1.378   8.601  1.00  0.00    -0.502 OA
ATOM     23  H   UNL     1      -9.180   1.023   7.848  1.00  0.00     0.293 HD
ENDBRANCH   2  22
BRANCH   6  24
ATOM     24  O   UNL     1      -9.694   0.788  13.898  1.00  0.00    -0.507 OA
ATOM     25  H   UNL     1     -10.483   0.889  14.517  1.00  0.00     0.293 HD
ENDBRANCH   6  24
BRANCH   8  26
ATOM     26  O   UNL     1      -6.732   4.342  15.124  1.00  0.00    -0.508 OA
ATOM     27  H   UNL     1      -6.109   5.114  14.915  1.00  0.00     0.293 HD
ENDBRANCH   8  26
TORSDOF 6
ENDMDL
MODEL 8
REMARK VINA RESULT:    -5.217      8.045     10.564
REMARK INTER + INTRA:          -6.678
REMARK INTER:                  -6.439
REMARK INTRA:                  -0.239
REMARK UNBOUND:                -0.393
REMARK SMILES O=c1c(O)c(-c2ccc(O)cc2O)oc2cc(O)cc(O)c12
REMARK SMILES IDX 5 1 3 2 2 3 1 4 22 5 20 6 19 7 17 8 16 9 15 10 14 11 6 12
REMARK SMILES IDX 8 13 7 14 9 15 11 16 12 17 10 18 13 20 4 22 21 24 18 26
REMARK H PARENT 10 19 13 21 4 23 21 25 18 27
REMARK Flexibility Score: inf
ROOT
ATOM      1  C   UNL     1       5.469  -0.110   2.570  1.00  0.00     0.184 A 
ATOM      2  C   UNL     1       4.854   0.599   3.613  1.00  0.00     0.208 A 
ATOM      3  C   UNL     1       4.550   1.957   3.427  1.00  0.00     0.238 A 
ATOM      4  O   UNL     1       4.048   2.602   4.385  1.00  0.00    -0.285 OA
ATOM      5  C   UNL     1       4.852   2.583   2.193  1.00  0.00     0.111 A 
ATOM      6  C   UNL     1       4.553   3.943   1.880  1.00  0.00     0.134 A 
ATOM      7  C   UNL     1       5.014   4.491   0.676  1.00  0.00     0.093 A 
ATOM      8  C   UNL     1       5.705   3.713  -0.252  1.00  0.00     0.123 A 
ATOM      9  C   UNL     1       5.951   2.367   0.018  1.00  0.00     0.094 A 
ATOM     10  C   UNL     1       5.536   1.800   1.225  1.00  0.00     0.146 A 
ATOM     11  O   UNL     1       5.800   0.518   1.449  1.00  0.00    -0.451 OA
ENDROOT
BRANCH   1  12
ATOM     12  C   UNL     1       5.799  -1.545   2.695  1.00  0.00     0.063 A 
ATOM     13  C   UNL     1       7.484  -3.298   2.677  1.00  0.00     0.047 A 
ATOM     14  C   UNL     1       7.137  -1.949   2.570  1.00  0.00     0.020 A 
ATOM     15  C   UNL     1       6.493  -4.263   2.898  1.00  0.00     0.119 A 
ATOM     16  C   UNL     1       5.155  -3.872   3.000  1.00  0.00     0.093 A 
ATOM     17  C   UNL     1       4.798  -2.520   2.889  1.00  0.00     0.130 A 
BRANCH  15  18
ATOM     18  O   UNL     1       6.827  -5.610   3.011  1.00  0.00    -0.508 OA
ATOM     19  H   UNL     1       6.590  -6.147   3.837  1.00  0.00     0.293 HD
ENDBRANCH  15  18
BRANCH  17  20
ATOM     20  O   UNL     1       3.454  -2.150   2.944  1.00  0.00    -0.507 OA
ATOM     21  H   UNL     1       2.795  -2.630   3.546  1.00  0.00     0.293 HD
ENDBRANCH  17  20
ENDBRANCH   1  12
BRANCH   2  22
ATOM     22  O   UNL     1       4.583  -0.038   4.827  1.00  0.00    -0.502 OA
ATOM     23  H   UNL     1       4.084  -0.919   4.879  1.00  0.00     0.293 HD
ENDBRANCH   2  22
BRANCH   6  24
ATOM     24  O   UNL     1       3.790   4.782   2.696  1.00  0.00    -0.507 OA
ATOM     25  H   UNL     1       3.967   5.765   2.835  1.00  0.00     0.293 HD
ENDBRANCH   6  24
BRANCH   8  26
ATOM     26  O   UNL     1       6.135   4.288  -1.447  1.00  0.00    -0.508 OA
ATOM     27  H   UNL     1       7.068   4.669  -1.546  1.00  0.00     0.293 HD
ENDBRANCH   8  26
TORSDOF 6
ENDMDL
MODEL 9
REMARK VINA RESULT:    -5.186     11.949     14.841
REMARK INTER + INTRA:          -6.640
REMARK INTER:                  -6.351
REMARK INTRA:                  -0.289
REMARK UNBOUND:                -0.393
REMARK SMILES O=c1c(O)c(-c2ccc(O)cc2O)oc2cc(O)cc(O)c12
REMARK SMILES IDX 5 1 3 2 2 3 1 4 22 5 20 6 19 7 17 8 16 9 15 10 14 11 6 12
REMARK SMILES IDX 8 13 7 14 9 15 11 16 12 17 10 18 13 20 4 22 21 24 18 26
REMARK H PARENT 10 19 13 21 4 23 21 25 18 27
REMARK Flexibility Score: inf
ROOT
ATOM      1  C   UNL     1      -1.913  -1.913   2.350  1.00  0.00     0.184 A 
ATOM      2  C   UNL     1      -2.728  -1.023   3.065  1.00  0.00     0.208 A 
ATOM      3  C   UNL     1      -4.091  -0.939   2.742  1.00  0.00     0.238 A 
ATOM      4  O   UNL     1      -4.807  -0.100   3.349  1.00  0.00    -0.285 OA
ATOM      5  C   UNL     1      -4.623  -1.760   1.717  1.00  0.00     0.111 A 
ATOM      6  C   UNL     1      -5.998  -1.787   1.333  1.00  0.00     0.134 A 
ATOM      7  C   UNL     1      -6.388  -2.543   0.219  1.00  0.00     0.093 A 
ATOM      8  C   UNL     1      -5.468  -3.321  -0.481  1.00  0.00     0.123 A 
ATOM      9  C   UNL     1      -4.132  -3.349  -0.078  1.00  0.00     0.094 A 
ATOM     10  C   UNL     1      -3.705  -2.578   1.006  1.00  0.00     0.146 A 
ATOM     11  O   UNL     1      -2.424  -2.622   1.352  1.00  0.00    -0.451 OA
ENDROOT
BRANCH   1  12
ATOM     12  C   UNL     1      -0.474  -2.063   2.652  1.00  0.00     0.063 A 
ATOM     13  C   UNL     1       1.727  -1.044   2.838  1.00  0.00     0.047 A 
ATOM     14  C   UNL     1       0.361  -0.937   2.564  1.00  0.00     0.020 A 
ATOM     15  C   UNL     1       2.278  -2.282   3.189  1.00  0.00     0.119 A 
ATOM     16  C   UNL     1       1.459  -3.413   3.256  1.00  0.00     0.093 A 
ATOM     17  C   UNL     1       0.088  -3.315   2.978  1.00  0.00     0.130 A 
BRANCH  15  18
ATOM     18  O   UNL     1       3.637  -2.400   3.468  1.00  0.00    -0.508 OA
ATOM     19  H   UNL     1       4.317  -2.556   2.733  1.00  0.00     0.293 HD
ENDBRANCH  15  18
BRANCH  17  20
ATOM     20  O   UNL     1      -0.708  -4.461   3.001  1.00  0.00    -0.507 OA
ATOM     21  H   UNL     1      -1.222  -4.735   3.830  1.00  0.00     0.293 HD
ENDBRANCH  17  20
ENDBRANCH   1  12
BRANCH   2  22
ATOM     22  O   UNL     1      -2.173  -0.212   4.059  1.00  0.00    -0.502 OA
ATOM     23  H   UNL     1      -1.192   0.040   4.069  1.00  0.00     0.293 HD
ENDBRANCH   2  22
BRANCH   6  24
ATOM     24  O   UNL     1      -7.014  -1.118   2.021  1.00  0.00    -0.507 OA
ATOM     25  H   UNL     1      -7.711  -0.532   1.588  1.00  0.00     0.293 HD
ENDBRANCH   6  24
BRANCH   8  26
ATOM     26  O   UNL     1      -5.894  -4.073  -1.574  1.00  0.00    -0.508 OA
ATOM     27  H   UNL     1      -6.871  -4.114  -1.841  1.00  0.00     0.293 HD
ENDBRANCH   8  26
TORSDOF 6
ENDMDL
