MODEL 1
REMARK VINA RESULT:    -7.043      0.000      0.000
REMARK INTER + INTRA:         -14.506
REMARK INTER:                 -11.573
REMARK INTRA:                  -2.933
REMARK UNBOUND:                -2.933
REMARK SMILES C[C@H]1O[C@H](OC[C@@H]2O[C@@H](Oc3c(-c4ccc(O)c(O)c4)oc4cc(O)cc(O)c4c3=O)[C@@H](O)[C@H](O)[C@@H]2O)[C@@H](O)[C@H](O)[C@H]1O
REMARK SMILES IDX 7 1 36 2 34 3 32 4 9 5 8 6 6 7 5 8 4 9 1 10 2 11 42 12 3 13
REMARK SMILES IDX 40 14 38 15 43 16 41 18 39 20 37 22 35 24 10 26 11 27 12 28
REMARK SMILES IDX 30 29 21 30 29 31 31 32 22 33 27 34 23 35 26 36 24 37 13 38
REMARK SMILES IDX 20 39 14 40 18 41 15 42 16 43 19 44 17 46 28 48 25 50 33 52
REMARK H PARENT 43 17 41 19 39 21 37 23 35 25 19 45 17 47 28 49 25 51 33 53
REMARK Flexibility Score: inf
ROOT
ATOM      1  C   UNL     1      19.277  25.421  41.858  1.00  0.00     0.180 C 
ATOM      2  C   UNL     1      20.008  26.757  42.203  1.00  0.00     0.177 C 
ATOM      3  C   UNL     1      19.864  27.078  43.715  1.00  0.00     0.180 C 
ATOM      4  C   UNL     1      18.377  27.053  44.182  1.00  0.00     0.214 C 
ATOM      5  C   UNL     1      17.521  26.167  43.248  1.00  0.00     0.339 C 
ATOM      6  O   UNL     1      18.279  25.048  42.813  1.00  0.00    -0.332 OA
ENDROOT
BRANCH   1   7
ATOM      7  C   UNL     1      18.689  25.331  40.427  1.00  0.00     0.198 C 
BRANCH   7   8
ATOM      8  O   UNL     1      19.454  25.967  39.423  1.00  0.00    -0.347 OA
BRANCH   8   9
ATOM      9  C   UNL     1      19.277  25.511  38.080  1.00  0.00     0.281 C 
ATOM     10  C   UNL     1      19.844  22.558  37.121  1.00  0.00     0.041 C 
ATOM     11  C   UNL     1      18.703  23.562  36.904  1.00  0.00     0.150 C 
ATOM     12  C   UNL     1      18.843  24.406  35.591  1.00  0.00     0.174 C 
ATOM     13  O   UNL     1      18.488  24.341  38.083  1.00  0.00    -0.344 OA
ATOM     14  C   UNL     1      18.189  25.804  35.780  1.00  0.00     0.179 C 
ATOM     15  C   UNL     1      18.742  26.537  37.023  1.00  0.00     0.202 C 
BRANCH  12  16
ATOM     16  O   UNL     1      20.199  24.558  35.247  1.00  0.00    -0.388 OA
ATOM     17  H   UNL     1      20.679  23.734  35.532  1.00  0.00     0.211 HD
ENDBRANCH  12  16
BRANCH  14  18
ATOM     18  O   UNL     1      16.778  25.734  35.845  1.00  0.00    -0.387 OA
ATOM     19  H   UNL     1      16.415  26.637  36.040  1.00  0.00     0.211 HD
ENDBRANCH  14  18
BRANCH  15  20
ATOM     20  O   UNL     1      19.783  27.391  36.629  1.00  0.00    -0.385 OA
ATOM     21  H   UNL     1      20.358  27.523  37.431  1.00  0.00     0.211 HD
ENDBRANCH  15  20
ENDBRANCH   8   9
ENDBRANCH   7   8
ENDBRANCH   1   7
BRANCH   2  22
ATOM     22  O   UNL     1      19.595  27.827  41.381  1.00  0.00    -0.387 OA
ATOM     23  H   UNL     1      20.372  28.406  41.191  1.00  0.00     0.211 HD
ENDBRANCH   2  22
BRANCH   3  24
ATOM     24  O   UNL     1      20.462  28.319  43.981  1.00  0.00    -0.387 OA
ATOM     25  H   UNL     1      21.433  28.160  44.043  1.00  0.00     0.211 HD
ENDBRANCH   3  24
BRANCH   5  26
ATOM     26  O   UNL     1      16.340  25.721  43.923  1.00  0.00    -0.454 OA
BRANCH  26  27
ATOM     27  C   UNL     1      16.000  24.364  44.076  1.00  0.00     0.214 A 
ATOM     28  C   UNL     1      15.251  23.721  43.088  1.00  0.00     0.180 A 
ATOM     29  C   UNL     1      16.400  23.603  45.197  1.00  0.00     0.239 A 
ATOM     30  O   UNL     1      15.046  22.416  43.141  1.00  0.00    -0.452 OA
ATOM     31  C   UNL     1      16.214  22.200  45.212  1.00  0.00     0.111 A 
ATOM     32  O   UNL     1      16.856  24.199  46.201  1.00  0.00    -0.285 OA
ATOM     33  C   UNL     1      15.509  21.642  44.109  1.00  0.00     0.146 A 
ATOM     34  C   UNL     1      16.717  21.315  46.218  1.00  0.00     0.134 A 
ATOM     35  C   UNL     1      15.295  20.266  44.025  1.00  0.00     0.094 A 
ATOM     36  C   UNL     1      16.479  19.938  46.106  1.00  0.00     0.093 A 
ATOM     37  C   UNL     1      15.790  19.413  45.018  1.00  0.00     0.123 A 
BRANCH  28  38
ATOM     38  C   UNL     1      14.711  24.455  41.942  1.00  0.00     0.025 A 
ATOM     39  C   UNL     1      15.464  24.545  40.760  1.00  0.00     0.062 A 
ATOM     40  C   UNL     1      13.389  24.893  41.953  1.00  0.00     0.016 A 
ATOM     41  C   UNL     1      14.870  25.009  39.571  1.00  0.00     0.158 A 
ATOM     42  C   UNL     1      12.801  25.371  40.774  1.00  0.00     0.051 A 
ATOM     43  C   UNL     1      13.525  25.380  39.571  1.00  0.00     0.157 A 
BRANCH  41  44
ATOM     44  O   UNL     1      15.608  25.003  38.395  1.00  0.00    -0.504 OA
ATOM     45  H   UNL     1      16.249  24.248  38.157  1.00  0.00     0.293 HD
ENDBRANCH  41  44
BRANCH  43  46
ATOM     46  O   UNL     1      12.893  25.732  38.377  1.00  0.00    -0.504 OA
ATOM     47  H   UNL     1      12.954  25.152  37.551  1.00  0.00     0.293 HD
ENDBRANCH  43  46
ENDBRANCH  28  38
BRANCH  34  48
ATOM     48  O   UNL     1      17.462  21.716  47.337  1.00  0.00    -0.507 OA
ATOM     49  H   UNL     1      17.412  22.606  47.792  1.00  0.00     0.293 HD
ENDBRANCH  34  48
BRANCH  37  50
ATOM     50  O   UNL     1      15.607  18.030  44.916  1.00  0.00    -0.508 OA
ATOM     51  H   UNL     1      16.378  17.389  45.006  1.00  0.00     0.293 HD
ENDBRANCH  37  50
ENDBRANCH  26  27
ENDBRANCH   5  26
BRANCH   4  52
ATOM     52  O   UNL     1      18.304  26.576  45.498  1.00  0.00    -0.384 OA
ATOM     53  H   UNL     1      17.342  26.470  45.721  1.00  0.00     0.211 HD
ENDBRANCH   4  52
TORSDOF 16
ENDMDL
MODEL 2
REMARK VINA RESULT:    -6.807      2.526      8.602
REMARK INTER + INTRA:         -14.117
REMARK INTER:                 -11.765
REMARK INTRA:                  -2.352
REMARK UNBOUND:                -2.933
REMARK SMILES C[C@H]1O[C@H](OC[C@@H]2O[C@@H](Oc3c(-c4ccc(O)c(O)c4)oc4cc(O)cc(O)c4c3=O)[C@@H](O)[C@H](O)[C@@H]2O)[C@@H](O)[C@H](O)[C@H]1O
REMARK SMILES IDX 7 1 36 2 34 3 32 4 9 5 8 6 6 7 5 8 4 9 1 10 2 11 42 12 3 13
REMARK SMILES IDX 40 14 38 15 43 16 41 18 39 20 37 22 35 24 10 26 11 27 12 28
REMARK SMILES IDX 30 29 21 30 29 31 31 32 22 33 27 34 23 35 26 36 24 37 13 38
REMARK SMILES IDX 20 39 14 40 18 41 15 42 16 43 19 44 17 46 28 48 25 50 33 52
REMARK H PARENT 43 17 41 19 39 21 37 23 35 25 19 45 17 47 28 49 25 51 33 53
REMARK Flexibility Score: inf
ROOT
ATOM      1  C   UNL     1      13.809  20.050  43.981  1.00  0.00     0.180 C 
ATOM      2  C   UNL     1      12.607  21.013  43.730  1.00  0.00     0.177 C 
ATOM      3  C   UNL     1      12.949  22.024  42.602  1.00  0.00     0.180 C 
ATOM      4  C   UNL     1      14.289  22.772  42.871  1.00  0.00     0.214 C 
ATOM      5  C   UNL     1      15.205  21.945  43.803  1.00  0.00     0.339 C 
ATOM      6  O   UNL     1      15.063  20.562  43.518  1.00  0.00    -0.332 OA
ENDROOT
BRANCH   1   7
ATOM      7  C   UNL     1      13.961  19.534  45.434  1.00  0.00     0.198 C 
BRANCH   7   8
ATOM      8  O   UNL     1      14.018  20.541  46.425  1.00  0.00    -0.347 OA
BRANCH   8   9
ATOM      9  C   UNL     1      15.178  20.570  47.261  1.00  0.00     0.281 C 
ATOM     10  C   UNL     1      15.415  22.281  49.902  1.00  0.00     0.041 C 
ATOM     11  C   UNL     1      15.758  20.834  49.520  1.00  0.00     0.150 C 
ATOM     12  C   UNL     1      17.249  20.632  49.079  1.00  0.00     0.174 C 
ATOM     13  O   UNL     1      14.798  20.317  48.596  1.00  0.00    -0.344 OA
ATOM     14  C   UNL     1      17.351  19.471  48.050  1.00  0.00     0.179 C 
ATOM     15  C   UNL     1      16.397  19.674  46.852  1.00  0.00     0.202 C 
BRANCH  12  16
ATOM     16  O   UNL     1      17.759  21.815  48.513  1.00  0.00    -0.388 OA
ATOM     17  H   UNL     1      17.123  22.111  47.807  1.00  0.00     0.211 HD
ENDBRANCH  12  16
BRANCH  14  18
ATOM     18  O   UNL     1      17.125  18.206  48.643  1.00  0.00    -0.387 OA
ATOM     19  H   UNL     1      17.983  17.852  48.993  1.00  0.00     0.211 HD
ENDBRANCH  14  18
BRANCH  15  20
ATOM     20  O   UNL     1      17.099  20.288  45.804  1.00  0.00    -0.385 OA
ATOM     21  H   UNL     1      16.537  21.049  45.495  1.00  0.00     0.211 HD
ENDBRANCH  15  20
ENDBRANCH   8   9
ENDBRANCH   7   8
ENDBRANCH   1   7
BRANCH   2  22
ATOM     22  O   UNL     1      12.167  21.648  44.911  1.00  0.00    -0.387 OA
ATOM     23  H   UNL     1      11.303  22.093  44.735  1.00  0.00     0.211 HD
ENDBRANCH   2  22
BRANCH   3  24
ATOM     24  O   UNL     1      11.883  22.924  42.451  1.00  0.00    -0.387 OA
ATOM     25  H   UNL     1      11.165  22.620  43.057  1.00  0.00     0.211 HD
ENDBRANCH   3  24
BRANCH   5  26
ATOM     26  O   UNL     1      16.572  22.337  43.640  1.00  0.00    -0.454 OA
BRANCH  26  27
ATOM     27  C   UNL     1      17.067  23.598  44.021  1.00  0.00     0.214 A 
ATOM     28  C   UNL     1      17.875  24.320  43.141  1.00  0.00     0.180 A 
ATOM     29  C   UNL     1      16.767  24.186  45.270  1.00  0.00     0.239 A 
ATOM     30  O   UNL     1      18.230  25.563  43.418  1.00  0.00    -0.452 OA
ATOM     31  C   UNL     1      17.113  25.533  45.528  1.00  0.00     0.111 A 
ATOM     32  O   UNL     1      16.255  23.473  46.166  1.00  0.00    -0.285 OA
ATOM     33  C   UNL     1      17.867  26.198  44.521  1.00  0.00     0.146 A 
ATOM     34  C   UNL     1      16.725  26.274  46.689  1.00  0.00     0.134 A 
ATOM     35  C   UNL     1      18.237  27.534  44.676  1.00  0.00     0.094 A 
ATOM     36  C   UNL     1      17.118  27.614  46.816  1.00  0.00     0.093 A 
ATOM     37  C   UNL     1      17.852  28.246  45.819  1.00  0.00     0.123 A 
BRANCH  28  38
ATOM     38  C   UNL     1      18.317  23.749  41.867  1.00  0.00     0.025 A 
ATOM     39  C   UNL     1      17.737  24.195  40.669  1.00  0.00     0.062 A 
ATOM     40  C   UNL     1      19.432  22.915  41.826  1.00  0.00     0.016 A 
ATOM     41  C   UNL     1      18.316  23.862  39.430  1.00  0.00     0.158 A 
ATOM     42  C   UNL     1      20.000  22.569  40.592  1.00  0.00     0.051 A 
ATOM     43  C   UNL     1      19.474  23.085  39.397  1.00  0.00     0.157 A 
BRANCH  41  44
ATOM     44  O   UNL     1      17.778  24.391  38.265  1.00  0.00    -0.504 OA
ATOM     45  H   UNL     1      16.782  24.350  38.055  1.00  0.00     0.293 HD
ENDBRANCH  41  44
BRANCH  43  46
ATOM     46  O   UNL     1      20.124  22.844  38.185  1.00  0.00    -0.504 OA
ATOM     47  H   UNL     1      20.339  21.906  37.874  1.00  0.00     0.293 HD
ENDBRANCH  43  46
ENDBRANCH  28  38
BRANCH  34  48
ATOM     48  O   UNL     1      15.949  25.765  47.741  1.00  0.00    -0.507 OA
ATOM     49  H   UNL     1      14.964  25.586  47.716  1.00  0.00     0.293 HD
ENDBRANCH  34  48
BRANCH  37  50
ATOM     50  O   UNL     1      18.193  29.595  45.958  1.00  0.00    -0.508 OA
ATOM     51  H   UNL     1      17.638  30.323  45.540  1.00  0.00     0.293 HD
ENDBRANCH  37  50
ENDBRANCH  26  27
ENDBRANCH   5  26
BRANCH   4  52
ATOM     52  O   UNL     1      14.941  23.023  41.656  1.00  0.00    -0.384 OA
ATOM     53  H   UNL     1      15.685  23.653  41.844  1.00  0.00     0.211 HD
ENDBRANCH   4  52
TORSDOF 16
ENDMDL
MODEL 3
REMARK VINA RESULT:    -6.733      2.409      8.690
REMARK INTER + INTRA:         -13.996
REMARK INTER:                 -11.708
REMARK INTRA:                  -2.288
REMARK UNBOUND:                -2.933
REMARK SMILES C[C@H]1O[C@H](OC[C@@H]2O[C@@H](Oc3c(-c4ccc(O)c(O)c4)oc4cc(O)cc(O)c4c3=O)[C@@H](O)[C@H](O)[C@@H]2O)[C@@H](O)[C@H](O)[C@H]1O
REMARK SMILES IDX 7 1 36 2 34 3 32 4 9 5 8 6 6 7 5 8 4 9 1 10 2 11 42 12 3 13
REMARK SMILES IDX 40 14 38 15 43 16 41 18 39 20 37 22 35 24 10 26 11 27 12 28
REMARK SMILES IDX 30 29 21 30 29 31 31 32 22 33 27 34 23 35 26 36 24 37 13 38
REMARK SMILES IDX 20 39 14 40 18 41 15 42 16 43 19 44 17 46 28 48 25 50 33 52
REMARK H PARENT 43 17 41 19 39 21 37 23 35 25 19 45 17 47 28 49 25 51 33 53
REMARK Flexibility Score: inf
ROOT
ATOM      1  C   UNL     1      13.069  21.830  43.447  1.00  0.00     0.180 C 
ATOM      2  C   UNL     1      12.196  23.112  43.268  1.00  0.00     0.177 C 
ATOM      3  C   UNL     1      12.621  23.882  41.989  1.00  0.00     0.180 C 
ATOM      4  C   UNL     1      14.152  24.172  41.959  1.00  0.00     0.214 C 
ATOM      5  C   UNL     1      14.923  23.156  42.833  1.00  0.00     0.339 C 
ATOM      6  O   UNL     1      14.312  21.877  42.741  1.00  0.00    -0.332 OA
ENDROOT
BRANCH   1   7
ATOM      7  C   UNL     1      13.317  21.389  44.911  1.00  0.00     0.198 C 
BRANCH   7   8
ATOM      8  O   UNL     1      13.452  19.995  45.103  1.00  0.00    -0.347 OA
BRANCH   8   9
ATOM      9  C   UNL     1      14.719  19.519  45.564  1.00  0.00     0.281 C 
ATOM     10  C   UNL     1      15.399  18.937  48.591  1.00  0.00     0.041 C 
ATOM     11  C   UNL     1      15.625  18.186  47.270  1.00  0.00     0.150 C 
ATOM     12  C   UNL     1      17.029  18.450  46.624  1.00  0.00     0.174 C 
ATOM     13  O   UNL     1      14.523  18.386  46.383  1.00  0.00    -0.344 OA
ATOM     14  C   UNL     1      16.937  18.334  45.076  1.00  0.00     0.179 C 
ATOM     15  C   UNL     1      15.831  19.243  44.494  1.00  0.00     0.202 C 
BRANCH  12  16
ATOM     16  O   UNL     1      17.500  19.727  46.978  1.00  0.00    -0.388 OA
ATOM     17  H   UNL     1      17.169  20.372  46.296  1.00  0.00     0.211 HD
ENDBRANCH  12  16
BRANCH  14  18
ATOM     18  O   UNL     1      16.745  16.999  44.647  1.00  0.00    -0.387 OA
ATOM     19  H   UNL     1      17.477  16.434  45.006  1.00  0.00     0.211 HD
ENDBRANCH  14  18
BRANCH  15  20
ATOM     20  O   UNL     1      16.401  20.458  44.086  1.00  0.00    -0.385 OA
ATOM     21  H   UNL     1      17.311  20.242  43.746  1.00  0.00     0.211 HD
ENDBRANCH  15  20
ENDBRANCH   8   9
ENDBRANCH   7   8
ENDBRANCH   1   7
BRANCH   2  22
ATOM     22  O   UNL     1      12.196  23.931  44.418  1.00  0.00    -0.387 OA
ATOM     23  H   UNL     1      11.584  23.543  45.089  1.00  0.00     0.211 HD
ENDBRANCH   2  22
BRANCH   3  24
ATOM     24  O   UNL     1      11.875  25.067  41.895  1.00  0.00    -0.387 OA
ATOM     25  H   UNL     1      12.347  25.744  42.436  1.00  0.00     0.211 HD
ENDBRANCH   3  24
BRANCH   5  26
ATOM     26  O   UNL     1      16.290  23.072  42.418  1.00  0.00    -0.454 OA
BRANCH  26  27
ATOM     27  C   UNL     1      17.172  24.169  42.430  1.00  0.00     0.214 A 
ATOM     28  C   UNL     1      17.446  24.826  43.631  1.00  0.00     0.180 A 
ATOM     29  C   UNL     1      17.815  24.637  41.263  1.00  0.00     0.239 A 
ATOM     30  O   UNL     1      18.378  25.762  43.689  1.00  0.00    -0.452 OA
ATOM     31  C   UNL     1      18.844  25.605  41.353  1.00  0.00     0.111 A 
ATOM     32  O   UNL     1      17.412  24.234  40.146  1.00  0.00    -0.285 OA
ATOM     33  C   UNL     1      19.095  26.146  42.645  1.00  0.00     0.146 A 
ATOM     34  C   UNL     1      19.666  26.035  40.263  1.00  0.00     0.134 A 
ATOM     35  C   UNL     1      20.104  27.089  42.837  1.00  0.00     0.094 A 
ATOM     36  C   UNL     1      20.668  26.989  40.489  1.00  0.00     0.093 A 
ATOM     37  C   UNL     1      20.898  27.503  41.761  1.00  0.00     0.123 A 
BRANCH  28  38
ATOM     38  C   UNL     1      16.751  24.472  44.870  1.00  0.00     0.025 A 
ATOM     39  C   UNL     1      17.255  23.440  45.677  1.00  0.00     0.062 A 
ATOM     40  C   UNL     1      15.714  25.275  45.342  1.00  0.00     0.016 A 
ATOM     41  C   UNL     1      16.768  23.256  46.985  1.00  0.00     0.158 A 
ATOM     42  C   UNL     1      15.217  25.082  46.638  1.00  0.00     0.051 A 
ATOM     43  C   UNL     1      15.779  24.108  47.479  1.00  0.00     0.157 A 
BRANCH  41  44
ATOM     44  O   UNL     1      17.346  22.289  47.795  1.00  0.00    -0.504 OA
ATOM     45  H   UNL     1      16.920  21.980  48.667  1.00  0.00     0.293 HD
ENDBRANCH  41  44
BRANCH  43  46
ATOM     46  O   UNL     1      15.370  24.011  48.810  1.00  0.00    -0.504 OA
ATOM     47  H   UNL     1      14.484  24.386  49.123  1.00  0.00     0.293 HD
ENDBRANCH  43  46
ENDBRANCH  28  38
BRANCH  34  48
ATOM     48  O   UNL     1      19.563  25.561  38.947  1.00  0.00    -0.507 OA
ATOM     49  H   UNL     1      18.924  25.887  38.249  1.00  0.00     0.293 HD
ENDBRANCH  34  48
BRANCH  37  50
ATOM     50  O   UNL     1      21.933  28.423  41.960  1.00  0.00    -0.508 OA
ATOM     51  H   UNL     1      22.724  28.207  42.542  1.00  0.00     0.293 HD
ENDBRANCH  37  50
ENDBRANCH  26  27
ENDBRANCH   5  26
BRANCH   4  52
ATOM     52  O   UNL     1      14.616  24.119  40.637  1.00  0.00    -0.384 OA
ATOM     53  H   UNL     1      13.848  23.852  40.066  1.00  0.00     0.211 HD
ENDBRANCH   4  52
TORSDOF 16
ENDMDL
MODEL 4
REMARK VINA RESULT:    -6.722      2.318      8.096
REMARK INTER + INTRA:         -13.978
REMARK INTER:                 -12.205
REMARK INTRA:                  -1.773
REMARK UNBOUND:                -2.933
REMARK SMILES C[C@H]1O[C@H](OC[C@@H]2O[C@@H](Oc3c(-c4ccc(O)c(O)c4)oc4cc(O)cc(O)c4c3=O)[C@@H](O)[C@H](O)[C@@H]2O)[C@@H](O)[C@H](O)[C@H]1O
REMARK SMILES IDX 7 1 36 2 34 3 32 4 9 5 8 6 6 7 5 8 4 9 1 10 2 11 42 12 3 13
REMARK SMILES IDX 40 14 38 15 43 16 41 18 39 20 37 22 35 24 10 26 11 27 12 28
REMARK SMILES IDX 30 29 21 30 29 31 31 32 22 33 27 34 23 35 26 36 24 37 13 38
REMARK SMILES IDX 20 39 14 40 18 41 15 42 16 43 19 44 17 46 28 48 25 50 33 52
REMARK H PARENT 43 17 41 19 39 21 37 23 35 25 19 45 17 47 28 49 25 51 33 53
REMARK Flexibility Score: inf
ROOT
ATOM      1  C   UNL     1      13.191  21.833  42.688  1.00  0.00     0.180 C 
ATOM      2  C   UNL     1      12.214  22.996  42.332  1.00  0.00     0.177 C 
ATOM      3  C   UNL     1      12.769  23.825  41.143  1.00  0.00     0.180 C 
ATOM      4  C   UNL     1      14.230  24.306  41.393  1.00  0.00     0.214 C 
ATOM      5  C   UNL     1      14.946  23.386  42.409  1.00  0.00     0.339 C 
ATOM      6  O   UNL     1      14.529  22.042  42.224  1.00  0.00    -0.332 OA
ENDROOT
BRANCH   1   7
ATOM      7  C   UNL     1      13.217  21.413  44.179  1.00  0.00     0.198 C 
BRANCH   7   8
ATOM      8  O   UNL     1      13.482  20.044  44.413  1.00  0.00    -0.347 OA
BRANCH   8   9
ATOM      9  C   UNL     1      14.679  19.722  45.125  1.00  0.00     0.281 C 
ATOM     10  C   UNL     1      14.827  19.327  48.253  1.00  0.00     0.041 C 
ATOM     11  C   UNL     1      15.371  18.556  47.041  1.00  0.00     0.150 C 
ATOM     12  C   UNL     1      16.839  18.943  46.651  1.00  0.00     0.174 C 
ATOM     13  O   UNL     1      14.442  18.606  45.956  1.00  0.00    -0.344 OA
ATOM     14  C   UNL     1      17.053  18.762  45.121  1.00  0.00     0.179 C 
ATOM     15  C   UNL     1      15.994  19.526  44.295  1.00  0.00     0.202 C 
BRANCH  12  16
ATOM     16  O   UNL     1      17.109  20.276  47.014  1.00  0.00    -0.388 OA
ATOM     17  H   UNL     1      18.028  20.307  47.392  1.00  0.00     0.211 HD
ENDBRANCH  12  16
BRANCH  14  18
ATOM     18  O   UNL     1      17.077  17.400  44.739  1.00  0.00    -0.387 OA
ATOM     19  H   UNL     1      18.006  17.058  44.810  1.00  0.00     0.211 HD
ENDBRANCH  14  18
BRANCH  15  20
ATOM     20  O   UNL     1      16.510  20.779  43.932  1.00  0.00    -0.385 OA
ATOM     21  H   UNL     1      15.872  21.459  44.281  1.00  0.00     0.211 HD
ENDBRANCH  15  20
ENDBRANCH   8   9
ENDBRANCH   7   8
ENDBRANCH   1   7
BRANCH   2  22
ATOM     22  O   UNL     1      11.898  23.798  43.450  1.00  0.00    -0.387 OA
ATOM     23  H   UNL     1      11.974  23.252  44.270  1.00  0.00     0.211 HD
ENDBRANCH   2  22
BRANCH   3  24
ATOM     24  O   UNL     1      11.911  24.908  40.896  1.00  0.00    -0.387 OA
ATOM     25  H   UNL     1      11.972  25.505  41.679  1.00  0.00     0.211 HD
ENDBRANCH   3  24
BRANCH   5  26
ATOM     26  O   UNL     1      16.367  23.480  42.256  1.00  0.00    -0.454 OA
BRANCH  26  27
ATOM     27  C   UNL     1      17.151  24.462  42.888  1.00  0.00     0.214 A 
ATOM     28  C   UNL     1      18.328  24.905  42.281  1.00  0.00     0.180 A 
ATOM     29  C   UNL     1      16.790  25.042  44.124  1.00  0.00     0.239 A 
ATOM     30  O   UNL     1      19.001  25.926  42.784  1.00  0.00    -0.452 OA
ATOM     31  C   UNL     1      17.494  26.164  44.620  1.00  0.00     0.111 A 
ATOM     32  O   UNL     1      15.884  24.502  44.804  1.00  0.00    -0.285 OA
ATOM     33  C   UNL     1      18.631  26.581  43.873  1.00  0.00     0.146 A 
ATOM     34  C   UNL     1      17.122  26.924  45.775  1.00  0.00     0.134 A 
ATOM     35  C   UNL     1      19.376  27.691  44.271  1.00  0.00     0.094 A 
ATOM     36  C   UNL     1      17.896  28.030  46.151  1.00  0.00     0.093 A 
ATOM     37  C   UNL     1      19.002  28.423  45.405  1.00  0.00     0.123 A 
BRANCH  28  38
ATOM     38  C   UNL     1      18.830  24.292  41.050  1.00  0.00     0.025 A 
ATOM     39  C   UNL     1      19.897  23.381  41.115  1.00  0.00     0.062 A 
ATOM     40  C   UNL     1      18.136  24.459  39.854  1.00  0.00     0.016 A 
ATOM     41  C   UNL     1      20.223  22.587  39.999  1.00  0.00     0.158 A 
ATOM     42  C   UNL     1      18.470  23.680  38.738  1.00  0.00     0.051 A 
ATOM     43  C   UNL     1      19.479  22.707  38.825  1.00  0.00     0.157 A 
BRANCH  41  44
ATOM     44  O   UNL     1      21.221  21.629  40.116  1.00  0.00    -0.504 OA
ATOM     45  H   UNL     1      21.021  20.653  40.325  1.00  0.00     0.293 HD
ENDBRANCH  41  44
BRANCH  43  46
ATOM     46  O   UNL     1      19.716  21.847  37.752  1.00  0.00    -0.504 OA
ATOM     47  H   UNL     1      19.433  20.877  37.775  1.00  0.00     0.293 HD
ENDBRANCH  43  46
ENDBRANCH  28  38
BRANCH  34  48
ATOM     48  O   UNL     1      16.006  26.657  46.582  1.00  0.00    -0.507 OA
ATOM     49  H   UNL     1      15.157  27.185  46.609  1.00  0.00     0.293 HD
ENDBRANCH  34  48
BRANCH  37  50
ATOM     50  O   UNL     1      19.728  29.557  45.785  1.00  0.00    -0.508 OA
ATOM     51  H   UNL     1      20.679  29.488  46.104  1.00  0.00     0.293 HD
ENDBRANCH  37  50
ENDBRANCH  26  27
ENDBRANCH   5  26
BRANCH   4  52
ATOM     52  O   UNL     1      14.934  24.323  40.181  1.00  0.00    -0.384 OA
ATOM     53  H   UNL     1      15.902  24.344  40.401  1.00  0.00     0.211 HD
ENDBRANCH   4  52
TORSDOF 16
ENDMDL
MODEL 5
REMARK VINA RESULT:    -6.653      2.041      8.012
REMARK INTER + INTRA:         -13.865
REMARK INTER:                 -11.804
REMARK INTRA:                  -2.060
REMARK UNBOUND:                -2.933
REMARK SMILES C[C@H]1O[C@H](OC[C@@H]2O[C@@H](Oc3c(-c4ccc(O)c(O)c4)oc4cc(O)cc(O)c4c3=O)[C@@H](O)[C@H](O)[C@@H]2O)[C@@H](O)[C@H](O)[C@H]1O
REMARK SMILES IDX 7 1 36 2 34 3 32 4 9 5 8 6 6 7 5 8 4 9 1 10 2 11 42 12 3 13
REMARK SMILES IDX 40 14 38 15 43 16 41 18 39 20 37 22 35 24 10 26 11 27 12 28
REMARK SMILES IDX 30 29 21 30 29 31 31 32 22 33 27 34 23 35 26 36 24 37 13 38
REMARK SMILES IDX 20 39 14 40 18 41 15 42 16 43 19 44 17 46 28 48 25 50 33 52
REMARK H PARENT 43 17 41 19 39 21 37 23 35 25 19 45 17 47 28 49 25 51 33 53
REMARK Flexibility Score: inf
ROOT
ATOM      1  C   UNL     1      12.967  21.781  42.815  1.00  0.00     0.180 C 
ATOM      2  C   UNL     1      12.127  23.053  42.481  1.00  0.00     0.177 C 
ATOM      3  C   UNL     1      12.792  23.854  41.329  1.00  0.00     0.180 C 
ATOM      4  C   UNL     1      14.291  24.167  41.620  1.00  0.00     0.214 C 
ATOM      5  C   UNL     1      14.883  23.145  42.617  1.00  0.00     0.339 C 
ATOM      6  O   UNL     1      14.328  21.860  42.382  1.00  0.00    -0.332 OA
ENDROOT
BRANCH   1   7
ATOM      7  C   UNL     1      12.916  21.316  44.292  1.00  0.00     0.198 C 
BRANCH   7   8
ATOM      8  O   UNL     1      13.337  19.984  44.517  1.00  0.00    -0.347 OA
BRANCH   8   9
ATOM      9  C   UNL     1      14.567  19.797  45.221  1.00  0.00     0.281 C 
ATOM     10  C   UNL     1      16.531  17.374  44.741  1.00  0.00     0.041 C 
ATOM     11  C   UNL     1      16.707  18.892  44.889  1.00  0.00     0.150 C 
ATOM     12  C   UNL     1      17.042  19.351  46.350  1.00  0.00     0.174 C 
ATOM     13  O   UNL     1      15.609  19.585  44.292  1.00  0.00    -0.344 OA
ATOM     14  C   UNL     1      16.485  20.781  46.603  1.00  0.00     0.179 C 
ATOM     15  C   UNL     1      14.977  20.879  46.277  1.00  0.00     0.202 C 
BRANCH  12  16
ATOM     16  O   UNL     1      16.494  18.455  47.285  1.00  0.00    -0.388 OA
ATOM     17  H   UNL     1      16.190  17.647  46.789  1.00  0.00     0.211 HD
ENDBRANCH  12  16
BRANCH  14  18
ATOM     18  O   UNL     1      17.201  21.772  45.892  1.00  0.00    -0.387 OA
ATOM     19  H   UNL     1      17.546  22.447  46.533  1.00  0.00     0.211 HD
ENDBRANCH  14  18
BRANCH  15  20
ATOM     20  O   UNL     1      14.239  20.688  47.455  1.00  0.00    -0.385 OA
ATOM     21  H   UNL     1      14.851  20.246  48.103  1.00  0.00     0.211 HD
ENDBRANCH  15  20
ENDBRANCH   8   9
ENDBRANCH   7   8
ENDBRANCH   1   7
BRANCH   2  22
ATOM     22  O   UNL     1      11.875  23.850  43.619  1.00  0.00    -0.387 OA
ATOM     23  H   UNL     1      11.001  24.298  43.512  1.00  0.00     0.211 HD
ENDBRANCH   2  22
BRANCH   3  24
ATOM     24  O   UNL     1      12.059  25.029  41.102  1.00  0.00    -0.387 OA
ATOM     25  H   UNL     1      12.402  25.705  41.734  1.00  0.00     0.211 HD
ENDBRANCH   3  24
BRANCH   5  26
ATOM     26  O   UNL     1      16.308  23.090  42.492  1.00  0.00    -0.454 OA
BRANCH  26  27
ATOM     27  C   UNL     1      17.170  24.082  42.996  1.00  0.00     0.214 A 
ATOM     28  C   UNL     1      18.351  24.385  42.316  1.00  0.00     0.180 A 
ATOM     29  C   UNL     1      16.883  24.809  44.172  1.00  0.00     0.239 A 
ATOM     30  O   UNL     1      19.099  25.409  42.690  1.00  0.00    -0.452 OA
ATOM     31  C   UNL     1      17.668  25.931  44.528  1.00  0.00     0.111 A 
ATOM     32  O   UNL     1      15.969  24.402  44.928  1.00  0.00    -0.285 OA
ATOM     33  C   UNL     1      18.803  26.196  43.712  1.00  0.00     0.146 A 
ATOM     34  C   UNL     1      17.378  26.830  45.604  1.00  0.00     0.134 A 
ATOM     35  C   UNL     1      19.625  27.293  43.971  1.00  0.00     0.094 A 
ATOM     36  C   UNL     1      18.228  27.919  45.841  1.00  0.00     0.093 A 
ATOM     37  C   UNL     1      19.331  28.161  45.029  1.00  0.00     0.123 A 
BRANCH  28  38
ATOM     38  C   UNL     1      18.776  23.616  41.145  1.00  0.00     0.025 A 
ATOM     39  C   UNL     1      18.318  23.985  39.870  1.00  0.00     0.062 A 
ATOM     40  C   UNL     1      19.774  22.652  41.268  1.00  0.00     0.016 A 
ATOM     41  C   UNL     1      18.909  23.438  38.715  1.00  0.00     0.158 A 
ATOM     42  C   UNL     1      20.352  22.095  40.119  1.00  0.00     0.051 A 
ATOM     43  C   UNL     1      19.957  22.526  38.843  1.00  0.00     0.157 A 
BRANCH  41  44
ATOM     44  O   UNL     1      18.501  23.887  37.466  1.00  0.00    -0.504 OA
ATOM     45  H   UNL     1      17.675  23.520  36.997  1.00  0.00     0.293 HD
ENDBRANCH  41  44
BRANCH  43  46
ATOM     46  O   UNL     1      20.627  22.064  37.709  1.00  0.00    -0.504 OA
ATOM     47  H   UNL     1      21.243  21.262  37.744  1.00  0.00     0.293 HD
ENDBRANCH  43  46
ENDBRANCH  28  38
BRANCH  34  48
ATOM     48  O   UNL     1      16.275  26.719  46.464  1.00  0.00    -0.507 OA
ATOM     49  H   UNL     1      15.315  26.652  46.188  1.00  0.00     0.293 HD
ENDBRANCH  34  48
BRANCH  37  50
ATOM     50  O   UNL     1      20.135  29.281  45.268  1.00  0.00    -0.508 OA
ATOM     51  H   UNL     1      21.125  29.193  45.427  1.00  0.00     0.293 HD
ENDBRANCH  37  50
ENDBRANCH  26  27
ENDBRANCH   5  26
BRANCH   4  52
ATOM     52  O   UNL     1      15.017  24.145  40.421  1.00  0.00    -0.384 OA
ATOM     53  H   UNL     1      15.725  24.838  40.492  1.00  0.00     0.211 HD
ENDBRANCH   4  52
TORSDOF 16
ENDMDL
MODEL 6
REMARK VINA RESULT:    -6.613      2.927      9.509
REMARK INTER + INTRA:         -13.798
REMARK INTER:                 -11.471
REMARK INTRA:                  -2.327
REMARK UNBOUND:                -2.933
REMARK SMILES C[C@H]1O[C@H](OC[C@@H]2O[C@@H](Oc3c(-c4ccc(O)c(O)c4)oc4cc(O)cc(O)c4c3=O)[C@@H](O)[C@H](O)[C@@H]2O)[C@@H](O)[C@H](O)[C@H]1O
REMARK SMILES IDX 7 1 36 2 34 3 32 4 9 5 8 6 6 7 5 8 4 9 1 10 2 11 42 12 3 13
REMARK SMILES IDX 40 14 38 15 43 16 41 18 39 20 37 22 35 24 10 26 11 27 12 28
REMARK SMILES IDX 30 29 21 30 29 31 31 32 22 33 27 34 23 35 26 36 24 37 13 38
REMARK SMILES IDX 20 39 14 40 18 41 15 42 16 43 19 44 17 46 28 48 25 50 33 52
REMARK H PARENT 43 17 41 19 39 21 37 23 35 25 19 45 17 47 28 49 25 51 33 53
REMARK Flexibility Score: inf
ROOT
ATOM      1  C   UNL     1      16.183  21.496  44.164  1.00  0.00     0.180 C 
ATOM      2  C   UNL     1      14.835  20.751  43.911  1.00  0.00     0.177 C 
ATOM      3  C   UNL     1      13.966  21.535  42.890  1.00  0.00     0.180 C 
ATOM      4  C   UNL     1      13.776  23.026  43.304  1.00  0.00     0.214 C 
ATOM      5  C   UNL     1      14.926  23.493  44.226  1.00  0.00     0.339 C 
ATOM      6  O   UNL     1      16.145  22.886  43.826  1.00  0.00    -0.332 OA
ENDROOT
BRANCH   1   7
ATOM      7  C   UNL     1      16.788  21.320  45.580  1.00  0.00     0.198 C 
BRANCH   7   8
ATOM      8  O   UNL     1      16.584  20.050  46.167  1.00  0.00    -0.347 OA
BRANCH   8   9
ATOM      9  C   UNL     1      16.183  20.021  47.538  1.00  0.00     0.281 C 
ATOM     10  C   UNL     1      13.613  21.468  48.664  1.00  0.00     0.041 C 
ATOM     11  C   UNL     1      14.231  20.073  48.841  1.00  0.00     0.150 C 
ATOM     12  C   UNL     1      15.160  19.946  50.098  1.00  0.00     0.174 C 
ATOM     13  O   UNL     1      14.829  19.630  47.621  1.00  0.00    -0.344 OA
ATOM     14  C   UNL     1      16.275  18.894  49.836  1.00  0.00     0.179 C 
ATOM     15  C   UNL     1      17.061  19.195  48.540  1.00  0.00     0.202 C 
BRANCH  12  16
ATOM     16  O   UNL     1      15.742  21.189  50.405  1.00  0.00    -0.388 OA
ATOM     17  H   UNL     1      15.567  21.804  49.642  1.00  0.00     0.211 HD
ENDBRANCH  12  16
BRANCH  14  18
ATOM     18  O   UNL     1      15.770  17.572  49.803  1.00  0.00    -0.387 OA
ATOM     19  H   UNL     1      15.881  17.159  50.698  1.00  0.00     0.211 HD
ENDBRANCH  14  18
BRANCH  15  20
ATOM     20  O   UNL     1      18.216  19.924  48.862  1.00  0.00    -0.385 OA
ATOM     21  H   UNL     1      17.949  20.882  48.880  1.00  0.00     0.211 HD
ENDBRANCH  15  20
ENDBRANCH   8   9
ENDBRANCH   7   8
ENDBRANCH   1   7
BRANCH   2  22
ATOM     22  O   UNL     1      14.141  20.468  45.107  1.00  0.00    -0.387 OA
ATOM     23  H   UNL     1      14.148  21.271  45.682  1.00  0.00     0.211 HD
ENDBRANCH   2  22
BRANCH   3  24
ATOM     24  O   UNL     1      12.732  20.885  42.741  1.00  0.00    -0.387 OA
ATOM     25  H   UNL     1      12.858  19.958  43.053  1.00  0.00     0.211 HD
ENDBRANCH   3  24
BRANCH   5  26
ATOM     26  O   UNL     1      15.056  24.918  44.184  1.00  0.00    -0.454 OA
BRANCH  26  27
ATOM     27  C   UNL     1      16.267  25.578  43.903  1.00  0.00     0.214 A 
ATOM     28  C   UNL     1      17.049  26.066  44.951  1.00  0.00     0.180 A 
ATOM     29  C   UNL     1      16.743  25.761  42.586  1.00  0.00     0.239 A 
ATOM     30  O   UNL     1      18.254  26.557  44.719  1.00  0.00    -0.452 OA
ATOM     31  C   UNL     1      18.054  26.244  42.361  1.00  0.00     0.111 A 
ATOM     32  O   UNL     1      15.963  25.557  41.626  1.00  0.00    -0.285 OA
ATOM     33  C   UNL     1      18.793  26.633  43.513  1.00  0.00     0.146 A 
ATOM     34  C   UNL     1      18.694  26.321  41.082  1.00  0.00     0.134 A 
ATOM     35  C   UNL     1      20.102  27.101  43.393  1.00  0.00     0.094 A 
ATOM     36  C   UNL     1      20.008  26.801  40.997  1.00  0.00     0.093 A 
ATOM     37  C   UNL     1      20.713  27.174  42.136  1.00  0.00     0.123 A 
BRANCH  28  38
ATOM     38  C   UNL     1      16.588  26.008  46.339  1.00  0.00     0.025 A 
ATOM     39  C   UNL     1      16.188  27.188  46.987  1.00  0.00     0.062 A 
ATOM     40  C   UNL     1      16.363  24.775  46.949  1.00  0.00     0.016 A 
ATOM     41  C   UNL     1      15.500  27.130  48.214  1.00  0.00     0.158 A 
ATOM     42  C   UNL     1      15.693  24.717  48.179  1.00  0.00     0.051 A 
ATOM     43  C   UNL     1      15.215  25.889  48.786  1.00  0.00     0.157 A 
BRANCH  41  44
ATOM     44  O   UNL     1      15.036  28.304  48.788  1.00  0.00    -0.504 OA
ATOM     45  H   UNL     1      15.035  28.457  49.795  1.00  0.00     0.293 HD
ENDBRANCH  41  44
BRANCH  43  46
ATOM     46  O   UNL     1      14.435  25.811  49.941  1.00  0.00    -0.504 OA
ATOM     47  H   UNL     1      13.607  25.233  49.986  1.00  0.00     0.293 HD
ENDBRANCH  43  46
ENDBRANCH  28  38
BRANCH  34  48
ATOM     48  O   UNL     1      18.106  25.933  39.869  1.00  0.00    -0.507 OA
ATOM     49  H   UNL     1      18.518  25.341  39.176  1.00  0.00     0.293 HD
ENDBRANCH  34  48
BRANCH  37  50
ATOM     50  O   UNL     1      22.038  27.610  42.019  1.00  0.00    -0.508 OA
ATOM     51  H   UNL     1      22.265  28.492  41.592  1.00  0.00     0.293 HD
ENDBRANCH  37  50
ENDBRANCH  26  27
ENDBRANCH   5  26
BRANCH   4  52
ATOM     52  O   UNL     1      13.724  23.829  42.157  1.00  0.00    -0.384 OA
ATOM     53  H   UNL     1      13.638  24.772  42.459  1.00  0.00     0.211 HD
ENDBRANCH   4  52
TORSDOF 16
ENDMDL
MODEL 7
REMARK VINA RESULT:    -6.555      1.859      2.494
REMARK INTER + INTRA:         -13.704
REMARK INTER:                 -11.091
REMARK INTRA:                  -2.613
REMARK UNBOUND:                -2.933
REMARK SMILES C[C@H]1O[C@H](OC[C@@H]2O[C@@H](Oc3c(-c4ccc(O)c(O)c4)oc4cc(O)cc(O)c4c3=O)[C@@H](O)[C@H](O)[C@@H]2O)[C@@H](O)[C@H](O)[C@H]1O
REMARK SMILES IDX 7 1 36 2 34 3 32 4 9 5 8 6 6 7 5 8 4 9 1 10 2 11 42 12 3 13
REMARK SMILES IDX 40 14 38 15 43 16 41 18 39 20 37 22 35 24 10 26 11 27 12 28
REMARK SMILES IDX 30 29 21 30 29 31 31 32 22 33 27 34 23 35 26 36 24 37 13 38
REMARK SMILES IDX 20 39 14 40 18 41 15 42 16 43 19 44 17 46 28 48 25 50 33 52
REMARK H PARENT 43 17 41 19 39 21 37 23 35 25 19 45 17 47 28 49 25 51 33 53
REMARK Flexibility Score: inf
ROOT
ATOM      1  C   UNL     1      18.145  25.523  44.252  1.00  0.00     0.180 C 
ATOM      2  C   UNL     1      18.159  27.005  44.740  1.00  0.00     0.177 C 
ATOM      3  C   UNL     1      17.608  27.103  46.189  1.00  0.00     0.180 C 
ATOM      4  C   UNL     1      16.213  26.421  46.334  1.00  0.00     0.214 C 
ATOM      5  C   UNL     1      16.010  25.345  45.243  1.00  0.00     0.339 C 
ATOM      6  O   UNL     1      17.239  24.686  44.977  1.00  0.00    -0.332 OA
ENDROOT
BRANCH   1   7
ATOM      7  C   UNL     1      17.935  25.322  42.730  1.00  0.00     0.198 C 
BRANCH   7   8
ATOM      8  O   UNL     1      19.107  25.411  41.945  1.00  0.00    -0.347 OA
BRANCH   8   9
ATOM      9  C   UNL     1      19.104  24.734  40.686  1.00  0.00     0.281 C 
ATOM     10  C   UNL     1      20.889  22.217  40.023  1.00  0.00     0.041 C 
ATOM     11  C   UNL     1      19.414  22.582  39.802  1.00  0.00     0.150 C 
ATOM     12  C   UNL     1      19.120  23.203  38.393  1.00  0.00     0.174 C 
ATOM     13  O   UNL     1      18.917  23.352  40.899  1.00  0.00    -0.344 OA
ATOM     14  C   UNL     1      17.920  24.189  38.482  1.00  0.00     0.179 C 
ATOM     15  C   UNL     1      18.133  25.261  39.575  1.00  0.00     0.202 C 
BRANCH  12  16
ATOM     16  O   UNL     1      20.254  23.878  37.907  1.00  0.00    -0.388 OA
ATOM     17  H   UNL     1      20.628  24.419  38.654  1.00  0.00     0.211 HD
ENDBRANCH  12  16
BRANCH  14  18
ATOM     18  O   UNL     1      16.689  23.522  38.688  1.00  0.00    -0.387 OA
ATOM     19  H   UNL     1      16.716  22.642  38.231  1.00  0.00     0.211 HD
ENDBRANCH  14  18
BRANCH  15  20
ATOM     20  O   UNL     1      18.673  26.415  38.988  1.00  0.00    -0.385 OA
ATOM     21  H   UNL     1      18.188  26.549  38.129  1.00  0.00     0.211 HD
ENDBRANCH  15  20
ENDBRANCH   8   9
ENDBRANCH   7   8
ENDBRANCH   1   7
BRANCH   2  22
ATOM     22  O   UNL     1      17.495  27.875  43.849  1.00  0.00    -0.387 OA
ATOM     23  H   UNL     1      16.599  28.083  44.209  1.00  0.00     0.211 HD
ENDBRANCH   2  22
BRANCH   3  24
ATOM     24  O   UNL     1      17.559  28.452  46.572  1.00  0.00    -0.387 OA
ATOM     25  H   UNL     1      17.244  28.961  45.788  1.00  0.00     0.211 HD
ENDBRANCH   3  24
BRANCH   5  26
ATOM     26  O   UNL     1      15.025  24.392  45.656  1.00  0.00    -0.454 OA
BRANCH  26  27
ATOM     27  C   UNL     1      15.139  23.009  45.421  1.00  0.00     0.214 A 
ATOM     28  C   UNL     1      14.665  22.468  44.224  1.00  0.00     0.180 A 
ATOM     29  C   UNL     1      15.734  22.127  46.350  1.00  0.00     0.239 A 
ATOM     30  O   UNL     1      14.892  21.202  43.921  1.00  0.00    -0.452 OA
ATOM     31  C   UNL     1      16.012  20.788  45.988  1.00  0.00     0.111 A 
ATOM     32  O   UNL     1      15.946  22.532  47.518  1.00  0.00    -0.285 OA
ATOM     33  C   UNL     1      15.555  20.369  44.707  1.00  0.00     0.146 A 
ATOM     34  C   UNL     1      16.748  19.856  46.788  1.00  0.00     0.134 A 
ATOM     35  C   UNL     1      15.801  19.073  44.254  1.00  0.00     0.094 A 
ATOM     36  C   UNL     1      16.972  18.559  46.305  1.00  0.00     0.093 A 
ATOM     37  C   UNL     1      16.519  18.171  45.048  1.00  0.00     0.123 A 
BRANCH  28  38
ATOM     38  C   UNL     1      13.948  23.289  43.247  1.00  0.00     0.025 A 
ATOM     39  C   UNL     1      14.661  23.926  42.219  1.00  0.00     0.062 A 
ATOM     40  C   UNL     1      12.555  23.284  43.220  1.00  0.00     0.016 A 
ATOM     41  C   UNL     1      13.980  24.497  41.127  1.00  0.00     0.158 A 
ATOM     42  C   UNL     1      11.875  23.867  42.142  1.00  0.00     0.051 A 
ATOM     43  C   UNL     1      12.588  24.427  41.070  1.00  0.00     0.157 A 
BRANCH  41  44
ATOM     44  O   UNL     1      14.711  25.039  40.079  1.00  0.00    -0.504 OA
ATOM     45  H   UNL     1      15.539  25.612  40.229  1.00  0.00     0.293 HD
ENDBRANCH  41  44
BRANCH  43  46
ATOM     46  O   UNL     1      11.908  24.885  39.940  1.00  0.00    -0.504 OA
ATOM     47  H   UNL     1      12.104  25.789  39.531  1.00  0.00     0.293 HD
ENDBRANCH  43  46
ENDBRANCH  28  38
BRANCH  34  48
ATOM     48  O   UNL     1      17.293  20.139  48.049  1.00  0.00    -0.507 OA
ATOM     49  H   UNL     1      16.898  19.889  48.933  1.00  0.00     0.293 HD
ENDBRANCH  34  48
BRANCH  37  50
ATOM     50  O   UNL     1      16.796  16.883  44.579  1.00  0.00    -0.508 OA
ATOM     51  H   UNL     1      16.466  16.065  45.063  1.00  0.00     0.293 HD
ENDBRANCH  37  50
ENDBRANCH  26  27
ENDBRANCH   5  26
BRANCH   4  52
ATOM     52  O   UNL     1      16.102  25.844  47.606  1.00  0.00    -0.384 OA
ATOM     53  H   UNL     1      16.009  26.585  48.260  1.00  0.00     0.211 HD
ENDBRANCH   4  52
TORSDOF 16
ENDMDL
MODEL 8
REMARK VINA RESULT:    -6.539      2.895      9.471
REMARK INTER + INTRA:         -13.677
REMARK INTER:                 -11.601
REMARK INTRA:                  -2.076
REMARK UNBOUND:                -2.933
REMARK SMILES C[C@H]1O[C@H](OC[C@@H]2O[C@@H](Oc3c(-c4ccc(O)c(O)c4)oc4cc(O)cc(O)c4c3=O)[C@@H](O)[C@H](O)[C@@H]2O)[C@@H](O)[C@H](O)[C@H]1O
REMARK SMILES IDX 7 1 36 2 34 3 32 4 9 5 8 6 6 7 5 8 4 9 1 10 2 11 42 12 3 13
REMARK SMILES IDX 40 14 38 15 43 16 41 18 39 20 37 22 35 24 10 26 11 27 12 28
REMARK SMILES IDX 30 29 21 30 29 31 31 32 22 33 27 34 23 35 26 36 24 37 13 38
REMARK SMILES IDX 20 39 14 40 18 41 15 42 16 43 19 44 17 46 28 48 25 50 33 52
REMARK H PARENT 43 17 41 19 39 21 37 23 35 25 19 45 17 47 28 49 25 51 33 53
REMARK Flexibility Score: inf
ROOT
ATOM      1  C   UNL     1      16.192  21.493  44.224  1.00  0.00     0.180 C 
ATOM      2  C   UNL     1      14.852  20.743  43.944  1.00  0.00     0.177 C 
ATOM      3  C   UNL     1      14.016  21.507  42.882  1.00  0.00     0.180 C 
ATOM      4  C   UNL     1      13.813  23.005  43.260  1.00  0.00     0.214 C 
ATOM      5  C   UNL     1      14.934  23.490  44.207  1.00  0.00     0.339 C 
ATOM      6  O   UNL     1      16.165  22.876  43.857  1.00  0.00    -0.332 OA
ENDROOT
BRANCH   1   7
ATOM      7  C   UNL     1      16.753  21.346  45.660  1.00  0.00     0.198 C 
BRANCH   7   8
ATOM      8  O   UNL     1      16.545  20.082  46.259  1.00  0.00    -0.347 OA
BRANCH   8   9
ATOM      9  C   UNL     1      16.301  20.059  47.667  1.00  0.00     0.281 C 
ATOM     10  C   UNL     1      18.542  20.418  49.860  1.00  0.00     0.041 C 
ATOM     11  C   UNL     1      17.135  20.996  49.651  1.00  0.00     0.150 C 
ATOM     12  C   UNL     1      16.009  20.207  50.405  1.00  0.00     0.174 C 
ATOM     13  O   UNL     1      16.877  21.202  48.261  1.00  0.00    -0.344 OA
ATOM     14  C   UNL     1      14.668  20.310  49.624  1.00  0.00     0.179 C 
ATOM     15  C   UNL     1      14.822  19.869  48.151  1.00  0.00     0.202 C 
BRANCH  12  16
ATOM     16  O   UNL     1      16.370  18.855  50.553  1.00  0.00    -0.388 OA
ATOM     17  H   UNL     1      16.664  18.721  51.494  1.00  0.00     0.211 HD
ENDBRANCH  12  16
BRANCH  14  18
ATOM     18  O   UNL     1      14.106  21.607  49.687  1.00  0.00    -0.387 OA
ATOM     19  H   UNL     1      13.529  21.673  50.492  1.00  0.00     0.211 HD
ENDBRANCH  14  18
BRANCH  15  20
ATOM     20  O   UNL     1      14.460  18.519  48.034  1.00  0.00    -0.385 OA
ATOM     21  H   UNL     1      15.198  17.993  48.446  1.00  0.00     0.211 HD
ENDBRANCH  15  20
ENDBRANCH   8   9
ENDBRANCH   7   8
ENDBRANCH   1   7
BRANCH   2  22
ATOM     22  O   UNL     1      14.121  20.483  45.123  1.00  0.00    -0.387 OA
ATOM     23  H   UNL     1      13.521  21.246  45.306  1.00  0.00     0.211 HD
ENDBRANCH   2  22
BRANCH   3  24
ATOM     24  O   UNL     1      12.786  20.853  42.707  1.00  0.00    -0.387 OA
ATOM     25  H   UNL     1      12.491  21.042  41.785  1.00  0.00     0.211 HD
ENDBRANCH   3  24
BRANCH   5  26
ATOM     26  O   UNL     1      15.065  24.915  44.141  1.00  0.00    -0.454 OA
BRANCH  26  27
ATOM     27  C   UNL     1      16.278  25.569  43.858  1.00  0.00     0.214 A 
ATOM     28  C   UNL     1      17.078  26.030  44.905  1.00  0.00     0.180 A 
ATOM     29  C   UNL     1      16.740  25.772  42.539  1.00  0.00     0.239 A 
ATOM     30  O   UNL     1      18.284  26.515  44.668  1.00  0.00    -0.452 OA
ATOM     31  C   UNL     1      18.053  26.247  42.307  1.00  0.00     0.111 A 
ATOM     32  O   UNL     1      15.946  25.593  41.585  1.00  0.00    -0.285 OA
ATOM     33  C   UNL     1      18.809  26.609  43.456  1.00  0.00     0.146 A 
ATOM     34  C   UNL     1      18.677  26.343  41.022  1.00  0.00     0.134 A 
ATOM     35  C   UNL     1      20.120  27.067  43.329  1.00  0.00     0.094 A 
ATOM     36  C   UNL     1      19.994  26.813  40.929  1.00  0.00     0.093 A 
ATOM     37  C   UNL     1      20.717  27.159  42.066  1.00  0.00     0.123 A 
BRANCH  28  38
ATOM     38  C   UNL     1      16.633  25.950  46.298  1.00  0.00     0.025 A 
ATOM     39  C   UNL     1      16.244  27.120  46.970  1.00  0.00     0.062 A 
ATOM     40  C   UNL     1      16.411  24.708  46.890  1.00  0.00     0.016 A 
ATOM     41  C   UNL     1      15.571  27.043  48.204  1.00  0.00     0.158 A 
ATOM     42  C   UNL     1      15.756  24.631  48.126  1.00  0.00     0.051 A 
ATOM     43  C   UNL     1      15.289  25.794  48.758  1.00  0.00     0.157 A 
BRANCH  41  44
ATOM     44  O   UNL     1      15.116  28.210  48.803  1.00  0.00    -0.504 OA
ATOM     45  H   UNL     1      14.600  28.922  48.291  1.00  0.00     0.293 HD
ENDBRANCH  41  44
BRANCH  43  46
ATOM     46  O   UNL     1      14.523  25.699  49.921  1.00  0.00    -0.504 OA
ATOM     47  H   UNL     1      14.721  25.011  50.635  1.00  0.00     0.293 HD
ENDBRANCH  43  46
ENDBRANCH  28  38
BRANCH  34  48
ATOM     48  O   UNL     1      18.071  25.983  39.809  1.00  0.00    -0.507 OA
ATOM     49  H   UNL     1      18.486  26.044  38.901  1.00  0.00     0.293 HD
ENDBRANCH  34  48
BRANCH  37  50
ATOM     50  O   UNL     1      22.044  27.585  41.941  1.00  0.00    -0.508 OA
ATOM     51  H   UNL     1      22.334  28.497  42.252  1.00  0.00     0.293 HD
ENDBRANCH  37  50
ENDBRANCH  26  27
ENDBRANCH   5  26
BRANCH   4  52
ATOM     52  O   UNL     1      13.796  23.786  42.096  1.00  0.00    -0.384 OA
ATOM     53  H   UNL     1      13.773  23.163  41.322  1.00  0.00     0.211 HD
ENDBRANCH   4  52
TORSDOF 16
ENDMDL
MODEL 9
REMARK VINA RESULT:    -6.523      2.158      8.392
REMARK INTER + INTRA:         -13.651
REMARK INTER:                 -12.157
REMARK INTRA:                  -1.494
REMARK UNBOUND:                -2.933
REMARK SMILES C[C@H]1O[C@H](OC[C@@H]2O[C@@H](Oc3c(-c4ccc(O)c(O)c4)oc4cc(O)cc(O)c4c3=O)[C@@H](O)[C@H](O)[C@@H]2O)[C@@H](O)[C@H](O)[C@H]1O
REMARK SMILES IDX 7 1 36 2 34 3 32 4 9 5 8 6 6 7 5 8 4 9 1 10 2 11 42 12 3 13
REMARK SMILES IDX 40 14 38 15 43 16 41 18 39 20 37 22 35 24 10 26 11 27 12 28
REMARK SMILES IDX 30 29 21 30 29 31 31 32 22 33 27 34 23 35 26 36 24 37 13 38
REMARK SMILES IDX 20 39 14 40 18 41 15 42 16 43 19 44 17 46 28 48 25 50 33 52
REMARK H PARENT 43 17 41 19 39 21 37 23 35 25 19 45 17 47 28 49 25 51 33 53
REMARK Flexibility Score: inf
ROOT
ATOM      1  C   UNL     1      15.114  22.855  43.385  1.00  0.00     0.180 C 
ATOM      2  C   UNL     1      13.732  23.432  43.826  1.00  0.00     0.177 C 
ATOM      3  C   UNL     1      13.077  24.218  42.658  1.00  0.00     0.180 C 
ATOM      4  C   UNL     1      14.033  25.298  42.067  1.00  0.00     0.214 C 
ATOM      5  C   UNL     1      15.510  24.934  42.341  1.00  0.00     0.339 C 
ATOM      6  O   UNL     1      15.686  23.528  42.260  1.00  0.00    -0.332 OA
ENDROOT
BRANCH   1   7
ATOM      7  C   UNL     1      16.173  22.725  44.509  1.00  0.00     0.198 C 
BRANCH   7   8
ATOM      8  O   UNL     1      16.973  21.561  44.448  1.00  0.00    -0.347 OA
BRANCH   8   9
ATOM      9  C   UNL     1      16.758  20.567  45.452  1.00  0.00     0.281 C 
ATOM     10  C   UNL     1      16.667  21.167  48.549  1.00  0.00     0.041 C 
ATOM     11  C   UNL     1      15.802  20.343  47.584  1.00  0.00     0.150 C 
ATOM     12  C   UNL     1      16.197  18.827  47.516  1.00  0.00     0.174 C 
ATOM     13  O   UNL     1      15.719  20.986  46.310  1.00  0.00    -0.344 OA
ATOM     14  C   UNL     1      15.877  18.253  46.106  1.00  0.00     0.179 C 
ATOM     15  C   UNL     1      16.526  19.090  44.981  1.00  0.00     0.202 C 
BRANCH  12  16
ATOM     16  O   UNL     1      17.565  18.663  47.797  1.00  0.00    -0.388 OA
ATOM     17  H   UNL     1      17.912  19.533  48.135  1.00  0.00     0.211 HD
ENDBRANCH  12  16
BRANCH  14  18
ATOM     18  O   UNL     1      14.486  18.128  45.879  1.00  0.00    -0.387 OA
ATOM     19  H   UNL     1      13.994  18.524  46.644  1.00  0.00     0.211 HD
ENDBRANCH  14  18
BRANCH  15  20
ATOM     20  O   UNL     1      17.755  18.512  44.628  1.00  0.00    -0.385 OA
ATOM     21  H   UNL     1      18.242  18.344  45.479  1.00  0.00     0.211 HD
ENDBRANCH  15  20
ENDBRANCH   8   9
ENDBRANCH   7   8
ENDBRANCH   1   7
BRANCH   2  22
ATOM     22  O   UNL     1      13.817  24.194  45.011  1.00  0.00    -0.387 OA
ATOM     23  H   UNL     1      12.913  24.506  45.259  1.00  0.00     0.211 HD
ENDBRANCH   2  22
BRANCH   3  24
ATOM     24  O   UNL     1      11.875  24.789  43.105  1.00  0.00    -0.387 OA
ATOM     25  H   UNL     1      12.114  25.619  43.582  1.00  0.00     0.211 HD
ENDBRANCH   3  24
BRANCH   5  26
ATOM     26  O   UNL     1      16.370  25.587  41.400  1.00  0.00    -0.454 OA
BRANCH  26  27
ATOM     27  C   UNL     1      17.313  24.905  40.610  1.00  0.00     0.214 A 
ATOM     28  C   UNL     1      18.653  24.873  41.002  1.00  0.00     0.180 A 
ATOM     29  C   UNL     1      16.960  24.227  39.423  1.00  0.00     0.239 A 
ATOM     30  O   UNL     1      19.526  24.120  40.356  1.00  0.00    -0.452 OA
ATOM     31  C   UNL     1      17.896  23.387  38.773  1.00  0.00     0.111 A 
ATOM     32  O   UNL     1      15.830  24.436  38.919  1.00  0.00    -0.285 OA
ATOM     33  C   UNL     1      19.212  23.369  39.312  1.00  0.00     0.146 A 
ATOM     34  C   UNL     1      17.603  22.536  37.660  1.00  0.00     0.134 A 
ATOM     35  C   UNL     1      20.198  22.556  38.753  1.00  0.00     0.094 A 
ATOM     36  C   UNL     1      18.618  21.736  37.118  1.00  0.00     0.093 A 
ATOM     37  C   UNL     1      19.898  21.731  37.662  1.00  0.00     0.123 A 
BRANCH  28  38
ATOM     38  C   UNL     1      19.126  25.629  42.163  1.00  0.00     0.025 A 
ATOM     39  C   UNL     1      20.087  26.638  41.989  1.00  0.00     0.062 A 
ATOM     40  C   UNL     1      18.492  25.484  43.396  1.00  0.00     0.016 A 
ATOM     41  C   UNL     1      20.363  27.546  43.028  1.00  0.00     0.158 A 
ATOM     42  C   UNL     1      18.778  26.378  44.437  1.00  0.00     0.051 A 
ATOM     43  C   UNL     1      19.674  27.441  44.237  1.00  0.00     0.157 A 
BRANCH  41  44
ATOM     44  O   UNL     1      21.249  28.590  42.801  1.00  0.00    -0.504 OA
ATOM     45  H   UNL     1      22.002  28.528  42.119  1.00  0.00     0.293 HD
ENDBRANCH  41  44
BRANCH  43  46
ATOM     46  O   UNL     1      19.852  28.402  45.234  1.00  0.00    -0.504 OA
ATOM     47  H   UNL     1      20.127  28.150  46.174  1.00  0.00     0.293 HD
ENDBRANCH  43  46
ENDBRANCH  28  38
BRANCH  34  48
ATOM     48  O   UNL     1      16.344  22.418  37.052  1.00  0.00    -0.507 OA
ATOM     49  H   UNL     1      15.459  22.576  37.491  1.00  0.00     0.293 HD
ENDBRANCH  34  48
BRANCH  37  50
ATOM     50  O   UNL     1      20.877  20.889  37.123  1.00  0.00    -0.508 OA
ATOM     51  H   UNL     1      20.683  20.293  36.336  1.00  0.00     0.293 HD
ENDBRANCH  37  50
ENDBRANCH  26  27
ENDBRANCH   5  26
BRANCH   4  52
ATOM     52  O   UNL     1      13.814  25.416  40.688  1.00  0.00    -0.384 OA
ATOM     53  H   UNL     1      14.683  25.653  40.270  1.00  0.00     0.211 HD
ENDBRANCH   4  52
TORSDOF 16
ENDMDL
