MODEL 1
REMARK VINA RESULT:    -2.884      0.000      0.000
REMARK INTER + INTRA:          -3.365
REMARK INTER:                  -3.473
REMARK INTRA:                   0.109
REMARK UNBOUND:                 0.109
REMARK SMILES O=c1c(O)c(-c2ccc(O)c(O)c2)oc2cc(O)cc(O)c12
REMARK SMILES IDX 5 1 3 2 2 3 1 4 22 5 20 6 19 7 17 8 16 9 15 10 14 11 6 12
REMARK SMILES IDX 7 13 8 14 9 15 13 16 11 17 10 18 12 20 4 22 21 24 18 26
REMARK H PARENT 10 19 12 21 4 23 21 25 18 27
REMARK Flexibility Score: inf
ROOT
ATOM      1  C   UNL     1       3.290  10.855  11.681  1.00  0.00     0.180 A 
ATOM      2  C   UNL     1       1.889  10.931  11.558  1.00  0.00     0.208 A 
ATOM      3  C   UNL     1       1.295  12.184  11.336  1.00  0.00     0.238 A 
ATOM      4  O   UNL     1       0.041  12.266  11.236  1.00  0.00    -0.285 OA
ATOM      5  C   UNL     1       2.107  13.331  11.220  1.00  0.00     0.111 A 
ATOM      6  C   UNL     1       1.589  14.628  10.993  1.00  0.00     0.134 A 
ATOM      7  C   UNL     1       2.465  15.718  10.880  1.00  0.00     0.093 A 
ATOM      8  C   UNL     1       3.847  15.535  10.991  1.00  0.00     0.123 A 
ATOM      9  C   UNL     1       4.364  14.258  11.216  1.00  0.00     0.094 A 
ATOM     10  C   UNL     1       3.508  13.159  11.332  1.00  0.00     0.146 A 
ATOM     11  O   UNL     1       4.026  11.956  11.552  1.00  0.00    -0.452 OA
ENDROOT
BRANCH   1  12
ATOM     12  C   UNL     1       3.989   9.574  11.934  1.00  0.00     0.025 A 
ATOM     13  C   UNL     1       3.469   8.621  12.826  1.00  0.00     0.016 A 
ATOM     14  C   UNL     1       4.158   7.430  13.068  1.00  0.00     0.051 A 
ATOM     15  C   UNL     1       5.380   7.179  12.437  1.00  0.00     0.157 A 
ATOM     16  C   UNL     1       5.228   9.330  11.319  1.00  0.00     0.062 A 
ATOM     17  C   UNL     1       5.921   8.135  11.560  1.00  0.00     0.158 A 
BRANCH  15  18
ATOM     18  O   UNL     1       6.045   5.980  12.696  1.00  0.00    -0.504 OA
ATOM     19  H   UNL     1       5.864   5.434  13.529  1.00  0.00     0.293 HD
ENDBRANCH  15  18
BRANCH  17  20
ATOM     20  O   UNL     1       7.143   7.894  10.932  1.00  0.00    -0.504 OA
ATOM     21  H   UNL     1       7.456   6.953  10.723  1.00  0.00     0.293 HD
ENDBRANCH  17  20
ENDBRANCH   1  12
BRANCH   2  22
ATOM     22  O   UNL     1       1.110   9.774  11.627  1.00  0.00    -0.502 OA
ATOM     23  H   UNL     1       1.298   8.959  11.056  1.00  0.00     0.293 HD
ENDBRANCH   2  22
BRANCH   6  24
ATOM     24  O   UNL     1       0.215  14.841  10.877  1.00  0.00    -0.507 OA
ATOM     25  H   UNL     1      -0.174  15.773  10.787  1.00  0.00     0.293 HD
ENDBRANCH   6  24
BRANCH   8  26
ATOM     26  O   UNL     1       4.718  16.617  10.878  1.00  0.00    -0.508 OA
ATOM     27  H   UNL     1       5.260  16.775  10.037  1.00  0.00     0.293 HD
ENDBRANCH   8  26
TORSDOF 6
ENDMDL
MODEL 2
REMARK VINA RESULT:    -2.001      1.572      6.884
REMARK INTER + INTRA:          -2.301
REMARK INTER:                  -2.187
REMARK INTRA:                  -0.114
REMARK UNBOUND:                 0.109
REMARK SMILES O=c1c(O)c(-c2ccc(O)c(O)c2)oc2cc(O)cc(O)c12
REMARK SMILES IDX 5 1 3 2 2 3 1 4 22 5 20 6 19 7 17 8 16 9 15 10 14 11 6 12
REMARK SMILES IDX 7 13 8 14 9 15 13 16 11 17 10 18 12 20 4 22 21 24 18 26
REMARK H PARENT 10 19 12 21 4 23 21 25 18 27
REMARK Flexibility Score: inf
ROOT
ATOM      1  C   UNL     1       3.789  10.208  12.167  1.00  0.00     0.180 A 
ATOM      2  C   UNL     1       2.988   9.332  12.926  1.00  0.00     0.208 A 
ATOM      3  C   UNL     1       3.449   8.028  13.166  1.00  0.00     0.238 A 
ATOM      4  O   UNL     1       2.736   7.232  13.834  1.00  0.00    -0.285 OA
ATOM      5  C   UNL     1       4.705   7.628  12.663  1.00  0.00     0.111 A 
ATOM      6  C   UNL     1       5.243   6.335  12.864  1.00  0.00     0.134 A 
ATOM      7  C   UNL     1       6.505   6.017  12.339  1.00  0.00     0.093 A 
ATOM      8  C   UNL     1       7.237   6.967  11.619  1.00  0.00     0.123 A 
ATOM      9  C   UNL     1       6.711   8.244  11.418  1.00  0.00     0.094 A 
ATOM     10  C   UNL     1       5.454   8.580  11.932  1.00  0.00     0.146 A 
ATOM     11  O   UNL     1       4.974   9.801  11.721  1.00  0.00    -0.452 OA
ENDROOT
BRANCH   1  12
ATOM     12  C   UNL     1       3.364  11.592  11.856  1.00  0.00     0.025 A 
ATOM     13  C   UNL     1       2.160  11.854  11.180  1.00  0.00     0.016 A 
ATOM     14  C   UNL     1       1.792  13.166  10.875  1.00  0.00     0.051 A 
ATOM     15  C   UNL     1       2.623  14.234  11.226  1.00  0.00     0.157 A 
ATOM     16  C   UNL     1       4.208  12.664  12.188  1.00  0.00     0.062 A 
ATOM     17  C   UNL     1       3.839  13.983  11.883  1.00  0.00     0.158 A 
BRANCH  15  18
ATOM     18  O   UNL     1       2.228  15.534  10.911  1.00  0.00    -0.504 OA
ATOM     19  H   UNL     1       1.253  15.803  10.859  1.00  0.00     0.293 HD
ENDBRANCH  15  18
BRANCH  17  20
ATOM     20  O   UNL     1       4.677  15.043  12.230  1.00  0.00    -0.504 OA
ATOM     21  H   UNL     1       5.667  14.904  12.394  1.00  0.00     0.293 HD
ENDBRANCH  17  20
ENDBRANCH   1  12
BRANCH   2  22
ATOM     22  O   UNL     1       1.771   9.768  13.454  1.00  0.00    -0.502 OA
ATOM     23  H   UNL     1       1.016   9.130  13.674  1.00  0.00     0.293 HD
ENDBRANCH   2  22
BRANCH   6  24
ATOM     24  O   UNL     1       4.537   5.366  13.578  1.00  0.00    -0.507 OA
ATOM     25  H   UNL     1       4.791   5.111  14.525  1.00  0.00     0.293 HD
ENDBRANCH   6  24
BRANCH   8  26
ATOM     26  O   UNL     1       8.490   6.653  11.099  1.00  0.00    -0.508 OA
ATOM     27  H   UNL     1       9.038   7.335  10.586  1.00  0.00     0.293 HD
ENDBRANCH   8  26
TORSDOF 6
ENDMDL
MODEL 3
REMARK VINA RESULT:    -1.457      1.813      7.018
REMARK INTER + INTRA:          -1.646
REMARK INTER:                  -1.807
REMARK INTRA:                   0.160
REMARK UNBOUND:                 0.109
REMARK SMILES O=c1c(O)c(-c2ccc(O)c(O)c2)oc2cc(O)cc(O)c12
REMARK SMILES IDX 5 1 3 2 2 3 1 4 22 5 20 6 19 7 17 8 16 9 15 10 14 11 6 12
REMARK SMILES IDX 7 13 8 14 9 15 13 16 11 17 10 18 12 20 4 22 21 24 18 26
REMARK H PARENT 10 19 12 21 4 23 21 25 18 27
REMARK Flexibility Score: inf
ROOT
ATOM      1  C   UNL     1       4.338   9.820  12.300  1.00  0.00     0.180 A 
ATOM      2  C   UNL     1       3.570   8.659  12.513  1.00  0.00     0.208 A 
ATOM      3  C   UNL     1       4.231   7.451  12.791  1.00  0.00     0.238 A 
ATOM      4  O   UNL     1       3.554   6.403  12.972  1.00  0.00    -0.285 OA
ATOM      5  C   UNL     1       5.638   7.428  12.873  1.00  0.00     0.111 A 
ATOM      6  C   UNL     1       6.379   6.254  13.153  1.00  0.00     0.134 A 
ATOM      7  C   UNL     1       7.778   6.316  13.226  1.00  0.00     0.093 A 
ATOM      8  C   UNL     1       8.450   7.527  13.025  1.00  0.00     0.123 A 
ATOM      9  C   UNL     1       7.724   8.686  12.748  1.00  0.00     0.094 A 
ATOM     10  C   UNL     1       6.329   8.646  12.670  1.00  0.00     0.146 A 
ATOM     11  O   UNL     1       5.663   9.764  12.399  1.00  0.00    -0.452 OA
ENDROOT
BRANCH   1  12
ATOM     12  C   UNL     1       3.717  11.127  11.983  1.00  0.00     0.025 A 
ATOM     13  C   UNL     1       2.567  11.215  11.181  1.00  0.00     0.016 A 
ATOM     14  C   UNL     1       2.013  12.460  10.875  1.00  0.00     0.051 A 
ATOM     15  C   UNL     1       2.603  13.634  11.352  1.00  0.00     0.157 A 
ATOM     16  C   UNL     1       4.322  12.308  12.443  1.00  0.00     0.062 A 
ATOM     17  C   UNL     1       3.766  13.559  12.137  1.00  0.00     0.158 A 
BRANCH  15  18
ATOM     18  O   UNL     1       2.026  14.863  11.032  1.00  0.00    -0.504 OA
ATOM     19  H   UNL     1       1.822  15.561  11.737  1.00  0.00     0.293 HD
ENDBRANCH  15  18
BRANCH  17  20
ATOM     20  O   UNL     1       4.365  14.726  12.610  1.00  0.00    -0.504 OA
ATOM     21  H   UNL     1       4.719  15.435  11.978  1.00  0.00     0.293 HD
ENDBRANCH  17  20
ENDBRANCH   1  12
BRANCH   2  22
ATOM     22  O   UNL     1       2.175   8.718  12.475  1.00  0.00    -0.502 OA
ATOM     23  H   UNL     1       1.677   9.449  11.984  1.00  0.00     0.293 HD
ENDBRANCH   2  22
BRANCH   6  24
ATOM     24  O   UNL     1       5.737   5.033  13.358  1.00  0.00    -0.507 OA
ATOM     25  H   UNL     1       5.425   4.458  12.585  1.00  0.00     0.293 HD
ENDBRANCH   6  24
BRANCH   8  26
ATOM     26  O   UNL     1       9.840   7.588  13.099  1.00  0.00    -0.508 OA
ATOM     27  H   UNL     1      10.421   7.437  12.283  1.00  0.00     0.293 HD
ENDBRANCH   8  26
TORSDOF 6
ENDMDL
