MODEL 1
REMARK VINA RESULT:    -4.452      0.000      0.000
REMARK INTER + INTRA:          -8.444
REMARK INTER:                  -7.575
REMARK INTRA:                  -0.869
REMARK UNBOUND:                -0.869
REMARK SMILES CCCCCCCCCCCCCC(=O)[O-]
REMARK SMILES IDX 8 1 9 2 10 3 11 4 12 5 13 6 14 7 15 8 16 9 7 10 6 11 5 12
REMARK SMILES IDX 4 13 3 14 2 15 1 16
REMARK H PARENT
REMARK Flexibility Score: inf
ROOT
ATOM      1  C   UNL     1      -3.429  36.552  20.620  1.00  0.00     0.000 C 
ENDROOT
BRANCH   1   2
ATOM      2  C   UNL     1      -3.238  37.879  19.876  1.00  0.00     0.000 C 
BRANCH   2   3
ATOM      3  C   UNL     1      -1.765  38.099  19.510  1.00  0.00     0.000 C 
BRANCH   3   4
ATOM      4  C   UNL     1      -1.545  37.941  17.998  1.00  0.00     0.000 C 
BRANCH   4   5
ATOM      5  C   UNL     1      -2.862  37.926  17.203  1.00  0.00     0.006 C 
BRANCH   5   6
ATOM      6  C   UNL     1      -2.984  36.765  16.202  1.00  0.00     0.053 C 
BRANCH   6   7
ATOM      7  C   UNL     1      -2.976  37.244  14.782  1.00  0.00     0.041 C 
ATOM      8  O   UNL     1      -3.909  37.972  14.354  1.00  0.00    -0.550 OA
ATOM      9  O   UNL     1      -1.920  36.913  13.943  1.00  0.00    -0.550 OA
ENDBRANCH   6   7
ENDBRANCH   5   6
ENDBRANCH   4   5
ENDBRANCH   3   4
ENDBRANCH   2   3
ENDBRANCH   1   2
BRANCH   1  10
ATOM     10  C   UNL     1      -4.597  35.752  20.024  1.00  0.00     0.000 C 
BRANCH  10  11
ATOM     11  C   UNL     1      -5.922  35.998  20.763  1.00  0.00    -0.000 C 
BRANCH  11  12
ATOM     12  C   UNL     1      -5.716  36.393  22.236  1.00  0.00    -0.000 C 
BRANCH  12  13
ATOM     13  C   UNL     1      -5.797  35.176  23.182  1.00  0.00    -0.000 C 
BRANCH  13  14
ATOM     14  C   UNL     1      -5.967  35.556  24.663  1.00  0.00    -0.000 C 
BRANCH  14  15
ATOM     15  C   UNL     1      -5.983  37.072  24.892  1.00  0.00    -0.003 C 
ATOM     16  C   UNL     1      -4.854  37.499  25.825  1.00  0.00     0.004 C 
ENDBRANCH  14  15
ENDBRANCH  13  14
ENDBRANCH  12  13
ENDBRANCH  11  12
ENDBRANCH  10  11
ENDBRANCH   1  10
TORSDOF 12
ENDMDL
MODEL 2
REMARK VINA RESULT:    -4.230      3.936      7.850
REMARK INTER + INTRA:          -8.067
REMARK INTER:                  -7.378
REMARK INTRA:                  -0.689
REMARK UNBOUND:                -0.869
REMARK SMILES CCCCCCCCCCCCCC(=O)[O-]
REMARK SMILES IDX 8 1 9 2 10 3 11 4 12 5 13 6 14 7 15 8 16 9 7 10 6 11 5 12
REMARK SMILES IDX 4 13 3 14 2 15 1 16
REMARK H PARENT
REMARK Flexibility Score: inf
ROOT
ATOM      1  C   UNL     1      -2.879  37.460  19.827  1.00  0.00     0.000 C 
ENDROOT
BRANCH   1   2
ATOM      2  C   UNL     1      -3.974  38.529  19.918  1.00  0.00     0.000 C 
BRANCH   2   3
ATOM      3  C   UNL     1      -5.348  37.892  20.162  1.00  0.00     0.000 C 
BRANCH   3   4
ATOM      4  C   UNL     1      -5.247  36.360  20.185  1.00  0.00     0.000 C 
BRANCH   4   5
ATOM      5  C   UNL     1      -5.836  35.743  21.467  1.00  0.00     0.006 C 
BRANCH   5   6
ATOM      6  C   UNL     1      -5.806  36.675  22.689  1.00  0.00     0.053 C 
BRANCH   6   7
ATOM      7  C   UNL     1      -5.849  35.912  23.978  1.00  0.00     0.041 C 
ATOM      8  O   UNL     1      -6.002  34.664  23.970  1.00  0.00    -0.550 OA
ATOM      9  O   UNL     1      -5.687  36.579  25.186  1.00  0.00    -0.550 OA
ENDBRANCH   6   7
ENDBRANCH   5   6
ENDBRANCH   4   5
ENDBRANCH   3   4
ENDBRANCH   2   3
ENDBRANCH   1   2
BRANCH   1  10
ATOM     10  C   UNL     1      -1.508  38.099  19.556  1.00  0.00     0.000 C 
BRANCH  10  11
ATOM     11  C   UNL     1      -1.040  37.902  18.106  1.00  0.00    -0.000 C 
BRANCH  11  12
ATOM     12  C   UNL     1      -2.192  37.537  17.153  1.00  0.00    -0.000 C 
BRANCH  12  13
ATOM     13  C   UNL     1      -1.732  36.599  16.017  1.00  0.00    -0.000 C 
BRANCH  13  14
ATOM     14  C   UNL     1      -2.229  37.029  14.625  1.00  0.00    -0.000 C 
BRANCH  14  15
ATOM     15  C   UNL     1      -3.722  37.376  14.605  1.00  0.00    -0.003 C 
ATOM     16  C   UNL     1      -3.941  38.841  14.240  1.00  0.00     0.004 C 
ENDBRANCH  14  15
ENDBRANCH  13  14
ENDBRANCH  12  13
ENDBRANCH  11  12
ENDBRANCH  10  11
ENDBRANCH   1  10
TORSDOF 12
ENDMDL
MODEL 3
REMARK VINA RESULT:    -4.159      3.997      8.069
REMARK INTER + INTRA:          -7.946
REMARK INTER:                  -7.083
REMARK INTRA:                  -0.863
REMARK UNBOUND:                -0.869
REMARK SMILES CCCCCCCCCCCCCC(=O)[O-]
REMARK SMILES IDX 8 1 9 2 10 3 11 4 12 5 13 6 14 7 15 8 16 9 7 10 6 11 5 12
REMARK SMILES IDX 4 13 3 14 2 15 1 16
REMARK H PARENT
REMARK Flexibility Score: inf
ROOT
ATOM      1  C   UNL     1      -5.372  37.462  20.128  1.00  0.00     0.000 C 
ENDROOT
BRANCH   1   2
ATOM      2  C   UNL     1      -5.469  36.105  20.837  1.00  0.00     0.000 C 
BRANCH   2   3
ATOM      3  C   UNL     1      -4.296  35.904  21.804  1.00  0.00     0.000 C 
BRANCH   3   4
ATOM      4  C   UNL     1      -4.730  35.089  23.032  1.00  0.00     0.000 C 
BRANCH   4   5
ATOM      5  C   UNL     1      -6.121  35.492  23.553  1.00  0.00     0.006 C 
BRANCH   5   6
ATOM      6  C   UNL     1      -6.125  36.033  24.993  1.00  0.00     0.053 C 
BRANCH   6   7
ATOM      7  C   UNL     1      -5.404  37.342  25.103  1.00  0.00     0.041 C 
ATOM      8  O   UNL     1      -5.706  38.297  24.341  1.00  0.00    -0.550 OA
ATOM      9  O   UNL     1      -4.422  37.516  26.070  1.00  0.00    -0.550 OA
ENDBRANCH   6   7
ENDBRANCH   5   6
ENDBRANCH   4   5
ENDBRANCH   3   4
ENDBRANCH   2   3
ENDBRANCH   1   2
BRANCH   1  10
ATOM     10  C   UNL     1      -3.907  37.841  19.866  1.00  0.00     0.000 C 
BRANCH  10  11
ATOM     11  C   UNL     1      -3.555  37.848  18.370  1.00  0.00    -0.000 C 
BRANCH  11  12
ATOM     12  C   UNL     1      -2.042  37.738  18.115  1.00  0.00    -0.000 C 
BRANCH  12  13
ATOM     13  C   UNL     1      -1.721  37.446  16.634  1.00  0.00    -0.000 C 
BRANCH  13  14
ATOM     14  C   UNL     1      -2.828  36.663  15.907  1.00  0.00    -0.000 C 
BRANCH  14  15
ATOM     15  C   UNL     1      -3.036  37.128  14.460  1.00  0.00    -0.003 C 
ATOM     16  C   UNL     1      -3.819  38.436  14.409  1.00  0.00     0.004 C 
ENDBRANCH  14  15
ENDBRANCH  13  14
ENDBRANCH  12  13
ENDBRANCH  11  12
ENDBRANCH  10  11
ENDBRANCH   1  10
TORSDOF 12
ENDMDL
MODEL 4
REMARK VINA RESULT:    -4.114      0.948      1.382
REMARK INTER + INTRA:          -7.869
REMARK INTER:                  -6.966
REMARK INTRA:                  -0.903
REMARK UNBOUND:                -0.869
REMARK SMILES CCCCCCCCCCCCCC(=O)[O-]
REMARK SMILES IDX 8 1 9 2 10 3 11 4 12 5 13 6 14 7 15 8 16 9 7 10 6 11 5 12
REMARK SMILES IDX 4 13 3 14 2 15 1 16
REMARK H PARENT
REMARK Flexibility Score: inf
ROOT
ATOM      1  C   UNL     1      -2.739  37.125  20.335  1.00  0.00     0.000 C 
ENDROOT
BRANCH   1   2
ATOM      2  C   UNL     1      -1.426  37.806  19.930  1.00  0.00     0.000 C 
BRANCH   2   3
ATOM      3  C   UNL     1      -1.525  38.400  18.519  1.00  0.00     0.000 C 
BRANCH   3   4
ATOM      4  C   UNL     1      -1.086  37.376  17.461  1.00  0.00     0.000 C 
BRANCH   4   5
ATOM      5  C   UNL     1      -2.228  36.974  16.510  1.00  0.00     0.006 C 
BRANCH   5   6
ATOM      6  C   UNL     1      -3.003  38.161  15.916  1.00  0.00     0.053 C 
BRANCH   6   7
ATOM      7  C   UNL     1      -3.547  37.851  14.554  1.00  0.00     0.041 C 
ATOM      8  O   UNL     1      -4.370  38.631  14.008  1.00  0.00    -0.550 OA
ATOM      9  O   UNL     1      -3.119  36.717  13.876  1.00  0.00    -0.550 OA
ENDBRANCH   6   7
ENDBRANCH   5   6
ENDBRANCH   4   5
ENDBRANCH   3   4
ENDBRANCH   2   3
ENDBRANCH   1   2
BRANCH   1  10
ATOM     10  C   UNL     1      -3.951  37.935  19.848  1.00  0.00     0.000 C 
BRANCH  10  11
ATOM     11  C   UNL     1      -5.220  37.652  20.668  1.00  0.00    -0.000 C 
BRANCH  11  12
ATOM     12  C   UNL     1      -5.626  36.168  20.641  1.00  0.00    -0.000 C 
BRANCH  12  13
ATOM     13  C   UNL     1      -5.933  35.623  22.052  1.00  0.00    -0.000 C 
BRANCH  13  14
ATOM     14  C   UNL     1      -6.076  36.722  23.119  1.00  0.00    -0.000 C 
BRANCH  14  15
ATOM     15  C   UNL     1      -5.984  36.180  24.551  1.00  0.00    -0.003 C 
ATOM     16  C   UNL     1      -5.208  37.137  25.452  1.00  0.00     0.004 C 
ENDBRANCH  14  15
ENDBRANCH  13  14
ENDBRANCH  12  13
ENDBRANCH  11  12
ENDBRANCH  10  11
ENDBRANCH   1  10
TORSDOF 12
ENDMDL
MODEL 5
REMARK VINA RESULT:    -3.355      1.844      3.139
REMARK INTER + INTRA:          -6.578
REMARK INTER:                  -5.603
REMARK INTRA:                  -0.975
REMARK UNBOUND:                -0.869
REMARK SMILES CCCCCCCCCCCCCC(=O)[O-]
REMARK SMILES IDX 8 1 9 2 10 3 11 4 12 5 13 6 14 7 15 8 16 9 7 10 6 11 5 12
REMARK SMILES IDX 4 13 3 14 2 15 1 16
REMARK H PARENT
REMARK Flexibility Score: inf
ROOT
ATOM      1  C   UNL     1      -4.760  35.572  22.286  1.00  0.00     0.000 C 
ENDROOT
BRANCH   1   2
ATOM      2  C   UNL     1      -5.737  36.375  21.418  1.00  0.00     0.000 C 
BRANCH   2   3
ATOM      3  C   UNL     1      -5.172  36.596  20.010  1.00  0.00     0.000 C 
BRANCH   3   4
ATOM      4  C   UNL     1      -4.323  37.875  19.953  1.00  0.00     0.000 C 
BRANCH   4   5
ATOM      5  C   UNL     1      -3.209  37.804  18.893  1.00  0.00     0.006 C 
BRANCH   5   6
ATOM      6  C   UNL     1      -3.488  36.818  17.747  1.00  0.00     0.053 C 
BRANCH   6   7
ATOM      7  C   UNL     1      -2.743  37.182  16.499  1.00  0.00     0.041 C 
ATOM      8  O   UNL     1      -3.121  38.157  15.798  1.00  0.00    -0.550 OA
ATOM      9  O   UNL     1      -1.612  36.465  16.129  1.00  0.00    -0.550 OA
ENDBRANCH   6   7
ENDBRANCH   5   6
ENDBRANCH   4   5
ENDBRANCH   3   4
ENDBRANCH   2   3
ENDBRANCH   1   2
BRANCH   1  10
ATOM     10  C   UNL     1      -5.449  35.064  23.562  1.00  0.00     0.000 C 
BRANCH  10  11
ATOM     11  C   UNL     1      -6.114  36.193  24.365  1.00  0.00    -0.000 C 
BRANCH  11  12
ATOM     12  C   UNL     1      -5.202  36.755  25.468  1.00  0.00    -0.000 C 
BRANCH  12  13
ATOM     13  C   UNL     1      -5.047  38.288  25.370  1.00  0.00    -0.000 C 
BRANCH  13  14
ATOM     14  C   UNL     1      -5.576  38.877  24.051  1.00  0.00    -0.000 C 
BRANCH  14  15
ATOM     15  C   UNL     1      -5.395  40.397  23.961  1.00  0.00    -0.003 C 
ATOM     16  C   UNL     1      -5.415  40.869  22.511  1.00  0.00     0.004 C 
ENDBRANCH  14  15
ENDBRANCH  13  14
ENDBRANCH  12  13
ENDBRANCH  11  12
ENDBRANCH  10  11
ENDBRANCH   1  10
TORSDOF 12
ENDMDL
MODEL 6
REMARK VINA RESULT:    -3.305      4.416      7.650
REMARK INTER + INTRA:          -6.493
REMARK INTER:                  -5.850
REMARK INTRA:                  -0.644
REMARK UNBOUND:                -0.869
REMARK SMILES CCCCCCCCCCCCCC(=O)[O-]
REMARK SMILES IDX 8 1 9 2 10 3 11 4 12 5 13 6 14 7 15 8 16 9 7 10 6 11 5 12
REMARK SMILES IDX 4 13 3 14 2 15 1 16
REMARK H PARENT
REMARK Flexibility Score: inf
ROOT
ATOM      1  C   UNL     1      -5.728  35.573  19.534  1.00  0.00     0.000 C 
ENDROOT
BRANCH   1   2
ATOM      2  C   UNL     1      -5.613  36.156  20.948  1.00  0.00     0.000 C 
BRANCH   2   3
ATOM      3  C   UNL     1      -4.634  37.336  20.980  1.00  0.00     0.000 C 
BRANCH   3   4
ATOM      4  C   UNL     1      -5.341  38.648  20.611  1.00  0.00     0.000 C 
BRANCH   4   5
ATOM      5  C   UNL     1      -5.721  39.488  21.844  1.00  0.00     0.006 C 
BRANCH   5   6
ATOM      6  C   UNL     1      -5.919  40.985  21.554  1.00  0.00     0.053 C 
BRANCH   6   7
ATOM      7  C   UNL     1      -5.872  41.811  22.803  1.00  0.00     0.041 C 
ATOM      8  O   UNL     1      -6.125  43.042  22.758  1.00  0.00    -0.550 OA
ATOM      9  O   UNL     1      -5.581  41.211  24.022  1.00  0.00    -0.550 OA
ENDBRANCH   6   7
ENDBRANCH   5   6
ENDBRANCH   4   5
ENDBRANCH   3   4
ENDBRANCH   2   3
ENDBRANCH   1   2
BRANCH   1  10
ATOM     10  C   UNL     1      -4.340  35.400  18.898  1.00  0.00     0.000 C 
BRANCH  10  11
ATOM     11  C   UNL     1      -4.234  36.070  17.518  1.00  0.00    -0.000 C 
BRANCH  11  12
ATOM     12  C   UNL     1      -3.053  37.052  17.424  1.00  0.00    -0.000 C 
BRANCH  12  13
ATOM     13  C   UNL     1      -1.965  36.562  16.446  1.00  0.00    -0.000 C 
BRANCH  13  14
ATOM     14  C   UNL     1      -2.028  37.236  15.064  1.00  0.00    -0.000 C 
BRANCH  14  15
ATOM     15  C   UNL     1      -3.433  37.207  14.450  1.00  0.00    -0.003 C 
ATOM     16  C   UNL     1      -3.951  38.619  14.196  1.00  0.00     0.004 C 
ENDBRANCH  14  15
ENDBRANCH  13  14
ENDBRANCH  12  13
ENDBRANCH  11  12
ENDBRANCH  10  11
ENDBRANCH   1  10
TORSDOF 12
ENDMDL
MODEL 7
REMARK VINA RESULT:    -3.289      2.567      4.210
REMARK INTER + INTRA:          -6.465
REMARK INTER:                  -5.333
REMARK INTRA:                  -1.132
REMARK UNBOUND:                -0.869
REMARK SMILES CCCCCCCCCCCCCC(=O)[O-]
REMARK SMILES IDX 8 1 9 2 10 3 11 4 12 5 13 6 14 7 15 8 16 9 7 10 6 11 5 12
REMARK SMILES IDX 4 13 3 14 2 15 1 16
REMARK H PARENT
REMARK Flexibility Score: inf
ROOT
ATOM      1  C   UNL     1      -5.269  35.218  23.468  1.00  0.00     0.000 C 
ENDROOT
BRANCH   1   2
ATOM      2  C   UNL     1      -4.702  35.622  22.101  1.00  0.00     0.000 C 
BRANCH   2   3
ATOM      3  C   UNL     1      -5.695  36.501  21.330  1.00  0.00     0.000 C 
BRANCH   3   4
ATOM      4  C   UNL     1      -5.294  36.616  19.852  1.00  0.00     0.000 C 
BRANCH   4   5
ATOM      5  C   UNL     1      -3.793  36.898  19.661  1.00  0.00     0.006 C 
BRANCH   5   6
ATOM      6  C   UNL     1      -3.461  37.749  18.425  1.00  0.00     0.053 C 
BRANCH   6   7
ATOM      7  C   UNL     1      -1.983  37.898  18.225  1.00  0.00     0.041 C 
ATOM      8  O   UNL     1      -1.467  37.650  17.105  1.00  0.00    -0.550 OA
ATOM      9  O   UNL     1      -1.182  38.342  19.270  1.00  0.00    -0.550 OA
ENDBRANCH   6   7
ENDBRANCH   5   6
ENDBRANCH   4   5
ENDBRANCH   3   4
ENDBRANCH   2   3
ENDBRANCH   1   2
BRANCH   1  10
ATOM     10  C   UNL     1      -5.996  36.397  24.131  1.00  0.00     0.000 C 
BRANCH  10  11
ATOM     11  C   UNL     1      -5.305  36.868  25.421  1.00  0.00    -0.000 C 
BRANCH  11  12
ATOM     12  C   UNL     1      -5.035  38.383  25.432  1.00  0.00    -0.000 C 
BRANCH  12  13
ATOM     13  C   UNL     1      -5.358  39.041  24.075  1.00  0.00    -0.000 C 
BRANCH  13  14
ATOM     14  C   UNL     1      -5.367  40.579  24.122  1.00  0.00    -0.000 C 
BRANCH  14  15
ATOM     15  C   UNL     1      -5.714  41.216  22.771  1.00  0.00    -0.003 C 
ATOM     16  C   UNL     1      -5.688  40.180  21.651  1.00  0.00     0.004 C 
ENDBRANCH  14  15
ENDBRANCH  13  14
ENDBRANCH  12  13
ENDBRANCH  11  12
ENDBRANCH  10  11
ENDBRANCH   1  10
TORSDOF 12
ENDMDL
MODEL 8
REMARK VINA RESULT:    -3.279      3.701      7.449
REMARK INTER + INTRA:          -6.448
REMARK INTER:                  -5.495
REMARK INTRA:                  -0.953
REMARK UNBOUND:                -0.869
REMARK SMILES CCCCCCCCCCCCCC(=O)[O-]
REMARK SMILES IDX 8 1 9 2 10 3 11 4 12 5 13 6 14 7 15 8 16 9 7 10 6 11 5 12
REMARK SMILES IDX 4 13 3 14 2 15 1 16
REMARK H PARENT
REMARK Flexibility Score: inf
ROOT
ATOM      1  C   UNL     1      -4.335  35.898  21.832  1.00  0.00     0.000 C 
ENDROOT
BRANCH   1   2
ATOM      2  C   UNL     1      -5.056  35.289  23.041  1.00  0.00     0.000 C 
BRANCH   2   3
ATOM      3  C   UNL     1      -6.035  36.293  23.663  1.00  0.00     0.000 C 
BRANCH   3   4
ATOM      4  C   UNL     1      -5.410  36.986  24.883  1.00  0.00     0.000 C 
BRANCH   4   5
ATOM      5  C   UNL     1      -5.254  38.505  24.691  1.00  0.00     0.006 C 
BRANCH   5   6
ATOM      6  C   UNL     1      -5.648  39.010  23.293  1.00  0.00     0.053 C 
BRANCH   6   7
ATOM      7  C   UNL     1      -5.531  40.500  23.181  1.00  0.00     0.041 C 
ATOM      8  O   UNL     1      -5.388  41.041  22.054  1.00  0.00    -0.550 OA
ATOM      9  O   UNL     1      -5.615  41.292  24.320  1.00  0.00    -0.550 OA
ENDBRANCH   6   7
ENDBRANCH   5   6
ENDBRANCH   4   5
ENDBRANCH   3   4
ENDBRANCH   2   3
ENDBRANCH   1   2
BRANCH   1  10
ATOM     10  C   UNL     1      -5.323  36.188  20.692  1.00  0.00     0.000 C 
BRANCH  10  11
ATOM     11  C   UNL     1      -4.915  37.409  19.852  1.00  0.00    -0.000 C 
BRANCH  11  12
ATOM     12  C   UNL     1      -3.390  37.547  19.705  1.00  0.00    -0.000 C 
BRANCH  12  13
ATOM     13  C   UNL     1      -2.974  37.886  18.258  1.00  0.00    -0.000 C 
BRANCH  13  14
ATOM     14  C   UNL     1      -3.148  36.714  17.276  1.00  0.00    -0.000 C 
BRANCH  14  15
ATOM     15  C   UNL     1      -2.152  36.757  16.112  1.00  0.00    -0.003 C 
ATOM     16  C   UNL     1      -2.863  37.024  14.788  1.00  0.00     0.004 C 
ENDBRANCH  14  15
ENDBRANCH  13  14
ENDBRANCH  12  13
ENDBRANCH  11  12
ENDBRANCH  10  11
ENDBRANCH   1  10
TORSDOF 12
ENDMDL
MODEL 9
REMARK VINA RESULT:    -3.137      4.202      7.440
REMARK INTER + INTRA:          -6.207
REMARK INTER:                  -5.342
REMARK INTRA:                  -0.866
REMARK UNBOUND:                -0.869
REMARK SMILES CCCCCCCCCCCCCC(=O)[O-]
REMARK SMILES IDX 8 1 9 2 10 3 11 4 12 5 13 6 14 7 15 8 16 9 7 10 6 11 5 12
REMARK SMILES IDX 4 13 3 14 2 15 1 16
REMARK H PARENT
REMARK Flexibility Score: inf
ROOT
ATOM      1  C   UNL     1      -5.410  35.127  18.725  1.00  0.00     0.000 C 
ENDROOT
BRANCH   1   2
ATOM      2  C   UNL     1      -6.084  35.673  19.990  1.00  0.00     0.000 C 
BRANCH   2   3
ATOM      3  C   UNL     1      -5.099  36.497  20.828  1.00  0.00     0.000 C 
BRANCH   3   4
ATOM      4  C   UNL     1      -4.382  35.613  21.859  1.00  0.00     0.000 C 
BRANCH   4   5
ATOM      5  C   UNL     1      -5.255  35.301  23.087  1.00  0.00     0.006 C 
BRANCH   5   6
ATOM      6  C   UNL     1      -6.124  36.477  23.562  1.00  0.00     0.053 C 
BRANCH   6   7
ATOM      7  C   UNL     1      -5.845  36.842  24.988  1.00  0.00     0.041 C 
ATOM      8  O   UNL     1      -6.125  36.038  25.914  1.00  0.00    -0.550 OA
ATOM      9  O   UNL     1      -5.245  38.058  25.290  1.00  0.00    -0.550 OA
ENDBRANCH   6   7
ENDBRANCH   5   6
ENDBRANCH   4   5
ENDBRANCH   3   4
ENDBRANCH   2   3
ENDBRANCH   1   2
BRANCH   1  10
ATOM     10  C   UNL     1      -4.020  35.751  18.531  1.00  0.00     0.000 C 
BRANCH  10  11
ATOM     11  C   UNL     1      -3.629  35.877  17.050  1.00  0.00    -0.000 C 
BRANCH  11  12
ATOM     12  C   UNL     1      -3.332  37.328  16.634  1.00  0.00    -0.000 C 
BRANCH  12  13
ATOM     13  C   UNL     1      -1.830  37.562  16.369  1.00  0.00    -0.000 C 
BRANCH  13  14
ATOM     14  C   UNL     1      -0.963  37.495  17.638  1.00  0.00    -0.000 C 
BRANCH  14  15
ATOM     15  C   UNL     1      -1.346  38.553  18.680  1.00  0.00    -0.003 C 
ATOM     16  C   UNL     1      -1.629  37.913  20.036  1.00  0.00     0.004 C 
ENDBRANCH  14  15
ENDBRANCH  13  14
ENDBRANCH  12  13
ENDBRANCH  11  12
ENDBRANCH  10  11
ENDBRANCH   1  10
TORSDOF 12
ENDMDL
