MODEL 1
REMARK VINA RESULT:    -9.567      0.000      0.000
REMARK INTER + INTRA:         -13.879
REMARK INTER:                 -13.203
REMARK INTRA:                  -0.677
REMARK UNBOUND:                -0.677
REMARK SMILES CC[C@@H](CC[C@@H](C)[C@H]1CC[C@H]2C3=CC[C@@H]4C[C@H](O)CC[C@@]4(C)[C@@H]3CC[C@]12C)C(C)C
REMARK SMILES IDX 5 1 4 2 3 3 2 4 1 5 28 6 29 7 30 8 6 9 7 10 8 11 9 12 26 13
REMARK SMILES IDX 10 14 11 15 25 16 27 17 12 18 24 19 23 20 13 21 21 22 14 23
REMARK SMILES IDX 15 24 20 25 22 26 16 27 19 28 17 29 18 30
REMARK H PARENT 18 31
REMARK Flexibility Score: inf
ROOT
ATOM      1  C   UNL     1     135.044 120.382 140.626  1.00  0.00     0.004 C 
ENDROOT
BRANCH   1   2
ATOM      2  C   UNL     1     135.412 119.761 139.254  1.00  0.00     0.004 C 
BRANCH   2   3
ATOM      3  C   UNL     1     136.558 118.715 139.330  1.00  0.00    -0.009 C 
BRANCH   3   4
ATOM      4  C   UNL     1     137.965 119.388 139.321  1.00  0.00     0.000 C 
ATOM      5  C   UNL     1     138.751 119.251 140.631  1.00  0.00     0.004 C 
ENDBRANCH   3   4
BRANCH   3   6
ATOM      6  C   UNL     1     136.408 117.596 138.237  1.00  0.00    -0.014 C 
ATOM      7  C   UNL     1     135.750 118.135 136.949  1.00  0.00     0.007 C 
ATOM      8  C   UNL     1     137.765 116.951 137.880  1.00  0.00     0.007 C 
ENDBRANCH   3   6
ENDBRANCH   2   3
ENDBRANCH   1   2
BRANCH   1   9
ATOM      9  C   UNL     1     135.195 121.929 140.712  1.00  0.00    -0.011 C 
ATOM     10  C   UNL     1     136.683 122.316 140.612  1.00  0.00     0.008 C 
BRANCH   9  11
ATOM     11  C   UNL     1     134.286 122.680 139.676  1.00  0.00    -0.002 C 
ATOM     12  C   UNL     1     132.772 122.475 139.957  1.00  0.00     0.005 C 
ATOM     13  C   UNL     1     134.439 124.225 139.548  1.00  0.00    -0.023 C 
ATOM     14  C   UNL     1     132.054 123.782 139.595  1.00  0.00     0.009 C 
ATOM     15  C   UNL     1     133.110 124.582 138.860  1.00  0.00     0.021 C 
ATOM     16  C   UNL     1     135.627 124.701 138.643  1.00  0.00     0.008 C 
ATOM     17  C   UNL     1     134.547 124.896 140.952  1.00  0.00     0.012 C 
ATOM     18  C   UNL     1     132.958 126.080 138.696  1.00  0.00    -0.067 C 
ATOM     19  C   UNL     1     135.264 125.832 137.638  1.00  0.00     0.009 C 
ATOM     20  C   UNL     1     134.184 126.826 138.166  1.00  0.00     0.021 C 
ATOM     21  C   UNL     1     131.769 126.700 138.854  1.00  0.00    -0.027 C 
ATOM     22  C   UNL     1     133.762 127.939 137.143  1.00  0.00    -0.023 C 
ATOM     23  C   UNL     1     131.496 128.104 138.372  1.00  0.00     0.031 C 
ATOM     24  C   UNL     1     132.761 128.864 137.910  1.00  0.00     0.002 C 
ATOM     25  C   UNL     1     135.001 128.783 136.718  1.00  0.00     0.010 C 
ATOM     26  C   UNL     1     133.115 127.302 135.875  1.00  0.00     0.012 C 
ATOM     27  C   UNL     1     132.390 130.137 137.121  1.00  0.00     0.036 C 
ATOM     28  C   UNL     1     134.623 130.054 135.942  1.00  0.00     0.032 C 
ATOM     29  C   UNL     1     133.648 130.933 136.736  1.00  0.00     0.114 C 
BRANCH  29  30
ATOM     30  O   UNL     1     133.294 132.040 135.950  1.00  0.00    -0.393 OA
ATOM     31  H   UNL     1     134.131 132.552 135.789  1.00  0.00     0.210 HD
ENDBRANCH  29  30
ENDBRANCH   9  11
ENDBRANCH   1   9
TORSDOF 7
ENDMDL
MODEL 2
REMARK VINA RESULT:    -9.090      3.223     10.140
REMARK INTER + INTRA:         -13.221
REMARK INTER:                 -11.596
REMARK INTRA:                  -1.625
REMARK UNBOUND:                -0.677
REMARK SMILES CC[C@@H](CC[C@@H](C)[C@H]1CC[C@H]2C3=CC[C@@H]4C[C@H](O)CC[C@@]4(C)[C@@H]3CC[C@]12C)C(C)C
REMARK SMILES IDX 5 1 4 2 3 3 2 4 1 5 28 6 29 7 30 8 6 9 7 10 8 11 9 12 26 13
REMARK SMILES IDX 10 14 11 15 25 16 27 17 12 18 24 19 23 20 13 21 21 22 14 23
REMARK SMILES IDX 15 24 20 25 22 26 16 27 19 28 17 29 18 30
REMARK H PARENT 18 31
REMARK Flexibility Score: inf
ROOT
ATOM      1  C   UNL     1     131.657 131.869 135.875  1.00  0.00     0.004 C 
ENDROOT
BRANCH   1   2
ATOM      2  C   UNL     1     131.973 133.384 135.965  1.00  0.00     0.004 C 
BRANCH   2   3
ATOM      3  C   UNL     1     131.138 134.133 137.040  1.00  0.00    -0.009 C 
BRANCH   3   4
ATOM      4  C   UNL     1     132.040 134.770 138.142  1.00  0.00     0.000 C 
ATOM      5  C   UNL     1     133.494 135.016 137.718  1.00  0.00     0.004 C 
ENDBRANCH   3   4
BRANCH   3   6
ATOM      6  C   UNL     1     129.994 133.232 137.632  1.00  0.00    -0.014 C 
ATOM      7  C   UNL     1     130.186 132.979 139.142  1.00  0.00     0.007 C 
ATOM      8  C   UNL     1     128.596 133.843 137.393  1.00  0.00     0.007 C 
ENDBRANCH   3   6
ENDBRANCH   2   3
ENDBRANCH   1   2
BRANCH   1   9
ATOM      9  C   UNL     1     132.863 130.925 136.157  1.00  0.00    -0.011 C 
ATOM     10  C   UNL     1     134.165 131.746 136.226  1.00  0.00     0.008 C 
BRANCH   9  11
ATOM     11  C   UNL     1     132.633 130.018 137.418  1.00  0.00    -0.002 C 
ATOM     12  C   UNL     1     131.125 129.812 137.733  1.00  0.00     0.005 C 
ATOM     13  C   UNL     1     133.215 128.573 137.399  1.00  0.00    -0.023 C 
ATOM     14  C   UNL     1     130.958 128.383 138.268  1.00  0.00     0.009 C 
ATOM     15  C   UNL     1     132.379 127.920 138.513  1.00  0.00     0.021 C 
ATOM     16  C   UNL     1     134.734 128.464 137.769  1.00  0.00     0.008 C 
ATOM     17  C   UNL     1     132.959 127.883 136.023  1.00  0.00     0.012 C 
ATOM     18  C   UNL     1     132.690 126.444 138.644  1.00  0.00    -0.067 C 
ATOM     19  C   UNL     1     135.076 127.330 138.777  1.00  0.00     0.009 C 
ATOM     20  C   UNL     1     134.172 126.066 138.638  1.00  0.00     0.021 C 
ATOM     21  C   UNL     1     131.731 125.531 138.909  1.00  0.00    -0.027 C 
ATOM     22  C   UNL     1     134.465 124.934 139.686  1.00  0.00    -0.023 C 
ATOM     23  C   UNL     1     132.029 124.130 139.384  1.00  0.00     0.031 C 
ATOM     24  C   UNL     1     133.524 123.746 139.301  1.00  0.00     0.002 C 
ATOM     25  C   UNL     1     135.945 124.460 139.573  1.00  0.00     0.010 C 
ATOM     26  C   UNL     1     134.197 125.445 141.135  1.00  0.00     0.012 C 
ATOM     27  C   UNL     1     133.816 122.460 140.104  1.00  0.00     0.036 C 
ATOM     28  C   UNL     1     136.224 123.174 140.367  1.00  0.00     0.032 C 
ATOM     29  C   UNL     1     135.285 122.036 139.949  1.00  0.00     0.114 C 
BRANCH  29  30
ATOM     30  O   UNL     1     135.548 120.915 140.752  1.00  0.00    -0.393 OA
ATOM     31  H   UNL     1     136.063 120.278 140.189  1.00  0.00     0.210 HD
ENDBRANCH  29  30
ENDBRANCH   9  11
ENDBRANCH   1   9
TORSDOF 7
ENDMDL
MODEL 3
REMARK VINA RESULT:    -9.074      1.575      2.388
REMARK INTER + INTRA:         -13.198
REMARK INTER:                 -12.102
REMARK INTRA:                  -1.096
REMARK UNBOUND:                -0.677
REMARK SMILES CC[C@@H](CC[C@@H](C)[C@H]1CC[C@H]2C3=CC[C@@H]4C[C@H](O)CC[C@@]4(C)[C@@H]3CC[C@]12C)C(C)C
REMARK SMILES IDX 5 1 4 2 3 3 2 4 1 5 28 6 29 7 30 8 6 9 7 10 8 11 9 12 26 13
REMARK SMILES IDX 10 14 11 15 25 16 27 17 12 18 24 19 23 20 13 21 21 22 14 23
REMARK SMILES IDX 15 24 20 25 22 26 16 27 19 28 17 29 18 30
REMARK H PARENT 18 31
REMARK Flexibility Score: inf
ROOT
ATOM      1  C   UNL     1     134.167 121.848 139.973  1.00  0.00     0.004 C 
ENDROOT
BRANCH   1   2
ATOM      2  C   UNL     1     135.124 121.203 141.007  1.00  0.00     0.004 C 
BRANCH   2   3
ATOM      3  C   UNL     1     136.022 120.083 140.413  1.00  0.00    -0.009 C 
BRANCH   3   4
ATOM      4  C   UNL     1     137.525 120.499 140.371  1.00  0.00     0.000 C 
ATOM      5  C   UNL     1     138.514 119.356 140.628  1.00  0.00     0.004 C 
ENDBRANCH   3   4
BRANCH   3   6
ATOM      6  C   UNL     1     135.489 119.574 139.025  1.00  0.00    -0.014 C 
ATOM      7  C   UNL     1     136.459 119.922 137.875  1.00  0.00     0.007 C 
ATOM      8  C   UNL     1     135.230 118.052 139.027  1.00  0.00     0.007 C 
ENDBRANCH   3   6
ENDBRANCH   2   3
ENDBRANCH   1   2
BRANCH   1   9
ATOM      9  C   UNL     1     134.438 123.352 139.670  1.00  0.00    -0.011 C 
ATOM     10  C   UNL     1     135.697 123.491 138.792  1.00  0.00     0.008 C 
BRANCH   9  11
ATOM     11  C   UNL     1     133.181 124.080 139.074  1.00  0.00    -0.002 C 
ATOM     12  C   UNL     1     131.866 123.683 139.800  1.00  0.00     0.005 C 
ATOM     13  C   UNL     1     133.162 125.638 139.084  1.00  0.00    -0.023 C 
ATOM     14  C   UNL     1     130.969 124.927 139.841  1.00  0.00     0.009 C 
ATOM     15  C   UNL     1     131.656 125.899 138.904  1.00  0.00     0.021 C 
ATOM     16  C   UNL     1     133.943 126.319 137.908  1.00  0.00     0.008 C 
ATOM     17  C   UNL     1     133.674 126.197 140.448  1.00  0.00     0.012 C 
ATOM     18  C   UNL     1     131.341 127.379 138.973  1.00  0.00    -0.067 C 
ATOM     19  C   UNL     1     133.180 127.481 137.210  1.00  0.00     0.009 C 
ATOM     20  C   UNL     1     132.261 128.300 138.168  1.00  0.00     0.021 C 
ATOM     21  C   UNL     1     130.227 127.847 139.574  1.00  0.00    -0.027 C 
ATOM     22  C   UNL     1     131.438 129.440 137.471  1.00  0.00    -0.023 C 
ATOM     23  C   UNL     1     129.700 129.247 139.372  1.00  0.00     0.031 C 
ATOM     24  C   UNL     1     130.677 130.179 138.619  1.00  0.00     0.002 C 
ATOM     25  C   UNL     1     132.397 130.451 136.772  1.00  0.00     0.010 C 
ATOM     26  C   UNL     1     130.461 128.843 136.412  1.00  0.00     0.012 C 
ATOM     27  C   UNL     1     129.967 131.465 138.144  1.00  0.00     0.036 C 
ATOM     28  C   UNL     1     131.684 131.732 136.311  1.00  0.00     0.032 C 
ATOM     29  C   UNL     1     130.961 132.426 137.472  1.00  0.00     0.114 C 
BRANCH  29  30
ATOM     30  O   UNL     1     130.281 133.549 136.975  1.00  0.00    -0.393 OA
ATOM     31  H   UNL     1     129.619 133.810 137.668  1.00  0.00     0.210 HD
ENDBRANCH  29  30
ENDBRANCH   9  11
ENDBRANCH   1   9
TORSDOF 7
ENDMDL
MODEL 4
REMARK VINA RESULT:    -8.992      2.622      4.037
REMARK INTER + INTRA:         -13.086
REMARK INTER:                 -12.112
REMARK INTRA:                  -0.974
REMARK UNBOUND:                -0.677
REMARK SMILES CC[C@@H](CC[C@@H](C)[C@H]1CC[C@H]2C3=CC[C@@H]4C[C@H](O)CC[C@@]4(C)[C@@H]3CC[C@]12C)C(C)C
REMARK SMILES IDX 5 1 4 2 3 3 2 4 1 5 28 6 29 7 30 8 6 9 7 10 8 11 9 12 26 13
REMARK SMILES IDX 10 14 11 15 25 16 27 17 12 18 24 19 23 20 13 21 21 22 14 23
REMARK SMILES IDX 15 24 20 25 22 26 16 27 19 28 17 29 18 30
REMARK H PARENT 18 31
REMARK Flexibility Score: inf
ROOT
ATOM      1  C   UNL     1     135.987 121.455 139.288  1.00  0.00     0.004 C 
ENDROOT
BRANCH   1   2
ATOM      2  C   UNL     1     136.175 120.237 138.349  1.00  0.00     0.004 C 
BRANCH   2   3
ATOM      3  C   UNL     1     136.767 118.988 139.058  1.00  0.00    -0.009 C 
BRANCH   3   4
ATOM      4  C   UNL     1     138.244 119.215 139.507  1.00  0.00     0.000 C 
ATOM      5  C   UNL     1     138.426 119.466 141.009  1.00  0.00     0.004 C 
ENDBRANCH   3   4
BRANCH   3   6
ATOM      6  C   UNL     1     136.582 117.682 138.204  1.00  0.00    -0.014 C 
ATOM      7  C   UNL     1     135.684 117.923 136.972  1.00  0.00     0.007 C 
ATOM      8  C   UNL     1     137.934 117.099 137.739  1.00  0.00     0.007 C 
ENDBRANCH   3   6
ENDBRANCH   2   3
ENDBRANCH   1   2
BRANCH   1   9
ATOM      9  C   UNL     1     134.510 121.778 139.662  1.00  0.00    -0.011 C 
ATOM     10  C   UNL     1     133.873 120.568 140.371  1.00  0.00     0.008 C 
BRANCH   9  11
ATOM     11  C   UNL     1     134.375 123.116 140.474  1.00  0.00    -0.002 C 
ATOM     12  C   UNL     1     135.639 124.012 140.355  1.00  0.00     0.005 C 
ATOM     13  C   UNL     1     133.199 124.074 140.121  1.00  0.00    -0.023 C 
ATOM     14  C   UNL     1     135.169 125.472 140.346  1.00  0.00     0.009 C 
ATOM     15  C   UNL     1     133.710 125.385 140.744  1.00  0.00     0.021 C 
ATOM     16  C   UNL     1     131.822 123.702 140.770  1.00  0.00     0.008 C 
ATOM     17  C   UNL     1     133.032 124.211 138.576  1.00  0.00     0.012 C 
ATOM     18  C   UNL     1     132.769 126.536 140.457  1.00  0.00    -0.067 C 
ATOM     19  C   UNL     1     131.061 124.900 141.406  1.00  0.00     0.009 C 
ATOM     20  C   UNL     1     131.280 126.255 140.665  1.00  0.00     0.021 C 
ATOM     21  C   UNL     1     133.221 127.779 140.187  1.00  0.00    -0.027 C 
ATOM     22  C   UNL     1     130.566 127.486 141.327  1.00  0.00    -0.023 C 
ATOM     23  C   UNL     1     132.346 129.008 140.238  1.00  0.00     0.031 C 
ATOM     24  C   UNL     1     130.838 128.697 140.376  1.00  0.00     0.002 C 
ATOM     25  C   UNL     1     129.029 127.245 141.406  1.00  0.00     0.010 C 
ATOM     26  C   UNL     1     131.121 127.736 142.763  1.00  0.00     0.012 C 
ATOM     27  C   UNL     1     130.041 129.961 140.764  1.00  0.00     0.036 C 
ATOM     28  C   UNL     1     128.242 128.509 141.782  1.00  0.00     0.032 C 
ATOM     29  C   UNL     1     128.533 129.666 140.817  1.00  0.00     0.114 C 
BRANCH  29  30
ATOM     30  O   UNL     1     127.836 130.803 141.251  1.00  0.00    -0.393 OA
ATOM     31  H   UNL     1     128.486 131.555 141.245  1.00  0.00     0.210 HD
ENDBRANCH  29  30
ENDBRANCH   9  11
ENDBRANCH   1   9
TORSDOF 7
ENDMDL
MODEL 5
REMARK VINA RESULT:    -8.879      2.996      5.728
REMARK INTER + INTRA:         -12.930
REMARK INTER:                 -11.452
REMARK INTRA:                  -1.478
REMARK UNBOUND:                -0.677
REMARK SMILES CC[C@@H](CC[C@@H](C)[C@H]1CC[C@H]2C3=CC[C@@H]4C[C@H](O)CC[C@@]4(C)[C@@H]3CC[C@]12C)C(C)C
REMARK SMILES IDX 5 1 4 2 3 3 2 4 1 5 28 6 29 7 30 8 6 9 7 10 8 11 9 12 26 13
REMARK SMILES IDX 10 14 11 15 25 16 27 17 12 18 24 19 23 20 13 21 21 22 14 23
REMARK SMILES IDX 15 24 20 25 22 26 16 27 19 28 17 29 18 30
REMARK H PARENT 18 31
REMARK Flexibility Score: inf
ROOT
ATOM      1  C   UNL     1     131.702 123.783 139.406  1.00  0.00     0.004 C 
ENDROOT
BRANCH   1   2
ATOM      2  C   UNL     1     132.578 122.955 140.380  1.00  0.00     0.004 C 
BRANCH   2   3
ATOM      3  C   UNL     1     133.885 122.414 139.737  1.00  0.00    -0.009 C 
BRANCH   3   4
ATOM      4  C   UNL     1     134.245 120.988 140.256  1.00  0.00     0.000 C 
ATOM      5  C   UNL     1     135.503 120.375 139.628  1.00  0.00     0.004 C 
ENDBRANCH   3   4
BRANCH   3   6
ATOM      6  C   UNL     1     135.074 123.433 139.874  1.00  0.00    -0.014 C 
ATOM      7  C   UNL     1     135.381 124.140 138.537  1.00  0.00     0.007 C 
ATOM      8  C   UNL     1     134.801 124.497 140.959  1.00  0.00     0.007 C 
ENDBRANCH   3   6
ENDBRANCH   2   3
ENDBRANCH   1   2
BRANCH   1   9
ATOM      9  C   UNL     1     130.905 124.949 140.064  1.00  0.00    -0.011 C 
ATOM     10  C   UNL     1     130.752 124.692 141.575  1.00  0.00     0.008 C 
BRANCH   9  11
ATOM     11  C   UNL     1     131.517 126.356 139.732  1.00  0.00    -0.002 C 
ATOM     12  C   UNL     1     132.457 126.317 138.495  1.00  0.00     0.005 C 
ATOM     13  C   UNL     1     130.539 127.529 139.426  1.00  0.00    -0.023 C 
ATOM     14  C   UNL     1     132.283 127.643 137.743  1.00  0.00     0.009 C 
ATOM     15  C   UNL     1     131.487 128.502 138.704  1.00  0.00     0.021 C 
ATOM     16  C   UNL     1     129.939 128.240 140.687  1.00  0.00     0.008 C 
ATOM     17  C   UNL     1     129.383 127.064 138.486  1.00  0.00     0.012 C 
ATOM     18  C   UNL     1     130.746 129.724 138.203  1.00  0.00    -0.067 C 
ATOM     19  C   UNL     1     129.962 129.794 140.627  1.00  0.00     0.009 C 
ATOM     20  C   UNL     1     129.776 130.375 139.191  1.00  0.00     0.021 C 
ATOM     21  C   UNL     1     131.036 130.301 137.017  1.00  0.00    -0.027 C 
ATOM     22  C   UNL     1     129.855 131.940 139.103  1.00  0.00    -0.023 C 
ATOM     23  C   UNL     1     130.582 131.690 136.637  1.00  0.00     0.031 C 
ATOM     24  C   UNL     1     129.548 132.298 137.612  1.00  0.00     0.002 C 
ATOM     25  C   UNL     1     128.767 132.591 140.009  1.00  0.00     0.010 C 
ATOM     26  C   UNL     1     131.263 132.445 139.546  1.00  0.00     0.012 C 
ATOM     27  C   UNL     1     129.383 133.814 137.376  1.00  0.00     0.036 C 
ATOM     28  C   UNL     1     128.603 134.098 139.762  1.00  0.00     0.032 C 
ATOM     29  C   UNL     1     128.294 134.398 138.289  1.00  0.00     0.114 C 
BRANCH  29  30
ATOM     30  O   UNL     1     128.218 135.789 138.119  1.00  0.00    -0.393 OA
ATOM     31  H   UNL     1     128.414 135.969 137.161  1.00  0.00     0.210 HD
ENDBRANCH  29  30
ENDBRANCH   9  11
ENDBRANCH   1   9
TORSDOF 7
ENDMDL
MODEL 6
REMARK VINA RESULT:    -8.753      3.083      9.705
REMARK INTER + INTRA:         -12.756
REMARK INTER:                 -11.444
REMARK INTRA:                  -1.312
REMARK UNBOUND:                -0.677
REMARK SMILES CC[C@@H](CC[C@@H](C)[C@H]1CC[C@H]2C3=CC[C@@H]4C[C@H](O)CC[C@@]4(C)[C@@H]3CC[C@]12C)C(C)C
REMARK SMILES IDX 5 1 4 2 3 3 2 4 1 5 28 6 29 7 30 8 6 9 7 10 8 11 9 12 26 13
REMARK SMILES IDX 10 14 11 15 25 16 27 17 12 18 24 19 23 20 13 21 21 22 14 23
REMARK SMILES IDX 15 24 20 25 22 26 16 27 19 28 17 29 18 30
REMARK H PARENT 18 31
REMARK Flexibility Score: inf
ROOT
ATOM      1  C   UNL     1     132.220 129.405 135.906  1.00  0.00     0.004 C 
ENDROOT
BRANCH   1   2
ATOM      2  C   UNL     1     132.225 130.954 135.875  1.00  0.00     0.004 C 
BRANCH   2   3
ATOM      3  C   UNL     1     131.682 131.607 137.176  1.00  0.00    -0.009 C 
BRANCH   3   4
ATOM      4  C   UNL     1     130.160 131.331 137.377  1.00  0.00     0.000 C 
ATOM      5  C   UNL     1     129.429 132.363 138.245  1.00  0.00     0.004 C 
ENDBRANCH   3   4
BRANCH   3   6
ATOM      6  C   UNL     1     132.044 133.133 137.266  1.00  0.00    -0.014 C 
ATOM      7  C   UNL     1     133.208 133.391 138.247  1.00  0.00     0.007 C 
ATOM      8  C   UNL     1     132.404 133.724 135.886  1.00  0.00     0.007 C 
ENDBRANCH   3   6
ENDBRANCH   2   3
ENDBRANCH   1   2
BRANCH   1   9
ATOM      9  C   UNL     1     133.588 128.747 136.256  1.00  0.00    -0.011 C 
ATOM     10  C   UNL     1     134.701 129.812 136.240  1.00  0.00     0.008 C 
BRANCH   9  11
ATOM     11  C   UNL     1     133.533 127.924 137.592  1.00  0.00    -0.002 C 
ATOM     12  C   UNL     1     132.087 127.779 138.141  1.00  0.00     0.005 C 
ATOM     13  C   UNL     1     134.079 126.465 137.579  1.00  0.00    -0.023 C 
ATOM     14  C   UNL     1     131.976 126.391 138.786  1.00  0.00     0.009 C 
ATOM     15  C   UNL     1     133.409 125.905 138.845  1.00  0.00     0.021 C 
ATOM     16  C   UNL     1     135.635 126.337 137.723  1.00  0.00     0.008 C 
ATOM     17  C   UNL     1     133.606 125.701 136.303  1.00  0.00     0.012 C 
ATOM     18  C   UNL     1     133.709 124.431 139.022  1.00  0.00    -0.067 C 
ATOM     19  C   UNL     1     136.104 125.256 138.740  1.00  0.00     0.009 C 
ATOM     20  C   UNL     1     135.166 124.012 138.819  1.00  0.00     0.021 C 
ATOM     21  C   UNL     1     132.784 123.563 139.485  1.00  0.00    -0.027 C 
ATOM     22  C   UNL     1     135.592 122.938 139.881  1.00  0.00    -0.023 C 
ATOM     23  C   UNL     1     133.124 122.185 139.999  1.00  0.00     0.031 C 
ATOM     24  C   UNL     1     134.583 121.755 139.718  1.00  0.00     0.002 C 
ATOM     25  C   UNL     1     137.030 122.416 139.579  1.00  0.00     0.010 C 
ATOM     26  C   UNL     1     135.556 123.543 141.318  1.00  0.00     0.012 C 
ATOM     27  C   UNL     1     134.968 120.513 140.549  1.00  0.00     0.036 C 
ATOM     28  C   UNL     1     137.402 121.174 140.403  1.00  0.00     0.032 C 
ATOM     29  C   UNL     1     136.389 120.039 140.204  1.00  0.00     0.114 C 
BRANCH  29  30
ATOM     30  O   UNL     1     136.750 118.962 141.028  1.00  0.00    -0.393 OA
ATOM     31  H   UNL     1     136.433 118.138 140.573  1.00  0.00     0.210 HD
ENDBRANCH  29  30
ENDBRANCH   9  11
ENDBRANCH   1   9
TORSDOF 7
ENDMDL
MODEL 7
REMARK VINA RESULT:    -8.646      3.889     10.451
REMARK INTER + INTRA:         -12.607
REMARK INTER:                 -10.638
REMARK INTRA:                  -1.969
REMARK UNBOUND:                -0.677
REMARK SMILES CC[C@@H](CC[C@@H](C)[C@H]1CC[C@H]2C3=CC[C@@H]4C[C@H](O)CC[C@@]4(C)[C@@H]3CC[C@]12C)C(C)C
REMARK SMILES IDX 5 1 4 2 3 3 2 4 1 5 28 6 29 7 30 8 6 9 7 10 8 11 9 12 26 13
REMARK SMILES IDX 10 14 11 15 25 16 27 17 12 18 24 19 23 20 13 21 21 22 14 23
REMARK SMILES IDX 15 24 20 25 22 26 16 27 19 28 17 29 18 30
REMARK H PARENT 18 31
REMARK Flexibility Score: inf
ROOT
ATOM      1  C   UNL     1     129.184 132.826 137.330  1.00  0.00     0.004 C 
ENDROOT
BRANCH   1   2
ATOM      2  C   UNL     1     129.843 134.213 137.123  1.00  0.00     0.004 C 
BRANCH   2   3
ATOM      3  C   UNL     1     131.228 134.356 137.812  1.00  0.00    -0.009 C 
BRANCH   3   4
ATOM      4  C   UNL     1     131.249 135.523 138.847  1.00  0.00     0.000 C 
ATOM      5  C   UNL     1     129.917 135.763 139.570  1.00  0.00     0.004 C 
ENDBRANCH   3   4
BRANCH   3   6
ATOM      6  C   UNL     1     132.400 134.444 136.768  1.00  0.00    -0.014 C 
ATOM      7  C   UNL     1     133.765 134.664 137.454  1.00  0.00     0.007 C 
ATOM      8  C   UNL     1     132.477 133.184 135.879  1.00  0.00     0.007 C 
ENDBRANCH   3   6
ENDBRANCH   2   3
ENDBRANCH   1   2
BRANCH   1   9
ATOM      9  C   UNL     1     129.793 131.971 138.480  1.00  0.00    -0.011 C 
ATOM     10  C   UNL     1     128.926 132.102 139.747  1.00  0.00     0.008 C 
BRANCH   9  11
ATOM     11  C   UNL     1     130.047 130.482 138.052  1.00  0.00    -0.002 C 
ATOM     12  C   UNL     1     130.098 130.309 136.508  1.00  0.00     0.005 C 
ATOM     13  C   UNL     1     131.347 129.784 138.552  1.00  0.00    -0.023 C 
ATOM     14  C   UNL     1     131.140 129.226 136.200  1.00  0.00     0.009 C 
ATOM     15  C   UNL     1     131.439 128.617 137.555  1.00  0.00     0.021 C 
ATOM     16  C   UNL     1     131.272 129.208 140.008  1.00  0.00     0.008 C 
ATOM     17  C   UNL     1     132.577 130.734 138.426  1.00  0.00     0.012 C 
ATOM     18  C   UNL     1     132.701 127.808 137.767  1.00  0.00    -0.067 C 
ATOM     19  C   UNL     1     131.838 127.767 140.165  1.00  0.00     0.009 C 
ATOM     20  C   UNL     1     133.036 127.451 139.217  1.00  0.00     0.021 C 
ATOM     21  C   UNL     1     133.405 127.295 136.735  1.00  0.00    -0.027 C 
ATOM     22  C   UNL     1     133.581 125.983 139.319  1.00  0.00    -0.023 C 
ATOM     23  C   UNL     1     134.448 126.216 136.897  1.00  0.00     0.031 C 
ATOM     24  C   UNL     1     134.821 125.923 138.369  1.00  0.00     0.002 C 
ATOM     25  C   UNL     1     134.050 125.679 140.774  1.00  0.00     0.010 C 
ATOM     26  C   UNL     1     132.481 124.957 138.909  1.00  0.00     0.012 C 
ATOM     27  C   UNL     1     135.614 124.605 138.491  1.00  0.00     0.036 C 
ATOM     28  C   UNL     1     134.846 124.370 140.886  1.00  0.00     0.032 C 
ATOM     29  C   UNL     1     136.056 124.361 139.943  1.00  0.00     0.114 C 
BRANCH  29  30
ATOM     30  O   UNL     1     136.702 123.120 140.047  1.00  0.00    -0.393 OA
ATOM     31  H   UNL     1     136.224 122.610 140.753  1.00  0.00     0.210 HD
ENDBRANCH  29  30
ENDBRANCH   9  11
ENDBRANCH   1   9
TORSDOF 7
ENDMDL
MODEL 8
REMARK VINA RESULT:    -8.632      5.938     10.851
REMARK INTER + INTRA:         -12.588
REMARK INTER:                 -10.884
REMARK INTRA:                  -1.705
REMARK UNBOUND:                -0.677
REMARK SMILES CC[C@@H](CC[C@@H](C)[C@H]1CC[C@H]2C3=CC[C@@H]4C[C@H](O)CC[C@@]4(C)[C@@H]3CC[C@]12C)C(C)C
REMARK SMILES IDX 5 1 4 2 3 3 2 4 1 5 28 6 29 7 30 8 6 9 7 10 8 11 9 12 26 13
REMARK SMILES IDX 10 14 11 15 25 16 27 17 12 18 24 19 23 20 13 21 21 22 14 23
REMARK SMILES IDX 15 24 20 25 22 26 16 27 19 28 17 29 18 30
REMARK H PARENT 18 31
REMARK Flexibility Score: inf
ROOT
ATOM      1  C   UNL     1     131.608 133.290 136.204  1.00  0.00     0.004 C 
ENDROOT
BRANCH   1   2
ATOM      2  C   UNL     1     132.417 134.612 136.204  1.00  0.00     0.004 C 
BRANCH   2   3
ATOM      3  C   UNL     1     133.784 134.507 136.935  1.00  0.00    -0.009 C 
BRANCH   3   4
ATOM      4  C   UNL     1     134.340 133.050 136.928  1.00  0.00     0.000 C 
ATOM      5  C   UNL     1     135.516 132.816 135.971  1.00  0.00     0.004 C 
ENDBRANCH   3   4
BRANCH   3   6
ATOM      6  C   UNL     1     133.732 135.135 138.375  1.00  0.00    -0.014 C 
ATOM      7  C   UNL     1     132.462 135.987 138.584  1.00  0.00     0.007 C 
ATOM      8  C   UNL     1     133.808 134.058 139.478  1.00  0.00     0.007 C 
ENDBRANCH   3   6
ENDBRANCH   2   3
ENDBRANCH   1   2
BRANCH   1   9
ATOM      9  C   UNL     1     130.605 133.130 137.385  1.00  0.00    -0.011 C 
ATOM     10  C   UNL     1     129.521 134.221 137.303  1.00  0.00     0.008 C 
BRANCH   9  11
ATOM     11  C   UNL     1     130.019 131.677 137.482  1.00  0.00    -0.002 C 
ATOM     12  C   UNL     1     130.304 130.836 136.207  1.00  0.00     0.005 C 
ATOM     13  C   UNL     1     130.501 130.766 138.650  1.00  0.00    -0.023 C 
ATOM     14  C   UNL     1     130.541 129.387 136.654  1.00  0.00     0.009 C 
ATOM     15  C   UNL     1     130.108 129.382 138.105  1.00  0.00     0.021 C 
ATOM     16  C   UNL     1     129.776 131.002 140.019  1.00  0.00     0.008 C 
ATOM     17  C   UNL     1     132.045 130.878 138.847  1.00  0.00     0.012 C 
ATOM     18  C   UNL     1     130.562 128.275 139.034  1.00  0.00    -0.067 C 
ATOM     19  C   UNL     1     129.328 129.702 140.748  1.00  0.00     0.009 C 
ATOM     20  C   UNL     1     130.284 128.489 140.523  1.00  0.00     0.021 C 
ATOM     21  C   UNL     1     131.037 127.100 138.568  1.00  0.00    -0.027 C 
ATOM     22  C   UNL     1     129.817 127.154 141.203  1.00  0.00    -0.023 C 
ATOM     23  C   UNL     1     131.171 125.863 139.422  1.00  0.00     0.031 C 
ATOM     24  C   UNL     1     130.957 126.119 140.932  1.00  0.00     0.002 C 
ATOM     25  C   UNL     1     129.673 127.351 142.742  1.00  0.00     0.010 C 
ATOM     26  C   UNL     1     128.451 126.686 140.614  1.00  0.00     0.012 C 
ATOM     27  C   UNL     1     130.765 124.794 141.701  1.00  0.00     0.036 C 
ATOM     28  C   UNL     1     129.492 126.027 143.501  1.00  0.00     0.032 C 
ATOM     29  C   UNL     1     130.637 125.048 143.211  1.00  0.00     0.114 C 
BRANCH  29  30
ATOM     30  O   UNL     1     130.381 123.842 143.882  1.00  0.00    -0.393 OA
ATOM     31  H   UNL     1     130.643 123.111 143.262  1.00  0.00     0.210 HD
ENDBRANCH  29  30
ENDBRANCH   9  11
ENDBRANCH   1   9
TORSDOF 7
ENDMDL
MODEL 9
REMARK VINA RESULT:    -8.469      4.866     11.011
REMARK INTER + INTRA:         -12.364
REMARK INTER:                 -10.518
REMARK INTRA:                  -1.846
REMARK UNBOUND:                -0.677
REMARK SMILES CC[C@@H](CC[C@@H](C)[C@H]1CC[C@H]2C3=CC[C@@H]4C[C@H](O)CC[C@@]4(C)[C@@H]3CC[C@]12C)C(C)C
REMARK SMILES IDX 5 1 4 2 3 3 2 4 1 5 28 6 29 7 30 8 6 9 7 10 8 11 9 12 26 13
REMARK SMILES IDX 10 14 11 15 25 16 27 17 12 18 24 19 23 20 13 21 21 22 14 23
REMARK SMILES IDX 15 24 20 25 22 26 16 27 19 28 17 29 18 30
REMARK H PARENT 18 31
REMARK Flexibility Score: inf
ROOT
ATOM      1  C   UNL     1     130.785 134.669 138.170  1.00  0.00     0.004 C 
ENDROOT
BRANCH   1   2
ATOM      2  C   UNL     1     131.566 135.664 139.066  1.00  0.00     0.004 C 
BRANCH   2   3
ATOM      3  C   UNL     1     133.109 135.560 138.917  1.00  0.00    -0.009 C 
BRANCH   3   4
ATOM      4  C   UNL     1     133.521 134.855 137.588  1.00  0.00     0.000 C 
ATOM      5  C   UNL     1     134.096 133.444 137.762  1.00  0.00     0.004 C 
ENDBRANCH   3   4
BRANCH   3   6
ATOM      6  C   UNL     1     133.782 134.919 140.184  1.00  0.00    -0.014 C 
ATOM      7  C   UNL     1     134.860 135.842 140.791  1.00  0.00     0.007 C 
ATOM      8  C   UNL     1     132.745 134.565 141.272  1.00  0.00     0.007 C 
ENDBRANCH   3   6
ENDBRANCH   2   3
ENDBRANCH   1   2
BRANCH   1   9
ATOM      9  C   UNL     1     129.832 133.702 138.933  1.00  0.00    -0.011 C 
ATOM     10  C   UNL     1     128.454 134.364 139.120  1.00  0.00     0.008 C 
BRANCH   9  11
ATOM     11  C   UNL     1     129.755 132.284 138.263  1.00  0.00    -0.002 C 
ATOM     12  C   UNL     1     130.458 132.242 136.878  1.00  0.00     0.005 C 
ATOM     13  C   UNL     1     130.364 131.073 139.032  1.00  0.00    -0.023 C 
ATOM     14  C   UNL     1     131.106 130.859 136.732  1.00  0.00     0.009 C 
ATOM     15  C   UNL     1     130.523 130.064 137.882  1.00  0.00     0.021 C 
ATOM     16  C   UNL     1     129.438 130.453 140.133  1.00  0.00     0.008 C 
ATOM     17  C   UNL     1     131.746 131.444 139.655  1.00  0.00     0.012 C 
ATOM     18  C   UNL     1     131.200 128.794 138.353  1.00  0.00    -0.067 C 
ATOM     19  C   UNL     1     129.361 128.899 140.115  1.00  0.00     0.009 C 
ATOM     20  C   UNL     1     130.685 128.204 139.668  1.00  0.00     0.021 C 
ATOM     21  C   UNL     1     132.092 128.131 137.586  1.00  0.00    -0.027 C 
ATOM     22  C   UNL     1     130.608 126.639 139.587  1.00  0.00    -0.023 C 
ATOM     23  C   UNL     1     132.523 126.710 137.855  1.00  0.00     0.031 C 
ATOM     24  C   UNL     1     132.051 126.161 139.221  1.00  0.00     0.002 C 
ATOM     25  C   UNL     1     130.218 126.043 140.972  1.00  0.00     0.010 C 
ATOM     26  C   UNL     1     129.558 126.195 138.522  1.00  0.00     0.012 C 
ATOM     27  C   UNL     1     132.217 124.628 139.294  1.00  0.00     0.036 C 
ATOM     28  C   UNL     1     130.394 124.518 141.040  1.00  0.00     0.032 C 
ATOM     29  C   UNL     1     131.826 124.098 140.683  1.00  0.00     0.114 C 
BRANCH  29  30
ATOM     30  O   UNL     1     131.904 122.697 140.702  1.00  0.00    -0.393 OA
ATOM     31  H   UNL     1     131.228 122.384 141.360  1.00  0.00     0.210 HD
ENDBRANCH  29  30
ENDBRANCH   9  11
ENDBRANCH   1   9
TORSDOF 7
ENDMDL
