MODEL 1
REMARK VINA RESULT:    -4.376      0.000      0.000
REMARK INTER + INTRA:         -13.062
REMARK INTER:                  -9.493
REMARK INTRA:                  -3.568
REMARK UNBOUND:                -3.568
REMARK SMILES CCCCCCCCCCCCCCCCCCCCCC(=O)[O-]
REMARK SMILES IDX 12 1 11 2 10 3 9 4 8 5 7 6 6 7 5 8 4 9 3 10 2 11 1 12 13 13
REMARK SMILES IDX 14 14 15 15 16 16 17 17 18 18 19 19 20 20 21 21 22 22 23 23
REMARK SMILES IDX 24 24
REMARK H PARENT
REMARK Flexibility Score: inf
ROOT
ATOM      1  C   UNL     1      -9.680   1.354  23.008  1.00  0.00     0.000 C 
ENDROOT
BRANCH   1   2
ATOM      2  C   UNL     1     -11.136   1.819  23.183  1.00  0.00     0.000 C 
BRANCH   2   3
ATOM      3  C   UNL     1     -12.060   1.301  22.065  1.00  0.00     0.000 C 
BRANCH   3   4
ATOM      4  C   UNL     1     -12.149   2.222  20.834  1.00  0.00    -0.000 C 
BRANCH   4   5
ATOM      5  C   UNL     1     -12.337   3.701  21.213  1.00  0.00    -0.000 C 
BRANCH   5   6
ATOM      6  C   UNL     1     -12.162   4.644  20.001  1.00  0.00    -0.000 C 
BRANCH   6   7
ATOM      7  C   UNL     1     -12.318   3.939  18.639  1.00  0.00    -0.000 C 
BRANCH   7   8
ATOM      8  C   UNL     1     -11.387   4.459  17.528  1.00  0.00    -0.000 C 
BRANCH   8   9
ATOM      9  C   UNL     1     -11.049   3.431  16.432  1.00  0.00    -0.000 C 
BRANCH   9  10
ATOM     10  C   UNL     1     -12.078   2.290  16.345  1.00  0.00    -0.000 C 
BRANCH  10  11
ATOM     11  C   UNL     1     -11.609   1.140  15.440  1.00  0.00    -0.003 C 
ATOM     12  C   UNL     1     -10.115   1.211  15.122  1.00  0.00     0.004 C 
ENDBRANCH  10  11
ENDBRANCH   9  10
ENDBRANCH   8   9
ENDBRANCH   7   8
ENDBRANCH   6   7
ENDBRANCH   5   6
ENDBRANCH   4   5
ENDBRANCH   3   4
ENDBRANCH   2   3
ENDBRANCH   1   2
BRANCH   1  13
ATOM     13  C   UNL     1      -9.514  -0.170  23.158  1.00  0.00     0.000 C 
BRANCH  13  14
ATOM     14  C   UNL     1      -8.939  -0.892  21.922  1.00  0.00     0.000 C 
BRANCH  14  15
ATOM     15  C   UNL     1      -9.872  -0.942  20.696  1.00  0.00     0.000 C 
BRANCH  15  16
ATOM     16  C   UNL     1      -9.208  -0.562  19.360  1.00  0.00     0.000 C 
BRANCH  16  17
ATOM     17  C   UNL     1      -9.662   0.808  18.836  1.00  0.00     0.000 C 
BRANCH  17  18
ATOM     18  C   UNL     1      -8.513   1.825  18.905  1.00  0.00     0.000 C 
BRANCH  18  19
ATOM     19  C   UNL     1      -8.841   3.034  19.793  1.00  0.00     0.000 C 
BRANCH  19  20
ATOM     20  C   UNL     1      -7.773   4.135  19.710  1.00  0.00     0.006 C 
BRANCH  20  21
ATOM     21  C   UNL     1      -6.583   3.678  18.862  1.00  0.00     0.053 C 
BRANCH  21  22
ATOM     22  C   UNL     1      -5.372   4.508  19.158  1.00  0.00     0.041 C 
ATOM     23  O   UNL     1      -4.364   4.452  18.406  1.00  0.00    -0.550 OA
ATOM     24  O   UNL     1      -5.358   5.343  20.269  1.00  0.00    -0.550 OA
ENDBRANCH  21  22
ENDBRANCH  20  21
ENDBRANCH  19  20
ENDBRANCH  18  19
ENDBRANCH  17  18
ENDBRANCH  16  17
ENDBRANCH  15  16
ENDBRANCH  14  15
ENDBRANCH  13  14
ENDBRANCH   1  13
TORSDOF 20
ENDMDL
MODEL 2
REMARK VINA RESULT:    -4.285      1.444      3.206
REMARK INTER + INTRA:         -12.864
REMARK INTER:                  -9.749
REMARK INTRA:                  -3.116
REMARK UNBOUND:                -3.568
REMARK SMILES CCCCCCCCCCCCCCCCCCCCCC(=O)[O-]
REMARK SMILES IDX 12 1 11 2 10 3 9 4 8 5 7 6 6 7 5 8 4 9 3 10 2 11 1 12 13 13
REMARK SMILES IDX 14 14 15 15 16 16 17 17 18 18 19 19 20 20 21 21 22 22 23 23
REMARK SMILES IDX 24 24
REMARK H PARENT
REMARK Flexibility Score: inf
ROOT
ATOM      1  C   UNL     1     -11.423   0.508  21.828  1.00  0.00     0.000 C 
ENDROOT
BRANCH   1   2
ATOM      2  C   UNL     1      -9.900   0.302  21.886  1.00  0.00     0.000 C 
BRANCH   2   3
ATOM      3  C   UNL     1      -9.458  -1.028  21.249  1.00  0.00     0.000 C 
BRANCH   3   4
ATOM      4  C   UNL     1      -9.262  -0.969  19.722  1.00  0.00    -0.000 C 
BRANCH   4   5
ATOM      5  C   UNL     1      -8.869   0.434  19.230  1.00  0.00    -0.000 C 
BRANCH   5   6
ATOM      6  C   UNL     1      -9.641   0.846  17.956  1.00  0.00    -0.000 C 
BRANCH   6   7
ATOM      7  C   UNL     1     -11.126   1.174  18.209  1.00  0.00    -0.000 C 
BRANCH   7   8
ATOM      8  C   UNL     1     -11.661   2.397  17.440  1.00  0.00    -0.000 C 
BRANCH   8   9
ATOM      9  C   UNL     1     -11.598   2.276  15.906  1.00  0.00    -0.000 C 
BRANCH   9  10
ATOM     10  C   UNL     1     -12.346   1.042  15.372  1.00  0.00    -0.000 C 
BRANCH  10  11
ATOM     11  C   UNL     1     -11.575   0.323  14.254  1.00  0.00    -0.003 C 
ATOM     12  C   UNL     1     -10.076   0.620  14.285  1.00  0.00     0.004 C 
ENDBRANCH  10  11
ENDBRANCH   9  10
ENDBRANCH   8   9
ENDBRANCH   7   8
ENDBRANCH   6   7
ENDBRANCH   5   6
ENDBRANCH   4   5
ENDBRANCH   3   4
ENDBRANCH   2   3
ENDBRANCH   1   2
BRANCH   1  13
ATOM     13  C   UNL     1     -11.822   1.979  21.606  1.00  0.00     0.000 C 
BRANCH  13  14
ATOM     14  C   UNL     1     -11.014   3.009  22.422  1.00  0.00     0.000 C 
BRANCH  14  15
ATOM     15  C   UNL     1     -10.393   4.158  21.601  1.00  0.00     0.000 C 
BRANCH  15  16
ATOM     16  C   UNL     1      -9.267   3.733  20.643  1.00  0.00     0.000 C 
BRANCH  16  17
ATOM     17  C   UNL     1      -9.210   4.593  19.371  1.00  0.00     0.000 C 
BRANCH  17  18
ATOM     18  C   UNL     1      -8.050   4.150  18.466  1.00  0.00     0.000 C 
BRANCH  18  19
ATOM     19  C   UNL     1      -6.859   3.591  19.259  1.00  0.00     0.000 C 
BRANCH  19  20
ATOM     20  C   UNL     1      -5.757   4.636  19.484  1.00  0.00     0.006 C 
BRANCH  20  21
ATOM     21  C   UNL     1      -4.654   4.504  18.429  1.00  0.00     0.053 C 
BRANCH  21  22
ATOM     22  C   UNL     1      -4.415   5.814  17.746  1.00  0.00     0.041 C 
ATOM     23  O   UNL     1      -3.498   5.926  16.890  1.00  0.00    -0.550 OA
ATOM     24  O   UNL     1      -5.206   6.913  18.055  1.00  0.00    -0.550 OA
ENDBRANCH  21  22
ENDBRANCH  20  21
ENDBRANCH  19  20
ENDBRANCH  18  19
ENDBRANCH  17  18
ENDBRANCH  16  17
ENDBRANCH  15  16
ENDBRANCH  14  15
ENDBRANCH  13  14
ENDBRANCH   1  13
TORSDOF 20
ENDMDL
MODEL 3
REMARK VINA RESULT:    -4.257      2.923      5.817
REMARK INTER + INTRA:         -12.804
REMARK INTER:                  -9.035
REMARK INTRA:                  -3.769
REMARK UNBOUND:                -3.568
REMARK SMILES CCCCCCCCCCCCCCCCCCCCCC(=O)[O-]
REMARK SMILES IDX 12 1 11 2 10 3 9 4 8 5 7 6 6 7 5 8 4 9 3 10 2 11 1 12 13 13
REMARK SMILES IDX 14 14 15 15 16 16 17 17 18 18 19 19 20 20 21 21 22 22 23 23
REMARK SMILES IDX 24 24
REMARK H PARENT
REMARK Flexibility Score: inf
ROOT
ATOM      1  C   UNL     1      -6.563   4.269  18.866  1.00  0.00     0.000 C 
ENDROOT
BRANCH   1   2
ATOM      2  C   UNL     1      -6.632   4.777  20.316  1.00  0.00     0.000 C 
BRANCH   2   3
ATOM      3  C   UNL     1      -7.384   6.117  20.437  1.00  0.00     0.000 C 
BRANCH   3   4
ATOM      4  C   UNL     1      -8.671   6.050  21.279  1.00  0.00    -0.000 C 
BRANCH   4   5
ATOM      5  C   UNL     1      -8.785   4.747  22.087  1.00  0.00    -0.000 C 
BRANCH   5   6
ATOM      6  C   UNL     1     -10.074   3.962  21.756  1.00  0.00    -0.000 C 
BRANCH   6   7
ATOM      7  C   UNL     1      -9.860   2.441  21.629  1.00  0.00    -0.000 C 
BRANCH   7   8
ATOM      8  C   UNL     1     -11.142   1.621  21.394  1.00  0.00    -0.000 C 
BRANCH   8   9
ATOM      9  C   UNL     1     -11.233   0.943  20.013  1.00  0.00    -0.000 C 
BRANCH   9  10
ATOM     10  C   UNL     1     -11.243  -0.592  20.100  1.00  0.00    -0.000 C 
BRANCH  10  11
ATOM     11  C   UNL     1      -9.829  -1.188  20.169  1.00  0.00    -0.003 C 
ATOM     12  C   UNL     1      -8.828  -0.437  19.291  1.00  0.00     0.004 C 
ENDBRANCH  10  11
ENDBRANCH   9  10
ENDBRANCH   8   9
ENDBRANCH   7   8
ENDBRANCH   6   7
ENDBRANCH   5   6
ENDBRANCH   4   5
ENDBRANCH   3   4
ENDBRANCH   2   3
ENDBRANCH   1   2
BRANCH   1  13
ATOM     13  C   UNL     1      -7.324   2.946  18.656  1.00  0.00     0.000 C 
BRANCH  13  14
ATOM     14  C   UNL     1      -8.816   3.098  18.294  1.00  0.00     0.000 C 
BRANCH  14  15
ATOM     15  C   UNL     1      -9.201   4.442  17.644  1.00  0.00     0.000 C 
BRANCH  15  16
ATOM     16  C   UNL     1     -10.467   5.101  18.220  1.00  0.00     0.000 C 
BRANCH  16  17
ATOM     17  C   UNL     1     -11.695   4.931  17.312  1.00  0.00     0.000 C 
BRANCH  17  18
ATOM     18  C   UNL     1     -12.372   3.574  17.560  1.00  0.00     0.000 C 
BRANCH  18  19
ATOM     19  C   UNL     1     -12.450   2.709  16.293  1.00  0.00     0.000 C 
BRANCH  19  20
ATOM     20  C   UNL     1     -11.604   1.431  16.399  1.00  0.00     0.006 C 
BRANCH  20  21
ATOM     21  C   UNL     1     -10.346   1.535  15.532  1.00  0.00     0.053 C 
BRANCH  21  22
ATOM     22  C   UNL     1     -10.438   0.617  14.353  1.00  0.00     0.041 C 
ATOM     23  O   UNL     1     -11.558   0.203  13.955  1.00  0.00    -0.550 OA
ATOM     24  O   UNL     1      -9.282   0.217  13.693  1.00  0.00    -0.550 OA
ENDBRANCH  21  22
ENDBRANCH  20  21
ENDBRANCH  19  20
ENDBRANCH  18  19
ENDBRANCH  17  18
ENDBRANCH  16  17
ENDBRANCH  15  16
ENDBRANCH  14  15
ENDBRANCH  13  14
ENDBRANCH   1  13
TORSDOF 20
ENDMDL
MODEL 4
REMARK VINA RESULT:    -4.211      1.339      2.767
REMARK INTER + INTRA:         -12.703
REMARK INTER:                  -9.556
REMARK INTRA:                  -3.147
REMARK UNBOUND:                -3.568
REMARK SMILES CCCCCCCCCCCCCCCCCCCCCC(=O)[O-]
REMARK SMILES IDX 12 1 11 2 10 3 9 4 8 5 7 6 6 7 5 8 4 9 3 10 2 11 1 12 13 13
REMARK SMILES IDX 14 14 15 15 16 16 17 17 18 18 19 19 20 20 21 21 22 22 23 23
REMARK SMILES IDX 24 24
REMARK H PARENT
REMARK Flexibility Score: inf
ROOT
ATOM      1  C   UNL     1      -9.616  -0.867  20.880  1.00  0.00     0.000 C 
ENDROOT
BRANCH   1   2
ATOM      2  C   UNL     1      -8.841  -0.339  19.661  1.00  0.00     0.000 C 
BRANCH   2   3
ATOM      3  C   UNL     1      -9.447   0.957  19.091  1.00  0.00     0.000 C 
BRANCH   3   4
ATOM      4  C   UNL     1     -10.981   1.045  19.201  1.00  0.00    -0.000 C 
BRANCH   4   5
ATOM      5  C   UNL     1     -11.476   2.479  19.454  1.00  0.00    -0.000 C 
BRANCH   5   6
ATOM      6  C   UNL     1     -10.638   3.532  18.694  1.00  0.00    -0.000 C 
BRANCH   6   7
ATOM      7  C   UNL     1     -11.339   4.098  17.444  1.00  0.00    -0.000 C 
BRANCH   7   8
ATOM      8  C   UNL     1     -12.472   3.219  16.880  1.00  0.00    -0.000 C 
BRANCH   8   9
ATOM      9  C   UNL     1     -12.021   2.160  15.856  1.00  0.00    -0.000 C 
BRANCH   9  10
ATOM     10  C   UNL     1     -10.583   2.384  15.358  1.00  0.00    -0.000 C 
BRANCH  10  11
ATOM     11  C   UNL     1      -9.743   1.098  15.385  1.00  0.00    -0.003 C 
ATOM     12  C   UNL     1      -9.757   0.356  14.048  1.00  0.00     0.004 C 
ENDBRANCH  10  11
ENDBRANCH   9  10
ENDBRANCH   8   9
ENDBRANCH   7   8
ENDBRANCH   6   7
ENDBRANCH   5   6
ENDBRANCH   4   5
ENDBRANCH   3   4
ENDBRANCH   2   3
ENDBRANCH   1   2
BRANCH   1  13
ATOM     13  C   UNL     1      -8.772  -0.882  22.168  1.00  0.00     0.000 C 
BRANCH  13  14
ATOM     14  C   UNL     1      -9.380  -0.115  23.361  1.00  0.00     0.000 C 
BRANCH  14  15
ATOM     15  C   UNL     1     -10.756   0.527  23.096  1.00  0.00     0.000 C 
BRANCH  15  16
ATOM     16  C   UNL     1     -10.821   2.044  23.345  1.00  0.00     0.000 C 
BRANCH  16  17
ATOM     17  C   UNL     1      -9.438   2.713  23.325  1.00  0.00     0.000 C 
BRANCH  17  18
ATOM     18  C   UNL     1      -9.153   3.331  21.948  1.00  0.00     0.000 C 
BRANCH  18  19
ATOM     19  C   UNL     1      -8.813   4.827  22.028  1.00  0.00     0.000 C 
BRANCH  19  20
ATOM     20  C   UNL     1      -7.430   5.150  21.443  1.00  0.00     0.006 C 
BRANCH  20  21
ATOM     21  C   UNL     1      -7.471   5.146  19.912  1.00  0.00     0.053 C 
BRANCH  21  22
ATOM     22  C   UNL     1      -6.349   4.326  19.355  1.00  0.00     0.041 C 
ATOM     23  O   UNL     1      -5.155   4.687  19.519  1.00  0.00    -0.550 OA
ATOM     24  O   UNL     1      -6.626   3.159  18.651  1.00  0.00    -0.550 OA
ENDBRANCH  21  22
ENDBRANCH  20  21
ENDBRANCH  19  20
ENDBRANCH  18  19
ENDBRANCH  17  18
ENDBRANCH  16  17
ENDBRANCH  15  16
ENDBRANCH  14  15
ENDBRANCH  13  14
ENDBRANCH   1  13
TORSDOF 20
ENDMDL
MODEL 5
REMARK VINA RESULT:    -4.197      2.601      5.372
REMARK INTER + INTRA:         -12.672
REMARK INTER:                  -8.754
REMARK INTRA:                  -3.918
REMARK UNBOUND:                -3.568
REMARK SMILES CCCCCCCCCCCCCCCCCCCCCC(=O)[O-]
REMARK SMILES IDX 12 1 11 2 10 3 9 4 8 5 7 6 6 7 5 8 4 9 3 10 2 11 1 12 13 13
REMARK SMILES IDX 14 14 15 15 16 16 17 17 18 18 19 19 20 20 21 21 22 22 23 23
REMARK SMILES IDX 24 24
REMARK H PARENT
REMARK Flexibility Score: inf
ROOT
ATOM      1  C   UNL     1      -9.534   1.945  22.646  1.00  0.00     0.000 C 
ENDROOT
BRANCH   1   2
ATOM      2  C   UNL     1     -10.087   0.550  22.984  1.00  0.00     0.000 C 
BRANCH   2   3
ATOM      3  C   UNL     1      -9.142  -0.583  22.544  1.00  0.00     0.000 C 
BRANCH   3   4
ATOM      4  C   UNL     1      -9.209  -0.923  21.043  1.00  0.00    -0.000 C 
BRANCH   4   5
ATOM      5  C   UNL     1     -10.641  -0.859  20.485  1.00  0.00    -0.000 C 
BRANCH   5   6
ATOM      6  C   UNL     1     -10.757   0.093  19.274  1.00  0.00    -0.000 C 
BRANCH   6   7
ATOM      7  C   UNL     1      -9.402   0.639  18.782  1.00  0.00    -0.000 C 
BRANCH   7   8
ATOM      8  C   UNL     1      -9.302   2.175  18.724  1.00  0.00    -0.000 C 
BRANCH   8   9
ATOM      9  C   UNL     1      -7.890   2.742  18.964  1.00  0.00    -0.000 C 
BRANCH   9  10
ATOM     10  C   UNL     1      -7.887   3.964  19.898  1.00  0.00    -0.000 C 
BRANCH  10  11
ATOM     11  C   UNL     1      -6.685   4.889  19.655  1.00  0.00    -0.003 C 
ATOM     12  C   UNL     1      -5.523   4.178  18.962  1.00  0.00     0.004 C 
ENDBRANCH  10  11
ENDBRANCH   9  10
ENDBRANCH   8   9
ENDBRANCH   7   8
ENDBRANCH   6   7
ENDBRANCH   5   6
ENDBRANCH   4   5
ENDBRANCH   3   4
ENDBRANCH   2   3
ENDBRANCH   1   2
BRANCH   1  13
ATOM     13  C   UNL     1     -10.641   3.002  22.464  1.00  0.00     0.000 C 
BRANCH  13  14
ATOM     14  C   UNL     1     -11.947   2.482  21.830  1.00  0.00     0.000 C 
BRANCH  14  15
ATOM     15  C   UNL     1     -12.397   3.219  20.553  1.00  0.00     0.000 C 
BRANCH  15  16
ATOM     16  C   UNL     1     -11.570   4.468  20.201  1.00  0.00     0.000 C 
BRANCH  16  17
ATOM     17  C   UNL     1     -12.440   5.657  19.767  1.00  0.00     0.000 C 
BRANCH  17  18
ATOM     18  C   UNL     1     -12.187   6.007  18.293  1.00  0.00     0.000 C 
BRANCH  18  19
ATOM     19  C   UNL     1     -11.029   5.204  17.682  1.00  0.00     0.000 C 
BRANCH  19  20
ATOM     20  C   UNL     1     -11.428   4.486  16.384  1.00  0.00     0.006 C 
BRANCH  20  21
ATOM     21  C   UNL     1     -12.229   3.217  16.686  1.00  0.00     0.053 C 
BRANCH  21  22
ATOM     22  C   UNL     1     -11.743   2.073  15.852  1.00  0.00     0.041 C 
ATOM     23  O   UNL     1     -10.571   2.074  15.392  1.00  0.00    -0.550 OA
ATOM     24  O   UNL     1     -12.587   1.002  15.583  1.00  0.00    -0.550 OA
ENDBRANCH  21  22
ENDBRANCH  20  21
ENDBRANCH  19  20
ENDBRANCH  18  19
ENDBRANCH  17  18
ENDBRANCH  16  17
ENDBRANCH  15  16
ENDBRANCH  14  15
ENDBRANCH  13  14
ENDBRANCH   1  13
TORSDOF 20
ENDMDL
MODEL 6
REMARK VINA RESULT:    -4.195      2.694      4.643
REMARK INTER + INTRA:         -12.668
REMARK INTER:                  -9.050
REMARK INTRA:                  -3.618
REMARK UNBOUND:                -3.568
REMARK SMILES CCCCCCCCCCCCCCCCCCCCCC(=O)[O-]
REMARK SMILES IDX 12 1 11 2 10 3 9 4 8 5 7 6 6 7 5 8 4 9 3 10 2 11 1 12 13 13
REMARK SMILES IDX 14 14 15 15 16 16 17 17 18 18 19 19 20 20 21 21 22 22 23 23
REMARK SMILES IDX 24 24
REMARK H PARENT
REMARK Flexibility Score: inf
ROOT
ATOM      1  C   UNL     1      -9.067  -0.065  19.107  1.00  0.00     0.000 C 
ENDROOT
BRANCH   1   2
ATOM      2  C   UNL     1      -9.703   1.321  18.901  1.00  0.00     0.000 C 
BRANCH   2   3
ATOM      3  C   UNL     1      -8.737   2.471  19.240  1.00  0.00     0.000 C 
BRANCH   3   4
ATOM      4  C   UNL     1      -9.001   3.775  18.463  1.00  0.00    -0.000 C 
BRANCH   4   5
ATOM      5  C   UNL     1     -10.288   4.484  18.914  1.00  0.00    -0.000 C 
BRANCH   5   6
ATOM      6  C   UNL     1     -10.849   5.429  17.828  1.00  0.00    -0.000 C 
BRANCH   6   7
ATOM      7  C   UNL     1     -11.475   4.692  16.627  1.00  0.00    -0.000 C 
BRANCH   7   8
ATOM      8  C   UNL     1     -12.330   3.464  16.993  1.00  0.00    -0.000 C 
BRANCH   8   9
ATOM      9  C   UNL     1     -11.950   2.167  16.254  1.00  0.00    -0.000 C 
BRANCH   9  10
ATOM     10  C   UNL     1     -10.771   2.355  15.284  1.00  0.00    -0.000 C 
BRANCH  10  11
ATOM     11  C   UNL     1      -9.784   1.177  15.320  1.00  0.00    -0.003 C 
ATOM     12  C   UNL     1      -9.908   0.267  14.098  1.00  0.00     0.004 C 
ENDBRANCH  10  11
ENDBRANCH   9  10
ENDBRANCH   8   9
ENDBRANCH   7   8
ENDBRANCH   6   7
ENDBRANCH   5   6
ENDBRANCH   4   5
ENDBRANCH   3   4
ENDBRANCH   2   3
ENDBRANCH   1   2
BRANCH   1  13
ATOM     13  C   UNL     1      -9.747  -0.877  20.225  1.00  0.00     0.000 C 
BRANCH  13  14
ATOM     14  C   UNL     1      -8.925  -1.026  21.521  1.00  0.00     0.000 C 
BRANCH  14  15
ATOM     15  C   UNL     1      -9.461  -0.241  22.734  1.00  0.00     0.000 C 
BRANCH  15  16
ATOM     16  C   UNL     1     -10.544   0.801  22.403  1.00  0.00     0.000 C 
BRANCH  16  17
ATOM     17  C   UNL     1     -10.124   2.234  22.763  1.00  0.00     0.000 C 
BRANCH  17  18
ATOM     18  C   UNL     1     -11.158   3.249  22.254  1.00  0.00     0.000 C 
BRANCH  18  19
ATOM     19  C   UNL     1     -12.233   2.606  21.364  1.00  0.00     0.000 C 
BRANCH  19  20
ATOM     20  C   UNL     1     -13.261   3.624  20.852  1.00  0.00     0.006 C 
BRANCH  20  21
ATOM     21  C   UNL     1     -13.278   4.876  21.734  1.00  0.00     0.053 C 
BRANCH  21  22
ATOM     22  C   UNL     1     -13.524   6.102  20.911  1.00  0.00     0.041 C 
ATOM     23  O   UNL     1     -12.560   6.821  20.539  1.00  0.00    -0.550 OA
ATOM     24  O   UNL     1     -14.821   6.450  20.555  1.00  0.00    -0.550 OA
ENDBRANCH  21  22
ENDBRANCH  20  21
ENDBRANCH  19  20
ENDBRANCH  18  19
ENDBRANCH  17  18
ENDBRANCH  16  17
ENDBRANCH  15  16
ENDBRANCH  14  15
ENDBRANCH  13  14
ENDBRANCH   1  13
TORSDOF 20
ENDMDL
MODEL 7
REMARK VINA RESULT:    -4.192      2.383      5.064
REMARK INTER + INTRA:         -12.662
REMARK INTER:                  -9.132
REMARK INTRA:                  -3.530
REMARK UNBOUND:                -3.568
REMARK SMILES CCCCCCCCCCCCCCCCCCCCCC(=O)[O-]
REMARK SMILES IDX 12 1 11 2 10 3 9 4 8 5 7 6 6 7 5 8 4 9 3 10 2 11 1 12 13 13
REMARK SMILES IDX 14 14 15 15 16 16 17 17 18 18 19 19 20 20 21 21 22 22 23 23
REMARK SMILES IDX 24 24
REMARK H PARENT
REMARK Flexibility Score: inf
ROOT
ATOM      1  C   UNL     1      -9.113  -0.747  19.408  1.00  0.00     0.000 C 
ENDROOT
BRANCH   1   2
ATOM      2  C   UNL     1      -9.563   0.663  18.988  1.00  0.00     0.000 C 
BRANCH   2   3
ATOM      3  C   UNL     1     -11.039   0.707  18.549  1.00  0.00     0.000 C 
BRANCH   3   4
ATOM      4  C   UNL     1     -11.293   1.492  17.249  1.00  0.00    -0.000 C 
BRANCH   4   5
ATOM      5  C   UNL     1     -10.162   1.320  16.221  1.00  0.00    -0.000 C 
BRANCH   5   6
ATOM      6  C   UNL     1      -9.404   2.641  15.956  1.00  0.00    -0.000 C 
BRANCH   6   7
ATOM      7  C   UNL     1      -9.923   3.831  16.786  1.00  0.00    -0.000 C 
BRANCH   7   8
ATOM      8  C   UNL     1      -8.895   4.447  17.753  1.00  0.00    -0.000 C 
BRANCH   8   9
ATOM      9  C   UNL     1      -7.966   3.431  18.444  1.00  0.00    -0.000 C 
BRANCH   9  10
ATOM     10  C   UNL     1      -6.992   4.089  19.436  1.00  0.00    -0.000 C 
BRANCH  10  11
ATOM     11  C   UNL     1      -5.567   4.207  18.872  1.00  0.00    -0.003 C 
ATOM     12  C   UNL     1      -4.696   5.179  19.669  1.00  0.00     0.004 C 
ENDBRANCH  10  11
ENDBRANCH   9  10
ENDBRANCH   8   9
ENDBRANCH   7   8
ENDBRANCH   6   7
ENDBRANCH   5   6
ENDBRANCH   4   5
ENDBRANCH   3   4
ENDBRANCH   2   3
ENDBRANCH   1   2
BRANCH   1  13
ATOM     13  C   UNL     1      -9.809  -1.242  20.690  1.00  0.00     0.000 C 
BRANCH  13  14
ATOM     14  C   UNL     1      -9.087  -0.890  22.007  1.00  0.00     0.000 C 
BRANCH  14  15
ATOM     15  C   UNL     1      -9.702   0.279  22.802  1.00  0.00     0.000 C 
BRANCH  15  16
ATOM     16  C   UNL     1     -11.238   0.356  22.758  1.00  0.00     0.000 C 
BRANCH  16  17
ATOM     17  C   UNL     1     -11.753   1.646  22.103  1.00  0.00     0.000 C 
BRANCH  17  18
ATOM     18  C   UNL     1     -10.603   2.639  21.879  1.00  0.00     0.000 C 
BRANCH  18  19
ATOM     19  C   UNL     1     -10.910   3.665  20.777  1.00  0.00     0.000 C 
BRANCH  19  20
ATOM     20  C   UNL     1     -12.402   3.713  20.414  1.00  0.00     0.006 C 
BRANCH  20  21
ATOM     21  C   UNL     1     -12.616   4.423  19.075  1.00  0.00     0.053 C 
BRANCH  21  22
ATOM     22  C   UNL     1     -12.421   5.900  19.222  1.00  0.00     0.041 C 
ATOM     23  O   UNL     1     -11.945   6.576  18.272  1.00  0.00    -0.550 OA
ATOM     24  O   UNL     1     -12.765   6.531  20.411  1.00  0.00    -0.550 OA
ENDBRANCH  21  22
ENDBRANCH  20  21
ENDBRANCH  19  20
ENDBRANCH  18  19
ENDBRANCH  17  18
ENDBRANCH  16  17
ENDBRANCH  15  16
ENDBRANCH  14  15
ENDBRANCH  13  14
ENDBRANCH   1  13
TORSDOF 20
ENDMDL
MODEL 8
REMARK VINA RESULT:    -4.139      2.854      4.716
REMARK INTER + INTRA:         -12.547
REMARK INTER:                  -8.491
REMARK INTRA:                  -4.057
REMARK UNBOUND:                -3.568
REMARK SMILES CCCCCCCCCCCCCCCCCCCCCC(=O)[O-]
REMARK SMILES IDX 12 1 11 2 10 3 9 4 8 5 7 6 6 7 5 8 4 9 3 10 2 11 1 12 13 13
REMARK SMILES IDX 14 14 15 15 16 16 17 17 18 18 19 19 20 20 21 21 22 22 23 23
REMARK SMILES IDX 24 24
REMARK H PARENT
REMARK Flexibility Score: inf
ROOT
ATOM      1  C   UNL     1      -9.071   2.168  19.384  1.00  0.00     0.000 C 
ENDROOT
BRANCH   1   2
ATOM      2  C   UNL     1      -7.981   2.857  18.545  1.00  0.00     0.000 C 
BRANCH   2   3
ATOM      3  C   UNL     1      -7.880   4.367  18.831  1.00  0.00     0.000 C 
BRANCH   3   4
ATOM      4  C   UNL     1      -8.477   4.800  20.183  1.00  0.00    -0.000 C 
BRANCH   4   5
ATOM      5  C   UNL     1      -9.587   5.854  20.031  1.00  0.00    -0.000 C 
BRANCH   5   6
ATOM      6  C   UNL     1     -10.998   5.224  20.043  1.00  0.00    -0.000 C 
BRANCH   6   7
ATOM      7  C   UNL     1     -11.668   5.177  18.655  1.00  0.00    -0.000 C 
BRANCH   7   8
ATOM      8  C   UNL     1     -12.383   3.854  18.323  1.00  0.00    -0.000 C 
BRANCH   8   9
ATOM      9  C   UNL     1     -12.563   3.574  16.819  1.00  0.00    -0.000 C 
BRANCH   9  10
ATOM     10  C   UNL     1     -11.808   2.319  16.349  1.00  0.00    -0.000 C 
BRANCH  10  11
ATOM     11  C   UNL     1     -10.484   2.656  15.646  1.00  0.00    -0.003 C 
ATOM     12  C   UNL     1      -9.721   1.410  15.196  1.00  0.00     0.004 C 
ENDBRANCH  10  11
ENDBRANCH   9  10
ENDBRANCH   8   9
ENDBRANCH   7   8
ENDBRANCH   6   7
ENDBRANCH   5   6
ENDBRANCH   4   5
ENDBRANCH   3   4
ENDBRANCH   2   3
ENDBRANCH   1   2
BRANCH   1  13
ATOM     13  C   UNL     1      -9.494   0.802  18.813  1.00  0.00     0.000 C 
BRANCH  13  14
ATOM     14  C   UNL     1     -10.892   0.314  19.246  1.00  0.00     0.000 C 
BRANCH  14  15
ATOM     15  C   UNL     1     -10.903  -0.710  20.398  1.00  0.00     0.000 C 
BRANCH  15  16
ATOM     16  C   UNL     1      -9.513  -1.190  20.852  1.00  0.00     0.000 C 
BRANCH  16  17
ATOM     17  C   UNL     1      -9.158  -0.732  22.274  1.00  0.00     0.000 C 
BRANCH  17  18
ATOM     18  C   UNL     1     -10.212   0.249  22.809  1.00  0.00     0.000 C 
BRANCH  18  19
ATOM     19  C   UNL     1      -9.615   1.612  23.191  1.00  0.00     0.000 C 
BRANCH  19  20
ATOM     20  C   UNL     1     -10.436   2.790  22.644  1.00  0.00     0.006 C 
BRANCH  20  21
ATOM     21  C   UNL     1     -11.842   2.335  22.241  1.00  0.00     0.053 C 
BRANCH  21  22
ATOM     22  C   UNL     1     -12.882   3.063  23.033  1.00  0.00     0.041 C 
ATOM     23  O   UNL     1     -13.472   2.490  23.987  1.00  0.00    -0.550 OA
ATOM     24  O   UNL     1     -13.201   4.378  22.716  1.00  0.00    -0.550 OA
ENDBRANCH  21  22
ENDBRANCH  20  21
ENDBRANCH  19  20
ENDBRANCH  18  19
ENDBRANCH  17  18
ENDBRANCH  16  17
ENDBRANCH  15  16
ENDBRANCH  14  15
ENDBRANCH  13  14
ENDBRANCH   1  13
TORSDOF 20
ENDMDL
MODEL 9
REMARK VINA RESULT:    -4.132      2.832      6.343
REMARK INTER + INTRA:         -12.532
REMARK INTER:                  -9.533
REMARK INTRA:                  -2.999
REMARK UNBOUND:                -3.568
REMARK SMILES CCCCCCCCCCCCCCCCCCCCCC(=O)[O-]
REMARK SMILES IDX 12 1 11 2 10 3 9 4 8 5 7 6 6 7 5 8 4 9 3 10 2 11 1 12 13 13
REMARK SMILES IDX 14 14 15 15 16 16 17 17 18 18 19 19 20 20 21 21 22 22 23 23
REMARK SMILES IDX 24 24
REMARK H PARENT
REMARK Flexibility Score: inf
ROOT
ATOM      1  C   UNL     1      -9.752   1.274  19.249  1.00  0.00     0.000 C 
ENDROOT
BRANCH   1   2
ATOM      2  C   UNL     1      -9.099  -0.108  19.081  1.00  0.00     0.000 C 
BRANCH   2   3
ATOM      3  C   UNL     1      -9.031  -0.895  20.404  1.00  0.00     0.000 C 
BRANCH   3   4
ATOM      4  C   UNL     1      -9.735  -0.209  21.590  1.00  0.00    -0.000 C 
BRANCH   4   5
ATOM      5  C   UNL     1      -9.042  -0.490  22.934  1.00  0.00    -0.000 C 
BRANCH   5   6
ATOM      6  C   UNL     1      -9.525   0.459  24.053  1.00  0.00    -0.000 C 
BRANCH   6   7
ATOM      7  C   UNL     1     -10.587  -0.165  24.980  1.00  0.00    -0.000 C 
BRANCH   7   8
ATOM      8  C   UNL     1     -11.977   0.496  24.914  1.00  0.00    -0.000 C 
BRANCH   8   9
ATOM      9  C   UNL     1     -12.810   0.129  23.672  1.00  0.00    -0.000 C 
BRANCH   9  10
ATOM     10  C   UNL     1     -13.829   1.216  23.293  1.00  0.00    -0.000 C 
BRANCH  10  11
ATOM     11  C   UNL     1     -13.158   2.512  22.812  1.00  0.00    -0.003 C 
ATOM     12  C   UNL     1     -12.427   2.339  21.481  1.00  0.00     0.004 C 
ENDBRANCH  10  11
ENDBRANCH   9  10
ENDBRANCH   8   9
ENDBRANCH   7   8
ENDBRANCH   6   7
ENDBRANCH   5   6
ENDBRANCH   4   5
ENDBRANCH   3   4
ENDBRANCH   2   3
ENDBRANCH   1   2
BRANCH   1  13
ATOM     13  C   UNL     1      -8.792   2.435  18.927  1.00  0.00     0.000 C 
BRANCH  13  14
ATOM     14  C   UNL     1      -8.728   3.549  19.992  1.00  0.00     0.000 C 
BRANCH  14  15
ATOM     15  C   UNL     1      -9.859   4.594  19.919  1.00  0.00     0.000 C 
BRANCH  15  16
ATOM     16  C   UNL     1     -10.479   4.780  18.523  1.00  0.00     0.000 C 
BRANCH  16  17
ATOM     17  C   UNL     1     -12.012   4.675  18.532  1.00  0.00     0.000 C 
BRANCH  17  18
ATOM     18  C   UNL     1     -12.490   3.598  17.547  1.00  0.00     0.000 C 
BRANCH  18  19
ATOM     19  C   UNL     1     -11.470   3.316  16.434  1.00  0.00     0.000 C 
BRANCH  19  20
ATOM     20  C   UNL     1     -11.613   1.905  15.845  1.00  0.00     0.006 C 
BRANCH  20  21
ATOM     21  C   UNL     1     -10.240   1.293  15.552  1.00  0.00     0.053 C 
BRANCH  21  22
ATOM     22  C   UNL     1     -10.270   0.512  14.276  1.00  0.00     0.041 C 
ATOM     23  O   UNL     1      -9.227   0.390  13.581  1.00  0.00    -0.550 OA
ATOM     24  O   UNL     1     -11.453  -0.083  13.853  1.00  0.00    -0.550 OA
ENDBRANCH  21  22
ENDBRANCH  20  21
ENDBRANCH  19  20
ENDBRANCH  18  19
ENDBRANCH  17  18
ENDBRANCH  16  17
ENDBRANCH  15  16
ENDBRANCH  14  15
ENDBRANCH  13  14
ENDBRANCH   1  13
TORSDOF 20
ENDMDL
