MODEL 1
REMARK VINA RESULT:    -3.944      0.000      0.000
REMARK INTER + INTRA:          -8.423
REMARK INTER:                  -7.172
REMARK INTRA:                  -1.250
REMARK UNBOUND:                -1.250
REMARK SMILES CCCCCCCCCCCCCCCC(=O)[O-]
REMARK SMILES IDX 9 1 10 2 11 3 12 4 13 5 14 6 15 7 16 8 17 9 18 10 8 11 7 12
REMARK SMILES IDX 6 13 5 14 4 15 3 16 2 17 1 18
REMARK H PARENT
REMARK Flexibility Score: inf
ROOT
ATOM      1  C   UNL     1     -10.980  -4.748  -7.518  1.00  0.00     0.000 C 
ENDROOT
BRANCH   1   2
ATOM      2  C   UNL     1     -10.541  -4.152  -8.870  1.00  0.00     0.000 C 
BRANCH   2   3
ATOM      3  C   UNL     1      -9.712  -5.094  -9.765  1.00  0.00     0.000 C 
BRANCH   3   4
ATOM      4  C   UNL     1      -8.200  -4.807  -9.780  1.00  0.00     0.000 C 
BRANCH   4   5
ATOM      5  C   UNL     1      -7.377  -5.917  -9.105  1.00  0.00     0.000 C 
BRANCH   5   6
ATOM      6  C   UNL     1      -6.768  -5.471  -7.766  1.00  0.00     0.006 C 
BRANCH   6   7
ATOM      7  C   UNL     1      -7.524  -6.038  -6.557  1.00  0.00     0.053 C 
BRANCH   7   8
ATOM      8  C   UNL     1      -6.567  -6.638  -5.577  1.00  0.00     0.041 C 
ATOM      9  O   UNL     1      -6.997  -7.277  -4.580  1.00  0.00    -0.550 OA
ATOM     10  O   UNL     1      -5.200  -6.449  -5.736  1.00  0.00    -0.550 OA
ENDBRANCH   7   8
ENDBRANCH   6   7
ENDBRANCH   5   6
ENDBRANCH   4   5
ENDBRANCH   3   4
ENDBRANCH   2   3
ENDBRANCH   1   2
BRANCH   1  11
ATOM     11  C   UNL     1     -10.703  -6.252  -7.346  1.00  0.00     0.000 C 
BRANCH  11  12
ATOM     12  C   UNL     1     -10.801  -6.713  -5.882  1.00  0.00    -0.000 C 
BRANCH  12  13
ATOM     13  C   UNL     1     -11.125  -5.557  -4.921  1.00  0.00    -0.000 C 
BRANCH  13  14
ATOM     14  C   UNL     1      -9.880  -5.023  -4.196  1.00  0.00    -0.000 C 
BRANCH  14  15
ATOM     15  C   UNL     1      -9.992  -3.512  -3.956  1.00  0.00    -0.000 C 
BRANCH  15  16
ATOM     16  C   UNL     1     -10.804  -3.214  -2.689  1.00  0.00    -0.000 C 
BRANCH  16  17
ATOM     17  C   UNL     1     -10.169  -3.873  -1.460  1.00  0.00    -0.003 C 
ATOM     18  C   UNL     1     -11.088  -3.779  -0.246  1.00  0.00     0.004 C 
ENDBRANCH  16  17
ENDBRANCH  15  16
ENDBRANCH  14  15
ENDBRANCH  13  14
ENDBRANCH  12  13
ENDBRANCH  11  12
ENDBRANCH   1  11
TORSDOF 14
ENDMDL
MODEL 2
REMARK VINA RESULT:    -3.625      2.698      5.407
REMARK INTER + INTRA:          -7.843
REMARK INTER:                  -6.733
REMARK INTRA:                  -1.109
REMARK UNBOUND:                -1.250
REMARK SMILES CCCCCCCCCCCCCCCC(=O)[O-]
REMARK SMILES IDX 9 1 10 2 11 3 12 4 13 5 14 6 15 7 16 8 17 9 18 10 8 11 7 12
REMARK SMILES IDX 6 13 5 14 4 15 3 16 2 17 1 18
REMARK H PARENT
REMARK Flexibility Score: inf
ROOT
ATOM      1  C   UNL     1      -8.733  -5.563  -8.398  1.00  0.00     0.000 C 
ENDROOT
BRANCH   1   2
ATOM      2  C   UNL     1      -9.780  -4.446  -8.581  1.00  0.00     0.000 C 
BRANCH   2   3
ATOM      3  C   UNL     1     -10.937  -4.457  -7.563  1.00  0.00     0.000 C 
BRANCH   3   4
ATOM      4  C   UNL     1     -10.572  -3.929  -6.164  1.00  0.00     0.000 C 
BRANCH   4   5
ATOM      5  C   UNL     1     -11.124  -4.812  -5.032  1.00  0.00     0.000 C 
BRANCH   5   6
ATOM      6  C   UNL     1     -10.147  -4.940  -3.853  1.00  0.00     0.006 C 
BRANCH   6   7
ATOM      7  C   UNL     1     -10.420  -3.913  -2.747  1.00  0.00     0.053 C 
BRANCH   7   8
ATOM      8  C   UNL     1      -9.179  -3.657  -1.953  1.00  0.00     0.041 C 
ATOM      9  O   UNL     1      -8.776  -2.478  -1.768  1.00  0.00    -0.550 OA
ATOM     10  O   UNL     1      -8.437  -4.723  -1.460  1.00  0.00    -0.550 OA
ENDBRANCH   7   8
ENDBRANCH   6   7
ENDBRANCH   5   6
ENDBRANCH   4   5
ENDBRANCH   3   4
ENDBRANCH   2   3
ENDBRANCH   1   2
BRANCH   1  11
ATOM     11  C   UNL     1      -9.109  -6.649  -7.374  1.00  0.00     0.000 C 
BRANCH  11  12
ATOM     12  C   UNL     1      -8.050  -6.821  -6.272  1.00  0.00    -0.000 C 
BRANCH  12  13
ATOM     13  C   UNL     1      -6.812  -5.937  -6.500  1.00  0.00    -0.000 C 
BRANCH  13  14
ATOM     14  C   UNL     1      -5.687  -6.223  -5.494  1.00  0.00    -0.000 C 
BRANCH  14  15
ATOM     15  C   UNL     1      -4.390  -5.515  -5.908  1.00  0.00    -0.000 C 
BRANCH  15  16
ATOM     16  C   UNL     1      -4.526  -3.993  -5.777  1.00  0.00    -0.000 C 
BRANCH  16  17
ATOM     17  C   UNL     1      -3.166  -3.340  -5.512  1.00  0.00    -0.003 C 
ATOM     18  C   UNL     1      -2.112  -4.384  -5.154  1.00  0.00     0.004 C 
ENDBRANCH  16  17
ENDBRANCH  15  16
ENDBRANCH  14  15
ENDBRANCH  13  14
ENDBRANCH  12  13
ENDBRANCH  11  12
ENDBRANCH   1  11
TORSDOF 14
ENDMDL
MODEL 3
REMARK VINA RESULT:    -3.493      1.863      5.575
REMARK INTER + INTRA:          -7.603
REMARK INTER:                  -6.395
REMARK INTRA:                  -1.208
REMARK UNBOUND:                -1.250
REMARK SMILES CCCCCCCCCCCCCCCC(=O)[O-]
REMARK SMILES IDX 9 1 10 2 11 3 12 4 13 5 14 6 15 7 16 8 17 9 18 10 8 11 7 12
REMARK SMILES IDX 6 13 5 14 4 15 3 16 2 17 1 18
REMARK H PARENT
REMARK Flexibility Score: inf
ROOT
ATOM      1  C   UNL     1      -9.910  -6.839  -6.801  1.00  0.00     0.000 C 
ENDROOT
BRANCH   1   2
ATOM      2  C   UNL     1     -10.854  -7.187  -5.633  1.00  0.00     0.000 C 
BRANCH   2   3
ATOM      3  C   UNL     1     -11.065  -6.060  -4.602  1.00  0.00     0.000 C 
BRANCH   3   4
ATOM      4  C   UNL     1     -10.143  -4.841  -4.780  1.00  0.00     0.000 C 
BRANCH   4   5
ATOM      5  C   UNL     1     -10.698  -3.573  -4.108  1.00  0.00     0.000 C 
BRANCH   5   6
ATOM      6  C   UNL     1     -11.125  -3.814  -2.652  1.00  0.00     0.006 C 
BRANCH   6   7
ATOM      7  C   UNL     1     -10.307  -2.983  -1.654  1.00  0.00     0.053 C 
BRANCH   7   8
ATOM      8  C   UNL     1      -8.857  -3.338  -1.742  1.00  0.00     0.041 C 
ATOM      9  O   UNL     1      -8.493  -4.541  -1.661  1.00  0.00    -0.550 OA
ATOM     10  O   UNL     1      -7.903  -2.336  -1.861  1.00  0.00    -0.550 OA
ENDBRANCH   7   8
ENDBRANCH   6   7
ENDBRANCH   5   6
ENDBRANCH   4   5
ENDBRANCH   3   4
ENDBRANCH   2   3
ENDBRANCH   1   2
BRANCH   1  11
ATOM     11  C   UNL     1     -10.613  -6.457  -8.116  1.00  0.00     0.000 C 
BRANCH  11  12
ATOM     12  C   UNL     1     -10.645  -4.937  -8.355  1.00  0.00    -0.000 C 
BRANCH  12  13
ATOM     13  C   UNL     1      -9.474  -4.452  -9.227  1.00  0.00    -0.000 C 
BRANCH  13  14
ATOM     14  C   UNL     1      -8.659  -5.611  -9.822  1.00  0.00    -0.000 C 
BRANCH  14  15
ATOM     15  C   UNL     1      -7.246  -5.647  -9.227  1.00  0.00    -0.000 C 
BRANCH  15  16
ATOM     16  C   UNL     1      -7.244  -5.145  -7.778  1.00  0.00    -0.000 C 
BRANCH  16  17
ATOM     17  C   UNL     1      -5.998  -5.630  -7.029  1.00  0.00    -0.003 C 
ATOM     18  C   UNL     1      -6.353  -6.132  -5.633  1.00  0.00     0.004 C 
ENDBRANCH  16  17
ENDBRANCH  15  16
ENDBRANCH  14  15
ENDBRANCH  13  14
ENDBRANCH  12  13
ENDBRANCH  11  12
ENDBRANCH   1  11
TORSDOF 14
ENDMDL
MODEL 4
REMARK VINA RESULT:    -3.289      1.975      5.892
REMARK INTER + INTRA:          -7.231
REMARK INTER:                  -5.908
REMARK INTRA:                  -1.323
REMARK UNBOUND:                -1.250
REMARK SMILES CCCCCCCCCCCCCCCC(=O)[O-]
REMARK SMILES IDX 9 1 10 2 11 3 12 4 13 5 14 6 15 7 16 8 17 9 18 10 8 11 7 12
REMARK SMILES IDX 6 13 5 14 4 15 3 16 2 17 1 18
REMARK H PARENT
REMARK Flexibility Score: inf
ROOT
ATOM      1  C   UNL     1      -9.528  -7.380  -6.853  1.00  0.00     0.000 C 
ENDROOT
BRANCH   1   2
ATOM      2  C   UNL     1      -9.229  -6.914  -5.414  1.00  0.00     0.000 C 
BRANCH   2   3
ATOM      3  C   UNL     1      -9.359  -5.397  -5.175  1.00  0.00     0.000 C 
BRANCH   3   4
ATOM      4  C   UNL     1     -10.786  -4.911  -4.864  1.00  0.00     0.000 C 
BRANCH   4   5
ATOM      5  C   UNL     1     -11.098  -4.907  -3.358  1.00  0.00     0.000 C 
BRANCH   5   6
ATOM      6  C   UNL     1     -11.119  -3.491  -2.763  1.00  0.00     0.006 C 
BRANCH   6   7
ATOM      7  C   UNL     1     -10.303  -3.384  -1.468  1.00  0.00     0.053 C 
BRANCH   7   8
ATOM      8  C   UNL     1      -8.848  -3.588  -1.749  1.00  0.00     0.041 C 
ATOM      9  O   UNL     1      -8.125  -2.614  -2.088  1.00  0.00    -0.550 OA
ATOM     10  O   UNL     1      -8.301  -4.863  -1.686  1.00  0.00    -0.550 OA
ENDBRANCH   7   8
ENDBRANCH   6   7
ENDBRANCH   5   6
ENDBRANCH   4   5
ENDBRANCH   3   4
ENDBRANCH   2   3
ENDBRANCH   1   2
BRANCH   1  11
ATOM     11  C   UNL     1     -10.861  -6.880  -7.438  1.00  0.00     0.000 C 
BRANCH  11  12
ATOM     12  C   UNL     1     -11.018  -7.213  -8.932  1.00  0.00    -0.000 C 
BRANCH  12  13
ATOM     13  C   UNL     1     -10.777  -5.993  -9.837  1.00  0.00    -0.000 C 
BRANCH  13  14
ATOM     14  C   UNL     1     -10.300  -4.760  -9.053  1.00  0.00    -0.000 C 
BRANCH  14  15
ATOM     15  C   UNL     1      -8.904  -4.323  -9.518  1.00  0.00    -0.000 C 
BRANCH  15  16
ATOM     16  C   UNL     1      -8.125  -5.504 -10.110  1.00  0.00    -0.000 C 
BRANCH  16  17
ATOM     17  C   UNL     1      -6.731  -5.613  -9.482  1.00  0.00    -0.003 C 
ATOM     18  C   UNL     1      -6.788  -5.404  -7.972  1.00  0.00     0.004 C 
ENDBRANCH  16  17
ENDBRANCH  15  16
ENDBRANCH  14  15
ENDBRANCH  13  14
ENDBRANCH  12  13
ENDBRANCH  11  12
ENDBRANCH   1  11
TORSDOF 14
ENDMDL
MODEL 5
REMARK VINA RESULT:    -3.177      0.974      1.763
REMARK INTER + INTRA:          -7.028
REMARK INTER:                  -5.886
REMARK INTRA:                  -1.142
REMARK UNBOUND:                -1.250
REMARK SMILES CCCCCCCCCCCCCCCC(=O)[O-]
REMARK SMILES IDX 9 1 10 2 11 3 12 4 13 5 14 6 15 7 16 8 17 9 18 10 8 11 7 12
REMARK SMILES IDX 6 13 5 14 4 15 3 16 2 17 1 18
REMARK H PARENT
REMARK Flexibility Score: inf
ROOT
ATOM      1  C   UNL     1      -9.963  -6.874  -5.895  1.00  0.00     0.000 C 
ENDROOT
BRANCH   1   2
ATOM      2  C   UNL     1     -10.682  -7.164  -7.227  1.00  0.00     0.000 C 
BRANCH   2   3
ATOM      3  C   UNL     1      -9.849  -6.893  -8.495  1.00  0.00     0.000 C 
BRANCH   3   4
ATOM      4  C   UNL     1      -9.723  -5.409  -8.881  1.00  0.00     0.000 C 
BRANCH   4   5
ATOM      5  C   UNL     1      -8.264  -4.922  -8.902  1.00  0.00     0.000 C 
BRANCH   5   6
ATOM      6  C   UNL     1      -7.322  -5.843  -8.111  1.00  0.00     0.006 C 
BRANCH   6   7
ATOM      7  C   UNL     1      -7.076  -5.344  -6.680  1.00  0.00     0.053 C 
BRANCH   7   8
ATOM      8  C   UNL     1      -6.106  -6.237  -5.975  1.00  0.00     0.041 C 
ATOM      9  O   UNL     1      -6.522  -7.201  -5.279  1.00  0.00    -0.550 OA
ATOM     10  O   UNL     1      -4.743  -5.975  -6.044  1.00  0.00    -0.550 OA
ENDBRANCH   7   8
ENDBRANCH   6   7
ENDBRANCH   5   6
ENDBRANCH   4   5
ENDBRANCH   3   4
ENDBRANCH   2   3
ENDBRANCH   1   2
BRANCH   1  11
ATOM     11  C   UNL     1     -10.868  -6.870  -4.650  1.00  0.00     0.000 C 
BRANCH  11  12
ATOM     12  C   UNL     1     -11.125  -5.455  -4.104  1.00  0.00    -0.000 C 
BRANCH  12  13
ATOM     13  C   UNL     1     -10.716  -4.356  -5.099  1.00  0.00    -0.000 C 
BRANCH  13  14
ATOM     14  C   UNL     1     -10.339  -3.039  -4.404  1.00  0.00    -0.000 C 
BRANCH  14  15
ATOM     15  C   UNL     1     -10.809  -3.037  -2.943  1.00  0.00    -0.000 C 
BRANCH  15  16
ATOM     16  C   UNL     1      -9.629  -3.238  -1.984  1.00  0.00    -0.000 C 
BRANCH  16  17
ATOM     17  C   UNL     1      -9.974  -4.257  -0.893  1.00  0.00    -0.003 C 
ATOM     18  C   UNL     1     -11.055  -3.721   0.041  1.00  0.00     0.004 C 
ENDBRANCH  16  17
ENDBRANCH  15  16
ENDBRANCH  14  15
ENDBRANCH  13  14
ENDBRANCH  12  13
ENDBRANCH  11  12
ENDBRANCH   1  11
TORSDOF 14
ENDMDL
MODEL 6
REMARK VINA RESULT:    -3.147     18.394     21.045
REMARK INTER + INTRA:          -6.973
REMARK INTER:                  -5.950
REMARK INTRA:                  -1.023
REMARK UNBOUND:                -1.250
REMARK SMILES CCCCCCCCCCCCCCCC(=O)[O-]
REMARK SMILES IDX 9 1 10 2 11 3 12 4 13 5 14 6 15 7 16 8 17 9 18 10 8 11 7 12
REMARK SMILES IDX 6 13 5 14 4 15 3 16 2 17 1 18
REMARK H PARENT
REMARK Flexibility Score: inf
ROOT
ATOM      1  C   UNL     1      -4.784   7.806   7.501  1.00  0.00     0.000 C 
ENDROOT
BRANCH   1   2
ATOM      2  C   UNL     1      -4.501   9.312   7.329  1.00  0.00     0.000 C 
BRANCH   2   3
ATOM      3  C   UNL     1      -3.185   9.809   7.958  1.00  0.00     0.000 C 
BRANCH   3   4
ATOM      4  C   UNL     1      -3.140   9.747   9.495  1.00  0.00     0.000 C 
BRANCH   4   5
ATOM      5  C   UNL     1      -1.804   9.202  10.029  1.00  0.00     0.000 C 
BRANCH   5   6
ATOM      6  C   UNL     1      -0.589   9.812   9.314  1.00  0.00     0.006 C 
BRANCH   6   7
ATOM      7  C   UNL     1       0.521   8.783   9.059  1.00  0.00     0.053 C 
BRANCH   7   8
ATOM      8  C   UNL     1       1.705   9.439   8.422  1.00  0.00     0.041 C 
ATOM      9  O   UNL     1       2.754   9.640   9.090  1.00  0.00    -0.550 OA
ATOM     10  O   UNL     1       1.633   9.876   7.106  1.00  0.00    -0.550 OA
ENDBRANCH   7   8
ENDBRANCH   6   7
ENDBRANCH   5   6
ENDBRANCH   4   5
ENDBRANCH   3   4
ENDBRANCH   2   3
ENDBRANCH   1   2
BRANCH   1  11
ATOM     11  C   UNL     1      -6.133   7.465   8.158  1.00  0.00     0.000 C 
BRANCH  11  12
ATOM     12  C   UNL     1      -6.657   8.593   9.063  1.00  0.00    -0.000 C 
BRANCH  12  13
ATOM     13  C   UNL     1      -8.181   8.773   8.960  1.00  0.00    -0.000 C 
BRANCH  13  14
ATOM     14  C   UNL     1      -8.883   7.543   8.366  1.00  0.00    -0.000 C 
BRANCH  14  15
ATOM     15  C   UNL     1     -10.283   7.906   7.853  1.00  0.00    -0.000 C 
BRANCH  15  16
ATOM     16  C   UNL     1     -10.359   9.386   7.460  1.00  0.00    -0.000 C 
BRANCH  16  17
ATOM     17  C   UNL     1     -11.125   9.568   6.146  1.00  0.00    -0.003 C 
ATOM     18  C   UNL     1     -10.996   8.335   5.256  1.00  0.00     0.004 C 
ENDBRANCH  16  17
ENDBRANCH  15  16
ENDBRANCH  14  15
ENDBRANCH  13  14
ENDBRANCH  12  13
ENDBRANCH  11  12
ENDBRANCH   1  11
TORSDOF 14
ENDMDL
MODEL 7
REMARK VINA RESULT:    -3.008      2.556      3.840
REMARK INTER + INTRA:          -6.721
REMARK INTER:                  -6.125
REMARK INTRA:                  -0.596
REMARK UNBOUND:                -1.250
REMARK SMILES CCCCCCCCCCCCCCCC(=O)[O-]
REMARK SMILES IDX 9 1 10 2 11 3 12 4 13 5 14 6 15 7 16 8 17 9 18 10 8 11 7 12
REMARK SMILES IDX 6 13 5 14 4 15 3 16 2 17 1 18
REMARK H PARENT
REMARK Flexibility Score: inf
ROOT
ATOM      1  C   UNL     1      -6.994  -6.788  -5.331  1.00  0.00     0.000 C 
ENDROOT
BRANCH   1   2
ATOM      2  C   UNL     1      -6.453  -5.951  -6.506  1.00  0.00     0.000 C 
BRANCH   2   3
ATOM      3  C   UNL     1      -7.525  -5.386  -7.459  1.00  0.00     0.000 C 
BRANCH   3   4
ATOM      4  C   UNL     1      -7.319  -5.734  -8.944  1.00  0.00     0.000 C 
BRANCH   4   5
ATOM      5  C   UNL     1      -8.477  -6.562  -9.526  1.00  0.00     0.000 C 
BRANCH   5   6
ATOM      6  C   UNL     1      -9.816  -5.809  -9.495  1.00  0.00     0.006 C 
BRANCH   6   7
ATOM      7  C   UNL     1      -9.721  -4.413 -10.124  1.00  0.00     0.053 C 
BRANCH   7   8
ATOM      8  C   UNL     1     -10.463  -3.414  -9.294  1.00  0.00     0.041 C 
ATOM      9  O   UNL     1     -10.669  -2.252  -9.734  1.00  0.00    -0.550 OA
ATOM     10  O   UNL     1     -10.883  -3.750  -8.013  1.00  0.00    -0.550 OA
ENDBRANCH   7   8
ENDBRANCH   6   7
ENDBRANCH   5   6
ENDBRANCH   4   5
ENDBRANCH   3   4
ENDBRANCH   2   3
ENDBRANCH   1   2
BRANCH   1  11
ATOM     11  C   UNL     1      -8.339  -7.490  -5.593  1.00  0.00     0.000 C 
BRANCH  11  12
ATOM     12  C   UNL     1      -9.482  -6.500  -5.875  1.00  0.00    -0.000 C 
BRANCH  12  13
ATOM     13  C   UNL     1     -10.771  -6.855  -5.114  1.00  0.00    -0.000 C 
BRANCH  13  14
ATOM     14  C   UNL     1     -11.121  -5.825  -4.030  1.00  0.00    -0.000 C 
BRANCH  14  15
ATOM     15  C   UNL     1     -10.326  -4.528  -4.230  1.00  0.00    -0.000 C 
BRANCH  15  16
ATOM     16  C   UNL     1     -10.785  -3.442  -3.250  1.00  0.00    -0.000 C 
BRANCH  16  17
ATOM     17  C   UNL     1      -9.862  -3.378  -2.028  1.00  0.00    -0.003 C 
ATOM     18  C   UNL     1     -10.608  -3.756  -0.752  1.00  0.00     0.004 C 
ENDBRANCH  16  17
ENDBRANCH  15  16
ENDBRANCH  14  15
ENDBRANCH  13  14
ENDBRANCH  12  13
ENDBRANCH  11  12
ENDBRANCH   1  11
TORSDOF 14
ENDMDL
MODEL 8
REMARK VINA RESULT:    -2.756     17.446     20.067
REMARK INTER + INTRA:          -6.263
REMARK INTER:                  -5.150
REMARK INTRA:                  -1.113
REMARK UNBOUND:                -1.250
REMARK SMILES CCCCCCCCCCCCCCCC(=O)[O-]
REMARK SMILES IDX 9 1 10 2 11 3 12 4 13 5 14 6 15 7 16 8 17 9 18 10 8 11 7 12
REMARK SMILES IDX 6 13 5 14 4 15 3 16 2 17 1 18
REMARK H PARENT
REMARK Flexibility Score: inf
ROOT
ATOM      1  C   UNL     1       2.659  -5.894   9.479  1.00  0.00     0.000 C 
ENDROOT
BRANCH   1   2
ATOM      2  C   UNL     1       3.973  -5.184   9.098  1.00  0.00     0.000 C 
BRANCH   2   3
ATOM      3  C   UNL     1       5.117  -5.329  10.120  1.00  0.00     0.000 C 
BRANCH   3   4
ATOM      4  C   UNL     1       6.452  -5.820   9.531  1.00  0.00     0.000 C 
BRANCH   4   5
ATOM      5  C   UNL     1       6.668  -7.330   9.729  1.00  0.00     0.000 C 
BRANCH   5   6
ATOM      6  C   UNL     1       7.954  -7.835   9.055  1.00  0.00     0.006 C 
BRANCH   6   7
ATOM      7  C   UNL     1       7.730  -9.122   8.250  1.00  0.00     0.053 C 
BRANCH   7   8
ATOM      8  C   UNL     1       7.510  -8.804   6.805  1.00  0.00     0.041 C 
ATOM      9  O   UNL     1       7.578  -9.715   5.938  1.00  0.00    -0.550 OA
ATOM     10  O   UNL     1       7.283  -7.492   6.410  1.00  0.00    -0.550 OA
ENDBRANCH   7   8
ENDBRANCH   6   7
ENDBRANCH   5   6
ENDBRANCH   4   5
ENDBRANCH   3   4
ENDBRANCH   2   3
ENDBRANCH   1   2
BRANCH   1  11
ATOM     11  C   UNL     1       2.826  -7.303  10.077  1.00  0.00     0.000 C 
BRANCH  11  12
ATOM     12  C   UNL     1       2.987  -8.391   9.002  1.00  0.00    -0.000 C 
BRANCH  12  13
ATOM     13  C   UNL     1       2.015  -9.566   9.201  1.00  0.00    -0.000 C 
BRANCH  13  14
ATOM     14  C   UNL     1       1.092  -9.783   7.992  1.00  0.00    -0.000 C 
BRANCH  14  15
ATOM     15  C   UNL     1       1.559  -8.950   6.791  1.00  0.00    -0.000 C 
BRANCH  15  16
ATOM     16  C   UNL     1       1.675  -9.817   5.531  1.00  0.00    -0.000 C 
BRANCH  16  17
ATOM     17  C   UNL     1       1.258  -9.032   4.283  1.00  0.00    -0.003 C 
ATOM     18  C   UNL     1       1.504  -9.842   3.013  1.00  0.00     0.004 C 
ENDBRANCH  16  17
ENDBRANCH  15  16
ENDBRANCH  14  15
ENDBRANCH  13  14
ENDBRANCH  12  13
ENDBRANCH  11  12
ENDBRANCH   1  11
TORSDOF 14
ENDMDL
