MODEL 1
REMARK VINA RESULT:    -6.259      0.000      0.000
REMARK INTER + INTRA:          -7.138
REMARK INTER:                  -6.808
REMARK INTRA:                  -0.330
REMARK UNBOUND:                -0.330
REMARK SMILES C[C@@H]1[C@H](C)CC[C@]2(C(=O)[O-])CC[C@]3(C)C(=CC[C@H]4[C@@]5(C)CC[C@H](O)C(C)(C)[C@H]5CC[C@]43C)[C@H]12
REMARK SMILES IDX 7 1 6 2 11 3 33 4 5 5 12 6 15 7 2 8 3 9 13 10 16 11 1 12
REMARK SMILES IDX 4 13 14 14 31 15 17 16 18 17 30 18 32 19 19 20 29 21 28 22
REMARK SMILES IDX 21 23 20 24 25 25 22 26 23 27 26 28 27 29 8 30 9 31 10 32
REMARK SMILES IDX 24 33
REMARK H PARENT 24 34
REMARK Flexibility Score: inf
ROOT
ATOM      1  C   UNL     1      13.206  52.638  18.122  1.00  0.00     0.017 C 
ATOM      2  C   UNL     1      13.001  53.490  19.414  1.00  0.00     0.014 C 
ATOM      3  C   UNL     1      12.933  53.549  16.904  1.00  0.00     0.014 C 
ATOM      4  C   UNL     1      12.271  51.363  18.149  1.00  0.00     0.030 C 
ATOM      5  C   UNL     1      12.960  52.638  20.684  1.00  0.00     0.004 C 
ATOM      6  C   UNL     1      12.787  52.787  15.574  1.00  0.00     0.013 C 
ATOM      7  C   UNL     1      11.837  50.825  16.764  1.00  0.00    -0.063 C 
ATOM      8  C   UNL     1      11.185  51.307  19.273  1.00  0.00    -0.003 C 
ATOM      9  C   UNL     1      11.856  51.543  20.670  1.00  0.00    -0.011 C 
ATOM     10  C   UNL     1      11.613  51.746  15.539  1.00  0.00    -0.006 C 
ATOM     11  C   UNL     1      11.944  49.492  16.622  1.00  0.00    -0.027 C 
ATOM     12  C   UNL     1       9.930  52.157  19.007  1.00  0.00     0.008 C 
ATOM     13  C   UNL     1      10.858  51.737  21.821  1.00  0.00     0.008 C 
ATOM     14  C   UNL     1      10.274  52.531  15.715  1.00  0.00     0.017 C 
ATOM     15  C   UNL     1      11.557  50.940  14.113  1.00  0.00    -0.020 C 
ATOM     16  C   UNL     1      12.149  48.790  15.328  1.00  0.00     0.032 C 
ATOM     17  C   UNL     1      12.530  49.707  14.127  1.00  0.00     0.006 C 
ATOM     18  C   UNL     1      10.131  50.359  13.800  1.00  0.00     0.008 C 
ATOM     19  C   UNL     1      11.929  51.957  12.979  1.00  0.00     0.012 C 
ATOM     20  C   UNL     1      12.634  48.895  12.726  1.00  0.00    -0.025 C 
ATOM     21  C   UNL     1      10.051  49.134  12.842  1.00  0.00     0.005 C 
ATOM     22  C   UNL     1      11.265  48.936  11.895  1.00  0.00     0.003 C 
ATOM     23  C   UNL     1      13.073  47.409  12.994  1.00  0.00     0.010 C 
ATOM     24  C   UNL     1      13.781  49.556  11.892  1.00  0.00     0.012 C 
ATOM     25  C   UNL     1      11.060  47.796  10.785  1.00  0.00    -0.006 C 
ATOM     26  C   UNL     1      12.998  46.476  11.792  1.00  0.00     0.033 C 
ATOM     27  C   UNL     1      11.560  46.410  11.279  1.00  0.00     0.120 C 
ATOM     28  C   UNL     1       9.564  47.634  10.389  1.00  0.00     0.014 C 
ATOM     29  C   UNL     1      11.785  48.195   9.463  1.00  0.00     0.014 C 
ENDROOT
BRANCH   1  30
ATOM     30  C   UNL     1      14.677  52.210  18.029  1.00  0.00     0.048 C 
ATOM     31  O   UNL     1      15.006  51.006  18.210  1.00  0.00    -0.550 OA
ATOM     32  O   UNL     1      15.661  53.115  17.647  1.00  0.00    -0.550 OA
ENDBRANCH   1  30
BRANCH  27  33
ATOM     33  O   UNL     1      11.478  45.457  10.247  1.00  0.00    -0.393 OA
ATOM     34  H   UNL     1      10.988  45.885   9.496  1.00  0.00     0.210 HD
ENDBRANCH  27  33
TORSDOF 2
ENDMDL
MODEL 2
REMARK VINA RESULT:    -6.200      6.288      9.087
REMARK INTER + INTRA:          -7.073
REMARK INTER:                  -6.809
REMARK INTRA:                  -0.264
REMARK UNBOUND:                -0.330
REMARK SMILES C[C@@H]1[C@H](C)CC[C@]2(C(=O)[O-])CC[C@]3(C)C(=CC[C@H]4[C@@]5(C)CC[C@H](O)C(C)(C)[C@H]5CC[C@]43C)[C@H]12
REMARK SMILES IDX 7 1 6 2 11 3 33 4 5 5 12 6 15 7 2 8 3 9 13 10 16 11 1 12
REMARK SMILES IDX 4 13 14 14 31 15 17 16 18 17 30 18 32 19 19 20 29 21 28 22
REMARK SMILES IDX 21 23 20 24 25 25 22 26 23 27 26 28 27 29 8 30 9 31 10 32
REMARK SMILES IDX 24 33
REMARK H PARENT 24 34
REMARK Flexibility Score: inf
ROOT
ATOM      1  C   UNL     1      15.575  54.115   6.132  1.00  0.00     0.017 C 
ATOM      2  C   UNL     1      15.892  55.539   5.580  1.00  0.00     0.014 C 
ATOM      3  C   UNL     1      14.504  53.479   5.219  1.00  0.00     0.014 C 
ATOM      4  C   UNL     1      15.114  54.200   7.642  1.00  0.00     0.030 C 
ATOM      5  C   UNL     1      16.721  56.381   6.553  1.00  0.00     0.004 C 
ATOM      6  C   UNL     1      13.858  52.209   5.804  1.00  0.00     0.013 C 
ATOM      7  C   UNL     1      14.153  53.080   8.110  1.00  0.00    -0.063 C 
ATOM      8  C   UNL     1      14.828  55.627   8.215  1.00  0.00    -0.003 C 
ATOM      9  C   UNL     1      16.059  56.561   7.948  1.00  0.00    -0.011 C 
ATOM     10  C   UNL     1      13.115  52.419   7.170  1.00  0.00    -0.006 C 
ATOM     11  C   UNL     1      14.469  52.529   9.295  1.00  0.00    -0.027 C 
ATOM     12  C   UNL     1      13.466  56.225   7.819  1.00  0.00     0.008 C 
ATOM     13  C   UNL     1      15.802  58.043   8.261  1.00  0.00     0.008 C 
ATOM     14  C   UNL     1      11.931  53.408   6.922  1.00  0.00     0.017 C 
ATOM     15  C   UNL     1      12.503  51.014   7.752  1.00  0.00    -0.020 C 
ATOM     16  C   UNL     1      14.117  51.145   9.708  1.00  0.00     0.032 C 
ATOM     17  C   UNL     1      13.588  50.225   8.567  1.00  0.00     0.006 C 
ATOM     18  C   UNL     1      11.302  51.239   8.741  1.00  0.00     0.008 C 
ATOM     19  C   UNL     1      11.979  50.183   6.530  1.00  0.00     0.012 C 
ATOM     20  C   UNL     1      13.122  48.766   9.103  1.00  0.00    -0.025 C 
ATOM     21  C   UNL     1      11.012  50.119   9.782  1.00  0.00     0.005 C 
ATOM     22  C   UNL     1      11.554  48.708   9.426  1.00  0.00     0.003 C 
ATOM     23  C   UNL     1      13.961  48.363  10.370  1.00  0.00     0.010 C 
ATOM     24  C   UNL     1      13.473  47.728   7.986  1.00  0.00     0.012 C 
ATOM     25  C   UNL     1      11.062  47.541  10.411  1.00  0.00    -0.006 C 
ATOM     26  C   UNL     1      13.480  47.118  11.106  1.00  0.00     0.033 C 
ATOM     27  C   UNL     1      12.048  47.328  11.594  1.00  0.00     0.120 C 
ATOM     28  C   UNL     1       9.665  47.849  11.023  1.00  0.00     0.014 C 
ATOM     29  C   UNL     1      10.870  46.212   9.619  1.00  0.00     0.014 C 
ENDROOT
BRANCH   1  30
ATOM     30  C   UNL     1      16.829  53.237   6.014  1.00  0.00     0.048 C 
ATOM     31  O   UNL     1      17.544  53.279   4.975  1.00  0.00    -0.550 OA
ATOM     32  O   UNL     1      17.259  52.457   7.081  1.00  0.00    -0.550 OA
ENDBRANCH   1  30
BRANCH  27  33
ATOM     33  O   UNL     1      11.655  46.224  12.373  1.00  0.00    -0.393 OA
ATOM     34  H   UNL     1      12.169  46.271  13.221  1.00  0.00     0.210 HD
ENDBRANCH  27  33
TORSDOF 2
ENDMDL
MODEL 3
REMARK VINA RESULT:    -6.172      8.189     10.813
REMARK INTER + INTRA:          -7.044
REMARK INTER:                  -6.733
REMARK INTRA:                  -0.311
REMARK UNBOUND:                -0.330
REMARK SMILES C[C@@H]1[C@H](C)CC[C@]2(C(=O)[O-])CC[C@]3(C)C(=CC[C@H]4[C@@]5(C)CC[C@H](O)C(C)(C)[C@H]5CC[C@]43C)[C@H]12
REMARK SMILES IDX 7 1 6 2 11 3 33 4 5 5 12 6 15 7 2 8 3 9 13 10 16 11 1 12
REMARK SMILES IDX 4 13 14 14 31 15 17 16 18 17 30 18 32 19 19 20 29 21 28 22
REMARK SMILES IDX 21 23 20 24 25 25 22 26 23 27 26 28 27 29 8 30 9 31 10 32
REMARK SMILES IDX 24 33
REMARK H PARENT 24 34
REMARK Flexibility Score: inf
ROOT
ATOM      1  C   UNL     1      17.706  48.761   6.445  1.00  0.00     0.017 C 
ATOM      2  C   UNL     1      19.152  48.174   6.424  1.00  0.00     0.014 C 
ATOM      3  C   UNL     1      17.526  49.625   5.177  1.00  0.00     0.014 C 
ATOM      4  C   UNL     1      17.463  49.577   7.777  1.00  0.00     0.030 C 
ATOM      5  C   UNL     1      19.552  47.537   7.757  1.00  0.00     0.004 C 
ATOM      6  C   UNL     1      16.274  50.521   5.205  1.00  0.00     0.013 C 
ATOM      7  C   UNL     1      16.437  50.732   7.673  1.00  0.00    -0.063 C 
ATOM      8  C   UNL     1      18.713  49.855   8.675  1.00  0.00    -0.003 C 
ATOM      9  C   UNL     1      19.463  48.509   8.968  1.00  0.00    -0.011 C 
ATOM     10  C   UNL     1      16.234  51.560   6.380  1.00  0.00    -0.006 C 
ATOM     11  C   UNL     1      15.545  50.782   8.678  1.00  0.00    -0.027 C 
ATOM     12  C   UNL     1      19.615  51.006   8.195  1.00  0.00     0.008 C 
ATOM     13  C   UNL     1      20.830  48.687   9.646  1.00  0.00     0.008 C 
ATOM     14  C   UNL     1      17.438  52.538   6.193  1.00  0.00     0.017 C 
ATOM     15  C   UNL     1      14.849  52.436   6.372  1.00  0.00    -0.020 C 
ATOM     16  C   UNL     1      14.181  51.363   8.574  1.00  0.00     0.032 C 
ATOM     17  C   UNL     1      13.700  51.676   7.125  1.00  0.00     0.006 C 
ATOM     18  C   UNL     1      15.002  53.819   7.103  1.00  0.00     0.008 C 
ATOM     19  C   UNL     1      14.474  52.715   4.875  1.00  0.00     0.012 C 
ATOM     20  C   UNL     1      12.251  52.406   7.089  1.00  0.00    -0.025 C 
ATOM     21  C   UNL     1      13.710  54.473   7.675  1.00  0.00     0.005 C 
ATOM     22  C   UNL     1      12.374  54.002   7.038  1.00  0.00     0.003 C 
ATOM     23  C   UNL     1      11.390  51.958   8.326  1.00  0.00     0.010 C 
ATOM     24  C   UNL     1      11.504  51.890   5.815  1.00  0.00     0.012 C 
ATOM     25  C   UNL     1      11.088  54.841   7.501  1.00  0.00    -0.006 C 
ATOM     26  C   UNL     1      10.094  52.731   8.537  1.00  0.00     0.033 C 
ATOM     27  C   UNL     1      10.405  54.212   8.748  1.00  0.00     0.120 C 
ATOM     28  C   UNL     1      11.452  56.309   7.865  1.00  0.00     0.014 C 
ATOM     29  C   UNL     1      10.070  54.959   6.326  1.00  0.00     0.014 C 
ENDROOT
BRANCH   1  30
ATOM     30  C   UNL     1      16.694  47.611   6.340  1.00  0.00     0.048 C 
ATOM     31  O   UNL     1      16.779  46.766   5.407  1.00  0.00    -0.550 OA
ATOM     32  O   UNL     1      15.727  47.420   7.320  1.00  0.00    -0.550 OA
ENDBRANCH   1  30
BRANCH  27  33
ATOM     33  O   UNL     1       9.216  54.897   9.059  1.00  0.00    -0.393 OA
ATOM     34  H   UNL     1       8.545  54.211   9.316  1.00  0.00     0.210 HD
ENDBRANCH  27  33
TORSDOF 2
ENDMDL
MODEL 4
REMARK VINA RESULT:    -6.172      4.064      6.012
REMARK INTER + INTRA:          -7.044
REMARK INTER:                  -6.781
REMARK INTRA:                  -0.262
REMARK UNBOUND:                -0.330
REMARK SMILES C[C@@H]1[C@H](C)CC[C@]2(C(=O)[O-])CC[C@]3(C)C(=CC[C@H]4[C@@]5(C)CC[C@H](O)C(C)(C)[C@H]5CC[C@]43C)[C@H]12
REMARK SMILES IDX 7 1 6 2 11 3 33 4 5 5 12 6 15 7 2 8 3 9 13 10 16 11 1 12
REMARK SMILES IDX 4 13 14 14 31 15 17 16 18 17 30 18 32 19 19 20 29 21 28 22
REMARK SMILES IDX 21 23 20 24 25 25 22 26 23 27 26 28 27 29 8 30 9 31 10 32
REMARK SMILES IDX 24 33
REMARK H PARENT 24 34
REMARK Flexibility Score: inf
ROOT
ATOM      1  C   UNL     1      13.937  48.662  14.366  1.00  0.00     0.017 C 
ATOM      2  C   UNL     1      14.338  50.169  14.429  1.00  0.00     0.014 C 
ATOM      3  C   UNL     1      13.820  48.264  12.878  1.00  0.00     0.014 C 
ATOM      4  C   UNL     1      12.598  48.414  15.169  1.00  0.00     0.030 C 
ATOM      5  C   UNL     1      14.206  50.758  15.836  1.00  0.00     0.004 C 
ATOM      6  C   UNL     1      13.132  46.905  12.647  1.00  0.00     0.013 C 
ATOM      7  C   UNL     1      11.731  47.233  14.669  1.00  0.00    -0.063 C 
ATOM      8  C   UNL     1      11.815  49.681  15.646  1.00  0.00    -0.003 C 
ATOM      9  C   UNL     1      12.779  50.631  16.438  1.00  0.00    -0.011 C 
ATOM     10  C   UNL     1      11.659  46.815  13.180  1.00  0.00    -0.006 C 
ATOM     11  C   UNL     1      11.271  46.425  15.641  1.00  0.00    -0.027 C 
ATOM     12  C   UNL     1      10.974  50.373  14.559  1.00  0.00     0.008 C 
ATOM     13  C   UNL     1      12.179  52.009  16.756  1.00  0.00     0.008 C 
ATOM     14  C   UNL     1      10.801  47.852  12.388  1.00  0.00     0.017 C 
ATOM     15  C   UNL     1      11.018  45.325  12.946  1.00  0.00    -0.020 C 
ATOM     16  C   UNL     1      10.930  44.989  15.461  1.00  0.00     0.032 C 
ATOM     17  C   UNL     1      11.405  44.356  14.118  1.00  0.00     0.006 C 
ATOM     18  C   UNL     1       9.446  45.342  12.903  1.00  0.00     0.008 C 
ATOM     19  C   UNL     1      11.537  44.797  11.564  1.00  0.00     0.012 C 
ATOM     20  C   UNL     1      10.910  42.822  13.938  1.00  0.00    -0.025 C 
ATOM     21  C   UNL     1       8.706  44.021  13.266  1.00  0.00     0.005 C 
ATOM     22  C   UNL     1       9.538  42.718  13.119  1.00  0.00     0.003 C 
ATOM     23  C   UNL     1      10.766  42.132  15.344  1.00  0.00     0.010 C 
ATOM     24  C   UNL     1      12.042  42.055  13.178  1.00  0.00     0.012 C 
ATOM     25  C   UNL     1       8.690  41.368  13.298  1.00  0.00    -0.006 C 
ATOM     26  C   UNL     1      10.100  40.762  15.337  1.00  0.00     0.033 C 
ATOM     27  C   UNL     1       8.684  40.879  14.774  1.00  0.00     0.120 C 
ATOM     28  C   UNL     1       7.206  41.552  12.867  1.00  0.00     0.014 C 
ATOM     29  C   UNL     1       9.245  40.253  12.360  1.00  0.00     0.014 C 
ENDROOT
BRANCH   1  30
ATOM     30  C   UNL     1      15.071  47.814  14.959  1.00  0.00     0.048 C 
ATOM     31  O   UNL     1      14.821  46.908  15.800  1.00  0.00    -0.550 OA
ATOM     32  O   UNL     1      16.380  47.958  14.511  1.00  0.00    -0.550 OA
ENDBRANCH   1  30
BRANCH  27  33
ATOM     33  O   UNL     1       8.036  39.635  14.882  1.00  0.00    -0.393 OA
ATOM     34  H   UNL     1       8.277  39.112  14.073  1.00  0.00     0.210 HD
ENDBRANCH  27  33
TORSDOF 2
ENDMDL
MODEL 5
REMARK VINA RESULT:    -6.089      9.029     11.108
REMARK INTER + INTRA:          -6.952
REMARK INTER:                  -6.644
REMARK INTRA:                  -0.308
REMARK UNBOUND:                -0.330
REMARK SMILES C[C@@H]1[C@H](C)CC[C@]2(C(=O)[O-])CC[C@]3(C)C(=CC[C@H]4[C@@]5(C)CC[C@H](O)C(C)(C)[C@H]5CC[C@]43C)[C@H]12
REMARK SMILES IDX 7 1 6 2 11 3 33 4 5 5 12 6 15 7 2 8 3 9 13 10 16 11 1 12
REMARK SMILES IDX 4 13 14 14 31 15 17 16 18 17 30 18 32 19 19 20 29 21 28 22
REMARK SMILES IDX 21 23 20 24 25 25 22 26 23 27 26 28 27 29 8 30 9 31 10 32
REMARK SMILES IDX 24 33
REMARK H PARENT 24 34
REMARK Flexibility Score: inf
ROOT
ATOM      1  C   UNL     1      15.686  53.217   6.466  1.00  0.00     0.017 C 
ATOM      2  C   UNL     1      14.480  53.949   5.798  1.00  0.00     0.014 C 
ATOM      3  C   UNL     1      16.757  52.979   5.378  1.00  0.00     0.014 C 
ATOM      4  C   UNL     1      15.205  51.876   7.151  1.00  0.00     0.030 C 
ATOM      5  C   UNL     1      13.240  53.987   6.696  1.00  0.00     0.004 C 
ATOM      6  C   UNL     1      17.866  51.997   5.799  1.00  0.00     0.013 C 
ATOM      7  C   UNL     1      16.268  50.753   7.235  1.00  0.00    -0.063 C 
ATOM      8  C   UNL     1      13.744  51.410   6.847  1.00  0.00    -0.003 C 
ATOM      9  C   UNL     1      12.743  52.582   7.139  1.00  0.00    -0.011 C 
ATOM     10  C   UNL     1      17.366  50.554   6.160  1.00  0.00    -0.006 C 
ATOM     11  C   UNL     1      16.348  50.146   8.432  1.00  0.00    -0.027 C 
ATOM     12  C   UNL     1      13.552  50.722   5.484  1.00  0.00     0.008 C 
ATOM     13  C   UNL     1      11.309  52.316   6.660  1.00  0.00     0.008 C 
ATOM     14  C   UNL     1      16.730  49.934   4.875  1.00  0.00     0.017 C 
ATOM     15  C   UNL     1      18.595  49.587   6.649  1.00  0.00    -0.020 C 
ATOM     16  C   UNL     1      17.567  49.486   8.969  1.00  0.00     0.032 C 
ATOM     17  C   UNL     1      18.881  49.774   8.181  1.00  0.00     0.006 C 
ATOM     18  C   UNL     1      18.280  48.060   6.453  1.00  0.00     0.008 C 
ATOM     19  C   UNL     1      19.851  49.942   5.779  1.00  0.00     0.012 C 
ATOM     20  C   UNL     1      20.151  48.941   8.753  1.00  0.00    -0.025 C 
ATOM     21  C   UNL     1      19.043  47.049   7.360  1.00  0.00     0.005 C 
ATOM     22  C   UNL     1      20.376  47.561   7.970  1.00  0.00     0.003 C 
ATOM     23  C   UNL     1      19.975  48.678  10.293  1.00  0.00     0.010 C 
ATOM     24  C   UNL     1      21.412  49.852   8.596  1.00  0.00     0.012 C 
ATOM     25  C   UNL     1      21.235  46.435   8.724  1.00  0.00    -0.006 C 
ATOM     26  C   UNL     1      20.984  47.719  10.914  1.00  0.00     0.033 C 
ATOM     27  C   UNL     1      20.884  46.354  10.236  1.00  0.00     0.120 C 
ATOM     28  C   UNL     1      20.997  45.022   8.118  1.00  0.00     0.014 C 
ATOM     29  C   UNL     1      22.759  46.703   8.534  1.00  0.00     0.014 C 
ENDROOT
BRANCH   1  30
ATOM     30  C   UNL     1      16.322  54.144   7.511  1.00  0.00     0.048 C 
ATOM     31  O   UNL     1      16.667  55.318   7.201  1.00  0.00    -0.550 OA
ATOM     32  O   UNL     1      16.438  53.749   8.839  1.00  0.00    -0.550 OA
ENDBRANCH   1  30
BRANCH  27  33
ATOM     33  O   UNL     1      21.732  45.444  10.893  1.00  0.00    -0.393 OA
ATOM     34  H   UNL     1      22.635  45.856  10.917  1.00  0.00     0.210 HD
ENDBRANCH  27  33
TORSDOF 2
ENDMDL
MODEL 6
REMARK VINA RESULT:    -6.068      3.954      8.831
REMARK INTER + INTRA:          -6.931
REMARK INTER:                  -6.876
REMARK INTRA:                  -0.055
REMARK UNBOUND:                -0.330
REMARK SMILES C[C@@H]1[C@H](C)CC[C@]2(C(=O)[O-])CC[C@]3(C)C(=CC[C@H]4[C@@]5(C)CC[C@H](O)C(C)(C)[C@H]5CC[C@]43C)[C@H]12
REMARK SMILES IDX 7 1 6 2 11 3 33 4 5 5 12 6 15 7 2 8 3 9 13 10 16 11 1 12
REMARK SMILES IDX 4 13 14 14 31 15 17 16 18 17 30 18 32 19 19 20 29 21 28 22
REMARK SMILES IDX 21 23 20 24 25 25 22 26 23 27 26 28 27 29 8 30 9 31 10 32
REMARK SMILES IDX 24 33
REMARK H PARENT 24 34
REMARK Flexibility Score: inf
ROOT
ATOM      1  C   UNL     1       9.621  42.886  13.132  1.00  0.00     0.017 C 
ATOM      2  C   UNL     1       9.291  41.375  12.924  1.00  0.00     0.014 C 
ATOM      3  C   UNL     1      10.564  43.328  11.991  1.00  0.00     0.014 C 
ATOM      4  C   UNL     1      10.248  43.120  14.565  1.00  0.00     0.030 C 
ATOM      5  C   UNL     1       8.603  40.747  14.139  1.00  0.00     0.004 C 
ATOM      6  C   UNL     1      11.228  44.697  12.225  1.00  0.00     0.013 C 
ATOM      7  C   UNL     1      11.219  44.322  14.678  1.00  0.00    -0.063 C 
ATOM      8  C   UNL     1      10.643  41.846  15.381  1.00  0.00    -0.003 C 
ATOM      9  C   UNL     1       9.421  40.866  15.455  1.00  0.00    -0.011 C 
ATOM     10  C   UNL     1      12.125  44.782  13.509  1.00  0.00    -0.006 C 
ATOM     11  C   UNL     1      11.018  45.105  15.753  1.00  0.00    -0.027 C 
ATOM     12  C   UNL     1      11.971  41.191  14.963  1.00  0.00     0.008 C 
ATOM     13  C   UNL     1       9.759  39.484  16.034  1.00  0.00     0.008 C 
ATOM     14  C   UNL     1      13.305  43.775  13.336  1.00  0.00     0.017 C 
ATOM     15  C   UNL     1      12.751  46.283  13.717  1.00  0.00    -0.020 C 
ATOM     16  C   UNL     1      11.368  46.547  15.830  1.00  0.00     0.032 C 
ATOM     17  C   UNL     1      11.737  47.215  14.471  1.00  0.00     0.006 C 
ATOM     18  C   UNL     1      14.060  46.279  14.586  1.00  0.00     0.008 C 
ATOM     19  C   UNL     1      13.109  46.846  12.298  1.00  0.00     0.012 C 
ATOM     20  C   UNL     1      12.212  48.758  14.638  1.00  0.00    -0.025 C 
ATOM     21  C   UNL     1      14.427  47.594  15.334  1.00  0.00     0.005 C 
ATOM     22  C   UNL     1      13.803  48.895  14.760  1.00  0.00     0.003 C 
ATOM     23  C   UNL     1      11.505  49.408  15.884  1.00  0.00     0.010 C 
ATOM     24  C   UNL     1      11.706  49.537  13.380  1.00  0.00     0.012 C 
ATOM     25  C   UNL     1      14.363  50.245  15.421  1.00  0.00    -0.006 C 
ATOM     26  C   UNL     1      12.024  50.782  16.288  1.00  0.00     0.033 C 
ATOM     27  C   UNL     1      13.508  50.691  16.640  1.00  0.00     0.120 C 
ATOM     28  C   UNL     1      15.828  50.084  15.919  1.00  0.00     0.014 C 
ATOM     29  C   UNL     1      14.423  51.382  14.356  1.00  0.00     0.014 C 
ENDROOT
BRANCH   1  30
ATOM     30  C   UNL     1       8.333  43.708  12.981  1.00  0.00     0.048 C 
ATOM     31  O   UNL     1       8.246  44.860  13.489  1.00  0.00    -0.550 OA
ATOM     32  O   UNL     1       7.279  43.247  12.202  1.00  0.00    -0.550 OA
ENDBRANCH   1  30
BRANCH  27  33
ATOM     33  O   UNL     1      13.949  51.936  17.126  1.00  0.00    -0.393 OA
ATOM     34  H   UNL     1      14.706  51.755  17.741  1.00  0.00     0.210 HD
ENDBRANCH  27  33
TORSDOF 2
ENDMDL
MODEL 7
REMARK VINA RESULT:    -6.058      5.078      9.347
REMARK INTER + INTRA:          -6.919
REMARK INTER:                  -6.580
REMARK INTRA:                  -0.339
REMARK UNBOUND:                -0.330
REMARK SMILES C[C@@H]1[C@H](C)CC[C@]2(C(=O)[O-])CC[C@]3(C)C(=CC[C@H]4[C@@]5(C)CC[C@H](O)C(C)(C)[C@H]5CC[C@]43C)[C@H]12
REMARK SMILES IDX 7 1 6 2 11 3 33 4 5 5 12 6 15 7 2 8 3 9 13 10 16 11 1 12
REMARK SMILES IDX 4 13 14 14 31 15 17 16 18 17 30 18 32 19 19 20 29 21 28 22
REMARK SMILES IDX 21 23 20 24 25 25 22 26 23 27 26 28 27 29 8 30 9 31 10 32
REMARK SMILES IDX 24 33
REMARK H PARENT 24 34
REMARK Flexibility Score: inf
ROOT
ATOM      1  C   UNL     1      16.361  51.465   6.081  1.00  0.00     0.017 C 
ATOM      2  C   UNL     1      16.714  52.437   4.911  1.00  0.00     0.014 C 
ATOM      3  C   UNL     1      15.645  50.237   5.477  1.00  0.00     0.014 C 
ATOM      4  C   UNL     1      15.484  52.208   7.166  1.00  0.00     0.030 C 
ATOM      5  C   UNL     1      17.166  53.814   5.402  1.00  0.00     0.004 C 
ATOM      6  C   UNL     1      14.956  49.339   6.522  1.00  0.00     0.013 C 
ATOM      7  C   UNL     1      14.515  51.306   7.971  1.00  0.00    -0.063 C 
ATOM      8  C   UNL     1      14.940  53.625   6.788  1.00  0.00    -0.003 C 
ATOM      9  C   UNL     1      16.122  54.533   6.303  1.00  0.00    -0.011 C 
ATOM     10  C   UNL     1      13.841  50.049   7.366  1.00  0.00    -0.006 C 
ATOM     11  C   UNL     1      14.521  51.521   9.298  1.00  0.00    -0.027 C 
ATOM     12  C   UNL     1      13.706  53.623   5.868  1.00  0.00     0.008 C 
ATOM     13  C   UNL     1      15.676  55.869   5.690  1.00  0.00     0.008 C 
ATOM     14  C   UNL     1      12.706  50.488   6.386  1.00  0.00     0.017 C 
ATOM     15  C   UNL     1      13.196  49.046   8.490  1.00  0.00    -0.020 C 
ATOM     16  C   UNL     1      14.171  50.505  10.325  1.00  0.00     0.032 C 
ATOM     17  C   UNL     1      14.060  49.042   9.801  1.00  0.00     0.006 C 
ATOM     18  C   UNL     1      11.749  49.477   8.929  1.00  0.00     0.008 C 
ATOM     19  C   UNL     1      13.106  47.616   7.852  1.00  0.00     0.012 C 
ATOM     20  C   UNL     1      13.571  48.001  10.946  1.00  0.00    -0.025 C 
ATOM     21  C   UNL     1      11.259  49.014  10.333  1.00  0.00     0.005 C 
ATOM     22  C   UNL     1      11.985  47.777  10.928  1.00  0.00     0.003 C 
ATOM     23  C   UNL     1      14.042  48.496  12.362  1.00  0.00     0.010 C 
ATOM     24  C   UNL     1      14.302  46.644  10.681  1.00  0.00     0.012 C 
ATOM     25  C   UNL     1      11.322  47.203  12.271  1.00  0.00    -0.006 C 
ATOM     26  C   UNL     1      13.466  47.732  13.548  1.00  0.00     0.033 C 
ATOM     27  C   UNL     1      11.943  47.844  13.543  1.00  0.00     0.120 C 
ATOM     28  C   UNL     1       9.789  47.467  12.320  1.00  0.00     0.014 C 
ATOM     29  C   UNL     1      11.463  45.651  12.322  1.00  0.00     0.014 C 
ENDROOT
BRANCH   1  30
ATOM     30  C   UNL     1      17.659  50.948   6.716  1.00  0.00     0.048 C 
ATOM     31  O   UNL     1      18.430  50.187   6.069  1.00  0.00    -0.550 OA
ATOM     32  O   UNL     1      18.060  51.383   7.974  1.00  0.00    -0.550 OA
ENDBRANCH   1  30
BRANCH  27  33
ATOM     33  O   UNL     1      11.428  47.239  14.705  1.00  0.00    -0.393 OA
ATOM     34  H   UNL     1      12.205  46.966  15.258  1.00  0.00     0.210 HD
ENDBRANCH  27  33
TORSDOF 2
ENDMDL
MODEL 8
REMARK VINA RESULT:    -6.050      5.914      9.559
REMARK INTER + INTRA:          -6.911
REMARK INTER:                  -6.573
REMARK INTRA:                  -0.338
REMARK UNBOUND:                -0.330
REMARK SMILES C[C@@H]1[C@H](C)CC[C@]2(C(=O)[O-])CC[C@]3(C)C(=CC[C@H]4[C@@]5(C)CC[C@H](O)C(C)(C)[C@H]5CC[C@]43C)[C@H]12
REMARK SMILES IDX 7 1 6 2 11 3 33 4 5 5 12 6 15 7 2 8 3 9 13 10 16 11 1 12
REMARK SMILES IDX 4 13 14 14 31 15 17 16 18 17 30 18 32 19 19 20 29 21 28 22
REMARK SMILES IDX 21 23 20 24 25 25 22 26 23 27 26 28 27 29 8 30 9 31 10 32
REMARK SMILES IDX 24 33
REMARK H PARENT 24 34
REMARK Flexibility Score: inf
ROOT
ATOM      1  C   UNL     1      15.354  54.083   6.018  1.00  0.00     0.017 C 
ATOM      2  C   UNL     1      15.837  55.070   4.910  1.00  0.00     0.014 C 
ATOM      3  C   UNL     1      13.925  53.623   5.653  1.00  0.00     0.014 C 
ATOM      4  C   UNL     1      15.427  54.773   7.439  1.00  0.00     0.030 C 
ATOM      5  C   UNL     1      17.116  55.816   5.298  1.00  0.00     0.004 C 
ATOM      6  C   UNL     1      13.191  52.898   6.798  1.00  0.00     0.013 C 
ATOM      7  C   UNL     1      14.406  54.257   8.483  1.00  0.00    -0.063 C 
ATOM      8  C   UNL     1      15.710  56.311   7.465  1.00  0.00    -0.003 C 
ATOM      9  C   UNL     1      16.992  56.627   6.620  1.00  0.00    -0.011 C 
ATOM     10  C   UNL     1      12.992  53.754   8.097  1.00  0.00    -0.006 C 
ATOM     11  C   UNL     1      14.923  54.012   9.699  1.00  0.00    -0.027 C 
ATOM     12  C   UNL     1      14.494  57.201   7.152  1.00  0.00     0.008 C 
ATOM     13  C   UNL     1      17.236  58.125   6.385  1.00  0.00     0.008 C 
ATOM     14  C   UNL     1      12.087  54.973   7.732  1.00  0.00     0.017 C 
ATOM     15  C   UNL     1      12.254  52.897   9.284  1.00  0.00    -0.020 C 
ATOM     16  C   UNL     1      14.376  53.032  10.673  1.00  0.00     0.032 C 
ATOM     17  C   UNL     1      13.298  52.060  10.103  1.00  0.00     0.006 C 
ATOM     18  C   UNL     1      11.523  53.816  10.329  1.00  0.00     0.008 C 
ATOM     19  C   UNL     1      11.180  51.979   8.606  1.00  0.00     0.012 C 
ATOM     20  C   UNL     1      12.665  51.090  11.240  1.00  0.00    -0.025 C 
ATOM     21  C   UNL     1      11.295  53.235  11.756  1.00  0.00     0.005 C 
ATOM     22  C   UNL     1      11.317  51.686  11.867  1.00  0.00     0.003 C 
ATOM     23  C   UNL     1      13.725  50.816  12.368  1.00  0.00     0.010 C 
ATOM     24  C   UNL     1      12.370  49.711  10.561  1.00  0.00     0.012 C 
ATOM     25  C   UNL     1      10.876  51.119  13.301  1.00  0.00    -0.006 C 
ATOM     26  C   UNL     1      13.196  50.102  13.606  1.00  0.00     0.033 C 
ATOM     27  C   UNL     1      12.092  50.937  14.252  1.00  0.00     0.120 C 
ATOM     28  C   UNL     1       9.868  52.066  14.015  1.00  0.00     0.014 C 
ATOM     29  C   UNL     1      10.111  49.771  13.135  1.00  0.00     0.014 C 
ENDROOT
BRANCH   1  30
ATOM     30  C   UNL     1      16.238  52.829   5.997  1.00  0.00     0.048 C 
ATOM     31  O   UNL     1      16.236  52.061   4.995  1.00  0.00    -0.550 OA
ATOM     32  O   UNL     1      17.130  52.566   7.030  1.00  0.00    -0.550 OA
ENDBRANCH   1  30
BRANCH  27  33
ATOM     33  O   UNL     1      11.693  50.330  15.456  1.00  0.00    -0.393 OA
ATOM     34  H   UNL     1      12.460  49.786  15.774  1.00  0.00     0.210 HD
ENDBRANCH  27  33
TORSDOF 2
ENDMDL
MODEL 9
REMARK VINA RESULT:    -5.891      4.093      6.974
REMARK INTER + INTRA:          -6.738
REMARK INTER:                  -6.398
REMARK INTRA:                  -0.339
REMARK UNBOUND:                -0.330
REMARK SMILES C[C@@H]1[C@H](C)CC[C@]2(C(=O)[O-])CC[C@]3(C)C(=CC[C@H]4[C@@]5(C)CC[C@H](O)C(C)(C)[C@H]5CC[C@]43C)[C@H]12
REMARK SMILES IDX 7 1 6 2 11 3 33 4 5 5 12 6 15 7 2 8 3 9 13 10 16 11 1 12
REMARK SMILES IDX 4 13 14 14 31 15 17 16 18 17 30 18 32 19 19 20 29 21 28 22
REMARK SMILES IDX 21 23 20 24 25 25 22 26 23 27 26 28 27 29 8 30 9 31 10 32
REMARK SMILES IDX 24 33
REMARK H PARENT 24 34
REMARK Flexibility Score: inf
ROOT
ATOM      1  C   UNL     1      12.483  48.270  13.532  1.00  0.00     0.017 C 
ATOM      2  C   UNL     1      11.466  48.525  14.689  1.00  0.00     0.014 C 
ATOM      3  C   UNL     1      11.944  48.966  12.263  1.00  0.00     0.014 C 
ATOM      4  C   UNL     1      12.706  46.718  13.328  1.00  0.00     0.030 C 
ATOM      5  C   UNL     1      11.736  47.655  15.918  1.00  0.00     0.004 C 
ATOM      6  C   UNL     1      12.665  48.549  10.968  1.00  0.00     0.013 C 
ATOM      7  C   UNL     1      13.087  46.284  11.891  1.00  0.00    -0.063 C 
ATOM      8  C   UNL     1      11.739  45.758  14.097  1.00  0.00    -0.003 C 
ATOM      9  C   UNL     1      11.727  46.129  15.620  1.00  0.00    -0.011 C 
ATOM     10  C   UNL     1      12.575  47.020  10.628  1.00  0.00    -0.006 C 
ATOM     11  C   UNL     1      14.107  45.410  11.822  1.00  0.00    -0.027 C 
ATOM     12  C   UNL     1      10.348  45.590  13.461  1.00  0.00     0.008 C 
ATOM     13  C   UNL     1      10.644  45.404  16.433  1.00  0.00     0.008 C 
ATOM     14  C   UNL     1      11.071  46.671  10.394  1.00  0.00     0.017 C 
ATOM     15  C   UNL     1      13.412  46.648   9.268  1.00  0.00    -0.020 C 
ATOM     16  C   UNL     1      15.022  45.264  10.661  1.00  0.00     0.032 C 
ATOM     17  C   UNL     1      14.927  46.396   9.592  1.00  0.00     0.006 C 
ATOM     18  C   UNL     1      12.894  45.334   8.578  1.00  0.00     0.008 C 
ATOM     19  C   UNL     1      13.226  47.835   8.260  1.00  0.00     0.012 C 
ATOM     20  C   UNL     1      15.872  46.122   8.302  1.00  0.00    -0.025 C 
ATOM     21  C   UNL     1      13.895  44.560   7.671  1.00  0.00     0.005 C 
ATOM     22  C   UNL     1      15.084  45.389   7.115  1.00  0.00     0.003 C 
ATOM     23  C   UNL     1      17.134  45.285   8.725  1.00  0.00     0.010 C 
ATOM     24  C   UNL     1      16.400  47.510   7.811  1.00  0.00     0.012 C 
ATOM     25  C   UNL     1      15.975  44.620   6.024  1.00  0.00    -0.006 C 
ATOM     26  C   UNL     1      17.993  44.769   7.577  1.00  0.00     0.033 C 
ATOM     27  C   UNL     1      17.160  43.857   6.678  1.00  0.00     0.120 C 
ATOM     28  C   UNL     1      15.140  43.579   5.224  1.00  0.00     0.014 C 
ATOM     29  C   UNL     1      16.500  45.624   4.953  1.00  0.00     0.014 C 
ENDROOT
BRANCH   1  30
ATOM     30  C   UNL     1      13.816  48.952  13.874  1.00  0.00     0.048 C 
ATOM     31  O   UNL     1      13.893  50.209  13.943  1.00  0.00    -0.550 OA
ATOM     32  O   UNL     1      14.936  48.201  14.211  1.00  0.00    -0.550 OA
ENDBRANCH   1  30
BRANCH  27  33
ATOM     33  O   UNL     1      17.990  43.292   5.692  1.00  0.00    -0.393 OA
ATOM     34  H   UNL     1      18.858  43.086   6.128  1.00  0.00     0.210 HD
ENDBRANCH  27  33
TORSDOF 2
ENDMDL
