MODEL 1
REMARK VINA RESULT:    -4.427      0.000      0.000
REMARK INTER + INTRA:          -8.296
REMARK INTER:                  -7.015
REMARK INTRA:                  -1.281
REMARK UNBOUND:                -1.281
REMARK SMILES CCCCCCCCCCCC(=O)[O-]
REMARK SMILES IDX 7 1 8 2 9 3 10 4 11 5 12 6 13 7 14 8 6 9 5 10 4 11 3 12 2 13
REMARK SMILES IDX 1 14
REMARK H PARENT
REMARK Flexibility Score: inf
ROOT
ATOM      1  C   UNL     1     -11.121   4.354  -8.440  1.00  0.00     0.000 C 
ENDROOT
BRANCH   1   2
ATOM      2  C   UNL     1      -9.836   4.434  -7.606  1.00  0.00     0.000 C 
BRANCH   2   3
ATOM      3  C   UNL     1      -8.875   3.295  -7.966  1.00  0.00     0.000 C 
BRANCH   3   4
ATOM      4  C   UNL     1      -9.604   2.175  -8.717  1.00  0.00     0.006 C 
BRANCH   4   5
ATOM      5  C   UNL     1      -8.740   0.913  -8.797  1.00  0.00     0.053 C 
BRANCH   5   6
ATOM      6  C   UNL     1      -7.794   0.999  -9.952  1.00  0.00     0.041 C 
ATOM      7  O   UNL     1      -8.145   0.587 -11.090  1.00  0.00    -0.550 OA
ATOM      8  O   UNL     1      -6.543   1.578  -9.785  1.00  0.00    -0.550 OA
ENDBRANCH   5   6
ENDBRANCH   4   5
ENDBRANCH   3   4
ENDBRANCH   2   3
ENDBRANCH   1   2
BRANCH   1   9
ATOM      9  C   UNL     1     -11.125   5.413  -9.548  1.00  0.00     0.000 C 
BRANCH   9  10
ATOM     10  C   UNL     1     -10.844   4.781 -10.917  1.00  0.00    -0.000 C 
BRANCH  10  11
ATOM     11  C   UNL     1      -9.372   4.962 -11.316  1.00  0.00    -0.000 C 
BRANCH  11  12
ATOM     12  C   UNL     1      -8.824   6.357 -10.968  1.00  0.00    -0.000 C 
BRANCH  12  13
ATOM     13  C   UNL     1      -7.407   6.364 -10.368  1.00  0.00    -0.003 C 
ATOM     14  C   UNL     1      -7.380   6.784  -8.900  1.00  0.00     0.004 C 
ENDBRANCH  12  13
ENDBRANCH  11  12
ENDBRANCH  10  11
ENDBRANCH   9  10
ENDBRANCH   1   9
TORSDOF 10
ENDMDL
MODEL 2
REMARK VINA RESULT:    -4.178      1.231      2.412
REMARK INTER + INTRA:          -7.902
REMARK INTER:                  -6.306
REMARK INTRA:                  -1.596
REMARK UNBOUND:                -1.281
REMARK SMILES CCCCCCCCCCCC(=O)[O-]
REMARK SMILES IDX 7 1 8 2 9 3 10 4 11 5 12 6 13 7 14 8 6 9 5 10 4 11 3 12 2 13
REMARK SMILES IDX 1 14
REMARK H PARENT
REMARK Flexibility Score: inf
ROOT
ATOM      1  C   UNL     1     -10.887   3.802  -8.610  1.00  0.00     0.000 C 
ENDROOT
BRANCH   1   2
ATOM      2  C   UNL     1     -11.089   4.365 -10.021  1.00  0.00     0.000 C 
BRANCH   2   3
ATOM      3  C   UNL     1     -10.737   3.320 -11.087  1.00  0.00     0.000 C 
BRANCH   3   4
ATOM      4  C   UNL     1      -9.969   2.144 -10.473  1.00  0.00     0.006 C 
BRANCH   4   5
ATOM      5  C   UNL     1      -8.510   2.139 -10.936  1.00  0.00     0.053 C 
BRANCH   5   6
ATOM      6  C   UNL     1      -7.682   1.262 -10.051  1.00  0.00     0.041 C 
ATOM      7  O   UNL     1      -8.122   0.902  -8.927  1.00  0.00    -0.550 OA
ATOM      8  O   UNL     1      -6.447   0.801 -10.487  1.00  0.00    -0.550 OA
ENDBRANCH   5   6
ENDBRANCH   4   5
ENDBRANCH   3   4
ENDBRANCH   2   3
ENDBRANCH   1   2
BRANCH   1   9
ATOM      9  C   UNL     1      -9.996   4.724  -7.770  1.00  0.00     0.000 C 
BRANCH   9  10
ATOM     10  C   UNL     1      -8.596   4.124  -7.587  1.00  0.00    -0.000 C 
BRANCH  10  11
ATOM     11  C   UNL     1      -7.593   4.762  -8.560  1.00  0.00    -0.000 C 
BRANCH  11  12
ATOM     12  C   UNL     1      -7.884   6.248  -8.833  1.00  0.00    -0.000 C 
BRANCH  12  13
ATOM     13  C   UNL     1      -7.436   6.751 -10.217  1.00  0.00    -0.003 C 
ATOM     14  C   UNL     1      -8.102   6.002 -11.370  1.00  0.00     0.004 C 
ENDBRANCH  12  13
ENDBRANCH  11  12
ENDBRANCH  10  11
ENDBRANCH   9  10
ENDBRANCH   1   9
TORSDOF 10
ENDMDL
MODEL 3
REMARK VINA RESULT:    -4.079      1.242      3.132
REMARK INTER + INTRA:          -7.745
REMARK INTER:                  -6.171
REMARK INTRA:                  -1.574
REMARK UNBOUND:                -1.281
REMARK SMILES CCCCCCCCCCCC(=O)[O-]
REMARK SMILES IDX 7 1 8 2 9 3 10 4 11 5 12 6 13 7 14 8 6 9 5 10 4 11 3 12 2 13
REMARK SMILES IDX 1 14
REMARK H PARENT
REMARK Flexibility Score: inf
ROOT
ATOM      1  C   UNL     1      -8.953   5.158 -11.720  1.00  0.00     0.000 C 
ENDROOT
BRANCH   1   2
ATOM      2  C   UNL     1     -10.343   4.539 -11.538  1.00  0.00     0.000 C 
BRANCH   2   3
ATOM      3  C   UNL     1     -10.241   3.045 -11.204  1.00  0.00     0.000 C 
BRANCH   3   4
ATOM      4  C   UNL     1      -8.804   2.541 -11.371  1.00  0.00     0.006 C 
BRANCH   4   5
ATOM      5  C   UNL     1      -8.682   1.076 -10.942  1.00  0.00     0.053 C 
BRANCH   5   6
ATOM      6  C   UNL     1      -7.747   0.945  -9.781  1.00  0.00     0.041 C 
ATOM      7  O   UNL     1      -8.117   0.352  -8.734  1.00  0.00    -0.550 OA
ATOM      8  O   UNL     1      -6.451   1.435  -9.873  1.00  0.00    -0.550 OA
ENDBRANCH   5   6
ENDBRANCH   4   5
ENDBRANCH   3   4
ENDBRANCH   2   3
ENDBRANCH   1   2
BRANCH   1   9
ATOM      9  C   UNL     1      -8.797   6.422 -10.866  1.00  0.00     0.000 C 
BRANCH   9  10
ATOM     10  C   UNL     1      -7.477   6.401 -10.086  1.00  0.00    -0.000 C 
BRANCH  10  11
ATOM     11  C   UNL     1      -7.707   5.988  -8.624  1.00  0.00    -0.000 C 
BRANCH  11  12
ATOM     12  C   UNL     1      -7.599   4.469  -8.406  1.00  0.00    -0.000 C 
BRANCH  12  13
ATOM     13  C   UNL     1      -8.731   3.854  -7.565  1.00  0.00    -0.003 C 
ATOM     14  C   UNL     1     -10.075   4.550  -7.772  1.00  0.00     0.004 C 
ENDBRANCH  12  13
ENDBRANCH  11  12
ENDBRANCH  10  11
ENDBRANCH   9  10
ENDBRANCH   1   9
TORSDOF 10
ENDMDL
MODEL 4
REMARK VINA RESULT:    -3.898      1.743      4.304
REMARK INTER + INTRA:          -7.458
REMARK INTER:                  -6.130
REMARK INTRA:                  -1.328
REMARK UNBOUND:                -1.281
REMARK SMILES CCCCCCCCCCCC(=O)[O-]
REMARK SMILES IDX 7 1 8 2 9 3 10 4 11 5 12 6 13 7 14 8 6 9 5 10 4 11 3 12 2 13
REMARK SMILES IDX 1 14
REMARK H PARENT
REMARK Flexibility Score: inf
ROOT
ATOM      1  C   UNL     1      -8.848   4.897 -11.940  1.00  0.00     0.000 C 
ENDROOT
BRANCH   1   2
ATOM      2  C   UNL     1      -8.164   6.030 -11.165  1.00  0.00     0.000 C 
BRANCH   2   3
ATOM      3  C   UNL     1      -9.095   6.601 -10.088  1.00  0.00     0.000 C 
BRANCH   3   4
ATOM      4  C   UNL     1      -8.527   6.362  -8.685  1.00  0.00     0.006 C 
BRANCH   4   5
ATOM      5  C   UNL     1      -9.250   5.206  -7.988  1.00  0.00     0.053 C 
BRANCH   5   6
ATOM      6  C   UNL     1      -8.320   4.053  -7.783  1.00  0.00     0.041 C 
ATOM      7  O   UNL     1      -8.423   3.331  -6.757  1.00  0.00    -0.550 OA
ATOM      8  O   UNL     1      -7.370   3.745  -8.749  1.00  0.00    -0.550 OA
ENDBRANCH   5   6
ENDBRANCH   4   5
ENDBRANCH   3   4
ENDBRANCH   2   3
ENDBRANCH   1   2
BRANCH   1   9
ATOM      9  C   UNL     1     -10.254   4.625 -11.392  1.00  0.00     0.000 C 
BRANCH   9  10
ATOM     10  C   UNL     1     -10.414   3.154 -10.988  1.00  0.00    -0.000 C 
BRANCH  10  11
ATOM     11  C   UNL     1      -9.234   2.312 -11.496  1.00  0.00    -0.000 C 
BRANCH  11  12
ATOM     12  C   UNL     1      -8.880   1.147 -10.554  1.00  0.00    -0.000 C 
BRANCH  12  13
ATOM     13  C   UNL     1      -9.743   1.058  -9.284  1.00  0.00    -0.003 C 
ATOM     14  C   UNL     1      -9.084   0.249  -8.168  1.00  0.00     0.004 C 
ENDBRANCH  12  13
ENDBRANCH  11  12
ENDBRANCH  10  11
ENDBRANCH   9  10
ENDBRANCH   1   9
TORSDOF 10
ENDMDL
MODEL 5
REMARK VINA RESULT:    -3.776      1.479      2.716
REMARK INTER + INTRA:          -7.264
REMARK INTER:                  -6.029
REMARK INTRA:                  -1.235
REMARK UNBOUND:                -1.281
REMARK SMILES CCCCCCCCCCCC(=O)[O-]
REMARK SMILES IDX 7 1 8 2 9 3 10 4 11 5 12 6 13 7 14 8 6 9 5 10 4 11 3 12 2 13
REMARK SMILES IDX 1 14
REMARK H PARENT
REMARK Flexibility Score: inf
ROOT
ATOM      1  C   UNL     1     -10.486   3.349 -11.136  1.00  0.00     0.000 C 
ENDROOT
BRANCH   1   2
ATOM      2  C   UNL     1     -10.648   2.013 -11.870  1.00  0.00     0.000 C 
BRANCH   2   3
ATOM      3  C   UNL     1     -10.379   0.832 -10.930  1.00  0.00     0.000 C 
BRANCH   3   4
ATOM      4  C   UNL     1     -10.009   1.320  -9.525  1.00  0.00     0.006 C 
BRANCH   4   5
ATOM      5  C   UNL     1      -8.667   0.735  -9.075  1.00  0.00     0.053 C 
BRANCH   5   6
ATOM      6  C   UNL     1      -7.536   1.419  -9.774  1.00  0.00     0.041 C 
ATOM      7  O   UNL     1      -7.102   2.521  -9.346  1.00  0.00    -0.550 OA
ATOM      8  O   UNL     1      -6.928   0.818 -10.869  1.00  0.00    -0.550 OA
ENDBRANCH   5   6
ENDBRANCH   4   5
ENDBRANCH   3   4
ENDBRANCH   2   3
ENDBRANCH   1   2
BRANCH   1   9
ATOM      9  C   UNL     1      -9.652   4.335 -11.963  1.00  0.00     0.000 C 
BRANCH   9  10
ATOM     10  C   UNL     1      -8.566   4.995 -11.106  1.00  0.00    -0.000 C 
BRANCH  10  11
ATOM     11  C   UNL     1      -8.984   6.411 -10.682  1.00  0.00    -0.000 C 
BRANCH  11  12
ATOM     12  C   UNL     1      -9.565   6.464  -9.258  1.00  0.00    -0.000 C 
BRANCH  12  13
ATOM     13  C   UNL     1      -8.902   5.505  -8.253  1.00  0.00    -0.003 C 
ATOM     14  C   UNL     1      -9.890   4.534  -7.611  1.00  0.00     0.004 C 
ENDBRANCH  12  13
ENDBRANCH  11  12
ENDBRANCH  10  11
ENDBRANCH   9  10
ENDBRANCH   1   9
TORSDOF 10
ENDMDL
MODEL 6
REMARK VINA RESULT:    -3.564      2.343      4.587
REMARK INTER + INTRA:          -6.928
REMARK INTER:                  -5.850
REMARK INTRA:                  -1.078
REMARK UNBOUND:                -1.281
REMARK SMILES CCCCCCCCCCCC(=O)[O-]
REMARK SMILES IDX 7 1 8 2 9 3 10 4 11 5 12 6 13 7 14 8 6 9 5 10 4 11 3 12 2 13
REMARK SMILES IDX 1 14
REMARK H PARENT
REMARK Flexibility Score: inf
ROOT
ATOM      1  C   UNL     1      -8.693   3.322  -8.003  1.00  0.00     0.000 C 
ENDROOT
BRANCH   1   2
ATOM      2  C   UNL     1      -9.600   4.506  -7.648  1.00  0.00     0.000 C 
BRANCH   2   3
ATOM      3  C   UNL     1     -10.710   4.682  -8.692  1.00  0.00     0.000 C 
BRANCH   3   4
ATOM      4  C   UNL     1     -10.263   5.621  -9.818  1.00  0.00     0.006 C 
BRANCH   4   5
ATOM      5  C   UNL     1      -9.413   6.771  -9.270  1.00  0.00     0.053 C 
BRANCH   5   6
ATOM      6  C   UNL     1      -7.990   6.626  -9.709  1.00  0.00     0.041 C 
ATOM      7  O   UNL     1      -7.062   6.620  -8.857  1.00  0.00    -0.550 OA
ATOM      8  O   UNL     1      -7.692   6.448 -11.053  1.00  0.00    -0.550 OA
ENDBRANCH   5   6
ENDBRANCH   4   5
ENDBRANCH   3   4
ENDBRANCH   2   3
ENDBRANCH   1   2
BRANCH   1   9
ATOM      9  C   UNL     1      -9.511   2.144  -8.545  1.00  0.00     0.000 C 
BRANCH   9  10
ATOM     10  C   UNL     1      -8.596   1.030  -9.066  1.00  0.00    -0.000 C 
BRANCH  10  11
ATOM     11  C   UNL     1      -8.521   1.050 -10.600  1.00  0.00    -0.000 C 
BRANCH  11  12
ATOM     12  C   UNL     1      -9.904   1.154 -11.266  1.00  0.00    -0.000 C 
BRANCH  12  13
ATOM     13  C   UNL     1     -10.134   2.439 -12.082  1.00  0.00    -0.003 C 
ATOM     14  C   UNL     1      -8.906   3.347 -12.125  1.00  0.00     0.004 C 
ENDBRANCH  12  13
ENDBRANCH  11  12
ENDBRANCH  10  11
ENDBRANCH   9  10
ENDBRANCH   1   9
TORSDOF 10
ENDMDL
MODEL 7
REMARK VINA RESULT:    -3.541      2.182      4.247
REMARK INTER + INTRA:          -6.892
REMARK INTER:                  -5.749
REMARK INTRA:                  -1.144
REMARK UNBOUND:                -1.281
REMARK SMILES CCCCCCCCCCCC(=O)[O-]
REMARK SMILES IDX 7 1 8 2 9 3 10 4 11 5 12 6 13 7 14 8 6 9 5 10 4 11 3 12 2 13
REMARK SMILES IDX 1 14
REMARK H PARENT
REMARK Flexibility Score: inf
ROOT
ATOM      1  C   UNL     1      -9.262   3.238  -7.983  1.00  0.00     0.000 C 
ENDROOT
BRANCH   1   2
ATOM      2  C   UNL     1      -8.248   4.388  -8.022  1.00  0.00     0.000 C 
BRANCH   2   3
ATOM      3  C   UNL     1      -8.954   5.739  -8.189  1.00  0.00     0.000 C 
BRANCH   3   4
ATOM      4  C   UNL     1      -8.219   6.623  -9.202  1.00  0.00     0.006 C 
BRANCH   4   5
ATOM      5  C   UNL     1      -8.918   6.596 -10.565  1.00  0.00     0.053 C 
BRANCH   5   6
ATOM      6  C   UNL     1      -8.119   5.802 -11.549  1.00  0.00     0.041 C 
ATOM      7  O   UNL     1      -8.501   4.653 -11.893  1.00  0.00    -0.550 OA
ATOM      8  O   UNL     1      -6.980   6.350 -12.124  1.00  0.00    -0.550 OA
ENDBRANCH   5   6
ENDBRANCH   4   5
ENDBRANCH   3   4
ENDBRANCH   2   3
ENDBRANCH   1   2
BRANCH   1   9
ATOM      9  C   UNL     1     -10.625   3.688  -8.520  1.00  0.00     0.000 C 
BRANCH   9  10
ATOM     10  C   UNL     1     -10.931   3.031  -9.871  1.00  0.00    -0.000 C 
BRANCH  10  11
ATOM     11  C   UNL     1     -10.306   1.631  -9.957  1.00  0.00    -0.000 C 
BRANCH  11  12
ATOM     12  C   UNL     1      -9.625   1.360 -11.310  1.00  0.00    -0.000 C 
BRANCH  12  13
ATOM     13  C   UNL     1      -8.087   1.322 -11.263  1.00  0.00    -0.003 C 
ATOM     14  C   UNL     1      -7.540   0.920  -9.895  1.00  0.00     0.004 C 
ENDBRANCH  12  13
ENDBRANCH  11  12
ENDBRANCH  10  11
ENDBRANCH   9  10
ENDBRANCH   1   9
TORSDOF 10
ENDMDL
MODEL 8
REMARK VINA RESULT:    -3.371      1.770      2.689
REMARK INTER + INTRA:          -6.622
REMARK INTER:                  -5.653
REMARK INTRA:                  -0.969
REMARK UNBOUND:                -1.281
REMARK SMILES CCCCCCCCCCCC(=O)[O-]
REMARK SMILES IDX 7 1 8 2 9 3 10 4 11 5 12 6 13 7 14 8 6 9 5 10 4 11 3 12 2 13
REMARK SMILES IDX 1 14
REMARK H PARENT
REMARK Flexibility Score: inf
ROOT
ATOM      1  C   UNL     1     -11.119   4.045  -9.955  1.00  0.00     0.000 C 
ENDROOT
BRANCH   1   2
ATOM      2  C   UNL     1     -11.059   3.412 -11.350  1.00  0.00     0.000 C 
BRANCH   2   3
ATOM      3  C   UNL     1      -9.649   2.897 -11.661  1.00  0.00     0.000 C 
BRANCH   3   4
ATOM      4  C   UNL     1      -9.527   1.401 -11.350  1.00  0.00     0.006 C 
BRANCH   4   5
ATOM      5  C   UNL     1      -8.571   1.159 -10.179  1.00  0.00     0.053 C 
BRANCH   5   6
ATOM      6  C   UNL     1      -9.326   0.705  -8.970  1.00  0.00     0.041 C 
ATOM      7  O   UNL     1     -10.581   0.607  -9.008  1.00  0.00    -0.550 OA
ATOM      8  O   UNL     1      -8.642   0.344  -7.817  1.00  0.00    -0.550 OA
ENDBRANCH   5   6
ENDBRANCH   4   5
ENDBRANCH   3   4
ENDBRANCH   2   3
ENDBRANCH   1   2
BRANCH   1   9
ATOM      9  C   UNL     1     -10.975   5.569 -10.035  1.00  0.00     0.000 C 
BRANCH   9  10
ATOM     10  C   UNL     1      -9.595   5.966 -10.575  1.00  0.00    -0.000 C 
BRANCH  10  11
ATOM     11  C   UNL     1      -8.908   6.973  -9.642  1.00  0.00    -0.000 C 
BRANCH  11  12
ATOM     12  C   UNL     1      -8.406   6.334  -8.335  1.00  0.00    -0.000 C 
BRANCH  12  13
ATOM     13  C   UNL     1      -7.860   4.903  -8.484  1.00  0.00    -0.003 C 
ATOM     14  C   UNL     1      -8.522   3.908  -7.532  1.00  0.00     0.004 C 
ENDBRANCH  12  13
ENDBRANCH  11  12
ENDBRANCH  10  11
ENDBRANCH   9  10
ENDBRANCH   1   9
TORSDOF 10
ENDMDL
