MODEL 1
REMARK VINA RESULT:    23.501      0.000      0.000
REMARK INTER + INTRA:          60.976
REMARK INTER:                  61.968
REMARK INTRA:                  -0.992
REMARK UNBOUND:                -0.992
REMARK SMILES CCCCCCCCCCCCCCCCCCCCCCCCCCCCCC(=O)[O-]
REMARK SMILES IDX 16 1 17 2 18 3 19 4 20 5 21 6 22 7 23 8 24 9 25 10 26 11
REMARK SMILES IDX 27 12 28 13 29 14 30 15 31 16 32 17 15 18 14 19 13 20 12 21
REMARK SMILES IDX 11 22 10 23 9 24 8 25 7 26 6 27 5 28 4 29 3 30 2 31 1 32
REMARK H PARENT
REMARK Flexibility Score: inf
ROOT
ATOM      1  C   UNL     1     -31.854  12.328  17.260  1.00  0.00     0.000 C 
ENDROOT
BRANCH   1   2
ATOM      2  C   UNL     1     -32.121  11.609  18.594  1.00  0.00     0.000 C 
BRANCH   2   3
ATOM      3  C   UNL     1     -33.426  12.071  19.265  1.00  0.00     0.000 C 
BRANCH   3   4
ATOM      4  C   UNL     1     -33.624  11.458  20.662  1.00  0.00     0.000 C 
BRANCH   4   5
ATOM      5  C   UNL     1     -34.245  10.053  20.607  1.00  0.00     0.000 C 
BRANCH   5   6
ATOM      6  C   UNL     1     -34.265   9.357  21.976  1.00  0.00     0.000 C 
BRANCH   6   7
ATOM      7  C   UNL     1     -33.511   8.020  21.921  1.00  0.00     0.000 C 
BRANCH   7   8
ATOM      8  C   UNL     1     -34.351   6.824  22.411  1.00  0.00     0.000 C 
BRANCH   8   9
ATOM      9  C   UNL     1     -34.377   6.618  23.940  1.00  0.00     0.000 C 
BRANCH   9  10
ATOM     10  C   UNL     1     -35.789   6.440  24.544  1.00  0.00     0.000 C 
BRANCH  10  11
ATOM     11  C   UNL     1     -36.370   7.729  25.155  1.00  0.00     0.000 C 
BRANCH  11  12
ATOM     12  C   UNL     1     -35.438   8.454  26.143  1.00  0.00     0.000 C 
BRANCH  12  13
ATOM     13  C   UNL     1     -35.081   9.906  25.760  1.00  0.00     0.006 C 
BRANCH  13  14
ATOM     14  C   UNL     1     -33.575  10.216  25.766  1.00  0.00     0.053 C 
BRANCH  14  15
ATOM     15  C   UNL     1     -32.929   9.843  27.064  1.00  0.00     0.041 C 
ATOM     16  O   UNL     1     -32.808   8.631  27.387  1.00  0.00    -0.550 OA
ATOM     17  O   UNL     1     -32.427  10.831  27.903  1.00  0.00    -0.550 OA
ENDBRANCH  14  15
ENDBRANCH  13  14
ENDBRANCH  12  13
ENDBRANCH  11  12
ENDBRANCH  10  11
ENDBRANCH   9  10
ENDBRANCH   8   9
ENDBRANCH   7   8
ENDBRANCH   6   7
ENDBRANCH   5   6
ENDBRANCH   4   5
ENDBRANCH   3   4
ENDBRANCH   2   3
ENDBRANCH   1   2
BRANCH   1  18
ATOM     18  C   UNL     1     -32.839  13.480  17.002  1.00  0.00     0.000 C 
BRANCH  18  19
ATOM     19  C   UNL     1     -34.290  12.996  16.842  1.00  0.00     0.000 C 
BRANCH  19  20
ATOM     20  C   UNL     1     -35.314  14.144  16.900  1.00  0.00     0.000 C 
BRANCH  20  21
ATOM     21  C   UNL     1     -35.083  15.242  15.841  1.00  0.00     0.000 C 
BRANCH  21  22
ATOM     22  C   UNL     1     -34.972  16.647  16.463  1.00  0.00     0.000 C 
BRANCH  22  23
ATOM     23  C   UNL     1     -34.665  16.591  17.970  1.00  0.00     0.000 C 
BRANCH  23  24
ATOM     24  C   UNL     1     -35.878  16.993  18.827  1.00  0.00    -0.000 C 
BRANCH  24  25
ATOM     25  C   UNL     1     -37.170  17.101  17.989  1.00  0.00    -0.000 C 
BRANCH  25  26
ATOM     26  C   UNL     1     -38.057  15.846  18.064  1.00  0.00    -0.000 C 
BRANCH  26  27
ATOM     27  C   UNL     1     -38.965  15.833  19.304  1.00  0.00    -0.000 C 
BRANCH  27  28
ATOM     28  C   UNL     1     -40.430  15.524  18.960  1.00  0.00    -0.000 C 
BRANCH  28  29
ATOM     29  C   UNL     1     -40.653  14.054  18.563  1.00  0.00    -0.000 C 
BRANCH  29  30
ATOM     30  C   UNL     1     -39.759  13.092  19.375  1.00  0.00    -0.000 C 
BRANCH  30  31
ATOM     31  C   UNL     1     -40.356  11.682  19.529  1.00  0.00    -0.003 C 
ATOM     32  C   UNL     1     -39.836  10.695  18.486  1.00  0.00     0.004 C 
ENDBRANCH  30  31
ENDBRANCH  29  30
ENDBRANCH  28  29
ENDBRANCH  27  28
ENDBRANCH  26  27
ENDBRANCH  25  26
ENDBRANCH  24  25
ENDBRANCH  23  24
ENDBRANCH  22  23
ENDBRANCH  21  22
ENDBRANCH  20  21
ENDBRANCH  19  20
ENDBRANCH  18  19
ENDBRANCH   1  18
TORSDOF 28
ENDMDL
MODEL 2
REMARK VINA RESULT:    23.687      1.094      2.235
REMARK INTER + INTRA:          61.468
REMARK INTER:                  62.670
REMARK INTRA:                  -1.202
REMARK UNBOUND:                -0.992
REMARK SMILES CCCCCCCCCCCCCCCCCCCCCCCCCCCCCC(=O)[O-]
REMARK SMILES IDX 16 1 17 2 18 3 19 4 20 5 21 6 22 7 23 8 24 9 25 10 26 11
REMARK SMILES IDX 27 12 28 13 29 14 30 15 31 16 32 17 15 18 14 19 13 20 12 21
REMARK SMILES IDX 11 22 10 23 9 24 8 25 7 26 6 27 5 28 4 29 3 30 2 31 1 32
REMARK H PARENT
REMARK Flexibility Score: inf
ROOT
ATOM      1  C   UNL     1     -34.179  14.057  16.418  1.00  0.00     0.000 C 
ENDROOT
BRANCH   1   2
ATOM      2  C   UNL     1     -33.935  12.625  16.924  1.00  0.00     0.000 C 
BRANCH   2   3
ATOM      3  C   UNL     1     -32.683  12.514  17.810  1.00  0.00     0.000 C 
BRANCH   3   4
ATOM      4  C   UNL     1     -32.886  11.573  19.010  1.00  0.00     0.000 C 
BRANCH   4   5
ATOM      5  C   UNL     1     -33.918  12.113  20.014  1.00  0.00     0.000 C 
BRANCH   5   6
ATOM      6  C   UNL     1     -33.977  11.288  21.308  1.00  0.00     0.000 C 
BRANCH   6   7
ATOM      7  C   UNL     1     -34.057   9.786  20.996  1.00  0.00     0.000 C 
BRANCH   7   8
ATOM      8  C   UNL     1     -33.678   8.893  22.194  1.00  0.00     0.000 C 
BRANCH   8   9
ATOM      9  C   UNL     1     -33.767   7.374  21.939  1.00  0.00     0.000 C 
BRANCH   9  10
ATOM     10  C   UNL     1     -34.987   6.681  22.589  1.00  0.00     0.000 C 
BRANCH  10  11
ATOM     11  C   UNL     1     -34.727   6.184  24.023  1.00  0.00     0.000 C 
BRANCH  11  12
ATOM     12  C   UNL     1     -34.454   7.295  25.054  1.00  0.00     0.000 C 
BRANCH  12  13
ATOM     13  C   UNL     1     -35.711   8.001  25.603  1.00  0.00     0.006 C 
BRANCH  13  14
ATOM     14  C   UNL     1     -35.423   9.262  26.435  1.00  0.00     0.053 C 
BRANCH  14  15
ATOM     15  C   UNL     1     -34.069   9.831  26.144  1.00  0.00     0.041 C 
ATOM     16  O   UNL     1     -33.918  10.662  25.209  1.00  0.00    -0.550 OA
ATOM     17  O   UNL     1     -32.979   9.471  26.927  1.00  0.00    -0.550 OA
ENDBRANCH  14  15
ENDBRANCH  13  14
ENDBRANCH  12  13
ENDBRANCH  11  12
ENDBRANCH  10  11
ENDBRANCH   9  10
ENDBRANCH   8   9
ENDBRANCH   7   8
ENDBRANCH   6   7
ENDBRANCH   5   6
ENDBRANCH   4   5
ENDBRANCH   3   4
ENDBRANCH   2   3
ENDBRANCH   1   2
BRANCH   1  18
ATOM     18  C   UNL     1     -35.449  14.686  17.015  1.00  0.00     0.000 C 
BRANCH  18  19
ATOM     19  C   UNL     1     -35.233  15.223  18.440  1.00  0.00     0.000 C 
BRANCH  19  20
ATOM     20  C   UNL     1     -34.126  16.290  18.518  1.00  0.00     0.000 C 
BRANCH  20  21
ATOM     21  C   UNL     1     -34.657  17.738  18.552  1.00  0.00     0.000 C 
BRANCH  21  22
ATOM     22  C   UNL     1     -35.792  17.974  17.538  1.00  0.00     0.000 C 
BRANCH  22  23
ATOM     23  C   UNL     1     -37.175  17.998  18.212  1.00  0.00     0.000 C 
BRANCH  23  24
ATOM     24  C   UNL     1     -37.925  16.664  18.052  1.00  0.00    -0.000 C 
BRANCH  24  25
ATOM     25  C   UNL     1     -39.317  16.854  17.411  1.00  0.00    -0.000 C 
BRANCH  25  26
ATOM     26  C   UNL     1     -40.437  16.092  18.140  1.00  0.00    -0.000 C 
BRANCH  26  27
ATOM     27  C   UNL     1     -40.060  15.715  19.582  1.00  0.00    -0.000 C 
BRANCH  27  28
ATOM     28  C   UNL     1     -39.287  14.390  19.663  1.00  0.00    -0.000 C 
BRANCH  28  29
ATOM     29  C   UNL     1     -39.946  13.265  18.845  1.00  0.00    -0.000 C 
BRANCH  29  30
ATOM     30  C   UNL     1     -40.184  11.995  19.691  1.00  0.00    -0.000 C 
BRANCH  30  31
ATOM     31  C   UNL     1     -40.306  10.711  18.851  1.00  0.00    -0.003 C 
ATOM     32  C   UNL     1     -39.019  10.357  18.110  1.00  0.00     0.004 C 
ENDBRANCH  30  31
ENDBRANCH  29  30
ENDBRANCH  28  29
ENDBRANCH  27  28
ENDBRANCH  26  27
ENDBRANCH  25  26
ENDBRANCH  24  25
ENDBRANCH  23  24
ENDBRANCH  22  23
ENDBRANCH  21  22
ENDBRANCH  20  21
ENDBRANCH  19  20
ENDBRANCH  18  19
ENDBRANCH   1  18
TORSDOF 28
ENDMDL
MODEL 3
REMARK VINA RESULT:    23.704      1.989      3.225
REMARK INTER + INTRA:          61.514
REMARK INTER:                  63.168
REMARK INTRA:                  -1.654
REMARK UNBOUND:                -0.992
REMARK SMILES CCCCCCCCCCCCCCCCCCCCCCCCCCCCCC(=O)[O-]
REMARK SMILES IDX 16 1 17 2 18 3 19 4 20 5 21 6 22 7 23 8 24 9 25 10 26 11
REMARK SMILES IDX 27 12 28 13 29 14 30 15 31 16 32 17 15 18 14 19 13 20 12 21
REMARK SMILES IDX 11 22 10 23 9 24 8 25 7 26 6 27 5 28 4 29 3 30 2 31 1 32
REMARK H PARENT
REMARK Flexibility Score: inf
ROOT
ATOM      1  C   UNL     1     -32.887  12.133  19.073  1.00  0.00     0.000 C 
ENDROOT
BRANCH   1   2
ATOM      2  C   UNL     1     -33.974  11.735  20.086  1.00  0.00     0.000 C 
BRANCH   2   3
ATOM      3  C   UNL     1     -33.724  10.352  20.712  1.00  0.00     0.000 C 
BRANCH   3   4
ATOM      4  C   UNL     1     -34.073  10.307  22.210  1.00  0.00     0.000 C 
BRANCH   4   5
ATOM      5  C   UNL     1     -34.254  11.708  22.815  1.00  0.00     0.000 C 
BRANCH   5   6
ATOM      6  C   UNL     1     -34.617  11.669  24.307  1.00  0.00     0.000 C 
BRANCH   6   7
ATOM      7  C   UNL     1     -33.561  10.894  25.107  1.00  0.00     0.000 C 
BRANCH   7   8
ATOM      8  C   UNL     1     -34.167   9.920  26.136  1.00  0.00     0.000 C 
BRANCH   8   9
ATOM      9  C   UNL     1     -33.183   9.382  27.196  1.00  0.00     0.000 C 
BRANCH   9  10
ATOM     10  C   UNL     1     -32.348   8.163  26.741  1.00  0.00     0.000 C 
BRANCH  10  11
ATOM     11  C   UNL     1     -33.084   6.818  26.883  1.00  0.00     0.000 C 
BRANCH  11  12
ATOM     12  C   UNL     1     -33.622   6.231  25.565  1.00  0.00     0.000 C 
BRANCH  12  13
ATOM     13  C   UNL     1     -34.762   7.037  24.907  1.00  0.00     0.006 C 
BRANCH  13  14
ATOM     14  C   UNL     1     -35.526   6.281  23.808  1.00  0.00     0.053 C 
BRANCH  14  15
ATOM     15  C   UNL     1     -34.757   6.226  22.524  1.00  0.00     0.041 C 
ATOM     16  O   UNL     1     -34.945   5.281  21.713  1.00  0.00    -0.550 OA
ATOM     17  O   UNL     1     -33.858   7.237  22.206  1.00  0.00    -0.550 OA
ENDBRANCH  14  15
ENDBRANCH  13  14
ENDBRANCH  12  13
ENDBRANCH  11  12
ENDBRANCH  10  11
ENDBRANCH   9  10
ENDBRANCH   8   9
ENDBRANCH   7   8
ENDBRANCH   6   7
ENDBRANCH   5   6
ENDBRANCH   4   5
ENDBRANCH   3   4
ENDBRANCH   2   3
ENDBRANCH   1   2
BRANCH   1  18
ATOM     18  C   UNL     1     -33.175  11.603  17.659  1.00  0.00     0.000 C 
BRANCH  18  19
ATOM     19  C   UNL     1     -34.292  12.383  16.947  1.00  0.00     0.000 C 
BRANCH  19  20
ATOM     20  C   UNL     1     -33.808  13.718  16.354  1.00  0.00     0.000 C 
BRANCH  20  21
ATOM     21  C   UNL     1     -34.509  14.957  16.948  1.00  0.00     0.000 C 
BRANCH  21  22
ATOM     22  C   UNL     1     -34.658  14.872  18.479  1.00  0.00     0.000 C 
BRANCH  22  23
ATOM     23  C   UNL     1     -34.976  16.240  19.108  1.00  0.00     0.000 C 
BRANCH  23  24
ATOM     24  C   UNL     1     -35.316  17.303  18.050  1.00  0.00    -0.000 C 
BRANCH  24  25
ATOM     25  C   UNL     1     -36.836  17.545  17.937  1.00  0.00    -0.000 C 
BRANCH  25  26
ATOM     26  C   UNL     1     -37.676  16.272  18.139  1.00  0.00    -0.000 C 
BRANCH  26  27
ATOM     27  C   UNL     1     -39.188  16.535  18.041  1.00  0.00    -0.000 C 
BRANCH  27  28
ATOM     28  C   UNL     1     -40.028  15.347  18.533  1.00  0.00    -0.000 C 
BRANCH  28  29
ATOM     29  C   UNL     1     -39.229  14.383  19.429  1.00  0.00    -0.000 C 
BRANCH  29  30
ATOM     30  C   UNL     1     -40.083  13.185  19.899  1.00  0.00    -0.000 C 
BRANCH  30  31
ATOM     31  C   UNL     1     -40.498  12.241  18.757  1.00  0.00    -0.003 C 
ATOM     32  C   UNL     1     -39.575  11.033  18.614  1.00  0.00     0.004 C 
ENDBRANCH  30  31
ENDBRANCH  29  30
ENDBRANCH  28  29
ENDBRANCH  27  28
ENDBRANCH  26  27
ENDBRANCH  25  26
ENDBRANCH  24  25
ENDBRANCH  23  24
ENDBRANCH  22  23
ENDBRANCH  21  22
ENDBRANCH  20  21
ENDBRANCH  19  20
ENDBRANCH  18  19
ENDBRANCH   1  18
TORSDOF 28
ENDMDL
MODEL 4
REMARK VINA RESULT:    23.873      1.382      2.024
REMARK INTER + INTRA:          61.959
REMARK INTER:                  62.638
REMARK INTRA:                  -0.679
REMARK UNBOUND:                -0.992
REMARK SMILES CCCCCCCCCCCCCCCCCCCCCCCCCCCCCC(=O)[O-]
REMARK SMILES IDX 16 1 17 2 18 3 19 4 20 5 21 6 22 7 23 8 24 9 25 10 26 11
REMARK SMILES IDX 27 12 28 13 29 14 30 15 31 16 32 17 15 18 14 19 13 20 12 21
REMARK SMILES IDX 11 22 10 23 9 24 8 25 7 26 6 27 5 28 4 29 3 30 2 31 1 32
REMARK H PARENT
REMARK Flexibility Score: inf
ROOT
ATOM      1  C   UNL     1     -32.510  11.475  18.976  1.00  0.00     0.000 C 
ENDROOT
BRANCH   1   2
ATOM      2  C   UNL     1     -33.551  12.196  19.849  1.00  0.00     0.000 C 
BRANCH   2   3
ATOM      3  C   UNL     1     -34.039  11.333  21.025  1.00  0.00     0.000 C 
BRANCH   3   4
ATOM      4  C   UNL     1     -33.364   9.951  21.068  1.00  0.00     0.000 C 
BRANCH   4   5
ATOM      5  C   UNL     1     -34.338   8.831  21.470  1.00  0.00     0.000 C 
BRANCH   5   6
ATOM      6  C   UNL     1     -33.699   7.796  22.407  1.00  0.00     0.000 C 
BRANCH   6   7
ATOM      7  C   UNL     1     -34.470   6.469  22.363  1.00  0.00     0.000 C 
BRANCH   7   8
ATOM      8  C   UNL     1     -35.057   6.058  23.728  1.00  0.00     0.000 C 
BRANCH   8   9
ATOM      9  C   UNL     1     -34.632   6.938  24.921  1.00  0.00     0.000 C 
BRANCH   9  10
ATOM     10  C   UNL     1     -33.434   6.392  25.732  1.00  0.00     0.000 C 
BRANCH  10  11
ATOM     11  C   UNL     1     -33.317   6.991  27.146  1.00  0.00     0.000 C 
BRANCH  11  12
ATOM     12  C   UNL     1     -32.299   8.138  27.281  1.00  0.00     0.000 C 
BRANCH  12  13
ATOM     13  C   UNL     1     -32.913   9.553  27.347  1.00  0.00     0.006 C 
BRANCH  13  14
ATOM     14  C   UNL     1     -32.929  10.305  26.006  1.00  0.00     0.053 C 
BRANCH  14  15
ATOM     15  C   UNL     1     -34.323  10.560  25.521  1.00  0.00     0.041 C 
ATOM     16  O   UNL     1     -34.532  11.410  24.615  1.00  0.00    -0.550 OA
ATOM     17  O   UNL     1     -35.387   9.834  26.043  1.00  0.00    -0.550 OA
ENDBRANCH  14  15
ENDBRANCH  13  14
ENDBRANCH  12  13
ENDBRANCH  11  12
ENDBRANCH  10  11
ENDBRANCH   9  10
ENDBRANCH   8   9
ENDBRANCH   7   8
ENDBRANCH   6   7
ENDBRANCH   5   6
ENDBRANCH   4   5
ENDBRANCH   3   4
ENDBRANCH   2   3
ENDBRANCH   1   2
BRANCH   1  18
ATOM     18  C   UNL     1     -33.000  11.251  17.536  1.00  0.00     0.000 C 
BRANCH  18  19
ATOM     19  C   UNL     1     -33.936  12.368  17.046  1.00  0.00     0.000 C 
BRANCH  19  20
ATOM     20  C   UNL     1     -33.905  13.615  17.947  1.00  0.00     0.000 C 
BRANCH  20  21
ATOM     21  C   UNL     1     -34.507  14.876  17.290  1.00  0.00     0.000 C 
BRANCH  21  22
ATOM     22  C   UNL     1     -34.929  15.935  18.325  1.00  0.00     0.000 C 
BRANCH  22  23
ATOM     23  C   UNL     1     -35.077  17.332  17.698  1.00  0.00     0.000 C 
BRANCH  23  24
ATOM     24  C   UNL     1     -36.500  17.895  17.858  1.00  0.00    -0.000 C 
BRANCH  24  25
ATOM     25  C   UNL     1     -37.475  16.851  18.442  1.00  0.00    -0.000 C 
BRANCH  25  26
ATOM     26  C   UNL     1     -38.847  16.835  17.745  1.00  0.00    -0.000 C 
BRANCH  26  27
ATOM     27  C   UNL     1     -39.901  16.031  18.524  1.00  0.00    -0.000 C 
BRANCH  27  28
ATOM     28  C   UNL     1     -39.278  14.927  19.393  1.00  0.00    -0.000 C 
BRANCH  28  29
ATOM     29  C   UNL     1     -39.384  13.532  18.751  1.00  0.00    -0.000 C 
BRANCH  29  30
ATOM     30  C   UNL     1     -40.152  12.537  19.649  1.00  0.00    -0.000 C 
BRANCH  30  31
ATOM     31  C   UNL     1     -40.578  11.252  18.918  1.00  0.00    -0.003 C 
ATOM     32  C   UNL     1     -39.412  10.302  18.651  1.00  0.00     0.004 C 
ENDBRANCH  30  31
ENDBRANCH  29  30
ENDBRANCH  28  29
ENDBRANCH  27  28
ENDBRANCH  26  27
ENDBRANCH  25  26
ENDBRANCH  24  25
ENDBRANCH  23  24
ENDBRANCH  22  23
ENDBRANCH  21  22
ENDBRANCH  20  21
ENDBRANCH  19  20
ENDBRANCH  18  19
ENDBRANCH   1  18
TORSDOF 28
ENDMDL
MODEL 5
REMARK VINA RESULT:    24.254      2.067      4.726
REMARK INTER + INTRA:          62.962
REMARK INTER:                  63.750
REMARK INTRA:                  -0.787
REMARK UNBOUND:                -0.992
REMARK SMILES CCCCCCCCCCCCCCCCCCCCCCCCCCCCCC(=O)[O-]
REMARK SMILES IDX 16 1 17 2 18 3 19 4 20 5 21 6 22 7 23 8 24 9 25 10 26 11
REMARK SMILES IDX 27 12 28 13 29 14 30 15 31 16 32 17 15 18 14 19 13 20 12 21
REMARK SMILES IDX 11 22 10 23 9 24 8 25 7 26 6 27 5 28 4 29 3 30 2 31 1 32
REMARK H PARENT
REMARK Flexibility Score: inf
ROOT
ATOM      1  C   UNL     1     -32.913   9.311  21.376  1.00  0.00     0.000 C 
ENDROOT
BRANCH   1   2
ATOM      2  C   UNL     1     -33.170   7.839  21.742  1.00  0.00     0.000 C 
BRANCH   2   3
ATOM      3  C   UNL     1     -34.448   7.648  22.576  1.00  0.00     0.000 C 
BRANCH   3   4
ATOM      4  C   UNL     1     -34.694   6.178  22.958  1.00  0.00     0.000 C 
BRANCH   4   5
ATOM      5  C   UNL     1     -34.570   5.933  24.470  1.00  0.00     0.000 C 
BRANCH   5   6
ATOM      6  C   UNL     1     -34.586   7.233  25.287  1.00  0.00     0.000 C 
BRANCH   6   7
ATOM      7  C   UNL     1     -33.348   7.327  26.191  1.00  0.00     0.000 C 
BRANCH   7   8
ATOM      8  C   UNL     1     -33.306   8.615  27.037  1.00  0.00     0.000 C 
BRANCH   8   9
ATOM      9  C   UNL     1     -33.228   9.930  26.234  1.00  0.00     0.000 C 
BRANCH   9  10
ATOM     10  C   UNL     1     -34.555  10.359  25.566  1.00  0.00     0.000 C 
BRANCH  10  11
ATOM     11  C   UNL     1     -35.722  10.528  26.557  1.00  0.00     0.000 C 
BRANCH  11  12
ATOM     12  C   UNL     1     -36.558   9.258  26.797  1.00  0.00     0.000 C 
BRANCH  12  13
ATOM     13  C   UNL     1     -37.424   9.276  28.074  1.00  0.00     0.006 C 
BRANCH  13  14
ATOM     14  C   UNL     1     -37.609   7.902  28.739  1.00  0.00     0.053 C 
BRANCH  14  15
ATOM     15  C   UNL     1     -37.188   7.911  30.176  1.00  0.00     0.041 C 
ATOM     16  O   UNL     1     -37.185   6.842  30.842  1.00  0.00    -0.550 OA
ATOM     17  O   UNL     1     -36.765   9.093  30.772  1.00  0.00    -0.550 OA
ENDBRANCH  14  15
ENDBRANCH  13  14
ENDBRANCH  12  13
ENDBRANCH  11  12
ENDBRANCH  10  11
ENDBRANCH   9  10
ENDBRANCH   8   9
ENDBRANCH   7   8
ENDBRANCH   6   7
ENDBRANCH   5   6
ENDBRANCH   4   5
ENDBRANCH   3   4
ENDBRANCH   2   3
ENDBRANCH   1   2
BRANCH   1  18
ATOM     18  C   UNL     1     -34.146   9.987  20.753  1.00  0.00     0.000 C 
BRANCH  18  19
ATOM     19  C   UNL     1     -34.148  11.513  20.945  1.00  0.00     0.000 C 
BRANCH  19  20
ATOM     20  C   UNL     1     -33.367  12.257  19.847  1.00  0.00     0.000 C 
BRANCH  20  21
ATOM     21  C   UNL     1     -32.602  11.325  18.885  1.00  0.00     0.000 C 
BRANCH  21  22
ATOM     22  C   UNL     1     -32.643  11.821  17.427  1.00  0.00     0.000 C 
BRANCH  22  23
ATOM     23  C   UNL     1     -34.023  12.382  17.044  1.00  0.00     0.000 C 
BRANCH  23  24
ATOM     24  C   UNL     1     -33.930  13.787  16.425  1.00  0.00    -0.000 C 
BRANCH  24  25
ATOM     25  C   UNL     1     -34.623  14.854  17.299  1.00  0.00    -0.000 C 
BRANCH  25  26
ATOM     26  C   UNL     1     -35.045  16.109  16.516  1.00  0.00    -0.000 C 
BRANCH  26  27
ATOM     27  C   UNL     1     -34.848  17.406  17.319  1.00  0.00    -0.000 C 
BRANCH  27  28
ATOM     28  C   UNL     1     -35.859  17.550  18.466  1.00  0.00    -0.000 C 
BRANCH  28  29
ATOM     29  C   UNL     1     -36.812  16.346  18.576  1.00  0.00    -0.000 C 
BRANCH  29  30
ATOM     30  C   UNL     1     -38.217  16.665  18.019  1.00  0.00    -0.000 C 
BRANCH  30  31
ATOM     31  C   UNL     1     -39.273  15.603  18.372  1.00  0.00    -0.003 C 
ATOM     32  C   UNL     1     -40.694  16.032  18.013  1.00  0.00     0.004 C 
ENDBRANCH  30  31
ENDBRANCH  29  30
ENDBRANCH  28  29
ENDBRANCH  27  28
ENDBRANCH  26  27
ENDBRANCH  25  26
ENDBRANCH  24  25
ENDBRANCH  23  24
ENDBRANCH  22  23
ENDBRANCH  21  22
ENDBRANCH  20  21
ENDBRANCH  19  20
ENDBRANCH  18  19
ENDBRANCH   1  18
TORSDOF 28
ENDMDL
MODEL 6
REMARK VINA RESULT:    24.289      4.534     10.117
REMARK INTER + INTRA:          63.055
REMARK INTER:                  64.146
REMARK INTRA:                  -1.092
REMARK UNBOUND:                -0.992
REMARK SMILES CCCCCCCCCCCCCCCCCCCCCCCCCCCCCC(=O)[O-]
REMARK SMILES IDX 16 1 17 2 18 3 19 4 20 5 21 6 22 7 23 8 24 9 25 10 26 11
REMARK SMILES IDX 27 12 28 13 29 14 30 15 31 16 32 17 15 18 14 19 13 20 12 21
REMARK SMILES IDX 11 22 10 23 9 24 8 25 7 26 6 27 5 28 4 29 3 30 2 31 1 32
REMARK H PARENT
REMARK Flexibility Score: inf
ROOT
ATOM      1  C   UNL     1     -34.367  11.641  24.230  1.00  0.00     0.000 C 
ENDROOT
BRANCH   1   2
ATOM      2  C   UNL     1     -34.363  10.872  22.897  1.00  0.00     0.000 C 
BRANCH   2   3
ATOM      3  C   UNL     1     -34.015  11.768  21.696  1.00  0.00     0.000 C 
BRANCH   3   4
ATOM      4  C   UNL     1     -33.891  10.977  20.382  1.00  0.00     0.000 C 
BRANCH   4   5
ATOM      5  C   UNL     1     -32.891  11.614  19.403  1.00  0.00     0.000 C 
BRANCH   5   6
ATOM      6  C   UNL     1     -33.529  12.698  18.522  1.00  0.00     0.000 C 
BRANCH   6   7
ATOM      7  C   UNL     1     -32.868  12.737  17.137  1.00  0.00     0.000 C 
BRANCH   7   8
ATOM      8  C   UNL     1     -33.468  13.806  16.203  1.00  0.00     0.000 C 
BRANCH   8   9
ATOM      9  C   UNL     1     -34.854  14.341  16.618  1.00  0.00     0.000 C 
BRANCH   9  10
ATOM     10  C   UNL     1     -35.136  15.802  16.196  1.00  0.00     0.000 C 
BRANCH  10  11
ATOM     11  C   UNL     1     -34.729  16.844  17.255  1.00  0.00     0.000 C 
BRANCH  11  12
ATOM     12  C   UNL     1     -35.771  17.083  18.362  1.00  0.00     0.000 C 
BRANCH  12  13
ATOM     13  C   UNL     1     -36.653  15.864  18.705  1.00  0.00     0.006 C 
BRANCH  13  14
ATOM     14  C   UNL     1     -37.872  15.679  17.787  1.00  0.00     0.053 C 
BRANCH  14  15
ATOM     15  C   UNL     1     -39.164  15.814  18.532  1.00  0.00     0.041 C 
ATOM     16  O   UNL     1     -40.139  16.413  18.006  1.00  0.00    -0.550 OA
ATOM     17  O   UNL     1     -39.304  15.248  19.794  1.00  0.00    -0.550 OA
ENDBRANCH  14  15
ENDBRANCH  13  14
ENDBRANCH  12  13
ENDBRANCH  11  12
ENDBRANCH  10  11
ENDBRANCH   9  10
ENDBRANCH   8   9
ENDBRANCH   7   8
ENDBRANCH   6   7
ENDBRANCH   5   6
ENDBRANCH   4   5
ENDBRANCH   3   4
ENDBRANCH   2   3
ENDBRANCH   1   2
BRANCH   1  18
ATOM     18  C   UNL     1     -34.849  10.777  25.407  1.00  0.00     0.000 C 
BRANCH  18  19
ATOM     19  C   UNL     1     -33.698  10.310  26.313  1.00  0.00     0.000 C 
BRANCH  19  20
ATOM     20  C   UNL     1     -33.525   8.781  26.322  1.00  0.00     0.000 C 
BRANCH  20  21
ATOM     21  C   UNL     1     -34.685   8.017  25.649  1.00  0.00     0.000 C 
BRANCH  21  22
ATOM     22  C   UNL     1     -34.259   7.341  24.332  1.00  0.00     0.000 C 
BRANCH  22  23
ATOM     23  C   UNL     1     -35.207   6.196  23.935  1.00  0.00     0.000 C 
BRANCH  23  24
ATOM     24  C   UNL     1     -35.414   6.112  22.413  1.00  0.00    -0.000 C 
BRANCH  24  25
ATOM     25  C   UNL     1     -36.576   7.009  21.935  1.00  0.00    -0.000 C 
BRANCH  25  26
ATOM     26  C   UNL     1     -37.368   6.413  20.759  1.00  0.00    -0.000 C 
BRANCH  26  27
ATOM     27  C   UNL     1     -37.900   5.000  21.055  1.00  0.00    -0.000 C 
BRANCH  27  28
ATOM     28  C   UNL     1     -38.848   4.485  19.962  1.00  0.00    -0.000 C 
BRANCH  28  29
ATOM     29  C   UNL     1     -39.604   3.211  20.380  1.00  0.00    -0.000 C 
BRANCH  29  30
ATOM     30  C   UNL     1     -40.257   2.502  19.175  1.00  0.00    -0.000 C 
BRANCH  30  31
ATOM     31  C   UNL     1     -39.728   1.075  18.941  1.00  0.00    -0.003 C 
ATOM     32  C   UNL     1     -39.018   0.493  20.161  1.00  0.00     0.004 C 
ENDBRANCH  30  31
ENDBRANCH  29  30
ENDBRANCH  28  29
ENDBRANCH  27  28
ENDBRANCH  26  27
ENDBRANCH  25  26
ENDBRANCH  24  25
ENDBRANCH  23  24
ENDBRANCH  22  23
ENDBRANCH  21  22
ENDBRANCH  20  21
ENDBRANCH  19  20
ENDBRANCH  18  19
ENDBRANCH   1  18
TORSDOF 28
ENDMDL
MODEL 7
REMARK VINA RESULT:    24.384      3.031      9.770
REMARK INTER + INTRA:          63.305
REMARK INTER:                  64.331
REMARK INTRA:                  -1.026
REMARK UNBOUND:                -0.992
REMARK SMILES CCCCCCCCCCCCCCCCCCCCCCCCCCCCCC(=O)[O-]
REMARK SMILES IDX 16 1 17 2 18 3 19 4 20 5 21 6 22 7 23 8 24 9 25 10 26 11
REMARK SMILES IDX 27 12 28 13 29 14 30 15 31 16 32 17 15 18 14 19 13 20 12 21
REMARK SMILES IDX 11 22 10 23 9 24 8 25 7 26 6 27 5 28 4 29 3 30 2 31 1 32
REMARK H PARENT
REMARK Flexibility Score: inf
ROOT
ATOM      1  C   UNL     1     -32.967  11.581  19.309  1.00  0.00     0.000 C 
ENDROOT
BRANCH   1   2
ATOM      2  C   UNL     1     -33.767  11.036  18.113  1.00  0.00     0.000 C 
BRANCH   2   3
ATOM      3  C   UNL     1     -33.858  12.042  16.953  1.00  0.00     0.000 C 
BRANCH   3   4
ATOM      4  C   UNL     1     -33.386  13.451  17.351  1.00  0.00     0.000 C 
BRANCH   4   5
ATOM      5  C   UNL     1     -34.549  14.369  17.760  1.00  0.00     0.000 C 
BRANCH   5   6
ATOM      6  C   UNL     1     -35.158  15.124  16.569  1.00  0.00     0.000 C 
BRANCH   6   7
ATOM      7  C   UNL     1     -34.849  16.625  16.657  1.00  0.00     0.000 C 
BRANCH   7   8
ATOM      8  C   UNL     1     -35.138  17.229  18.045  1.00  0.00     0.000 C 
BRANCH   8   9
ATOM      9  C   UNL     1     -36.629  17.455  18.368  1.00  0.00     0.000 C 
BRANCH   9  10
ATOM     10  C   UNL     1     -37.535  16.224  18.134  1.00  0.00     0.000 C 
BRANCH  10  11
ATOM     11  C   UNL     1     -39.021  16.576  17.932  1.00  0.00     0.000 C 
BRANCH  11  12
ATOM     12  C   UNL     1     -40.014  15.532  18.474  1.00  0.00     0.000 C 
BRANCH  12  13
ATOM     13  C   UNL     1     -39.374  14.365  19.257  1.00  0.00     0.006 C 
BRANCH  13  14
ATOM     14  C   UNL     1     -40.349  13.238  19.632  1.00  0.00     0.053 C 
BRANCH  14  15
ATOM     15  C   UNL     1     -39.943  11.922  19.043  1.00  0.00     0.041 C 
ATOM     16  O   UNL     1     -40.556  10.869  19.362  1.00  0.00    -0.550 OA
ATOM     17  O   UNL     1     -38.911  11.864  18.114  1.00  0.00    -0.550 OA
ENDBRANCH  14  15
ENDBRANCH  13  14
ENDBRANCH  12  13
ENDBRANCH  11  12
ENDBRANCH  10  11
ENDBRANCH   9  10
ENDBRANCH   8   9
ENDBRANCH   7   8
ENDBRANCH   6   7
ENDBRANCH   5   6
ENDBRANCH   4   5
ENDBRANCH   3   4
ENDBRANCH   2   3
ENDBRANCH   1   2
BRANCH   1  18
ATOM     18  C   UNL     1     -33.772  11.555  20.619  1.00  0.00     0.000 C 
BRANCH  18  19
ATOM     19  C   UNL     1     -34.384  10.176  20.914  1.00  0.00     0.000 C 
BRANCH  19  20
ATOM     20  C   UNL     1     -33.336   9.049  20.948  1.00  0.00     0.000 C 
BRANCH  20  21
ATOM     21  C   UNL     1     -33.286   8.284  22.287  1.00  0.00     0.000 C 
BRANCH  21  22
ATOM     22  C   UNL     1     -34.281   7.109  22.332  1.00  0.00     0.000 C 
BRANCH  22  23
ATOM     23  C   UNL     1     -34.549   6.630  23.769  1.00  0.00     0.000 C 
BRANCH  23  24
ATOM     24  C   UNL     1     -36.052   6.488  24.065  1.00  0.00    -0.000 C 
BRANCH  24  25
ATOM     25  C   UNL     1     -36.468   7.258  25.336  1.00  0.00    -0.000 C 
BRANCH  25  26
ATOM     26  C   UNL     1     -35.380   8.211  25.860  1.00  0.00    -0.000 C 
BRANCH  26  27
ATOM     27  C   UNL     1     -35.866   9.666  25.969  1.00  0.00    -0.000 C 
BRANCH  27  28
ATOM     28  C   UNL     1     -34.731  10.683  25.773  1.00  0.00    -0.000 C 
BRANCH  28  29
ATOM     29  C   UNL     1     -33.337  10.031  25.783  1.00  0.00    -0.000 C 
BRANCH  29  30
ATOM     30  C   UNL     1     -33.038   9.321  27.121  1.00  0.00    -0.000 C 
BRANCH  30  31
ATOM     31  C   UNL     1     -32.534   7.877  26.951  1.00  0.00    -0.003 C 
ATOM     32  C   UNL     1     -32.590   7.068  28.245  1.00  0.00     0.004 C 
ENDBRANCH  30  31
ENDBRANCH  29  30
ENDBRANCH  28  29
ENDBRANCH  27  28
ENDBRANCH  26  27
ENDBRANCH  25  26
ENDBRANCH  24  25
ENDBRANCH  23  24
ENDBRANCH  22  23
ENDBRANCH  21  22
ENDBRANCH  20  21
ENDBRANCH  19  20
ENDBRANCH  18  19
ENDBRANCH   1  18
TORSDOF 28
ENDMDL
MODEL 8
REMARK VINA RESULT:    24.475      4.099      7.141
REMARK INTER + INTRA:          63.546
REMARK INTER:                  63.149
REMARK INTRA:                   0.396
REMARK UNBOUND:                -0.992
REMARK SMILES CCCCCCCCCCCCCCCCCCCCCCCCCCCCCC(=O)[O-]
REMARK SMILES IDX 16 1 17 2 18 3 19 4 20 5 21 6 22 7 23 8 24 9 25 10 26 11
REMARK SMILES IDX 27 12 28 13 29 14 30 15 31 16 32 17 15 18 14 19 13 20 12 21
REMARK SMILES IDX 11 22 10 23 9 24 8 25 7 26 6 27 5 28 4 29 3 30 2 31 1 32
REMARK H PARENT
REMARK Flexibility Score: inf
ROOT
ATOM      1  C   UNL     1     -33.052  11.359  19.733  1.00  0.00     0.000 C 
ENDROOT
BRANCH   1   2
ATOM      2  C   UNL     1     -33.577  10.862  18.375  1.00  0.00     0.000 C 
BRANCH   2   3
ATOM      3  C   UNL     1     -32.692  11.306  17.198  1.00  0.00     0.000 C 
BRANCH   3   4
ATOM      4  C   UNL     1     -31.508  12.183  17.644  1.00  0.00     0.000 C 
BRANCH   4   5
ATOM      5  C   UNL     1     -30.452  12.353  16.539  1.00  0.00     0.000 C 
BRANCH   5   6
ATOM      6  C   UNL     1     -29.227  13.152  17.006  1.00  0.00     0.000 C 
BRANCH   6   7
ATOM      7  C   UNL     1     -28.419  13.666  15.805  1.00  0.00     0.000 C 
BRANCH   7   8
ATOM      8  C   UNL     1     -27.723  15.016  16.070  1.00  0.00     0.000 C 
BRANCH   8   9
ATOM      9  C   UNL     1     -27.562  15.395  17.556  1.00  0.00     0.000 C 
BRANCH   9  10
ATOM     10  C   UNL     1     -26.118  15.756  17.977  1.00  0.00     0.000 C 
BRANCH  10  11
ATOM     11  C   UNL     1     -25.880  15.690  19.498  1.00  0.00     0.000 C 
BRANCH  11  12
ATOM     12  C   UNL     1     -26.571  16.800  20.310  1.00  0.00     0.000 C 
BRANCH  12  13
ATOM     13  C   UNL     1     -26.495  16.633  21.843  1.00  0.00     0.006 C 
BRANCH  13  14
ATOM     14  C   UNL     1     -27.804  16.165  22.500  1.00  0.00     0.053 C 
BRANCH  14  15
ATOM     15  C   UNL     1     -28.038  14.699  22.307  1.00  0.00     0.041 C 
ATOM     16  O   UNL     1     -27.063  13.907  22.223  1.00  0.00    -0.550 OA
ATOM     17  O   UNL     1     -29.335  14.201  22.254  1.00  0.00    -0.550 OA
ENDBRANCH  14  15
ENDBRANCH  13  14
ENDBRANCH  12  13
ENDBRANCH  11  12
ENDBRANCH  10  11
ENDBRANCH   9  10
ENDBRANCH   8   9
ENDBRANCH   7   8
ENDBRANCH   6   7
ENDBRANCH   5   6
ENDBRANCH   4   5
ENDBRANCH   3   4
ENDBRANCH   2   3
ENDBRANCH   1   2
BRANCH   1  18
ATOM     18  C   UNL     1     -33.996  12.377  20.394  1.00  0.00     0.000 C 
BRANCH  18  19
ATOM     19  C   UNL     1     -34.137  13.674  19.580  1.00  0.00     0.000 C 
BRANCH  19  20
ATOM     20  C   UNL     1     -33.940  13.459  18.069  1.00  0.00     0.000 C 
BRANCH  20  21
ATOM     21  C   UNL     1     -35.057  14.074  17.200  1.00  0.00     0.000 C 
BRANCH  21  22
ATOM     22  C   UNL     1     -34.504  14.999  16.099  1.00  0.00     0.000 C 
BRANCH  22  23
ATOM     23  C   UNL     1     -35.073  16.425  16.200  1.00  0.00     0.000 C 
BRANCH  23  24
ATOM     24  C   UNL     1     -34.803  17.065  17.572  1.00  0.00    -0.000 C 
BRANCH  24  25
ATOM     25  C   UNL     1     -36.089  17.626  18.215  1.00  0.00    -0.000 C 
BRANCH  25  26
ATOM     26  C   UNL     1     -37.041  16.535  18.735  1.00  0.00    -0.000 C 
BRANCH  26  27
ATOM     27  C   UNL     1     -38.096  16.120  17.696  1.00  0.00    -0.000 C 
BRANCH  27  28
ATOM     28  C   UNL     1     -39.392  15.610  18.342  1.00  0.00    -0.000 C 
BRANCH  28  29
ATOM     29  C   UNL     1     -39.164  14.995  19.734  1.00  0.00    -0.000 C 
BRANCH  29  30
ATOM     30  C   UNL     1     -40.027  13.735  19.962  1.00  0.00    -0.000 C 
BRANCH  30  31
ATOM     31  C   UNL     1     -40.148  12.840  18.716  1.00  0.00    -0.003 C 
ATOM     32  C   UNL     1     -40.015  11.352  19.034  1.00  0.00     0.004 C 
ENDBRANCH  30  31
ENDBRANCH  29  30
ENDBRANCH  28  29
ENDBRANCH  27  28
ENDBRANCH  26  27
ENDBRANCH  25  26
ENDBRANCH  24  25
ENDBRANCH  23  24
ENDBRANCH  22  23
ENDBRANCH  21  22
ENDBRANCH  20  21
ENDBRANCH  19  20
ENDBRANCH  18  19
ENDBRANCH   1  18
TORSDOF 28
ENDMDL
MODEL 9
REMARK VINA RESULT:    24.614      3.125      9.258
REMARK INTER + INTRA:          63.912
REMARK INTER:                  65.393
REMARK INTRA:                  -1.481
REMARK UNBOUND:                -0.992
REMARK SMILES CCCCCCCCCCCCCCCCCCCCCCCCCCCCCC(=O)[O-]
REMARK SMILES IDX 16 1 17 2 18 3 19 4 20 5 21 6 22 7 23 8 24 9 25 10 26 11
REMARK SMILES IDX 27 12 28 13 29 14 30 15 31 16 32 17 15 18 14 19 13 20 12 21
REMARK SMILES IDX 11 22 10 23 9 24 8 25 7 26 6 27 5 28 4 29 3 30 2 31 1 32
REMARK H PARENT
REMARK Flexibility Score: inf
ROOT
ATOM      1  C   UNL     1     -32.664  12.324  18.242  1.00  0.00     0.000 C 
ENDROOT
BRANCH   1   2
ATOM      2  C   UNL     1     -33.744  12.257  17.148  1.00  0.00     0.000 C 
BRANCH   2   3
ATOM      3  C   UNL     1     -34.071  13.636  16.551  1.00  0.00     0.000 C 
BRANCH   3   4
ATOM      4  C   UNL     1     -34.575  14.635  17.606  1.00  0.00     0.000 C 
BRANCH   4   5
ATOM      5  C   UNL     1     -35.079  15.947  16.983  1.00  0.00     0.000 C 
BRANCH   5   6
ATOM      6  C   UNL     1     -35.071  17.119  17.976  1.00  0.00     0.000 C 
BRANCH   6   7
ATOM      7  C   UNL     1     -36.497  17.630  18.230  1.00  0.00     0.000 C 
BRANCH   7   8
ATOM      8  C   UNL     1     -37.562  16.517  18.181  1.00  0.00     0.000 C 
BRANCH   8   9
ATOM      9  C   UNL     1     -38.682  16.721  17.140  1.00  0.00     0.000 C 
BRANCH   9  10
ATOM     10  C   UNL     1     -40.090  16.943  17.742  1.00  0.00     0.000 C 
BRANCH  10  11
ATOM     11  C   UNL     1     -40.584  15.772  18.613  1.00  0.00     0.000 C 
BRANCH  11  12
ATOM     12  C   UNL     1     -39.570  15.269  19.656  1.00  0.00     0.000 C 
BRANCH  12  13
ATOM     13  C   UNL     1     -39.575  13.743  19.890  1.00  0.00     0.006 C 
BRANCH  13  14
ATOM     14  C   UNL     1     -39.961  12.910  18.657  1.00  0.00     0.053 C 
BRANCH  14  15
ATOM     15  C   UNL     1     -39.977  11.442  18.952  1.00  0.00     0.041 C 
ATOM     16  O   UNL     1     -40.693  10.990  19.885  1.00  0.00    -0.550 OA
ATOM     17  O   UNL     1     -39.228  10.566  18.175  1.00  0.00    -0.550 OA
ENDBRANCH  14  15
ENDBRANCH  13  14
ENDBRANCH  12  13
ENDBRANCH  11  12
ENDBRANCH  10  11
ENDBRANCH   9  10
ENDBRANCH   8   9
ENDBRANCH   7   8
ENDBRANCH   6   7
ENDBRANCH   5   6
ENDBRANCH   4   5
ENDBRANCH   3   4
ENDBRANCH   2   3
ENDBRANCH   1   2
BRANCH   1  18
ATOM     18  C   UNL     1     -32.944  11.361  19.407  1.00  0.00     0.000 C 
BRANCH  18  19
ATOM     19  C   UNL     1     -33.998  11.902  20.387  1.00  0.00     0.000 C 
BRANCH  19  20
ATOM     20  C   UNL     1     -34.248  10.962  21.579  1.00  0.00     0.000 C 
BRANCH  20  21
ATOM     21  C   UNL     1     -34.331  11.687  22.939  1.00  0.00     0.000 C 
BRANCH  21  22
ATOM     22  C   UNL     1     -33.596  10.925  24.058  1.00  0.00     0.000 C 
BRANCH  22  23
ATOM     23  C   UNL     1     -34.453  10.792  25.329  1.00  0.00     0.000 C 
BRANCH  23  24
ATOM     24  C   UNL     1     -33.653  10.224  26.515  1.00  0.00    -0.000 C 
BRANCH  24  25
ATOM     25  C   UNL     1     -34.035   8.761  26.824  1.00  0.00    -0.000 C 
BRANCH  25  26
ATOM     26  C   UNL     1     -34.826   8.081  25.693  1.00  0.00    -0.000 C 
BRANCH  26  27
ATOM     27  C   UNL     1     -34.243   6.713  25.298  1.00  0.00    -0.000 C 
BRANCH  27  28
ATOM     28  C   UNL     1     -34.985   6.075  24.114  1.00  0.00    -0.000 C 
BRANCH  28  29
ATOM     29  C   UNL     1     -34.574   6.678  22.759  1.00  0.00    -0.000 C 
BRANCH  29  30
ATOM     30  C   UNL     1     -35.760   7.366  22.047  1.00  0.00    -0.000 C 
BRANCH  30  31
ATOM     31  C   UNL     1     -37.006   6.471  21.924  1.00  0.00    -0.003 C 
ATOM     32  C   UNL     1     -37.663   6.546  20.548  1.00  0.00     0.004 C 
ENDBRANCH  30  31
ENDBRANCH  29  30
ENDBRANCH  28  29
ENDBRANCH  27  28
ENDBRANCH  26  27
ENDBRANCH  25  26
ENDBRANCH  24  25
ENDBRANCH  23  24
ENDBRANCH  22  23
ENDBRANCH  21  22
ENDBRANCH  20  21
ENDBRANCH  19  20
ENDBRANCH  18  19
ENDBRANCH   1  18
TORSDOF 28
ENDMDL
