MODEL 1
REMARK VINA RESULT:    -3.969      0.000      0.000
REMARK INTER + INTRA:         -10.204
REMARK INTER:                  -7.450
REMARK INTRA:                  -2.754
REMARK UNBOUND:                -2.754
REMARK SMILES CCCCCCCCC=CCCCCCCCC(=O)[O-]
REMARK SMILES IDX 10 1 9 2 11 3 12 4 13 5 14 6 15 7 16 8 17 9 18 10 19 11
REMARK SMILES IDX 20 12 8 13 7 14 6 15 5 16 4 17 3 18 2 19 1 20
REMARK H PARENT
REMARK Flexibility Score: inf
ROOT
ATOM      1  C   UNL     1      47.970   6.806 113.219  1.00  0.00    -0.031 C 
ATOM      2  C   UNL     1      48.016   5.765 112.365  1.00  0.00    -0.031 C 
ENDROOT
BRANCH   1   3
ATOM      3  C   UNL     1      48.907   7.992 113.208  1.00  0.00     0.027 C 
BRANCH   3   4
ATOM      4  C   UNL     1      49.178   8.525 114.625  1.00  0.00     0.004 C 
BRANCH   4   5
ATOM      5  C   UNL     1      48.417   7.794 115.751  1.00  0.00     0.000 C 
BRANCH   5   6
ATOM      6  C   UNL     1      47.326   8.626 116.452  1.00  0.00     0.000 C 
BRANCH   6   7
ATOM      7  C   UNL     1      45.881   8.191 116.149  1.00  0.00     0.000 C 
BRANCH   7   8
ATOM      8  C   UNL     1      45.199   9.079 115.098  1.00  0.00     0.006 C 
BRANCH   8   9
ATOM      9  C   UNL     1      44.759   8.254 113.886  1.00  0.00     0.053 C 
BRANCH   9  10
ATOM     10  C   UNL     1      44.025   7.027 114.326  1.00  0.00     0.041 C 
ATOM     11  O   UNL     1      44.451   5.884 114.010  1.00  0.00    -0.550 OA
ATOM     12  O   UNL     1      42.895   7.143 115.126  1.00  0.00    -0.550 OA
ENDBRANCH   9  10
ENDBRANCH   8   9
ENDBRANCH   7   8
ENDBRANCH   6   7
ENDBRANCH   5   6
ENDBRANCH   4   5
ENDBRANCH   3   4
ENDBRANCH   1   3
BRANCH   2  13
ATOM     13  C   UNL     1      48.995   5.612 111.228  1.00  0.00     0.027 C 
BRANCH  13  14
ATOM     14  C   UNL     1      50.133   4.645 111.590  1.00  0.00     0.004 C 
BRANCH  14  15
ATOM     15  C   UNL     1      51.490   5.354 111.721  1.00  0.00     0.000 C 
BRANCH  15  16
ATOM     16  C   UNL     1      51.881   5.611 113.184  1.00  0.00     0.000 C 
BRANCH  16  17
ATOM     17  C   UNL     1      50.983   4.818 114.141  1.00  0.00    -0.000 C 
BRANCH  17  18
ATOM     18  C   UNL     1      51.115   5.337 115.580  1.00  0.00    -0.000 C 
BRANCH  18  19
ATOM     19  C   UNL     1      52.087   6.521 115.693  1.00  0.00    -0.003 C 
ATOM     20  C   UNL     1      51.928   7.293 117.004  1.00  0.00     0.004 C 
ENDBRANCH  18  19
ENDBRANCH  17  18
ENDBRANCH  16  17
ENDBRANCH  15  16
ENDBRANCH  14  15
ENDBRANCH  13  14
ENDBRANCH   2  13
TORSDOF 15
ENDMDL
MODEL 2
REMARK VINA RESULT:    -3.958      2.793      6.986
REMARK INTER + INTRA:         -10.182
REMARK INTER:                  -8.253
REMARK INTRA:                  -1.930
REMARK UNBOUND:                -2.754
REMARK SMILES CCCCCCCCC=CCCCCCCCC(=O)[O-]
REMARK SMILES IDX 10 1 9 2 11 3 12 4 13 5 14 6 15 7 16 8 17 9 18 10 19 11
REMARK SMILES IDX 20 12 8 13 7 14 6 15 5 16 4 17 3 18 2 19 1 20
REMARK H PARENT
REMARK Flexibility Score: inf
ROOT
ATOM      1  C   UNL     1      48.143   7.611 114.735  1.00  0.00    -0.031 C 
ATOM      2  C   UNL     1      48.376   8.478 115.741  1.00  0.00    -0.031 C 
ENDROOT
BRANCH   1   3
ATOM      3  C   UNL     1      47.003   7.699 113.748  1.00  0.00     0.027 C 
BRANCH   3   4
ATOM      4  C   UNL     1      47.402   7.175 112.359  1.00  0.00     0.004 C 
BRANCH   4   5
ATOM      5  C   UNL     1      48.921   7.066 112.117  1.00  0.00     0.000 C 
BRANCH   5   6
ATOM      6  C   UNL     1      49.338   6.115 110.978  1.00  0.00     0.000 C 
BRANCH   6   7
ATOM      7  C   UNL     1      49.683   4.681 111.420  1.00  0.00     0.000 C 
BRANCH   7   8
ATOM      8  C   UNL     1      50.994   4.602 112.214  1.00  0.00     0.006 C 
BRANCH   8   9
ATOM      9  C   UNL     1      50.722   4.315 113.694  1.00  0.00     0.053 C 
BRANCH   9  10
ATOM     10  C   UNL     1      51.215   5.443 114.545  1.00  0.00     0.041 C 
ATOM     11  O   UNL     1      51.841   6.405 114.023  1.00  0.00    -0.550 OA
ATOM     12  O   UNL     1      50.942   5.456 115.907  1.00  0.00    -0.550 OA
ENDBRANCH   9  10
ENDBRANCH   8   9
ENDBRANCH   7   8
ENDBRANCH   6   7
ENDBRANCH   5   6
ENDBRANCH   4   5
ENDBRANCH   3   4
ENDBRANCH   1   3
BRANCH   2  13
ATOM     13  C   UNL     1      47.553   9.705 116.043  1.00  0.00     0.027 C 
BRANCH  13  14
ATOM     14  C   UNL     1      46.940   9.639 117.450  1.00  0.00     0.004 C 
BRANCH  14  15
ATOM     15  C   UNL     1      45.417   9.441 117.422  1.00  0.00     0.000 C 
BRANCH  15  16
ATOM     16  C   UNL     1      45.006   7.987 117.700  1.00  0.00     0.000 C 
BRANCH  16  17
ATOM     17  C   UNL     1      44.664   7.254 116.397  1.00  0.00    -0.000 C 
BRANCH  17  18
ATOM     18  C   UNL     1      43.427   7.869 115.728  1.00  0.00    -0.000 C 
BRANCH  18  19
ATOM     19  C   UNL     1      42.935   7.047 114.527  1.00  0.00    -0.003 C 
ATOM     20  C   UNL     1      43.980   6.048 114.027  1.00  0.00     0.004 C 
ENDBRANCH  18  19
ENDBRANCH  17  18
ENDBRANCH  16  17
ENDBRANCH  15  16
ENDBRANCH  14  15
ENDBRANCH  13  14
ENDBRANCH   2  13
TORSDOF 15
ENDMDL
MODEL 3
REMARK VINA RESULT:    -3.927      3.640      8.076
REMARK INTER + INTRA:         -10.125
REMARK INTER:                  -8.233
REMARK INTRA:                  -1.892
REMARK UNBOUND:                -2.754
REMARK SMILES CCCCCCCCC=CCCCCCCCC(=O)[O-]
REMARK SMILES IDX 10 1 9 2 11 3 12 4 13 5 14 6 15 7 16 8 17 9 18 10 19 11
REMARK SMILES IDX 20 12 8 13 7 14 6 15 5 16 4 17 3 18 2 19 1 20
REMARK H PARENT
REMARK Flexibility Score: inf
ROOT
ATOM      1  C   UNL     1      43.459   7.322 115.311  1.00  0.00    -0.031 C 
ATOM      2  C   UNL     1      43.568   7.888 114.092  1.00  0.00    -0.031 C 
ENDROOT
BRANCH   1   3
ATOM      3  C   UNL     1      43.707   8.020 116.627  1.00  0.00     0.027 C 
BRANCH   3   4
ATOM      4  C   UNL     1      45.207   8.116 116.954  1.00  0.00     0.004 C 
BRANCH   4   5
ATOM      5  C   UNL     1      45.780   9.547 116.962  1.00  0.00     0.000 C 
BRANCH   5   6
ATOM      6  C   UNL     1      47.132   9.716 116.241  1.00  0.00     0.000 C 
BRANCH   6   7
ATOM      7  C   UNL     1      47.929   8.415 116.040  1.00  0.00     0.000 C 
BRANCH   7   8
ATOM      8  C   UNL     1      48.274   8.149 114.568  1.00  0.00     0.006 C 
BRANCH   8   9
ATOM      9  C   UNL     1      47.187   7.307 113.893  1.00  0.00     0.053 C 
BRANCH   9  10
ATOM     10  C   UNL     1      47.593   6.947 112.498  1.00  0.00     0.041 C 
ATOM     11  O   UNL     1      47.847   5.749 112.201  1.00  0.00    -0.550 OA
ATOM     12  O   UNL     1      47.647   7.927 111.516  1.00  0.00    -0.550 OA
ENDBRANCH   9  10
ENDBRANCH   8   9
ENDBRANCH   7   8
ENDBRANCH   6   7
ENDBRANCH   5   6
ENDBRANCH   4   5
ENDBRANCH   3   4
ENDBRANCH   1   3
BRANCH   2  13
ATOM     13  C   UNL     1      43.930   9.327 113.828  1.00  0.00     0.027 C 
BRANCH  13  14
ATOM     14  C   UNL     1      42.695  10.239 113.882  1.00  0.00     0.004 C 
BRANCH  14  15
ATOM     15  C   UNL     1      42.733  11.214 115.068  1.00  0.00     0.000 C 
BRANCH  15  16
ATOM     16  C   UNL     1      42.150  12.592 114.717  1.00  0.00     0.000 C 
BRANCH  16  17
ATOM     17  C   UNL     1      41.018  12.464 113.690  1.00  0.00    -0.000 C 
BRANCH  17  18
ATOM     18  C   UNL     1      40.778  13.797 112.966  1.00  0.00    -0.000 C 
BRANCH  18  19
ATOM     19  C   UNL     1      42.065  14.616 112.795  1.00  0.00    -0.003 C 
ATOM     20  C   UNL     1      42.713  14.420 111.424  1.00  0.00     0.004 C 
ENDBRANCH  18  19
ENDBRANCH  17  18
ENDBRANCH  16  17
ENDBRANCH  15  16
ENDBRANCH  14  15
ENDBRANCH  13  14
ENDBRANCH   2  13
TORSDOF 15
ENDMDL
MODEL 4
REMARK VINA RESULT:    -3.921      2.674      3.571
REMARK INTER + INTRA:         -10.114
REMARK INTER:                  -8.053
REMARK INTRA:                  -2.061
REMARK UNBOUND:                -2.754
REMARK SMILES CCCCCCCCC=CCCCCCCCC(=O)[O-]
REMARK SMILES IDX 10 1 9 2 11 3 12 4 13 5 14 6 15 7 16 8 17 9 18 10 19 11
REMARK SMILES IDX 20 12 8 13 7 14 6 15 5 16 4 17 3 18 2 19 1 20
REMARK H PARENT
REMARK Flexibility Score: inf
ROOT
ATOM      1  C   UNL     1      47.084   6.916 113.937  1.00  0.00    -0.031 C 
ATOM      2  C   UNL     1      47.397   6.566 112.674  1.00  0.00    -0.031 C 
ENDROOT
BRANCH   1   3
ATOM      3  C   UNL     1      47.528   8.182 114.631  1.00  0.00     0.027 C 
BRANCH   3   4
ATOM      4  C   UNL     1      46.368   8.872 115.368  1.00  0.00     0.004 C 
BRANCH   4   5
ATOM      5  C   UNL     1      44.960   8.491 114.865  1.00  0.00     0.000 C 
BRANCH   5   6
ATOM      6  C   UNL     1      43.861   9.537 115.138  1.00  0.00     0.000 C 
BRANCH   6   7
ATOM      7  C   UNL     1      43.760  10.009 116.599  1.00  0.00     0.000 C 
BRANCH   7   8
ATOM      8  C   UNL     1      43.537   8.852 117.584  1.00  0.00     0.006 C 
BRANCH   8   9
ATOM      9  C   UNL     1      43.885   9.276 119.014  1.00  0.00     0.053 C 
BRANCH   9  10
ATOM     10  C   UNL     1      42.768  10.072 119.612  1.00  0.00     0.041 C 
ATOM     11  O   UNL     1      41.786   9.488 120.144  1.00  0.00    -0.550 OA
ATOM     12  O   UNL     1      42.832  11.460 119.622  1.00  0.00    -0.550 OA
ENDBRANCH   9  10
ENDBRANCH   8   9
ENDBRANCH   7   8
ENDBRANCH   6   7
ENDBRANCH   5   6
ENDBRANCH   4   5
ENDBRANCH   3   4
ENDBRANCH   1   3
BRANCH   2  13
ATOM     13  C   UNL     1      48.225   7.389 111.720  1.00  0.00     0.027 C 
BRANCH  13  14
ATOM     14  C   UNL     1      49.249   6.523 110.970  1.00  0.00     0.004 C 
BRANCH  14  15
ATOM     15  C   UNL     1      49.252   5.064 111.451  1.00  0.00     0.000 C 
BRANCH  15  16
ATOM     16  C   UNL     1      50.554   4.685 112.174  1.00  0.00     0.000 C 
BRANCH  16  17
ATOM     17  C   UNL     1      50.280   4.296 113.632  1.00  0.00    -0.000 C 
BRANCH  17  18
ATOM     18  C   UNL     1      50.482   5.496 114.570  1.00  0.00    -0.000 C 
BRANCH  18  19
ATOM     19  C   UNL     1      51.566   6.460 114.068  1.00  0.00    -0.003 C 
ATOM     20  C   UNL     1      51.153   7.928 114.187  1.00  0.00     0.004 C 
ENDBRANCH  18  19
ENDBRANCH  17  18
ENDBRANCH  16  17
ENDBRANCH  15  16
ENDBRANCH  14  15
ENDBRANCH  13  14
ENDBRANCH   2  13
TORSDOF 15
ENDMDL
MODEL 5
REMARK VINA RESULT:    -3.897      2.571      6.480
REMARK INTER + INTRA:         -10.068
REMARK INTER:                  -8.271
REMARK INTRA:                  -1.797
REMARK UNBOUND:                -2.754
REMARK SMILES CCCCCCCCC=CCCCCCCCC(=O)[O-]
REMARK SMILES IDX 10 1 9 2 11 3 12 4 13 5 14 6 15 7 16 8 17 9 18 10 19 11
REMARK SMILES IDX 20 12 8 13 7 14 6 15 5 16 4 17 3 18 2 19 1 20
REMARK H PARENT
REMARK Flexibility Score: inf
ROOT
ATOM      1  C   UNL     1      48.465   8.321 115.404  1.00  0.00    -0.031 C 
ATOM      2  C   UNL     1      47.164   7.989 115.289  1.00  0.00    -0.031 C 
ENDROOT
BRANCH   1   3
ATOM      3  C   UNL     1      49.501   8.194 114.311  1.00  0.00     0.027 C 
BRANCH   3   4
ATOM      4  C   UNL     1      50.665   7.278 114.725  1.00  0.00     0.004 C 
BRANCH   4   5
ATOM      5  C   UNL     1      50.260   5.833 115.079  1.00  0.00     0.000 C 
BRANCH   5   6
ATOM      6  C   UNL     1      50.682   4.763 114.053  1.00  0.00     0.000 C 
BRANCH   6   7
ATOM      7  C   UNL     1      50.981   5.298 112.641  1.00  0.00     0.000 C 
BRANCH   7   8
ATOM      8  C   UNL     1      49.946   4.846 111.601  1.00  0.00     0.006 C 
BRANCH   8   9
ATOM      9  C   UNL     1      48.664   5.678 111.707  1.00  0.00     0.053 C 
BRANCH   9  10
ATOM     10  C   UNL     1      48.704   6.827 110.750  1.00  0.00     0.041 C 
ATOM     11  O   UNL     1      49.458   6.786 109.741  1.00  0.00    -0.550 OA
ATOM     12  O   UNL     1      47.875   7.924 110.946  1.00  0.00    -0.550 OA
ENDBRANCH   9  10
ENDBRANCH   8   9
ENDBRANCH   7   8
ENDBRANCH   6   7
ENDBRANCH   5   6
ENDBRANCH   4   5
ENDBRANCH   3   4
ENDBRANCH   1   3
BRANCH   2  13
ATOM     13  C   UNL     1      46.505   7.459 114.041  1.00  0.00     0.027 C 
BRANCH  13  14
ATOM     14  C   UNL     1      44.978   7.387 114.197  1.00  0.00     0.004 C 
BRANCH  14  15
ATOM     15  C   UNL     1      44.308   8.766 114.096  1.00  0.00     0.000 C 
BRANCH  15  16
ATOM     16  C   UNL     1      43.687   9.219 115.426  1.00  0.00     0.000 C 
BRANCH  16  17
ATOM     17  C   UNL     1      43.536   8.037 116.392  1.00  0.00    -0.000 C 
BRANCH  17  18
ATOM     18  C   UNL     1      44.238   8.323 117.727  1.00  0.00    -0.000 C 
BRANCH  18  19
ATOM     19  C   UNL     1      43.253   8.703 118.843  1.00  0.00    -0.003 C 
ATOM     20  C   UNL     1      43.223  10.207 119.118  1.00  0.00     0.004 C 
ENDBRANCH  18  19
ENDBRANCH  17  18
ENDBRANCH  16  17
ENDBRANCH  15  16
ENDBRANCH  14  15
ENDBRANCH  13  14
ENDBRANCH   2  13
TORSDOF 15
ENDMDL
MODEL 6
REMARK VINA RESULT:    -3.876      4.700      8.883
REMARK INTER + INTRA:         -10.028
REMARK INTER:                  -7.875
REMARK INTRA:                  -2.153
REMARK UNBOUND:                -2.754
REMARK SMILES CCCCCCCCC=CCCCCCCCC(=O)[O-]
REMARK SMILES IDX 10 1 9 2 11 3 12 4 13 5 14 6 15 7 16 8 17 9 18 10 19 11
REMARK SMILES IDX 20 12 8 13 7 14 6 15 5 16 4 17 3 18 2 19 1 20
REMARK H PARENT
REMARK Flexibility Score: inf
ROOT
ATOM      1  C   UNL     1      45.858   9.466 118.569  1.00  0.00    -0.031 C 
ATOM      2  C   UNL     1      46.723  10.253 119.241  1.00  0.00    -0.031 C 
ENDROOT
BRANCH   1   3
ATOM      3  C   UNL     1      44.658   8.772 119.168  1.00  0.00     0.027 C 
BRANCH   3   4
ATOM      4  C   UNL     1      43.416   8.891 118.269  1.00  0.00     0.004 C 
BRANCH   4   5
ATOM      5  C   UNL     1      43.712   8.965 116.757  1.00  0.00     0.000 C 
BRANCH   5   6
ATOM      6  C   UNL     1      43.564   7.634 115.994  1.00  0.00     0.000 C 
BRANCH   6   7
ATOM      7  C   UNL     1      44.854   7.116 115.334  1.00  0.00     0.000 C 
BRANCH   7   8
ATOM      8  C   UNL     1      45.873   8.231 115.060  1.00  0.00     0.006 C 
BRANCH   8   9
ATOM      9  C   UNL     1      47.305   7.729 115.273  1.00  0.00     0.053 C 
BRANCH   9  10
ATOM     10  C   UNL     1      48.045   7.691 113.972  1.00  0.00     0.041 C 
ATOM     11  O   UNL     1      47.446   7.373 112.910  1.00  0.00    -0.550 OA
ATOM     12  O   UNL     1      49.385   8.053 113.926  1.00  0.00    -0.550 OA
ENDBRANCH   9  10
ENDBRANCH   8   9
ENDBRANCH   7   8
ENDBRANCH   6   7
ENDBRANCH   5   6
ENDBRANCH   4   5
ENDBRANCH   3   4
ENDBRANCH   1   3
BRANCH   2  13
ATOM     13  C   UNL     1      46.630  10.600 120.705  1.00  0.00     0.027 C 
BRANCH  13  14
ATOM     14  C   UNL     1      46.288  12.083 120.912  1.00  0.00     0.004 C 
BRANCH  14  15
ATOM     15  C   UNL     1      45.612  12.349 122.266  1.00  0.00     0.000 C 
BRANCH  15  16
ATOM     16  C   UNL     1      44.083  12.219 122.198  1.00  0.00     0.000 C 
BRANCH  16  17
ATOM     17  C   UNL     1      43.568  12.532 120.787  1.00  0.00    -0.000 C 
BRANCH  17  18
ATOM     18  C   UNL     1      42.439  11.570 120.387  1.00  0.00    -0.000 C 
BRANCH  18  19
ATOM     19  C   UNL     1      42.107  10.558 121.493  1.00  0.00    -0.003 C 
ATOM     20  C   UNL     1      41.086   9.510 121.048  1.00  0.00     0.004 C 
ENDBRANCH  18  19
ENDBRANCH  17  18
ENDBRANCH  16  17
ENDBRANCH  15  16
ENDBRANCH  14  15
ENDBRANCH  13  14
ENDBRANCH   2  13
TORSDOF 15
ENDMDL
MODEL 7
REMARK VINA RESULT:    -3.815      2.148      6.763
REMARK INTER + INTRA:          -9.914
REMARK INTER:                  -7.945
REMARK INTRA:                  -1.969
REMARK UNBOUND:                -2.754
REMARK SMILES CCCCCCCCC=CCCCCCCCC(=O)[O-]
REMARK SMILES IDX 10 1 9 2 11 3 12 4 13 5 14 6 15 7 16 8 17 9 18 10 19 11
REMARK SMILES IDX 20 12 8 13 7 14 6 15 5 16 4 17 3 18 2 19 1 20
REMARK H PARENT
REMARK Flexibility Score: inf
ROOT
ATOM      1  C   UNL     1      48.276   8.694 115.169  1.00  0.00    -0.031 C 
ATOM      2  C   UNL     1      47.316   9.339 115.862  1.00  0.00    -0.031 C 
ENDROOT
BRANCH   1   3
ATOM      3  C   UNL     1      49.268   7.714 115.751  1.00  0.00     0.027 C 
BRANCH   3   4
ATOM      4  C   UNL     1      50.127   7.050 114.662  1.00  0.00     0.004 C 
BRANCH   4   5
ATOM      5  C   UNL     1      50.644   5.640 115.012  1.00  0.00     0.000 C 
BRANCH   5   6
ATOM      6  C   UNL     1      50.315   4.545 113.978  1.00  0.00     0.000 C 
BRANCH   6   7
ATOM      7  C   UNL     1      50.930   4.760 112.584  1.00  0.00     0.000 C 
BRANCH   7   8
ATOM      8  C   UNL     1      49.901   4.630 111.452  1.00  0.00     0.006 C 
BRANCH   8   9
ATOM      9  C   UNL     1      48.600   5.356 111.808  1.00  0.00     0.053 C 
BRANCH   9  10
ATOM     10  C   UNL     1      48.581   6.724 111.201  1.00  0.00     0.041 C 
ATOM     11  O   UNL     1      49.177   6.943 110.113  1.00  0.00    -0.550 OA
ATOM     12  O   UNL     1      47.866   7.745 111.814  1.00  0.00    -0.550 OA
ENDBRANCH   9  10
ENDBRANCH   8   9
ENDBRANCH   7   8
ENDBRANCH   6   7
ENDBRANCH   5   6
ENDBRANCH   4   5
ENDBRANCH   3   4
ENDBRANCH   1   3
BRANCH   2  13
ATOM     13  C   UNL     1      47.044   9.175 117.336  1.00  0.00     0.027 C 
BRANCH  13  14
ATOM     14  C   UNL     1      45.590   8.751 117.597  1.00  0.00     0.004 C 
BRANCH  14  15
ATOM     15  C   UNL     1      44.579   9.836 117.195  1.00  0.00     0.000 C 
BRANCH  15  16
ATOM     16  C   UNL     1      43.526   9.320 116.201  1.00  0.00     0.000 C 
BRANCH  16  17
ATOM     17  C   UNL     1      43.820   9.822 114.781  1.00  0.00    -0.000 C 
BRANCH  17  18
ATOM     18  C   UNL     1      43.543   8.727 113.741  1.00  0.00    -0.000 C 
BRANCH  18  19
ATOM     19  C   UNL     1      43.813   7.316 114.283  1.00  0.00    -0.003 C 
ATOM     20  C   UNL     1      45.225   6.820 113.964  1.00  0.00     0.004 C 
ENDBRANCH  18  19
ENDBRANCH  17  18
ENDBRANCH  16  17
ENDBRANCH  15  16
ENDBRANCH  14  15
ENDBRANCH  13  14
ENDBRANCH   2  13
TORSDOF 15
ENDMDL
MODEL 8
REMARK VINA RESULT:    -3.812      5.110      9.458
REMARK INTER + INTRA:          -9.909
REMARK INTER:                  -8.409
REMARK INTRA:                  -1.500
REMARK UNBOUND:                -2.754
REMARK SMILES CCCCCCCCC=CCCCCCCCC(=O)[O-]
REMARK SMILES IDX 10 1 9 2 11 3 12 4 13 5 14 6 15 7 16 8 17 9 18 10 19 11
REMARK SMILES IDX 20 12 8 13 7 14 6 15 5 16 4 17 3 18 2 19 1 20
REMARK H PARENT
REMARK Flexibility Score: inf
ROOT
ATOM      1  C   UNL     1      43.308   9.742 113.153  1.00  0.00    -0.031 C 
ATOM      2  C   UNL     1      42.596  10.792 112.698  1.00  0.00    -0.031 C 
ENDROOT
BRANCH   1   3
ATOM      3  C   UNL     1      43.022   8.973 114.422  1.00  0.00     0.027 C 
BRANCH   3   4
ATOM      4  C   UNL     1      43.737   9.584 115.639  1.00  0.00     0.004 C 
BRANCH   4   5
ATOM      5  C   UNL     1      44.248   8.560 116.673  1.00  0.00     0.000 C 
BRANCH   5   6
ATOM      6  C   UNL     1      44.937   7.316 116.080  1.00  0.00     0.000 C 
BRANCH   6   7
ATOM      7  C   UNL     1      46.467   7.420 115.949  1.00  0.00     0.000 C 
BRANCH   7   8
ATOM      8  C   UNL     1      46.908   8.163 114.681  1.00  0.00     0.006 C 
BRANCH   8   9
ATOM      9  C   UNL     1      46.356   7.480 113.426  1.00  0.00     0.053 C 
BRANCH   9  10
ATOM     10  C   UNL     1      47.474   7.053 112.528  1.00  0.00     0.041 C 
ATOM     11  O   UNL     1      47.795   7.758 111.534  1.00  0.00    -0.550 OA
ATOM     12  O   UNL     1      48.193   5.899 112.815  1.00  0.00    -0.550 OA
ENDBRANCH   9  10
ENDBRANCH   8   9
ENDBRANCH   7   8
ENDBRANCH   6   7
ENDBRANCH   5   6
ENDBRANCH   4   5
ENDBRANCH   3   4
ENDBRANCH   1   3
BRANCH   2  13
ATOM     13  C   UNL     1      41.371  11.370 113.361  1.00  0.00     0.027 C 
BRANCH  13  14
ATOM     14  C   UNL     1      41.742  12.454 114.384  1.00  0.00     0.004 C 
BRANCH  14  15
ATOM     15  C   UNL     1      42.256  13.740 113.720  1.00  0.00     0.000 C 
BRANCH  15  16
ATOM     16  C   UNL     1      41.196  14.409 112.831  1.00  0.00     0.000 C 
BRANCH  16  17
ATOM     17  C   UNL     1      40.088  15.044 113.680  1.00  0.00    -0.000 C 
BRANCH  17  18
ATOM     18  C   UNL     1      40.286  16.562 113.799  1.00  0.00    -0.000 C 
BRANCH  18  19
ATOM     19  C   UNL     1      40.056  17.077 115.227  1.00  0.00    -0.003 C 
ATOM     20  C   UNL     1      41.354  17.490 115.923  1.00  0.00     0.004 C 
ENDBRANCH  18  19
ENDBRANCH  17  18
ENDBRANCH  16  17
ENDBRANCH  15  16
ENDBRANCH  14  15
ENDBRANCH  13  14
ENDBRANCH   2  13
TORSDOF 15
ENDMDL
MODEL 9
REMARK VINA RESULT:    -3.811      4.322      6.557
REMARK INTER + INTRA:          -9.906
REMARK INTER:                  -8.589
REMARK INTRA:                  -1.318
REMARK UNBOUND:                -2.754
REMARK SMILES CCCCCCCCC=CCCCCCCCC(=O)[O-]
REMARK SMILES IDX 10 1 9 2 11 3 12 4 13 5 14 6 15 7 16 8 17 9 18 10 19 11
REMARK SMILES IDX 20 12 8 13 7 14 6 15 5 16 4 17 3 18 2 19 1 20
REMARK H PARENT
REMARK Flexibility Score: inf
ROOT
ATOM      1  C   UNL     1      43.704   8.003 116.801  1.00  0.00    -0.031 C 
ATOM      2  C   UNL     1      43.654   8.354 115.501  1.00  0.00    -0.031 C 
ENDROOT
BRANCH   1   3
ATOM      3  C   UNL     1      44.883   8.217 117.722  1.00  0.00     0.027 C 
BRANCH   3   4
ATOM      4  C   UNL     1      44.495   9.016 118.977  1.00  0.00     0.004 C 
BRANCH   4   5
ATOM      5  C   UNL     1      42.983   9.054 119.282  1.00  0.00     0.000 C 
BRANCH   5   6
ATOM      6  C   UNL     1      42.520  10.238 120.153  1.00  0.00     0.000 C 
BRANCH   6   7
ATOM      7  C   UNL     1      43.254  11.565 119.892  1.00  0.00     0.000 C 
BRANCH   7   8
ATOM      8  C   UNL     1      43.587  12.326 121.184  1.00  0.00     0.006 C 
BRANCH   8   9
ATOM      9  C   UNL     1      45.048  12.787 121.187  1.00  0.00     0.053 C 
BRANCH   9  10
ATOM     10  C   UNL     1      45.969  11.609 121.250  1.00  0.00     0.041 C 
ATOM     11  O   UNL     1      45.895  10.797 122.211  1.00  0.00    -0.550 OA
ATOM     12  O   UNL     1      46.877  11.381 120.224  1.00  0.00    -0.550 OA
ENDBRANCH   9  10
ENDBRANCH   8   9
ENDBRANCH   7   8
ENDBRANCH   6   7
ENDBRANCH   5   6
ENDBRANCH   4   5
ENDBRANCH   3   4
ENDBRANCH   1   3
BRANCH   2  13
ATOM     13  C   UNL     1      44.755   9.049 114.741  1.00  0.00     0.027 C 
BRANCH  13  14
ATOM     14  C   UNL     1      45.650   8.043 114.000  1.00  0.00     0.004 C 
BRANCH  14  15
ATOM     15  C   UNL     1      47.020   7.867 114.671  1.00  0.00     0.000 C 
BRANCH  15  16
ATOM     16  C   UNL     1      48.146   7.616 113.655  1.00  0.00     0.000 C 
BRANCH  16  17
ATOM     17  C   UNL     1      47.648   6.761 112.483  1.00  0.00    -0.000 C 
BRANCH  17  18
ATOM     18  C   UNL     1      48.676   6.735 111.343  1.00  0.00    -0.000 C 
BRANCH  18  19
ATOM     19  C   UNL     1      49.357   5.368 111.194  1.00  0.00    -0.003 C 
ATOM     20  C   UNL     1      48.725   4.291 112.078  1.00  0.00     0.004 C 
ENDBRANCH  18  19
ENDBRANCH  17  18
ENDBRANCH  16  17
ENDBRANCH  15  16
ENDBRANCH  14  15
ENDBRANCH  13  14
ENDBRANCH   2  13
TORSDOF 15
ENDMDL
