MODEL 1
REMARK VINA RESULT:    30.101      0.000      0.000
REMARK INTER + INTRA:          36.771
REMARK INTER:                  37.139
REMARK INTRA:                  -0.368
REMARK UNBOUND:                -0.368
REMARK SMILES Oc1cc(O)c2cc(O)c(-c3cc(O)c(O)c(O)c3)[o+]c2c1
REMARK SMILES IDX 10 1 20 2 21 3 22 4 2 5 3 6 4 7 6 8 7 9 8 10 11 11 12 12
REMARK SMILES IDX 13 13 19 14 15 15 17 16 14 17 16 19 18 21 9 23 1 25 5 27
REMARK H PARENT 14 18 16 20 18 22 9 24 1 26 5 28
REMARK Flexibility Score: inf
ROOT
ATOM      1  C   UNL     1       9.488   2.235   8.422  1.00  0.00     0.402 A 
ATOM      2  O   UNL     1      10.284   1.331   7.859  1.00  0.00    -0.202 OA
ATOM      3  C   UNL     1      11.318   1.648   7.086  1.00  0.00     0.368 A 
ATOM      4  C   UNL     1      12.099   0.626   6.541  1.00  0.00     0.162 A 
ATOM      5  C   UNL     1      13.191   0.930   5.730  1.00  0.00     0.128 A 
ATOM      6  C   UNL     1      13.508   2.266   5.459  1.00  0.00     0.093 A 
ATOM      7  C   UNL     1      12.742   3.309   5.993  1.00  0.00     0.136 A 
ATOM      8  C   UNL     1      11.628   3.003   6.818  1.00  0.00     0.125 A 
ATOM      9  C   UNL     1      10.796   3.982   7.384  1.00  0.00     0.078 A 
ATOM     10  C   UNL     1       9.712   3.604   8.184  1.00  0.00     0.223 A 
ENDROOT
BRANCH   1  11
ATOM     11  C   UNL     1       8.373   1.756   9.272  1.00  0.00     0.091 A 
ATOM     12  C   UNL     1       8.606   1.501  10.633  1.00  0.00     0.068 A 
ATOM     13  C   UNL     1       7.564   1.065  11.464  1.00  0.00     0.162 A 
ATOM     14  C   UNL     1       7.074   1.604   8.760  1.00  0.00     0.068 A 
ATOM     15  C   UNL     1       6.276   0.895  10.942  1.00  0.00     0.200 A 
ATOM     16  C   UNL     1       6.028   1.170   9.586  1.00  0.00     0.162 A 
BRANCH  13  17
ATOM     17  O   UNL     1       7.803   0.799  12.811  1.00  0.00    -0.504 OA
ATOM     18  H   UNL     1       8.631   0.301  13.115  1.00  0.00     0.293 HD
ENDBRANCH  13  17
BRANCH  15  19
ATOM     19  O   UNL     1       5.251   0.459  11.784  1.00  0.00    -0.502 OA
ATOM     20  H   UNL     1       4.296   0.359  11.462  1.00  0.00     0.293 HD
ENDBRANCH  15  19
BRANCH  16  21
ATOM     21  O   UNL     1       4.743   1.017   9.067  1.00  0.00    -0.504 OA
ATOM     22  H   UNL     1       3.919   1.170   9.636  1.00  0.00     0.293 HD
ENDBRANCH  16  21
ENDBRANCH   1  11
BRANCH  10  23
ATOM     23  O   UNL     1       8.856   4.574   8.707  1.00  0.00    -0.500 OA
ATOM     24  H   UNL     1       9.099   5.558   8.700  1.00  0.00     0.294 HD
ENDBRANCH  10  23
BRANCH   5  25
ATOM     25  O   UNL     1      13.958  -0.104   5.195  1.00  0.00    -0.507 OA
ATOM     26  H   UNL     1      14.877  -0.325   5.559  1.00  0.00     0.293 HD
ENDBRANCH   5  25
BRANCH   7  27
ATOM     27  O   UNL     1      13.125   4.616   5.678  1.00  0.00    -0.507 OA
ATOM     28  H   UNL     1      13.844   5.132   6.163  1.00  0.00     0.293 HD
ENDBRANCH   7  27
TORSDOF 7
ENDMDL
MODEL 2
REMARK VINA RESULT:    30.677      4.698      8.140
REMARK INTER + INTRA:          37.482
REMARK INTER:                  37.816
REMARK INTRA:                  -0.334
REMARK UNBOUND:                -0.368
REMARK SMILES Oc1cc(O)c2cc(O)c(-c3cc(O)c(O)c(O)c3)[o+]c2c1
REMARK SMILES IDX 10 1 20 2 21 3 22 4 2 5 3 6 4 7 6 8 7 9 8 10 11 11 12 12
REMARK SMILES IDX 13 13 19 14 15 15 17 16 14 17 16 19 18 21 9 23 1 25 5 27
REMARK H PARENT 14 18 16 20 18 22 9 24 1 26 5 28
REMARK Flexibility Score: inf
ROOT
ATOM      1  C   UNL     1      14.982   2.914   8.329  1.00  0.00     0.402 A 
ATOM      2  O   UNL     1      14.105   3.808   7.884  1.00  0.00    -0.202 OA
ATOM      3  C   UNL     1      13.055   3.491   7.132  1.00  0.00     0.368 A 
ATOM      4  C   UNL     1      12.187   4.502   6.714  1.00  0.00     0.162 A 
ATOM      5  C   UNL     1      11.076   4.198   5.928  1.00  0.00     0.128 A 
ATOM      6  C   UNL     1      10.829   2.871   5.554  1.00  0.00     0.093 A 
ATOM      7  C   UNL     1      11.684   1.839   5.960  1.00  0.00     0.136 A 
ATOM      8  C   UNL     1      12.817   2.146   6.759  1.00  0.00     0.125 A 
ATOM      9  C   UNL     1      13.735   1.180   7.199  1.00  0.00     0.078 A 
ATOM     10  C   UNL     1      14.831   1.559   7.981  1.00  0.00     0.223 A 
ENDROOT
BRANCH   1  11
ATOM     11  C   UNL     1      16.105   3.391   9.169  1.00  0.00     0.091 A 
ATOM     12  C   UNL     1      15.888   3.640  10.533  1.00  0.00     0.068 A 
ATOM     13  C   UNL     1      16.938   4.074  11.354  1.00  0.00     0.162 A 
ATOM     14  C   UNL     1      17.398   3.548   8.642  1.00  0.00     0.068 A 
ATOM     15  C   UNL     1      18.220   4.248  10.818  1.00  0.00     0.200 A 
ATOM     16  C   UNL     1      18.453   3.979   9.458  1.00  0.00     0.162 A 
BRANCH  13  17
ATOM     17  O   UNL     1      16.714   4.334  12.705  1.00  0.00    -0.504 OA
ATOM     18  H   UNL     1      17.442   4.711  13.300  1.00  0.00     0.293 HD
ENDBRANCH  13  17
BRANCH  15  19
ATOM     19  O   UNL     1      19.253   4.682  11.650  1.00  0.00    -0.502 OA
ATOM     20  H   UNL     1      19.954   4.048  12.014  1.00  0.00     0.293 HD
ENDBRANCH  15  19
BRANCH  16  21
ATOM     21  O   UNL     1      19.731   4.136   8.925  1.00  0.00    -0.504 OA
ATOM     22  H   UNL     1      20.398   4.786   9.326  1.00  0.00     0.293 HD
ENDBRANCH  16  21
ENDBRANCH   1  11
BRANCH  10  23
ATOM     23  O   UNL     1      15.770   0.606   8.378  1.00  0.00    -0.500 OA
ATOM     24  H   UNL     1      15.509  -0.197   8.939  1.00  0.00     0.294 HD
ENDBRANCH  10  23
BRANCH   5  25
ATOM     25  O   UNL     1      10.221   5.220   5.520  1.00  0.00    -0.507 OA
ATOM     26  H   UNL     1      10.464   6.195   5.646  1.00  0.00     0.293 HD
ENDBRANCH   5  25
BRANCH   7  27
ATOM     27  O   UNL     1      11.368   0.542   5.548  1.00  0.00    -0.507 OA
ATOM     28  H   UNL     1      11.351   0.237   4.586  1.00  0.00     0.293 HD
ENDBRANCH   7  27
TORSDOF 7
ENDMDL
MODEL 3
REMARK VINA RESULT:    31.146      1.081      2.563
REMARK INTER + INTRA:          38.061
REMARK INTER:                  38.413
REMARK INTRA:                  -0.352
REMARK UNBOUND:                -0.368
REMARK SMILES Oc1cc(O)c2cc(O)c(-c3cc(O)c(O)c(O)c3)[o+]c2c1
REMARK SMILES IDX 10 1 20 2 21 3 22 4 2 5 3 6 4 7 6 8 7 9 8 10 11 11 12 12
REMARK SMILES IDX 13 13 19 14 15 15 17 16 14 17 16 19 18 21 9 23 1 25 5 27
REMARK H PARENT 14 18 16 20 18 22 9 24 1 26 5 28
REMARK Flexibility Score: inf
ROOT
ATOM      1  C   UNL     1       9.322   1.420   8.609  1.00  0.00     0.402 A 
ATOM      2  O   UNL     1       9.641   2.627   8.150  1.00  0.00    -0.202 OA
ATOM      3  C   UNL     1      10.669   2.851   7.337  1.00  0.00     0.368 A 
ATOM      4  C   UNL     1      10.922   4.155   6.904  1.00  0.00     0.162 A 
ATOM      5  C   UNL     1      11.991   4.419   6.048  1.00  0.00     0.128 A 
ATOM      6  C   UNL     1      12.816   3.371   5.619  1.00  0.00     0.093 A 
ATOM      7  C   UNL     1      12.582   2.056   6.038  1.00  0.00     0.136 A 
ATOM      8  C   UNL     1      11.496   1.784   6.911  1.00  0.00     0.125 A 
ATOM      9  C   UNL     1      11.196   0.500   7.392  1.00  0.00     0.078 A 
ATOM     10  C   UNL     1      10.111   0.310   8.254  1.00  0.00     0.223 A 
ENDROOT
BRANCH   1  11
ATOM     11  C   UNL     1       8.146   1.298   9.502  1.00  0.00     0.091 A 
ATOM     12  C   UNL     1       8.337   1.264  10.892  1.00  0.00     0.068 A 
ATOM     13  C   UNL     1       7.239   1.169  11.759  1.00  0.00     0.162 A 
ATOM     14  C   UNL     1       6.838   1.271   8.989  1.00  0.00     0.068 A 
ATOM     15  C   UNL     1       5.939   1.122  11.241  1.00  0.00     0.200 A 
ATOM     16  C   UNL     1       5.737   1.178   9.851  1.00  0.00     0.162 A 
BRANCH  13  17
ATOM     17  O   UNL     1       7.434   1.121  13.138  1.00  0.00    -0.504 OA
ATOM     18  H   UNL     1       6.682   0.877  13.772  1.00  0.00     0.293 HD
ENDBRANCH  13  17
BRANCH  15  19
ATOM     19  O   UNL     1       4.859   1.025  12.120  1.00  0.00    -0.502 OA
ATOM     20  H   UNL     1       4.567   1.800  12.701  1.00  0.00     0.293 HD
ENDBRANCH  15  19
BRANCH  16  21
ATOM     21  O   UNL     1       4.443   1.147   9.333  1.00  0.00    -0.504 OA
ATOM     22  H   UNL     1       3.977   0.272   9.120  1.00  0.00     0.293 HD
ENDBRANCH  16  21
ENDBRANCH   1  11
BRANCH  10  23
ATOM     23  O   UNL     1       9.841  -0.957   8.771  1.00  0.00    -0.500 OA
ATOM     24  H   UNL     1      10.583  -1.584   9.058  1.00  0.00     0.294 HD
ENDBRANCH  10  23
BRANCH   5  25
ATOM     25  O   UNL     1      12.229   5.726   5.628  1.00  0.00    -0.507 OA
ATOM     26  H   UNL     1      13.170   6.084   5.516  1.00  0.00     0.293 HD
ENDBRANCH   5  25
BRANCH   7  27
ATOM     27  O   UNL     1      13.448   1.066   5.563  1.00  0.00    -0.507 OA
ATOM     28  H   UNL     1      14.359   1.247   5.168  1.00  0.00     0.293 HD
ENDBRANCH   7  27
TORSDOF 7
ENDMDL
MODEL 4
REMARK VINA RESULT:    31.681      4.949      8.029
REMARK INTER + INTRA:          38.722
REMARK INTER:                  39.033
REMARK INTRA:                  -0.311
REMARK UNBOUND:                -0.368
REMARK SMILES Oc1cc(O)c2cc(O)c(-c3cc(O)c(O)c(O)c3)[o+]c2c1
REMARK SMILES IDX 10 1 20 2 21 3 22 4 2 5 3 6 4 7 6 8 7 9 8 10 11 11 12 12
REMARK SMILES IDX 13 13 19 14 15 15 17 16 14 17 16 19 18 21 9 23 1 25 5 27
REMARK H PARENT 14 18 16 20 18 22 9 24 1 26 5 28
REMARK Flexibility Score: inf
ROOT
ATOM      1  C   UNL     1      15.190   3.759   8.525  1.00  0.00     0.402 A 
ATOM      2  O   UNL     1      14.869   2.581   7.999  1.00  0.00    -0.202 OA
ATOM      3  C   UNL     1      13.789   2.386   7.249  1.00  0.00     0.368 A 
ATOM      4  C   UNL     1      13.537   1.110   6.737  1.00  0.00     0.162 A 
ATOM      5  C   UNL     1      12.414   0.878   5.944  1.00  0.00     0.128 A 
ATOM      6  C   UNL     1      11.532   1.927   5.659  1.00  0.00     0.093 A 
ATOM      7  C   UNL     1      11.763   3.215   6.159  1.00  0.00     0.136 A 
ATOM      8  C   UNL     1      12.904   3.455   6.968  1.00  0.00     0.125 A 
ATOM      9  C   UNL     1      13.207   4.708   7.523  1.00  0.00     0.078 A 
ATOM     10  C   UNL     1      14.348   4.867   8.315  1.00  0.00     0.223 A 
ENDROOT
BRANCH   1  11
ATOM     11  C   UNL     1      16.427   3.851   9.336  1.00  0.00     0.091 A 
ATOM     12  C   UNL     1      16.330   3.911  10.735  1.00  0.00     0.068 A 
ATOM     13  C   UNL     1      17.486   3.979  11.526  1.00  0.00     0.162 A 
ATOM     14  C   UNL     1      17.698   3.824   8.737  1.00  0.00     0.068 A 
ATOM     15  C   UNL     1      18.750   3.973  10.922  1.00  0.00     0.200 A 
ATOM     16  C   UNL     1      18.857   3.890   9.523  1.00  0.00     0.162 A 
BRANCH  13  17
ATOM     17  O   UNL     1      17.385   4.053  12.914  1.00  0.00    -0.504 OA
ATOM     18  H   UNL     1      17.612   3.261  13.505  1.00  0.00     0.293 HD
ENDBRANCH  13  17
BRANCH  15  19
ATOM     19  O   UNL     1      19.889   4.043  11.726  1.00  0.00    -0.502 OA
ATOM     20  H   UNL     1      20.811   3.817  11.373  1.00  0.00     0.293 HD
ENDBRANCH  15  19
BRANCH  16  21
ATOM     21  O   UNL     1      20.113   3.868   8.920  1.00  0.00    -0.504 OA
ATOM     22  H   UNL     1      20.536   4.708   8.543  1.00  0.00     0.293 HD
ENDBRANCH  16  21
ENDBRANCH   1  11
BRANCH  10  23
ATOM     23  O   UNL     1      14.623   6.100   8.907  1.00  0.00    -0.500 OA
ATOM     24  H   UNL     1      14.693   6.204   9.913  1.00  0.00     0.294 HD
ENDBRANCH  10  23
BRANCH   5  25
ATOM     25  O   UNL     1      12.179  -0.402   5.444  1.00  0.00    -0.507 OA
ATOM     26  H   UNL     1      12.088  -1.202   6.057  1.00  0.00     0.293 HD
ENDBRANCH   5  25
BRANCH   7  27
ATOM     27  O   UNL     1      10.838   4.209   5.826  1.00  0.00    -0.507 OA
ATOM     28  H   UNL     1      10.129   4.561   6.453  1.00  0.00     0.293 HD
ENDBRANCH   7  27
TORSDOF 7
ENDMDL
MODEL 5
REMARK VINA RESULT:    32.586      1.465      7.246
REMARK INTER + INTRA:          39.838
REMARK INTER:                  40.205
REMARK INTRA:                  -0.367
REMARK UNBOUND:                -0.368
REMARK SMILES Oc1cc(O)c2cc(O)c(-c3cc(O)c(O)c(O)c3)[o+]c2c1
REMARK SMILES IDX 10 1 20 2 21 3 22 4 2 5 3 6 4 7 6 8 7 9 8 10 11 11 12 12
REMARK SMILES IDX 13 13 19 14 15 15 17 16 14 17 16 19 18 21 9 23 1 25 5 27
REMARK H PARENT 14 18 16 20 18 22 9 24 1 26 5 28
REMARK Flexibility Score: inf
ROOT
ATOM      1  C   UNL     1       8.876   1.760   8.656  1.00  0.00     0.402 A 
ATOM      2  O   UNL     1       7.693   1.808   8.051  1.00  0.00    -0.202 OA
ATOM      3  C   UNL     1       6.542   1.587   8.678  1.00  0.00     0.368 A 
ATOM      4  C   UNL     1       5.349   1.663   7.956  1.00  0.00     0.162 A 
ATOM      5  C   UNL     1       4.126   1.439   8.589  1.00  0.00     0.128 A 
ATOM      6  C   UNL     1       4.094   1.138   9.956  1.00  0.00     0.093 A 
ATOM      7  C   UNL     1       5.276   1.057  10.702  1.00  0.00     0.136 A 
ATOM      8  C   UNL     1       6.522   1.282  10.060  1.00  0.00     0.125 A 
ATOM      9  C   UNL     1       7.757   1.208  10.724  1.00  0.00     0.078 A 
ATOM     10  C   UNL     1       8.945   1.437  10.024  1.00  0.00     0.223 A 
ENDROOT
BRANCH   1  11
ATOM     11  C   UNL     1      10.088   2.036   7.849  1.00  0.00     0.091 A 
ATOM     12  C   UNL     1      10.792   0.965   7.277  1.00  0.00     0.068 A 
ATOM     13  C   UNL     1      11.931   1.199   6.493  1.00  0.00     0.162 A 
ATOM     14  C   UNL     1      10.517   3.350   7.598  1.00  0.00     0.068 A 
ATOM     15  C   UNL     1      12.366   2.511   6.263  1.00  0.00     0.200 A 
ATOM     16  C   UNL     1      11.654   3.591   6.814  1.00  0.00     0.162 A 
BRANCH  13  17
ATOM     17  O   UNL     1      12.635   0.132   5.939  1.00  0.00    -0.504 OA
ATOM     18  H   UNL     1      13.400   0.281   5.290  1.00  0.00     0.293 HD
ENDBRANCH  13  17
BRANCH  15  19
ATOM     19  O   UNL     1      13.503   2.725   5.482  1.00  0.00    -0.502 OA
ATOM     20  H   UNL     1      13.497   3.346   4.683  1.00  0.00     0.293 HD
ENDBRANCH  15  19
BRANCH  16  21
ATOM     21  O   UNL     1      12.075   4.898   6.574  1.00  0.00    -0.504 OA
ATOM     22  H   UNL     1      11.955   5.630   7.265  1.00  0.00     0.293 HD
ENDBRANCH  16  21
ENDBRANCH   1  11
BRANCH  10  23
ATOM     23  O   UNL     1      10.175   1.316  10.672  1.00  0.00    -0.500 OA
ATOM     24  H   UNL     1      10.300   1.608  11.634  1.00  0.00     0.294 HD
ENDBRANCH  10  23
BRANCH   5  25
ATOM     25  O   UNL     1       2.946   1.518   7.852  1.00  0.00    -0.507 OA
ATOM     26  H   UNL     1       2.945   1.811   6.883  1.00  0.00     0.293 HD
ENDBRANCH   5  25
BRANCH   7  27
ATOM     27  O   UNL     1       5.160   0.755  12.062  1.00  0.00    -0.507 OA
ATOM     28  H   UNL     1       5.522  -0.083  12.493  1.00  0.00     0.293 HD
ENDBRANCH   7  27
TORSDOF 7
ENDMDL
