MODEL 1
REMARK VINA RESULT:    -4.342      0.000      0.000
REMARK INTER + INTRA:          -7.778
REMARK INTER:                  -6.880
REMARK INTRA:                  -0.898
REMARK UNBOUND:                -0.898
REMARK SMILES CCCCCCCCCCCC(=O)[O-]
REMARK SMILES IDX 7 1 8 2 9 3 10 4 11 5 12 6 13 7 14 8 6 9 5 10 4 11 3 12 2 13
REMARK SMILES IDX 1 14
REMARK H PARENT
REMARK Flexibility Score: inf
ROOT
ATOM      1  C   UNL     1      15.370   2.765   0.780  1.00  0.00     0.000 C 
ENDROOT
BRANCH   1   2
ATOM      2  C   UNL     1      14.722   3.438   2.002  1.00  0.00     0.000 C 
BRANCH   2   3
ATOM      3  C   UNL     1      13.750   4.562   1.611  1.00  0.00     0.000 C 
BRANCH   3   4
ATOM      4  C   UNL     1      12.303   4.065   1.451  1.00  0.00     0.006 C 
BRANCH   4   5
ATOM      5  C   UNL     1      11.279   5.097   1.945  1.00  0.00     0.053 C 
BRANCH   5   6
ATOM      6  C   UNL     1       9.881   4.712   1.567  1.00  0.00     0.041 C 
ATOM      7  O   UNL     1       9.028   5.600   1.301  1.00  0.00    -0.550 OA
ATOM      8  O   UNL     1       9.510   3.374   1.543  1.00  0.00    -0.550 OA
ENDBRANCH   5   6
ENDBRANCH   4   5
ENDBRANCH   3   4
ENDBRANCH   2   3
ENDBRANCH   1   2
BRANCH   1   9
ATOM      9  C   UNL     1      15.650   3.758  -0.360  1.00  0.00     0.000 C 
BRANCH   9  10
ATOM     10  C   UNL     1      15.234   3.210  -1.735  1.00  0.00    -0.000 C 
BRANCH  10  11
ATOM     11  C   UNL     1      13.775   2.725  -1.768  1.00  0.00    -0.000 C 
BRANCH  11  12
ATOM     12  C   UNL     1      13.625   1.237  -2.148  1.00  0.00    -0.000 C 
BRANCH  12  13
ATOM     13  C   UNL     1      14.952   0.472  -2.031  1.00  0.00    -0.003 C 
ATOM     14  C   UNL     1      15.177  -0.430  -3.242  1.00  0.00     0.004 C 
ENDBRANCH  12  13
ENDBRANCH  11  12
ENDBRANCH  10  11
ENDBRANCH   9  10
ENDBRANCH   1   9
TORSDOF 10
ENDMDL
MODEL 2
REMARK VINA RESULT:    -4.339      1.826      4.638
REMARK INTER + INTRA:          -7.773
REMARK INTER:                  -6.429
REMARK INTRA:                  -1.345
REMARK UNBOUND:                -0.898
REMARK SMILES CCCCCCCCCCCC(=O)[O-]
REMARK SMILES IDX 7 1 8 2 9 3 10 4 11 5 12 6 13 7 14 8 6 9 5 10 4 11 3 12 2 13
REMARK SMILES IDX 1 14
REMARK H PARENT
REMARK Flexibility Score: inf
ROOT
ATOM      1  C   UNL     1      16.294   1.746  -1.751  1.00  0.00     0.000 C 
ENDROOT
BRANCH   1   2
ATOM      2  C   UNL     1      15.529   0.471  -2.144  1.00  0.00     0.000 C 
BRANCH   2   3
ATOM      3  C   UNL     1      14.011   0.697  -2.230  1.00  0.00     0.000 C 
BRANCH   3   4
ATOM      4  C   UNL     1      13.246   0.034  -1.073  1.00  0.00     0.006 C 
BRANCH   4   5
ATOM      5  C   UNL     1      12.489   1.059  -0.217  1.00  0.00     0.053 C 
BRANCH   5   6
ATOM      6  C   UNL     1      11.591   1.921  -1.051  1.00  0.00     0.041 C 
ATOM      7  O   UNL     1      10.619   1.412  -1.670  1.00  0.00    -0.550 OA
ATOM      8  O   UNL     1      11.847   3.280  -1.172  1.00  0.00    -0.550 OA
ENDBRANCH   5   6
ENDBRANCH   4   5
ENDBRANCH   3   4
ENDBRANCH   2   3
ENDBRANCH   1   2
BRANCH   1   9
ATOM      9  C   UNL     1      15.389   2.989  -1.716  1.00  0.00     0.000 C 
BRANCH   9  10
ATOM     10  C   UNL     1      15.508   3.767  -0.395  1.00  0.00    -0.000 C 
BRANCH  10  11
ATOM     11  C   UNL     1      15.392   2.863   0.843  1.00  0.00    -0.000 C 
BRANCH  11  12
ATOM     12  C   UNL     1      14.633   3.515   2.018  1.00  0.00    -0.000 C 
BRANCH  12  13
ATOM     13  C   UNL     1      13.837   4.753   1.579  1.00  0.00    -0.003 C 
ATOM     14  C   UNL     1      12.369   4.637   1.982  1.00  0.00     0.004 C 
ENDBRANCH  12  13
ENDBRANCH  11  12
ENDBRANCH  10  11
ENDBRANCH   9  10
ENDBRANCH   1   9
TORSDOF 10
ENDMDL
MODEL 3
REMARK VINA RESULT:    -4.284     15.115     16.693
REMARK INTER + INTRA:          -7.687
REMARK INTER:                  -6.680
REMARK INTRA:                  -1.007
REMARK UNBOUND:                -0.898
REMARK SMILES CCCCCCCCCCCC(=O)[O-]
REMARK SMILES IDX 7 1 8 2 9 3 10 4 11 5 12 6 13 7 14 8 6 9 5 10 4 11 3 12 2 13
REMARK SMILES IDX 1 14
REMARK H PARENT
REMARK Flexibility Score: inf
ROOT
ATOM      1  C   UNL     1      28.035   5.871   9.061  1.00  0.00     0.000 C 
ENDROOT
BRANCH   1   2
ATOM      2  C   UNL     1      27.672   6.944  10.103  1.00  0.00     0.000 C 
BRANCH   2   3
ATOM      3  C   UNL     1      27.552   8.347   9.488  1.00  0.00     0.000 C 
BRANCH   3   4
ATOM      4  C   UNL     1      26.112   8.886   9.515  1.00  0.00     0.006 C 
BRANCH   4   5
ATOM      5  C   UNL     1      25.942  10.129   8.632  1.00  0.00     0.053 C 
BRANCH   5   6
ATOM      6  C   UNL     1      26.385  11.374   9.338  1.00  0.00     0.041 C 
ATOM      7  O   UNL     1      27.458  11.944   9.008  1.00  0.00    -0.550 OA
ATOM      8  O   UNL     1      25.628  11.886  10.384  1.00  0.00    -0.550 OA
ENDBRANCH   5   6
ENDBRANCH   4   5
ENDBRANCH   3   4
ENDBRANCH   2   3
ENDBRANCH   1   2
BRANCH   1   9
ATOM      9  C   UNL     1      28.076   6.431   7.630  1.00  0.00     0.000 C 
BRANCH   9  10
ATOM     10  C   UNL     1      27.589   5.414   6.585  1.00  0.00    -0.000 C 
BRANCH  10  11
ATOM     11  C   UNL     1      26.267   5.831   5.917  1.00  0.00    -0.000 C 
BRANCH  11  12
ATOM     12  C   UNL     1      25.403   6.769   6.786  1.00  0.00    -0.000 C 
BRANCH  12  13
ATOM     13  C   UNL     1      24.061   7.104   6.119  1.00  0.00    -0.003 C 
ATOM     14  C   UNL     1      23.977   8.586   5.761  1.00  0.00     0.004 C 
ENDBRANCH  12  13
ENDBRANCH  11  12
ENDBRANCH  10  11
ENDBRANCH   9  10
ENDBRANCH   1   9
TORSDOF 10
ENDMDL
MODEL 4
REMARK VINA RESULT:    -4.246      1.154      1.740
REMARK INTER + INTRA:          -7.626
REMARK INTER:                  -6.199
REMARK INTRA:                  -1.427
REMARK UNBOUND:                -0.898
REMARK SMILES CCCCCCCCCCCC(=O)[O-]
REMARK SMILES IDX 7 1 8 2 9 3 10 4 11 5 12 6 13 7 14 8 6 9 5 10 4 11 3 12 2 13
REMARK SMILES IDX 1 14
REMARK H PARENT
REMARK Flexibility Score: inf
ROOT
ATOM      1  C   UNL     1      15.440   3.968  -0.351  1.00  0.00     0.000 C 
ENDROOT
BRANCH   1   2
ATOM      2  C   UNL     1      15.456   2.853   0.709  1.00  0.00     0.000 C 
BRANCH   2   3
ATOM      3  C   UNL     1      14.709   3.248   1.993  1.00  0.00     0.000 C 
BRANCH   3   4
ATOM      4  C   UNL     1      13.181   3.223   1.822  1.00  0.00     0.006 C 
BRANCH   4   5
ATOM      5  C   UNL     1      12.557   4.615   1.989  1.00  0.00     0.053 C 
BRANCH   5   6
ATOM      6  C   UNL     1      11.142   4.649   1.498  1.00  0.00     0.041 C 
ATOM      7  O   UNL     1      10.235   5.155   2.210  1.00  0.00    -0.550 OA
ATOM      8  O   UNL     1      10.819   4.090   0.268  1.00  0.00    -0.550 OA
ENDBRANCH   5   6
ENDBRANCH   4   5
ENDBRANCH   3   4
ENDBRANCH   2   3
ENDBRANCH   1   2
BRANCH   1   9
ATOM      9  C   UNL     1      15.035   3.452  -1.741  1.00  0.00     0.000 C 
BRANCH   9  10
ATOM     10  C   UNL     1      13.511   3.364  -1.917  1.00  0.00    -0.000 C 
BRANCH  10  11
ATOM     11  C   UNL     1      13.008   1.916  -2.051  1.00  0.00    -0.000 C 
BRANCH  11  12
ATOM     12  C   UNL     1      14.134   0.890  -2.299  1.00  0.00    -0.000 C 
BRANCH  12  13
ATOM     13  C   UNL     1      14.054  -0.303  -1.336  1.00  0.00    -0.003 C 
ATOM     14  C   UNL     1      13.147   0.006  -0.148  1.00  0.00     0.004 C 
ENDBRANCH  12  13
ENDBRANCH  11  12
ENDBRANCH  10  11
ENDBRANCH   9  10
ENDBRANCH   1   9
TORSDOF 10
ENDMDL
MODEL 5
REMARK VINA RESULT:    -4.213     13.823     15.154
REMARK INTER + INTRA:          -7.575
REMARK INTER:                  -6.423
REMARK INTRA:                  -1.151
REMARK UNBOUND:                -0.898
REMARK SMILES CCCCCCCCCCCC(=O)[O-]
REMARK SMILES IDX 7 1 8 2 9 3 10 4 11 5 12 6 13 7 14 8 6 9 5 10 4 11 3 12 2 13
REMARK SMILES IDX 1 14
REMARK H PARENT
REMARK Flexibility Score: inf
ROOT
ATOM      1  C   UNL     1      14.733  16.201  -0.643  1.00  0.00     0.000 C 
ENDROOT
BRANCH   1   2
ATOM      2  C   UNL     1      14.276  17.092   0.524  1.00  0.00     0.000 C 
BRANCH   2   3
ATOM      3  C   UNL     1      15.370  17.280   1.587  1.00  0.00     0.000 C 
BRANCH   3   4
ATOM      4  C   UNL     1      15.933  18.711   1.611  1.00  0.00     0.006 C 
BRANCH   4   5
ATOM      5  C   UNL     1      17.253  18.827   0.838  1.00  0.00     0.053 C 
BRANCH   5   6
ATOM      6  C   UNL     1      18.199  17.719   1.188  1.00  0.00     0.041 C 
ATOM      7  O   UNL     1      18.806  17.728   2.291  1.00  0.00    -0.550 OA
ATOM      8  O   UNL     1      18.436  16.695   0.281  1.00  0.00    -0.550 OA
ENDBRANCH   5   6
ENDBRANCH   4   5
ENDBRANCH   3   4
ENDBRANCH   2   3
ENDBRANCH   1   2
BRANCH   1   9
ATOM      9  C   UNL     1      15.428  17.001  -1.757  1.00  0.00     0.000 C 
BRANCH   9  10
ATOM     10  C   UNL     1      14.755  18.358  -2.016  1.00  0.00    -0.000 C 
BRANCH  10  11
ATOM     11  C   UNL     1      13.419  18.228  -2.768  1.00  0.00    -0.000 C 
BRANCH  11  12
ATOM     12  C   UNL     1      13.581  18.059  -4.294  1.00  0.00    -0.000 C 
BRANCH  12  13
ATOM     13  C   UNL     1      13.152  16.664  -4.772  1.00  0.00    -0.003 C 
ATOM     14  C   UNL     1      12.360  15.931  -3.692  1.00  0.00     0.004 C 
ENDBRANCH  12  13
ENDBRANCH  11  12
ENDBRANCH  10  11
ENDBRANCH   9  10
ENDBRANCH   1   9
TORSDOF 10
ENDMDL
MODEL 6
REMARK VINA RESULT:    -4.206      1.169      1.917
REMARK INTER + INTRA:          -7.563
REMARK INTER:                  -6.481
REMARK INTRA:                  -1.083
REMARK UNBOUND:                -0.898
REMARK SMILES CCCCCCCCCCCC(=O)[O-]
REMARK SMILES IDX 7 1 8 2 9 3 10 4 11 5 12 6 13 7 14 8 6 9 5 10 4 11 3 12 2 13
REMARK SMILES IDX 1 14
REMARK H PARENT
REMARK Flexibility Score: inf
ROOT
ATOM      1  C   UNL     1      15.470   3.826  -0.332  1.00  0.00     0.000 C 
ENDROOT
BRANCH   1   2
ATOM      2  C   UNL     1      15.384   2.879   0.877  1.00  0.00     0.000 C 
BRANCH   2   3
ATOM      3  C   UNL     1      14.463   3.417   1.984  1.00  0.00     0.000 C 
BRANCH   3   4
ATOM      4  C   UNL     1      13.668   4.657   1.543  1.00  0.00     0.006 C 
BRANCH   4   5
ATOM      5  C   UNL     1      12.280   4.718   2.196  1.00  0.00     0.053 C 
BRANCH   5   6
ATOM      6  C   UNL     1      11.196   4.368   1.224  1.00  0.00     0.041 C 
ATOM      7  O   UNL     1       9.998   4.664   1.475  1.00  0.00    -0.550 OA
ATOM      8  O   UNL     1      11.504   3.683   0.055  1.00  0.00    -0.550 OA
ENDBRANCH   5   6
ENDBRANCH   4   5
ENDBRANCH   3   4
ENDBRANCH   2   3
ENDBRANCH   1   2
BRANCH   1   9
ATOM      9  C   UNL     1      15.489   3.070  -1.671  1.00  0.00     0.000 C 
BRANCH   9  10
ATOM     10  C   UNL     1      16.167   1.694  -1.561  1.00  0.00    -0.000 C 
BRANCH  10  11
ATOM     11  C   UNL     1      15.359   0.575  -2.239  1.00  0.00    -0.000 C 
BRANCH  11  12
ATOM     12  C   UNL     1      14.537  -0.281  -1.252  1.00  0.00    -0.000 C 
BRANCH  12  13
ATOM     13  C   UNL     1      13.219   0.399  -0.852  1.00  0.00    -0.003 C 
ATOM     14  C   UNL     1      12.478   0.929  -2.077  1.00  0.00     0.004 C 
ENDBRANCH  12  13
ENDBRANCH  11  12
ENDBRANCH  10  11
ENDBRANCH   9  10
ENDBRANCH   1   9
TORSDOF 10
ENDMDL
MODEL 7
REMARK VINA RESULT:    -4.175     13.709     15.145
REMARK INTER + INTRA:          -7.514
REMARK INTER:                  -6.234
REMARK INTRA:                  -1.280
REMARK UNBOUND:                -0.898
REMARK SMILES CCCCCCCCCCCC(=O)[O-]
REMARK SMILES IDX 7 1 8 2 9 3 10 4 11 5 12 6 13 7 14 8 6 9 5 10 4 11 3 12 2 13
REMARK SMILES IDX 1 14
REMARK H PARENT
REMARK Flexibility Score: inf
ROOT
ATOM      1  C   UNL     1      15.130  16.411  -0.676  1.00  0.00     0.000 C 
ENDROOT
BRANCH   1   2
ATOM      2  C   UNL     1      15.594  17.246  -1.882  1.00  0.00     0.000 C 
BRANCH   2   3
ATOM      3  C   UNL     1      14.842  18.582  -1.999  1.00  0.00     0.000 C 
BRANCH   3   4
ATOM      4  C   UNL     1      13.873  18.614  -3.193  1.00  0.00     0.006 C 
BRANCH   4   5
ATOM      5  C   UNL     1      13.873  17.293  -3.975  1.00  0.00     0.053 C 
BRANCH   5   6
ATOM      6  C   UNL     1      12.611  16.518  -3.751  1.00  0.00     0.041 C 
ATOM      7  O   UNL     1      11.785  16.889  -2.876  1.00  0.00    -0.550 OA
ATOM      8  O   UNL     1      12.363  15.366  -4.486  1.00  0.00    -0.550 OA
ENDBRANCH   5   6
ENDBRANCH   4   5
ENDBRANCH   3   4
ENDBRANCH   2   3
ENDBRANCH   1   2
BRANCH   1   9
ATOM      9  C   UNL     1      14.331  17.241   0.342  1.00  0.00     0.000 C 
BRANCH   9  10
ATOM     10  C   UNL     1      15.136  17.545   1.616  1.00  0.00    -0.000 C 
BRANCH  10  11
ATOM     11  C   UNL     1      15.765  18.948   1.605  1.00  0.00    -0.000 C 
BRANCH  11  12
ATOM     12  C   UNL     1      17.275  18.948   1.284  1.00  0.00    -0.000 C 
BRANCH  12  13
ATOM     13  C   UNL     1      17.956  17.635   1.697  1.00  0.00    -0.003 C 
ATOM     14  C   UNL     1      18.603  16.947   0.498  1.00  0.00     0.004 C 
ENDBRANCH  12  13
ENDBRANCH  11  12
ENDBRANCH  10  11
ENDBRANCH   9  10
ENDBRANCH   1   9
TORSDOF 10
ENDMDL
MODEL 8
REMARK VINA RESULT:    -4.154      4.699      5.863
REMARK INTER + INTRA:          -7.481
REMARK INTER:                  -6.742
REMARK INTRA:                  -0.739
REMARK UNBOUND:                -0.898
REMARK SMILES CCCCCCCCCCCC(=O)[O-]
REMARK SMILES IDX 7 1 8 2 9 3 10 4 11 5 12 6 13 7 14 8 6 9 5 10 4 11 3 12 2 13
REMARK SMILES IDX 1 14
REMARK H PARENT
REMARK Flexibility Score: inf
ROOT
ATOM      1  C   UNL     1      14.600   1.864   2.339  1.00  0.00     0.000 C 
ENDROOT
BRANCH   1   2
ATOM      2  C   UNL     1      15.049   1.304   3.700  1.00  0.00     0.000 C 
BRANCH   2   3
ATOM      3  C   UNL     1      14.053   1.620   4.826  1.00  0.00     0.000 C 
BRANCH   3   4
ATOM      4  C   UNL     1      14.738   1.804   6.190  1.00  0.00     0.006 C 
BRANCH   4   5
ATOM      5  C   UNL     1      16.251   2.024   6.053  1.00  0.00     0.053 C 
BRANCH   5   6
ATOM      6  C   UNL     1      17.030   1.012   6.837  1.00  0.00     0.041 C 
ATOM      7  O   UNL     1      16.617  -0.174   6.930  1.00  0.00    -0.550 OA
ATOM      8  O   UNL     1      18.196   1.388   7.493  1.00  0.00    -0.550 OA
ENDBRANCH   5   6
ENDBRANCH   4   5
ENDBRANCH   3   4
ENDBRANCH   2   3
ENDBRANCH   1   2
BRANCH   1   9
ATOM      9  C   UNL     1      15.016   3.330   2.140  1.00  0.00     0.000 C 
BRANCH   9  10
ATOM     10  C   UNL     1      14.552   3.896   0.788  1.00  0.00    -0.000 C 
BRANCH  10  11
ATOM     11  C   UNL     1      15.678   3.941  -0.259  1.00  0.00    -0.000 C 
BRANCH  11  12
ATOM     12  C   UNL     1      15.336   3.200  -1.569  1.00  0.00    -0.000 C 
BRANCH  12  13
ATOM     13  C   UNL     1      16.046   1.841  -1.669  1.00  0.00    -0.003 C 
ATOM     14  C   UNL     1      15.063   0.690  -1.475  1.00  0.00     0.004 C 
ENDBRANCH  12  13
ENDBRANCH  11  12
ENDBRANCH  10  11
ENDBRANCH   9  10
ENDBRANCH   1   9
TORSDOF 10
ENDMDL
MODEL 9
REMARK VINA RESULT:    -4.147      1.327      3.573
REMARK INTER + INTRA:          -7.469
REMARK INTER:                  -6.066
REMARK INTRA:                  -1.403
REMARK UNBOUND:                -0.898
REMARK SMILES CCCCCCCCCCCC(=O)[O-]
REMARK SMILES IDX 7 1 8 2 9 3 10 4 11 5 12 6 13 7 14 8 6 9 5 10 4 11 3 12 2 13
REMARK SMILES IDX 1 14
REMARK H PARENT
REMARK Flexibility Score: inf
ROOT
ATOM      1  C   UNL     1      13.997   0.414  -2.524  1.00  0.00     0.000 C 
ENDROOT
BRANCH   1   2
ATOM      2  C   UNL     1      12.825   1.410  -2.537  1.00  0.00     0.000 C 
BRANCH   2   3
ATOM      3  C   UNL     1      12.317   1.742  -1.125  1.00  0.00     0.000 C 
BRANCH   3   4
ATOM      4  C   UNL     1      11.786   3.181  -1.008  1.00  0.00     0.006 C 
BRANCH   4   5
ATOM      5  C   UNL     1      11.335   3.517   0.420  1.00  0.00     0.053 C 
BRANCH   5   6
ATOM      6  C   UNL     1      10.030   4.253   0.428  1.00  0.00     0.041 C 
ATOM      7  O   UNL     1       8.955   3.643   0.184  1.00  0.00    -0.550 OA
ATOM      8  O   UNL     1      10.004   5.620   0.672  1.00  0.00    -0.550 OA
ENDBRANCH   5   6
ENDBRANCH   4   5
ENDBRANCH   3   4
ENDBRANCH   2   3
ENDBRANCH   1   2
BRANCH   1   9
ATOM      9  C   UNL     1      14.953   0.646  -1.342  1.00  0.00     0.000 C 
BRANCH   9  10
ATOM     10  C   UNL     1      16.200   1.453  -1.743  1.00  0.00    -0.000 C 
BRANCH  10  11
ATOM     11  C   UNL     1      16.508   2.600  -0.766  1.00  0.00    -0.000 C 
BRANCH  11  12
ATOM     12  C   UNL     1      15.455   3.729  -0.784  1.00  0.00    -0.000 C 
BRANCH  12  13
ATOM     13  C   UNL     1      15.008   4.128   0.630  1.00  0.00    -0.003 C 
ATOM     14  C   UNL     1      15.026   2.928   1.574  1.00  0.00     0.004 C 
ENDBRANCH  12  13
ENDBRANCH  11  12
ENDBRANCH  10  11
ENDBRANCH   9  10
ENDBRANCH   1   9
TORSDOF 10
ENDMDL
