MODEL 1
REMARK VINA RESULT:    -4.620      0.000      0.000
REMARK INTER + INTRA:         -13.705
REMARK INTER:                 -10.021
REMARK INTRA:                  -3.684
REMARK UNBOUND:                -3.684
REMARK SMILES CCCCCCCCCCCCCCCCCCCCCC(=O)[O-]
REMARK SMILES IDX 12 1 11 2 10 3 9 4 8 5 7 6 6 7 5 8 4 9 3 10 2 11 1 12 13 13
REMARK SMILES IDX 14 14 15 15 16 16 17 17 18 18 19 19 20 20 21 21 22 22 23 23
REMARK SMILES IDX 24 24
REMARK H PARENT
REMARK Flexibility Score: inf
ROOT
ATOM      1  C   UNL     1      -2.291  10.109  -5.462  1.00  0.00     0.000 C 
ENDROOT
BRANCH   1   2
ATOM      2  C   UNL     1      -3.300  10.723  -6.451  1.00  0.00     0.000 C 
BRANCH   2   3
ATOM      3  C   UNL     1      -4.721  10.805  -5.876  1.00  0.00     0.000 C 
BRANCH   3   4
ATOM      4  C   UNL     1      -5.397  12.125  -6.273  1.00  0.00    -0.000 C 
BRANCH   4   5
ATOM      5  C   UNL     1      -4.565  12.953  -7.271  1.00  0.00    -0.000 C 
BRANCH   5   6
ATOM      6  C   UNL     1      -5.109  12.974  -8.712  1.00  0.00    -0.000 C 
BRANCH   6   7
ATOM      7  C   UNL     1      -6.390  12.144  -8.884  1.00  0.00    -0.000 C 
BRANCH   7   8
ATOM      8  C   UNL     1      -6.136  10.917  -9.773  1.00  0.00    -0.000 C 
BRANCH   8   9
ATOM      9  C   UNL     1      -4.724  10.931 -10.397  1.00  0.00    -0.000 C 
BRANCH   9  10
ATOM     10  C   UNL     1      -3.843   9.749  -9.956  1.00  0.00    -0.000 C 
BRANCH  10  11
ATOM     11  C   UNL     1      -4.661   8.522  -9.531  1.00  0.00    -0.003 C 
ATOM     12  C   UNL     1      -4.920   7.596 -10.716  1.00  0.00     0.004 C 
ENDBRANCH  10  11
ENDBRANCH   9  10
ENDBRANCH   8   9
ENDBRANCH   7   8
ENDBRANCH   6   7
ENDBRANCH   5   6
ENDBRANCH   4   5
ENDBRANCH   3   4
ENDBRANCH   2   3
ENDBRANCH   1   2
BRANCH   1  13
ATOM     13  C   UNL     1      -2.288  10.744  -4.056  1.00  0.00     0.000 C 
BRANCH  13  14
ATOM     14  C   UNL     1      -1.321  11.927  -3.872  1.00  0.00     0.000 C 
BRANCH  14  15
ATOM     15  C   UNL     1      -2.030  13.292  -3.916  1.00  0.00     0.000 C 
BRANCH  15  16
ATOM     16  C   UNL     1      -1.541  14.175  -5.075  1.00  0.00     0.000 C 
BRANCH  16  17
ATOM     17  C   UNL     1      -0.509  13.467  -5.971  1.00  0.00     0.000 C 
BRANCH  17  18
ATOM     18  C   UNL     1      -1.034  13.252  -7.406  1.00  0.00     0.000 C 
BRANCH  18  19
ATOM     19  C   UNL     1      -0.381  12.065  -8.135  1.00  0.00     0.000 C 
BRANCH  19  20
ATOM     20  C   UNL     1       0.648  11.323  -7.267  1.00  0.00     0.006 C 
BRANCH  20  21
ATOM     21  C   UNL     1       1.148  10.033  -7.934  1.00  0.00     0.053 C 
BRANCH  21  22
ATOM     22  C   UNL     1       2.608  10.106  -8.263  1.00  0.00     0.041 C 
ATOM     23  O   UNL     1       3.406  10.687  -7.481  1.00  0.00    -0.550 OA
ATOM     24  O   UNL     1       3.083   9.556  -9.448  1.00  0.00    -0.550 OA
ENDBRANCH  21  22
ENDBRANCH  20  21
ENDBRANCH  19  20
ENDBRANCH  18  19
ENDBRANCH  17  18
ENDBRANCH  16  17
ENDBRANCH  15  16
ENDBRANCH  14  15
ENDBRANCH  13  14
ENDBRANCH   1  13
TORSDOF 20
ENDMDL
MODEL 2
REMARK VINA RESULT:    -4.591      1.284      3.412
REMARK INTER + INTRA:         -13.642
REMARK INTER:                 -10.132
REMARK INTRA:                  -3.511
REMARK UNBOUND:                -3.684
REMARK SMILES CCCCCCCCCCCCCCCCCCCCCC(=O)[O-]
REMARK SMILES IDX 12 1 11 2 10 3 9 4 8 5 7 6 6 7 5 8 4 9 3 10 2 11 1 12 13 13
REMARK SMILES IDX 14 14 15 15 16 16 17 17 18 18 19 19 20 20 21 21 22 22 23 23
REMARK SMILES IDX 24 24
REMARK H PARENT
REMARK Flexibility Score: inf
ROOT
ATOM      1  C   UNL     1      -2.929  11.302  -9.165  1.00  0.00     0.000 C 
ENDROOT
BRANCH   1   2
ATOM      2  C   UNL     1      -3.383   9.851  -9.412  1.00  0.00     0.000 C 
BRANCH   2   3
ATOM      3  C   UNL     1      -4.457   9.742 -10.503  1.00  0.00     0.000 C 
BRANCH   3   4
ATOM      4  C   UNL     1      -5.273  11.040 -10.600  1.00  0.00    -0.000 C 
BRANCH   4   5
ATOM      5  C   UNL     1      -6.706  10.894 -10.057  1.00  0.00    -0.000 C 
BRANCH   5   6
ATOM      6  C   UNL     1      -7.000  11.686  -8.769  1.00  0.00    -0.000 C 
BRANCH   6   7
ATOM      7  C   UNL     1      -6.095  12.916  -8.601  1.00  0.00    -0.000 C 
BRANCH   7   8
ATOM      8  C   UNL     1      -5.863  13.230  -7.115  1.00  0.00    -0.000 C 
BRANCH   8   9
ATOM      9  C   UNL     1      -6.034  11.983  -6.222  1.00  0.00    -0.000 C 
BRANCH   9  10
ATOM     10  C   UNL     1      -4.759  11.595  -5.454  1.00  0.00    -0.000 C 
BRANCH  10  11
ATOM     11  C   UNL     1      -4.238  10.200  -5.829  1.00  0.00    -0.003 C 
ATOM     12  C   UNL     1      -5.354   9.334  -6.407  1.00  0.00     0.004 C 
ENDBRANCH  10  11
ENDBRANCH   9  10
ENDBRANCH   8   9
ENDBRANCH   7   8
ENDBRANCH   6   7
ENDBRANCH   5   6
ENDBRANCH   4   5
ENDBRANCH   3   4
ENDBRANCH   2   3
ENDBRANCH   1   2
BRANCH   1  13
ATOM     13  C   UNL     1      -1.592  11.446  -8.409  1.00  0.00     0.000 C 
BRANCH  13  14
ATOM     14  C   UNL     1      -1.219  12.884  -8.003  1.00  0.00     0.000 C 
BRANCH  14  15
ATOM     15  C   UNL     1      -2.056  13.409  -6.824  1.00  0.00     0.000 C 
BRANCH  15  16
ATOM     16  C   UNL     1      -1.199  14.109  -5.757  1.00  0.00     0.000 C 
BRANCH  16  17
ATOM     17  C   UNL     1      -1.026  13.264  -4.482  1.00  0.00     0.000 C 
BRANCH  17  18
ATOM     18  C   UNL     1       0.460  13.020  -4.145  1.00  0.00     0.000 C 
BRANCH  18  19
ATOM     19  C   UNL     1       1.409  13.223  -5.340  1.00  0.00     0.000 C 
BRANCH  19  20
ATOM     20  C   UNL     1       2.198  11.954  -5.700  1.00  0.00     0.006 C 
BRANCH  20  21
ATOM     21  C   UNL     1       1.343  10.938  -6.470  1.00  0.00     0.053 C 
BRANCH  21  22
ATOM     22  C   UNL     1       2.059  10.403  -7.672  1.00  0.00     0.041 C 
ATOM     23  O   UNL     1       1.476   9.608  -8.456  1.00  0.00    -0.550 OA
ATOM     24  O   UNL     1       3.380  10.761  -7.911  1.00  0.00    -0.550 OA
ENDBRANCH  21  22
ENDBRANCH  20  21
ENDBRANCH  19  20
ENDBRANCH  18  19
ENDBRANCH  17  18
ENDBRANCH  16  17
ENDBRANCH  15  16
ENDBRANCH  14  15
ENDBRANCH  13  14
ENDBRANCH   1  13
TORSDOF 20
ENDMDL
MODEL 3
REMARK VINA RESULT:    -4.579      0.995      1.820
REMARK INTER + INTRA:         -13.618
REMARK INTER:                  -9.914
REMARK INTRA:                  -3.703
REMARK UNBOUND:                -3.684
REMARK SMILES CCCCCCCCCCCCCCCCCCCCCC(=O)[O-]
REMARK SMILES IDX 12 1 11 2 10 3 9 4 8 5 7 6 6 7 5 8 4 9 3 10 2 11 1 12 13 13
REMARK SMILES IDX 14 14 15 15 16 16 17 17 18 18 19 19 20 20 21 21 22 22 23 23
REMARK SMILES IDX 24 24
REMARK H PARENT
REMARK Flexibility Score: inf
ROOT
ATOM      1  C   UNL     1      -0.730  11.497  -3.924  1.00  0.00     0.000 C 
ENDROOT
BRANCH   1   2
ATOM      2  C   UNL     1      -2.250  11.473  -3.677  1.00  0.00     0.000 C 
BRANCH   2   3
ATOM      3  C   UNL     1      -3.035  10.886  -4.858  1.00  0.00     0.000 C 
BRANCH   3   4
ATOM      4  C   UNL     1      -4.330  11.676  -5.102  1.00  0.00    -0.000 C 
BRANCH   4   5
ATOM      5  C   UNL     1      -4.875  11.513  -6.533  1.00  0.00    -0.000 C 
BRANCH   5   6
ATOM      6  C   UNL     1      -5.334  12.819  -7.208  1.00  0.00    -0.000 C 
BRANCH   6   7
ATOM      7  C   UNL     1      -5.350  12.729  -8.741  1.00  0.00    -0.000 C 
BRANCH   7   8
ATOM      8  C   UNL     1      -6.410  11.726  -9.224  1.00  0.00    -0.000 C 
BRANCH   8   9
ATOM      9  C   UNL     1      -5.966  10.979 -10.499  1.00  0.00    -0.000 C 
BRANCH   9  10
ATOM     10  C   UNL     1      -4.476  10.597 -10.504  1.00  0.00    -0.000 C 
BRANCH  10  11
ATOM     11  C   UNL     1      -4.192   9.295  -9.743  1.00  0.00    -0.003 C 
ATOM     12  C   UNL     1      -4.563   8.075 -10.582  1.00  0.00     0.004 C 
ENDBRANCH  10  11
ENDBRANCH   9  10
ENDBRANCH   8   9
ENDBRANCH   7   8
ENDBRANCH   6   7
ENDBRANCH   5   6
ENDBRANCH   4   5
ENDBRANCH   3   4
ENDBRANCH   2   3
ENDBRANCH   1   2
BRANCH   1  13
ATOM     13  C   UNL     1      -0.042  12.844  -3.626  1.00  0.00     0.000 C 
BRANCH  13  14
ATOM     14  C   UNL     1       0.154  13.766  -4.843  1.00  0.00     0.000 C 
BRANCH  14  15
ATOM     15  C   UNL     1      -1.094  14.606  -5.166  1.00  0.00     0.000 C 
BRANCH  15  16
ATOM     16  C   UNL     1      -1.871  14.069  -6.378  1.00  0.00     0.000 C 
BRANCH  16  17
ATOM     17  C   UNL     1      -0.980  13.284  -7.358  1.00  0.00     0.000 C 
BRANCH  17  18
ATOM     18  C   UNL     1      -1.803  12.345  -8.265  1.00  0.00     0.000 C 
BRANCH  18  19
ATOM     19  C   UNL     1      -1.381  10.868  -8.174  1.00  0.00     0.000 C 
BRANCH  19  20
ATOM     20  C   UNL     1      -0.122  10.657  -7.319  1.00  0.00     0.006 C 
BRANCH  20  21
ATOM     21  C   UNL     1       1.100  10.277  -8.168  1.00  0.00     0.053 C 
BRANCH  21  22
ATOM     22  C   UNL     1       2.382  10.705  -7.522  1.00  0.00     0.041 C 
ATOM     23  O   UNL     1       3.488  10.348  -8.009  1.00  0.00    -0.550 OA
ATOM     24  O   UNL     1       2.356  11.474  -6.364  1.00  0.00    -0.550 OA
ENDBRANCH  21  22
ENDBRANCH  20  21
ENDBRANCH  19  20
ENDBRANCH  18  19
ENDBRANCH  17  18
ENDBRANCH  16  17
ENDBRANCH  15  16
ENDBRANCH  14  15
ENDBRANCH  13  14
ENDBRANCH   1  13
TORSDOF 20
ENDMDL
MODEL 4
REMARK VINA RESULT:    -4.570      1.504      3.622
REMARK INTER + INTRA:         -13.598
REMARK INTER:                 -10.192
REMARK INTRA:                  -3.406
REMARK UNBOUND:                -3.684
REMARK SMILES CCCCCCCCCCCCCCCCCCCCCC(=O)[O-]
REMARK SMILES IDX 12 1 11 2 10 3 9 4 8 5 7 6 6 7 5 8 4 9 3 10 2 11 1 12 13 13
REMARK SMILES IDX 14 14 15 15 16 16 17 17 18 18 19 19 20 20 21 21 22 22 23 23
REMARK SMILES IDX 24 24
REMARK H PARENT
REMARK Flexibility Score: inf
ROOT
ATOM      1  C   UNL     1      -4.255   9.816 -10.506  1.00  0.00     0.000 C 
ENDROOT
BRANCH   1   2
ATOM      2  C   UNL     1      -5.413  10.824 -10.631  1.00  0.00     0.000 C 
BRANCH   2   3
ATOM      3  C   UNL     1      -6.604  10.476  -9.726  1.00  0.00     0.000 C 
BRANCH   3   4
ATOM      4  C   UNL     1      -6.902  11.622  -8.748  1.00  0.00    -0.000 C 
BRANCH   4   5
ATOM      5  C   UNL     1      -5.886  12.775  -8.843  1.00  0.00    -0.000 C 
BRANCH   5   6
ATOM      6  C   UNL     1      -5.315  13.255  -7.495  1.00  0.00    -0.000 C 
BRANCH   6   7
ATOM      7  C   UNL     1      -6.283  13.038  -6.322  1.00  0.00    -0.000 C 
BRANCH   7   8
ATOM      8  C   UNL     1      -5.638  12.174  -5.228  1.00  0.00    -0.000 C 
BRANCH   8   9
ATOM      9  C   UNL     1      -4.308  11.544  -5.692  1.00  0.00    -0.000 C 
BRANCH   9  10
ATOM     10  C   UNL     1      -4.264  10.013  -5.540  1.00  0.00    -0.000 C 
BRANCH  10  11
ATOM     11  C   UNL     1      -5.324   9.300  -6.391  1.00  0.00    -0.003 C 
ATOM     12  C   UNL     1      -5.953   8.138  -5.626  1.00  0.00     0.004 C 
ENDBRANCH  10  11
ENDBRANCH   9  10
ENDBRANCH   8   9
ENDBRANCH   7   8
ENDBRANCH   6   7
ENDBRANCH   5   6
ENDBRANCH   4   5
ENDBRANCH   3   4
ENDBRANCH   2   3
ENDBRANCH   1   2
BRANCH   1  13
ATOM     13  C   UNL     1      -3.336  10.028  -9.286  1.00  0.00     0.000 C 
BRANCH  13  14
ATOM     14  C   UNL     1      -2.585  11.372  -9.254  1.00  0.00     0.000 C 
BRANCH  14  15
ATOM     15  C   UNL     1      -1.648  11.505  -8.041  1.00  0.00     0.000 C 
BRANCH  15  16
ATOM     16  C   UNL     1      -1.265  12.965  -7.748  1.00  0.00     0.000 C 
BRANCH  16  17
ATOM     17  C   UNL     1      -0.548  13.133  -6.396  1.00  0.00     0.000 C 
BRANCH  17  18
ATOM     18  C   UNL     1      -0.294  11.779  -5.701  1.00  0.00     0.000 C 
BRANCH  18  19
ATOM     19  C   UNL     1       1.196  11.465  -5.478  1.00  0.00     0.000 C 
BRANCH  19  20
ATOM     20  C   UNL     1       2.076  11.858  -6.675  1.00  0.00     0.006 C 
BRANCH  20  21
ATOM     21  C   UNL     1       3.061  10.745  -7.062  1.00  0.00     0.053 C 
BRANCH  21  22
ATOM     22  C   UNL     1       2.642  10.041  -8.316  1.00  0.00     0.041 C 
ATOM     23  O   UNL     1       3.481   9.818  -9.228  1.00  0.00    -0.550 OA
ATOM     24  O   UNL     1       1.318   9.656  -8.489  1.00  0.00    -0.550 OA
ENDBRANCH  21  22
ENDBRANCH  20  21
ENDBRANCH  19  20
ENDBRANCH  18  19
ENDBRANCH  17  18
ENDBRANCH  16  17
ENDBRANCH  15  16
ENDBRANCH  14  15
ENDBRANCH  13  14
ENDBRANCH   1  13
TORSDOF 20
ENDMDL
MODEL 5
REMARK VINA RESULT:    -4.568      1.161      2.043
REMARK INTER + INTRA:         -13.593
REMARK INTER:                 -10.121
REMARK INTRA:                  -3.471
REMARK UNBOUND:                -3.684
REMARK SMILES CCCCCCCCCCCCCCCCCCCCCC(=O)[O-]
REMARK SMILES IDX 12 1 11 2 10 3 9 4 8 5 7 6 6 7 5 8 4 9 3 10 2 11 1 12 13 13
REMARK SMILES IDX 14 14 15 15 16 16 17 17 18 18 19 19 20 20 21 21 22 22 23 23
REMARK SMILES IDX 24 24
REMARK H PARENT
REMARK Flexibility Score: inf
ROOT
ATOM      1  C   UNL     1      -3.663  10.397  -7.069  1.00  0.00     0.000 C 
ENDROOT
BRANCH   1   2
ATOM      2  C   UNL     1      -3.841  10.701  -5.569  1.00  0.00     0.000 C 
BRANCH   2   3
ATOM      3  C   UNL     1      -4.592  12.016  -5.315  1.00  0.00     0.000 C 
BRANCH   3   4
ATOM      4  C   UNL     1      -5.721  12.208  -6.337  1.00  0.00    -0.000 C 
BRANCH   4   5
ATOM      5  C   UNL     1      -5.455  13.363  -7.320  1.00  0.00    -0.000 C 
BRANCH   5   6
ATOM      6  C   UNL     1      -6.032  13.162  -8.734  1.00  0.00    -0.000 C 
BRANCH   6   7
ATOM      7  C   UNL     1      -6.448  11.711  -9.013  1.00  0.00    -0.000 C 
BRANCH   7   8
ATOM      8  C   UNL     1      -5.592  11.096 -10.130  1.00  0.00    -0.000 C 
BRANCH   8   9
ATOM      9  C   UNL     1      -5.593   9.554 -10.084  1.00  0.00    -0.000 C 
BRANCH   9  10
ATOM     10  C   UNL     1      -4.252   8.923 -10.499  1.00  0.00    -0.000 C 
BRANCH  10  11
ATOM     11  C   UNL     1      -4.233   7.398 -10.329  1.00  0.00    -0.003 C 
ATOM     12  C   UNL     1      -5.307   6.735 -11.187  1.00  0.00     0.004 C 
ENDBRANCH  10  11
ENDBRANCH   9  10
ENDBRANCH   8   9
ENDBRANCH   7   8
ENDBRANCH   6   7
ENDBRANCH   5   6
ENDBRANCH   4   5
ENDBRANCH   3   4
ENDBRANCH   2   3
ENDBRANCH   1   2
BRANCH   1  13
ATOM     13  C   UNL     1      -2.293  10.793  -7.656  1.00  0.00     0.000 C 
BRANCH  13  14
ATOM     14  C   UNL     1      -2.271  12.119  -8.437  1.00  0.00     0.000 C 
BRANCH  14  15
ATOM     15  C   UNL     1      -1.215  13.106  -7.910  1.00  0.00     0.000 C 
BRANCH  15  16
ATOM     16  C   UNL     1      -1.643  13.787  -6.600  1.00  0.00     0.000 C 
BRANCH  16  17
ATOM     17  C   UNL     1      -0.551  13.737  -5.516  1.00  0.00     0.000 C 
BRANCH  17  18
ATOM     18  C   UNL     1      -0.508  12.371  -4.799  1.00  0.00     0.000 C 
BRANCH  18  19
ATOM     19  C   UNL     1       0.915  11.823  -4.595  1.00  0.00     0.000 C 
BRANCH  19  20
ATOM     20  C   UNL     1       1.731  11.776  -5.896  1.00  0.00     0.006 C 
BRANCH  20  21
ATOM     21  C   UNL     1       1.262  10.656  -6.836  1.00  0.00     0.053 C 
BRANCH  21  22
ATOM     22  C   UNL     1       2.300  10.318  -7.862  1.00  0.00     0.041 C 
ATOM     23  O   UNL     1       3.444  10.842  -7.802  1.00  0.00    -0.550 OA
ATOM     24  O   UNL     1       1.995   9.447  -8.901  1.00  0.00    -0.550 OA
ENDBRANCH  21  22
ENDBRANCH  20  21
ENDBRANCH  19  20
ENDBRANCH  18  19
ENDBRANCH  17  18
ENDBRANCH  16  17
ENDBRANCH  15  16
ENDBRANCH  14  15
ENDBRANCH  13  14
ENDBRANCH   1  13
TORSDOF 20
ENDMDL
MODEL 6
REMARK VINA RESULT:    -4.544      2.751      6.812
REMARK INTER + INTRA:         -13.541
REMARK INTER:                 -10.421
REMARK INTRA:                  -3.120
REMARK UNBOUND:                -3.684
REMARK SMILES CCCCCCCCCCCCCCCCCCCCCC(=O)[O-]
REMARK SMILES IDX 12 1 11 2 10 3 9 4 8 5 7 6 6 7 5 8 4 9 3 10 2 11 1 12 13 13
REMARK SMILES IDX 14 14 15 15 16 16 17 17 18 18 19 19 20 20 21 21 22 22 23 23
REMARK SMILES IDX 24 24
REMARK H PARENT
REMARK Flexibility Score: inf
ROOT
ATOM      1  C   UNL     1      -2.581  10.777  -8.204  1.00  0.00     0.000 C 
ENDROOT
BRANCH   1   2
ATOM      2  C   UNL     1      -2.309  12.179  -8.782  1.00  0.00     0.000 C 
BRANCH   2   3
ATOM      3  C   UNL     1      -1.309  12.984  -7.941  1.00  0.00     0.000 C 
BRANCH   3   4
ATOM      4  C   UNL     1      -1.915  13.359  -6.581  1.00  0.00    -0.000 C 
BRANCH   4   5
ATOM      5  C   UNL     1      -0.858  13.799  -5.550  1.00  0.00    -0.000 C 
BRANCH   5   6
ATOM      6  C   UNL     1       0.072  12.678  -5.050  1.00  0.00    -0.000 C 
BRANCH   6   7
ATOM      7  C   UNL     1       1.530  12.862  -5.496  1.00  0.00    -0.000 C 
BRANCH   7   8
ATOM      8  C   UNL     1       2.097  11.558  -6.078  1.00  0.00    -0.000 C 
BRANCH   8   9
ATOM      9  C   UNL     1       1.014  10.716  -6.784  1.00  0.00    -0.000 C 
BRANCH   9  10
ATOM     10  C   UNL     1       1.504  10.040  -8.077  1.00  0.00    -0.000 C 
BRANCH  10  11
ATOM     11  C   UNL     1       3.013  10.209  -8.303  1.00  0.00    -0.003 C 
ATOM     12  C   UNL     1       3.443   9.587  -9.628  1.00  0.00     0.004 C 
ENDBRANCH  10  11
ENDBRANCH   9  10
ENDBRANCH   8   9
ENDBRANCH   7   8
ENDBRANCH   6   7
ENDBRANCH   5   6
ENDBRANCH   4   5
ENDBRANCH   3   4
ENDBRANCH   2   3
ENDBRANCH   1   2
BRANCH   1  13
ATOM     13  C   UNL     1      -3.634   9.949  -8.970  1.00  0.00     0.000 C 
BRANCH  13  14
ATOM     14  C   UNL     1      -3.964  10.455 -10.386  1.00  0.00     0.000 C 
BRANCH  14  15
ATOM     15  C   UNL     1      -5.410  10.964 -10.517  1.00  0.00     0.000 C 
BRANCH  15  16
ATOM     16  C   UNL     1      -6.323  10.448  -9.393  1.00  0.00     0.000 C 
BRANCH  16  17
ATOM     17  C   UNL     1      -7.027  11.584  -8.627  1.00  0.00     0.000 C 
BRANCH  17  18
ATOM     18  C   UNL     1      -6.183  12.875  -8.600  1.00  0.00     0.000 C 
BRANCH  18  19
ATOM     19  C   UNL     1      -5.528  13.160  -7.237  1.00  0.00     0.000 C 
BRANCH  19  20
ATOM     20  C   UNL     1      -5.435  11.912  -6.346  1.00  0.00     0.006 C 
BRANCH  20  21
ATOM     21  C   UNL     1      -5.455  12.262  -4.851  1.00  0.00     0.053 C 
BRANCH  21  22
ATOM     22  C   UNL     1      -4.621  11.316  -4.045  1.00  0.00     0.041 C 
ATOM     23  O   UNL     1      -5.076  10.817  -2.981  1.00  0.00    -0.550 OA
ATOM     24  O   UNL     1      -3.329  11.005  -4.453  1.00  0.00    -0.550 OA
ENDBRANCH  21  22
ENDBRANCH  20  21
ENDBRANCH  19  20
ENDBRANCH  18  19
ENDBRANCH  17  18
ENDBRANCH  16  17
ENDBRANCH  15  16
ENDBRANCH  14  15
ENDBRANCH  13  14
ENDBRANCH   1  13
TORSDOF 20
ENDMDL
MODEL 7
REMARK VINA RESULT:    -4.517      2.689      6.621
REMARK INTER + INTRA:         -13.483
REMARK INTER:                 -10.544
REMARK INTRA:                  -2.939
REMARK UNBOUND:                -3.684
REMARK SMILES CCCCCCCCCCCCCCCCCCCCCC(=O)[O-]
REMARK SMILES IDX 12 1 11 2 10 3 9 4 8 5 7 6 6 7 5 8 4 9 3 10 2 11 1 12 13 13
REMARK SMILES IDX 14 14 15 15 16 16 17 17 18 18 19 19 20 20 21 21 22 22 23 23
REMARK SMILES IDX 24 24
REMARK H PARENT
REMARK Flexibility Score: inf
ROOT
ATOM      1  C   UNL     1      -1.060  12.804  -7.273  1.00  0.00     0.000 C 
ENDROOT
BRANCH   1   2
ATOM      2  C   UNL     1      -1.811  13.856  -6.435  1.00  0.00     0.000 C 
BRANCH   2   3
ATOM      3  C   UNL     1      -1.899  13.479  -4.950  1.00  0.00     0.000 C 
BRANCH   3   4
ATOM      4  C   UNL     1      -1.161  12.161  -4.675  1.00  0.00    -0.000 C 
BRANCH   4   5
ATOM      5  C   UNL     1      -0.040  12.304  -3.628  1.00  0.00    -0.000 C 
BRANCH   5   6
ATOM      6  C   UNL     1       0.928  13.479  -3.866  1.00  0.00    -0.000 C 
BRANCH   6   7
ATOM      7  C   UNL     1       1.799  13.297  -5.117  1.00  0.00    -0.000 C 
BRANCH   7   8
ATOM      8  C   UNL     1       2.338  11.861  -5.209  1.00  0.00    -0.000 C 
BRANCH   8   9
ATOM      9  C   UNL     1       2.454  11.374  -6.669  1.00  0.00    -0.000 C 
BRANCH   9  10
ATOM     10  C   UNL     1       1.337  10.403  -7.087  1.00  0.00    -0.000 C 
BRANCH  10  11
ATOM     11  C   UNL     1       1.668   9.629  -8.370  1.00  0.00    -0.003 C 
ATOM     12  C   UNL     1       3.077   9.954  -8.859  1.00  0.00     0.004 C 
ENDBRANCH  10  11
ENDBRANCH   9  10
ENDBRANCH   8   9
ENDBRANCH   7   8
ENDBRANCH   6   7
ENDBRANCH   5   6
ENDBRANCH   4   5
ENDBRANCH   3   4
ENDBRANCH   2   3
ENDBRANCH   1   2
BRANCH   1  13
ATOM     13  C   UNL     1      -1.830  12.279  -8.502  1.00  0.00     0.000 C 
BRANCH  13  14
ATOM     14  C   UNL     1      -2.343  10.833  -8.387  1.00  0.00     0.000 C 
BRANCH  14  15
ATOM     15  C   UNL     1      -3.073  10.560  -7.061  1.00  0.00     0.000 C 
BRANCH  15  16
ATOM     16  C   UNL     1      -4.599  10.695  -7.188  1.00  0.00     0.000 C 
BRANCH  16  17
ATOM     17  C   UNL     1      -5.071  12.160  -7.188  1.00  0.00     0.000 C 
BRANCH  17  18
ATOM     18  C   UNL     1      -5.529  12.622  -8.587  1.00  0.00     0.000 C 
BRANCH  18  19
ATOM     19  C   UNL     1      -6.661  11.768  -9.183  1.00  0.00     0.000 C 
BRANCH  19  20
ATOM     20  C   UNL     1      -6.206  10.924 -10.384  1.00  0.00     0.006 C 
BRANCH  20  21
ATOM     21  C   UNL     1      -6.302   9.417 -10.106  1.00  0.00     0.053 C 
BRANCH  21  22
ATOM     22  C   UNL     1      -5.102   8.679 -10.614  1.00  0.00     0.041 C 
ATOM     23  O   UNL     1      -4.034   9.299 -10.860  1.00  0.00    -0.550 OA
ATOM     24  O   UNL     1      -5.171   7.310 -10.842  1.00  0.00    -0.550 OA
ENDBRANCH  21  22
ENDBRANCH  20  21
ENDBRANCH  19  20
ENDBRANCH  18  19
ENDBRANCH  17  18
ENDBRANCH  16  17
ENDBRANCH  15  16
ENDBRANCH  14  15
ENDBRANCH  13  14
ENDBRANCH   1  13
TORSDOF 20
ENDMDL
MODEL 8
REMARK VINA RESULT:    -4.499      1.595      3.324
REMARK INTER + INTRA:         -13.444
REMARK INTER:                 -10.306
REMARK INTRA:                  -3.138
REMARK UNBOUND:                -3.684
REMARK SMILES CCCCCCCCCCCCCCCCCCCCCC(=O)[O-]
REMARK SMILES IDX 12 1 11 2 10 3 9 4 8 5 7 6 6 7 5 8 4 9 3 10 2 11 1 12 13 13
REMARK SMILES IDX 14 14 15 15 16 16 17 17 18 18 19 19 20 20 21 21 22 22 23 23
REMARK SMILES IDX 24 24
REMARK H PARENT
REMARK Flexibility Score: inf
ROOT
ATOM      1  C   UNL     1      -4.279  10.745 -10.433  1.00  0.00     0.000 C 
ENDROOT
BRANCH   1   2
ATOM      2  C   UNL     1      -5.755  11.136 -10.231  1.00  0.00     0.000 C 
BRANCH   2   3
ATOM      3  C   UNL     1      -5.932  12.297  -9.243  1.00  0.00     0.000 C 
BRANCH   3   4
ATOM      4  C   UNL     1      -6.825  11.883  -8.065  1.00  0.00    -0.000 C 
BRANCH   4   5
ATOM      5  C   UNL     1      -6.040  11.675  -6.756  1.00  0.00    -0.000 C 
BRANCH   5   6
ATOM      6  C   UNL     1      -6.367  10.375  -5.998  1.00  0.00    -0.000 C 
BRANCH   6   7
ATOM      7  C   UNL     1      -5.468   9.199  -6.406  1.00  0.00    -0.000 C 
BRANCH   7   8
ATOM      8  C   UNL     1      -6.237   8.194  -7.277  1.00  0.00    -0.000 C 
BRANCH   8   9
ATOM      9  C   UNL     1      -5.499   7.883  -8.597  1.00  0.00    -0.000 C 
BRANCH   9  10
ATOM     10  C   UNL     1      -6.442   7.575  -9.773  1.00  0.00    -0.000 C 
BRANCH  10  11
ATOM     11  C   UNL     1      -5.878   6.512 -10.726  1.00  0.00    -0.003 C 
ATOM     12  C   UNL     1      -6.916   5.433 -11.021  1.00  0.00     0.004 C 
ENDBRANCH  10  11
ENDBRANCH   9  10
ENDBRANCH   8   9
ENDBRANCH   7   8
ENDBRANCH   6   7
ENDBRANCH   5   6
ENDBRANCH   4   5
ENDBRANCH   3   4
ENDBRANCH   2   3
ENDBRANCH   1   2
BRANCH   1  13
ATOM     13  C   UNL     1      -3.292  11.390  -9.439  1.00  0.00     0.000 C 
BRANCH  13  14
ATOM     14  C   UNL     1      -2.652  10.423  -8.427  1.00  0.00     0.000 C 
BRANCH  14  15
ATOM     15  C   UNL     1      -2.362  11.084  -7.068  1.00  0.00     0.000 C 
BRANCH  15  16
ATOM     16  C   UNL     1      -2.408  12.618  -7.136  1.00  0.00     0.000 C 
BRANCH  16  17
ATOM     17  C   UNL     1      -1.008  13.257  -7.154  1.00  0.00     0.000 C 
BRANCH  17  18
ATOM     18  C   UNL     1      -0.298  13.139  -5.789  1.00  0.00     0.000 C 
BRANCH  18  19
ATOM     19  C   UNL     1       1.215  12.879  -5.897  1.00  0.00     0.000 C 
BRANCH  19  20
ATOM     20  C   UNL     1       1.572  11.386  -5.816  1.00  0.00     0.006 C 
BRANCH  20  21
ATOM     21  C   UNL     1       2.670  10.997  -6.816  1.00  0.00     0.053 C 
BRANCH  21  22
ATOM     22  C   UNL     1       2.103  10.351  -8.043  1.00  0.00     0.041 C 
ATOM     23  O   UNL     1       0.855  10.262  -8.193  1.00  0.00    -0.550 OA
ATOM     24  O   UNL     1       2.952   9.821  -9.007  1.00  0.00    -0.550 OA
ENDBRANCH  21  22
ENDBRANCH  20  21
ENDBRANCH  19  20
ENDBRANCH  18  19
ENDBRANCH  17  18
ENDBRANCH  16  17
ENDBRANCH  15  16
ENDBRANCH  14  15
ENDBRANCH  13  14
ENDBRANCH   1  13
TORSDOF 20
ENDMDL
MODEL 9
REMARK VINA RESULT:    -4.486      2.912      6.303
REMARK INTER + INTRA:         -13.415
REMARK INTER:                 -10.153
REMARK INTRA:                  -3.262
REMARK UNBOUND:                -3.684
REMARK SMILES CCCCCCCCCCCCCCCCCCCCCC(=O)[O-]
REMARK SMILES IDX 12 1 11 2 10 3 9 4 8 5 7 6 6 7 5 8 4 9 3 10 2 11 1 12 13 13
REMARK SMILES IDX 14 14 15 15 16 16 17 17 18 18 19 19 20 20 21 21 22 22 23 23
REMARK SMILES IDX 24 24
REMARK H PARENT
REMARK Flexibility Score: inf
ROOT
ATOM      1  C   UNL     1      -4.127  10.388  -6.561  1.00  0.00     0.000 C 
ENDROOT
BRANCH   1   2
ATOM      2  C   UNL     1      -2.655  10.841  -6.538  1.00  0.00     0.000 C 
BRANCH   2   3
ATOM      3  C   UNL     1      -2.176  11.373  -7.897  1.00  0.00     0.000 C 
BRANCH   3   4
ATOM      4  C   UNL     1      -1.361  12.662  -7.724  1.00  0.00    -0.000 C 
BRANCH   4   5
ATOM      5  C   UNL     1      -1.969  13.627  -6.689  1.00  0.00    -0.000 C 
BRANCH   5   6
ATOM      6  C   UNL     1      -1.125  13.838  -5.418  1.00  0.00    -0.000 C 
BRANCH   6   7
ATOM      7  C   UNL     1       0.356  13.481  -5.614  1.00  0.00    -0.000 C 
BRANCH   7   8
ATOM      8  C   UNL     1       0.694  12.141  -4.943  1.00  0.00    -0.000 C 
BRANCH   8   9
ATOM      9  C   UNL     1       2.100  11.635  -5.328  1.00  0.00    -0.000 C 
BRANCH   9  10
ATOM     10  C   UNL     1       2.302  11.467  -6.844  1.00  0.00    -0.000 C 
BRANCH  10  11
ATOM     11  C   UNL     1       1.435  10.349  -7.440  1.00  0.00    -0.003 C 
ATOM     12  C   UNL     1       2.144   9.665  -8.605  1.00  0.00     0.004 C 
ENDBRANCH  10  11
ENDBRANCH   9  10
ENDBRANCH   8   9
ENDBRANCH   7   8
ENDBRANCH   6   7
ENDBRANCH   5   6
ENDBRANCH   4   5
ENDBRANCH   3   4
ENDBRANCH   2   3
ENDBRANCH   1   2
BRANCH   1  13
ATOM     13  C   UNL     1      -5.067  11.180  -5.629  1.00  0.00     0.000 C 
BRANCH  13  14
ATOM     14  C   UNL     1      -6.155  12.006  -6.340  1.00  0.00     0.000 C 
BRANCH  14  15
ATOM     15  C   UNL     1      -5.578  13.155  -7.185  1.00  0.00     0.000 C 
BRANCH  15  16
ATOM     16  C   UNL     1      -5.542  12.825  -8.686  1.00  0.00     0.000 C 
BRANCH  16  17
ATOM     17  C   UNL     1      -6.691  11.897  -9.121  1.00  0.00     0.000 C 
BRANCH  17  18
ATOM     18  C   UNL     1      -6.206  10.776 -10.063  1.00  0.00     0.000 C 
BRANCH  18  19
ATOM     19  C   UNL     1      -4.736  10.919 -10.494  1.00  0.00     0.000 C 
BRANCH  19  20
ATOM     20  C   UNL     1      -4.067   9.570 -10.799  1.00  0.00     0.006 C 
BRANCH  20  21
ATOM     21  C   UNL     1      -4.244   8.562  -9.655  1.00  0.00     0.053 C 
BRANCH  21  22
ATOM     22  C   UNL     1      -4.984   7.338 -10.099  1.00  0.00     0.041 C 
ATOM     23  O   UNL     1      -5.472   6.548  -9.248  1.00  0.00    -0.550 OA
ATOM     24  O   UNL     1      -5.111   7.054 -11.454  1.00  0.00    -0.550 OA
ENDBRANCH  21  22
ENDBRANCH  20  21
ENDBRANCH  19  20
ENDBRANCH  18  19
ENDBRANCH  17  18
ENDBRANCH  16  17
ENDBRANCH  15  16
ENDBRANCH  14  15
ENDBRANCH  13  14
ENDBRANCH   1  13
TORSDOF 20
ENDMDL
