MODEL 1
REMARK VINA RESULT:    -2.278      0.000      0.000
REMARK INTER + INTRA:          -5.731
REMARK INTER:                  -3.876
REMARK INTRA:                  -1.855
REMARK UNBOUND:                -1.855
REMARK SMILES CCCCCCCCCCCCCC(=O)[O-]
REMARK SMILES IDX 8 1 9 2 10 3 11 4 12 5 13 6 14 7 15 8 16 9 7 10 6 11 5 12
REMARK SMILES IDX 4 13 3 14 2 15 1 16
REMARK H PARENT
REMARK Flexibility Score: inf
ROOT
ATOM      1  C   UNL     1       1.741  11.914  -1.116  1.00  0.00     0.000 C 
ENDROOT
BRANCH   1   2
ATOM      2  C   UNL     1       2.297  12.185  -2.525  1.00  0.00     0.000 C 
BRANCH   2   3
ATOM      3  C   UNL     1       1.272  12.869  -3.446  1.00  0.00     0.000 C 
BRANCH   3   4
ATOM      4  C   UNL     1       1.893  14.002  -4.281  1.00  0.00     0.000 C 
BRANCH   4   5
ATOM      5  C   UNL     1       0.986  14.452  -5.441  1.00  0.00     0.006 C 
BRANCH   5   6
ATOM      6  C   UNL     1      -0.174  13.490  -5.750  1.00  0.00     0.053 C 
BRANCH   6   7
ATOM      7  C   UNL     1      -0.002  12.810  -7.074  1.00  0.00     0.041 C 
ATOM      8  O   UNL     1       0.968  12.031  -7.265  1.00  0.00    -0.550 OA
ATOM      9  O   UNL     1      -0.894  13.065  -8.108  1.00  0.00    -0.550 OA
ENDBRANCH   6   7
ENDBRANCH   5   6
ENDBRANCH   4   5
ENDBRANCH   3   4
ENDBRANCH   2   3
ENDBRANCH   1   2
BRANCH   1  10
ATOM     10  C   UNL     1       1.445  13.205  -0.336  1.00  0.00     0.000 C 
BRANCH  10  11
ATOM     11  C   UNL     1       0.078  13.168   0.370  1.00  0.00    -0.000 C 
BRANCH  11  12
ATOM     12  C   UNL     1      -1.019  12.502  -0.481  1.00  0.00    -0.000 C 
BRANCH  12  13
ATOM     13  C   UNL     1      -1.648  13.406  -1.558  1.00  0.00    -0.000 C 
BRANCH  13  14
ATOM     14  C   UNL     1      -1.580  14.900  -1.198  1.00  0.00    -0.000 C 
BRANCH  14  15
ATOM     15  C   UNL     1      -0.917  15.741  -2.300  1.00  0.00    -0.003 C 
ATOM     16  C   UNL     1       0.377  16.408  -1.834  1.00  0.00     0.004 C 
ENDBRANCH  14  15
ENDBRANCH  13  14
ENDBRANCH  12  13
ENDBRANCH  11  12
ENDBRANCH  10  11
ENDBRANCH   1  10
TORSDOF 12
ENDMDL
MODEL 2
REMARK VINA RESULT:    -2.145      1.188      2.963
REMARK INTER + INTRA:          -5.504
REMARK INTER:                  -3.994
REMARK INTRA:                  -1.510
REMARK UNBOUND:                -1.855
REMARK SMILES CCCCCCCCCCCCCC(=O)[O-]
REMARK SMILES IDX 8 1 9 2 10 3 11 4 12 5 13 6 14 7 15 8 16 9 7 10 6 11 5 12
REMARK SMILES IDX 4 13 3 14 2 15 1 16
REMARK H PARENT
REMARK Flexibility Score: inf
ROOT
ATOM      1  C   UNL     1      -0.495  15.517  -1.554  1.00  0.00     0.000 C 
ENDROOT
BRANCH   1   2
ATOM      2  C   UNL     1       0.081  15.780  -2.958  1.00  0.00     0.000 C 
BRANCH   2   3
ATOM      3  C   UNL     1       1.162  14.761  -3.356  1.00  0.00     0.000 C 
BRANCH   3   4
ATOM      4  C   UNL     1       0.567  13.467  -3.937  1.00  0.00     0.000 C 
BRANCH   4   5
ATOM      5  C   UNL     1      -0.006  13.660  -5.354  1.00  0.00     0.006 C 
BRANCH   5   6
ATOM      6  C   UNL     1       0.955  13.262  -6.487  1.00  0.00     0.053 C 
BRANCH   6   7
ATOM      7  C   UNL     1       0.233  13.024  -7.778  1.00  0.00     0.041 C 
ATOM      8  O   UNL     1      -1.022  12.927  -7.794  1.00  0.00    -0.550 OA
ATOM      9  O   UNL     1       0.950  12.873  -8.958  1.00  0.00    -0.550 OA
ENDBRANCH   6   7
ENDBRANCH   5   6
ENDBRANCH   4   5
ENDBRANCH   3   4
ENDBRANCH   2   3
ENDBRANCH   1   2
BRANCH   1  10
ATOM     10  C   UNL     1      -2.010  15.764  -1.479  1.00  0.00     0.000 C 
BRANCH  10  11
ATOM     11  C   UNL     1      -2.817  14.456  -1.391  1.00  0.00    -0.000 C 
BRANCH  11  12
ATOM     12  C   UNL     1      -1.932  13.199  -1.466  1.00  0.00    -0.000 C 
BRANCH  12  13
ATOM     13  C   UNL     1      -1.906  12.342  -0.186  1.00  0.00    -0.000 C 
BRANCH  13  14
ATOM     14  C   UNL     1      -0.518  12.293   0.474  1.00  0.00    -0.000 C 
BRANCH  14  15
ATOM     15  C   UNL     1       0.608  12.051  -0.544  1.00  0.00    -0.003 C 
ATOM     16  C   UNL     1       1.858  12.879  -0.246  1.00  0.00     0.004 C 
ENDBRANCH  14  15
ENDBRANCH  13  14
ENDBRANCH  12  13
ENDBRANCH  11  12
ENDBRANCH  10  11
ENDBRANCH   1  10
TORSDOF 12
ENDMDL
MODEL 3
REMARK VINA RESULT:    -2.133      2.807      4.629
REMARK INTER + INTRA:          -5.484
REMARK INTER:                  -3.340
REMARK INTRA:                  -2.144
REMARK UNBOUND:                -1.855
REMARK SMILES CCCCCCCCCCCCCC(=O)[O-]
REMARK SMILES IDX 8 1 9 2 10 3 11 4 12 5 13 6 14 7 15 8 16 9 7 10 6 11 5 12
REMARK SMILES IDX 4 13 3 14 2 15 1 16
REMARK H PARENT
REMARK Flexibility Score: inf
ROOT
ATOM      1  C   UNL     1       1.101  15.914  -3.570  1.00  0.00     0.000 C 
ENDROOT
BRANCH   1   2
ATOM      2  C   UNL     1       1.986  15.350  -2.443  1.00  0.00     0.000 C 
BRANCH   2   3
ATOM      3  C   UNL     1       1.619  15.914  -1.061  1.00  0.00     0.000 C 
BRANCH   3   4
ATOM      4  C   UNL     1       1.847  14.897   0.071  1.00  0.00     0.000 C 
BRANCH   4   5
ATOM      5  C   UNL     1       2.251  13.506  -0.452  1.00  0.00     0.006 C 
BRANCH   5   6
ATOM      6  C   UNL     1       1.434  12.344   0.137  1.00  0.00     0.053 C 
BRANCH   6   7
ATOM      7  C   UNL     1       1.577  11.090  -0.671  1.00  0.00     0.041 C 
ATOM      8  O   UNL     1       2.240  11.098  -1.741  1.00  0.00    -0.550 OA
ATOM      9  O   UNL     1       0.948   9.922  -0.259  1.00  0.00    -0.550 OA
ENDBRANCH   6   7
ENDBRANCH   5   6
ENDBRANCH   4   5
ENDBRANCH   3   4
ENDBRANCH   2   3
ENDBRANCH   1   2
BRANCH   1  10
ATOM     10  C   UNL     1       0.478  14.813  -4.443  1.00  0.00     0.000 C 
BRANCH  10  11
ATOM     11  C   UNL     1       0.361  13.469  -3.702  1.00  0.00    -0.000 C 
BRANCH  11  12
ATOM     12  C   UNL     1      -1.080  13.147  -3.266  1.00  0.00    -0.000 C 
BRANCH  12  13
ATOM     13  C   UNL     1      -1.381  13.397  -1.775  1.00  0.00    -0.000 C 
BRANCH  13  14
ATOM     14  C   UNL     1      -2.409  14.518  -1.552  1.00  0.00    -0.000 C 
BRANCH  14  15
ATOM     15  C   UNL     1      -1.818  15.716  -0.793  1.00  0.00    -0.003 C 
ATOM     16  C   UNL     1      -1.925  17.023  -1.579  1.00  0.00     0.004 C 
ENDBRANCH  14  15
ENDBRANCH  13  14
ENDBRANCH  12  13
ENDBRANCH  11  12
ENDBRANCH  10  11
ENDBRANCH   1  10
TORSDOF 12
ENDMDL
MODEL 4
REMARK VINA RESULT:    -2.110      1.078      2.443
REMARK INTER + INTRA:          -5.445
REMARK INTER:                  -3.541
REMARK INTRA:                  -1.903
REMARK UNBOUND:                -1.855
REMARK SMILES CCCCCCCCCCCCCC(=O)[O-]
REMARK SMILES IDX 8 1 9 2 10 3 11 4 12 5 13 6 14 7 15 8 16 9 7 10 6 11 5 12
REMARK SMILES IDX 4 13 3 14 2 15 1 16
REMARK H PARENT
REMARK Flexibility Score: inf
ROOT
ATOM      1  C   UNL     1       1.118  13.764   0.288  1.00  0.00     0.000 C 
ENDROOT
BRANCH   1   2
ATOM      2  C   UNL     1       1.956  12.751  -0.513  1.00  0.00     0.000 C 
BRANCH   2   3
ATOM      3  C   UNL     1       1.196  12.174  -1.719  1.00  0.00     0.000 C 
BRANCH   3   4
ATOM      4  C   UNL     1       1.483  12.944  -3.020  1.00  0.00     0.000 C 
BRANCH   4   5
ATOM      5  C   UNL     1       0.205  13.254  -3.821  1.00  0.00     0.006 C 
BRANCH   5   6
ATOM      6  C   UNL     1       0.442  14.056  -5.111  1.00  0.00     0.053 C 
BRANCH   6   7
ATOM      7  C   UNL     1       0.395  13.187  -6.331  1.00  0.00     0.041 C 
ATOM      8  O   UNL     1       1.345  12.402  -6.587  1.00  0.00    -0.550 OA
ATOM      9  O   UNL     1      -0.684  13.270  -7.202  1.00  0.00    -0.550 OA
ENDBRANCH   6   7
ENDBRANCH   5   6
ENDBRANCH   4   5
ENDBRANCH   3   4
ENDBRANCH   2   3
ENDBRANCH   1   2
BRANCH   1  10
ATOM     10  C   UNL     1       1.548  15.219   0.039  1.00  0.00     0.000 C 
BRANCH  10  11
ATOM     11  C   UNL     1       0.354  16.189  -0.003  1.00  0.00    -0.000 C 
BRANCH  11  12
ATOM     12  C   UNL     1      -0.005  16.637  -1.431  1.00  0.00    -0.000 C 
BRANCH  12  13
ATOM     13  C   UNL     1      -1.301  16.028  -2.000  1.00  0.00    -0.000 C 
BRANCH  13  14
ATOM     14  C   UNL     1      -2.123  15.275  -0.940  1.00  0.00    -0.000 C 
BRANCH  14  15
ATOM     15  C   UNL     1      -2.315  13.792  -1.290  1.00  0.00    -0.003 C 
ATOM     16  C   UNL     1      -2.476  12.911  -0.051  1.00  0.00     0.004 C 
ENDBRANCH  14  15
ENDBRANCH  13  14
ENDBRANCH  12  13
ENDBRANCH  11  12
ENDBRANCH  10  11
ENDBRANCH   1  10
TORSDOF 12
ENDMDL
MODEL 5
REMARK VINA RESULT:    -2.109      5.452      8.720
REMARK INTER + INTRA:          -5.443
REMARK INTER:                  -3.617
REMARK INTRA:                  -1.827
REMARK UNBOUND:                -1.855
REMARK SMILES CCCCCCCCCCCCCC(=O)[O-]
REMARK SMILES IDX 8 1 9 2 10 3 11 4 12 5 13 6 14 7 15 8 16 9 7 10 6 11 5 12
REMARK SMILES IDX 4 13 3 14 2 15 1 16
REMARK H PARENT
REMARK Flexibility Score: inf
ROOT
ATOM      1  C   UNL     1      -2.189  11.067 -12.216  1.00  0.00     0.000 C 
ENDROOT
BRANCH   1   2
ATOM      2  C   UNL     1      -3.032  12.355 -12.210  1.00  0.00     0.000 C 
BRANCH   2   3
ATOM      3  C   UNL     1      -2.678  13.289 -11.041  1.00  0.00     0.000 C 
BRANCH   3   4
ATOM      4  C   UNL     1      -1.643  12.671 -10.085  1.00  0.00     0.000 C 
BRANCH   4   5
ATOM      5  C   UNL     1      -0.471  13.623  -9.782  1.00  0.00     0.006 C 
BRANCH   5   6
ATOM      6  C   UNL     1       0.746  12.945  -9.132  1.00  0.00     0.053 C 
BRANCH   6   7
ATOM      7  C   UNL     1       0.572  12.775  -7.654  1.00  0.00     0.041 C 
ATOM      8  O   UNL     1       1.372  12.055  -7.000  1.00  0.00    -0.550 OA
ATOM      9  O   UNL     1      -0.494  13.384  -7.004  1.00  0.00    -0.550 OA
ENDBRANCH   6   7
ENDBRANCH   5   6
ENDBRANCH   4   5
ENDBRANCH   3   4
ENDBRANCH   2   3
ENDBRANCH   1   2
BRANCH   1  10
ATOM     10  C   UNL     1      -3.041   9.800 -12.038  1.00  0.00     0.000 C 
BRANCH  10  11
ATOM     11  C   UNL     1      -4.287  10.045 -11.169  1.00  0.00    -0.000 C 
BRANCH  11  12
ATOM     12  C   UNL     1      -4.275   9.233  -9.861  1.00  0.00    -0.000 C 
BRANCH  12  13
ATOM     13  C   UNL     1      -3.240   9.693  -8.817  1.00  0.00    -0.000 C 
BRANCH  13  14
ATOM     14  C   UNL     1      -2.086   8.692  -8.638  1.00  0.00    -0.000 C 
BRANCH  14  15
ATOM     15  C   UNL     1      -0.717   9.384  -8.545  1.00  0.00    -0.003 C 
ATOM     16  C   UNL     1       0.059   9.333  -9.861  1.00  0.00     0.004 C 
ENDBRANCH  14  15
ENDBRANCH  13  14
ENDBRANCH  12  13
ENDBRANCH  11  12
ENDBRANCH  10  11
ENDBRANCH   1  10
TORSDOF 12
ENDMDL
MODEL 6
REMARK VINA RESULT:    -2.097      6.363      8.281
REMARK INTER + INTRA:          -5.423
REMARK INTER:                  -3.607
REMARK INTRA:                  -1.816
REMARK UNBOUND:                -1.855
REMARK SMILES CCCCCCCCCCCCCC(=O)[O-]
REMARK SMILES IDX 8 1 9 2 10 3 11 4 12 5 13 6 14 7 15 8 16 9 7 10 6 11 5 12
REMARK SMILES IDX 4 13 3 14 2 15 1 16
REMARK H PARENT
REMARK Flexibility Score: inf
ROOT
ATOM      1  C   UNL     1      -0.890   6.999  -9.579  1.00  0.00     0.000 C 
ENDROOT
BRANCH   1   2
ATOM      2  C   UNL     1      -1.834   7.756  -8.626  1.00  0.00     0.000 C 
BRANCH   2   3
ATOM      3  C   UNL     1      -1.433   9.229  -8.442  1.00  0.00     0.000 C 
BRANCH   3   4
ATOM      4  C   UNL     1      -0.204   9.615  -9.283  1.00  0.00     0.000 C 
BRANCH   4   5
ATOM      5  C   UNL     1       0.631  10.736  -8.635  1.00  0.00     0.006 C 
BRANCH   5   6
ATOM      6  C   UNL     1       0.525  12.097  -9.343  1.00  0.00     0.053 C 
BRANCH   6   7
ATOM      7  C   UNL     1      -0.613  12.918  -8.817  1.00  0.00     0.041 C 
ATOM      8  O   UNL     1      -1.496  13.352  -9.601  1.00  0.00    -0.550 OA
ATOM      9  O   UNL     1      -0.677  13.231  -7.465  1.00  0.00    -0.550 OA
ENDBRANCH   6   7
ENDBRANCH   5   6
ENDBRANCH   4   5
ENDBRANCH   3   4
ENDBRANCH   2   3
ENDBRANCH   1   2
BRANCH   1  10
ATOM     10  C   UNL     1      -0.572   5.576  -9.091  1.00  0.00     0.000 C 
BRANCH  10  11
ATOM     11  C   UNL     1      -1.219   5.261  -7.731  1.00  0.00    -0.000 C 
BRANCH  11  12
ATOM     12  C   UNL     1      -0.185   5.057  -6.608  1.00  0.00    -0.000 C 
BRANCH  12  13
ATOM     13  C   UNL     1       0.359   6.355  -5.980  1.00  0.00    -0.000 C 
BRANCH  13  14
ATOM     14  C   UNL     1       1.863   6.555  -6.231  1.00  0.00    -0.000 C 
BRANCH  14  15
ATOM     15  C   UNL     1       2.153   7.776  -7.118  1.00  0.00    -0.003 C 
ATOM     16  C   UNL     1       2.691   7.389  -8.495  1.00  0.00     0.004 C 
ENDBRANCH  14  15
ENDBRANCH  13  14
ENDBRANCH  12  13
ENDBRANCH  11  12
ENDBRANCH  10  11
ENDBRANCH   1  10
TORSDOF 12
ENDMDL
MODEL 7
REMARK VINA RESULT:    -2.085      7.153      9.132
REMARK INTER + INTRA:          -5.403
REMARK INTER:                  -3.143
REMARK INTRA:                  -2.259
REMARK UNBOUND:                -1.855
REMARK SMILES CCCCCCCCCCCCCC(=O)[O-]
REMARK SMILES IDX 8 1 9 2 10 3 11 4 12 5 13 6 14 7 15 8 16 9 7 10 6 11 5 12
REMARK SMILES IDX 4 13 3 14 2 15 1 16
REMARK H PARENT
REMARK Flexibility Score: inf
ROOT
ATOM      1  C   UNL     1      -0.040   9.112 -11.708  1.00  0.00     0.000 C 
ENDROOT
BRANCH   1   2
ATOM      2  C   UNL     1      -0.870   7.849 -11.417  1.00  0.00     0.000 C 
BRANCH   2   3
ATOM      3  C   UNL     1      -0.549   7.232 -10.045  1.00  0.00     0.000 C 
BRANCH   3   4
ATOM      4  C   UNL     1      -1.816   6.853  -9.259  1.00  0.00     0.000 C 
BRANCH   4   5
ATOM      5  C   UNL     1      -1.657   7.058  -7.741  1.00  0.00     0.006 C 
BRANCH   5   6
ATOM      6  C   UNL     1      -0.207   7.271  -7.277  1.00  0.00     0.053 C 
BRANCH   6   7
ATOM      7  C   UNL     1       0.219   6.245  -6.272  1.00  0.00     0.041 C 
ATOM      8  O   UNL     1       0.994   6.562  -5.332  1.00  0.00    -0.550 OA
ATOM      9  O   UNL     1      -0.213   4.930  -6.395  1.00  0.00    -0.550 OA
ENDBRANCH   6   7
ENDBRANCH   5   6
ENDBRANCH   4   5
ENDBRANCH   3   4
ENDBRANCH   2   3
ENDBRANCH   1   2
BRANCH   1  10
ATOM     10  C   UNL     1       0.876   9.503 -10.537  1.00  0.00     0.000 C 
BRANCH  10  11
ATOM     11  C   UNL     1       0.481  10.849  -9.904  1.00  0.00    -0.000 C 
BRANCH  11  12
ATOM     12  C   UNL     1      -0.285  10.687  -8.578  1.00  0.00    -0.000 C 
BRANCH  12  13
ATOM     13  C   UNL     1      -1.820  10.739  -8.701  1.00  0.00    -0.000 C 
BRANCH  13  14
ATOM     14  C   UNL     1      -2.293  11.401 -10.006  1.00  0.00    -0.000 C 
BRANCH  14  15
ATOM     15  C   UNL     1      -3.388  10.588 -10.715  1.00  0.00    -0.003 C 
ATOM     16  C   UNL     1      -4.091   9.605  -9.778  1.00  0.00     0.004 C 
ENDBRANCH  14  15
ENDBRANCH  13  14
ENDBRANCH  12  13
ENDBRANCH  11  12
ENDBRANCH  10  11
ENDBRANCH   1  10
TORSDOF 12
ENDMDL
MODEL 8
REMARK VINA RESULT:    -2.080      6.076      8.573
REMARK INTER + INTRA:          -5.394
REMARK INTER:                  -3.682
REMARK INTRA:                  -1.711
REMARK UNBOUND:                -1.855
REMARK SMILES CCCCCCCCCCCCCC(=O)[O-]
REMARK SMILES IDX 8 1 9 2 10 3 11 4 12 5 13 6 14 7 15 8 16 9 7 10 6 11 5 12
REMARK SMILES IDX 4 13 3 14 2 15 1 16
REMARK H PARENT
REMARK Flexibility Score: inf
ROOT
ATOM      1  C   UNL     1       1.094   7.852  -9.574  1.00  0.00     0.000 C 
ENDROOT
BRANCH   1   2
ATOM      2  C   UNL     1      -0.262   7.356 -10.110  1.00  0.00     0.000 C 
BRANCH   2   3
ATOM      3  C   UNL     1      -1.335   8.456 -10.119  1.00  0.00     0.000 C 
BRANCH   3   4
ATOM      4  C   UNL     1      -1.888   8.752  -8.713  1.00  0.00     0.000 C 
BRANCH   4   5
ATOM      5  C   UNL     1      -2.028  10.260  -8.435  1.00  0.00     0.006 C 
BRANCH   5   6
ATOM      6  C   UNL     1      -0.694  11.022  -8.371  1.00  0.00     0.053 C 
BRANCH   6   7
ATOM      7  C   UNL     1      -0.897  12.503  -8.277  1.00  0.00     0.041 C 
ATOM      8  O   UNL     1      -1.316  13.149  -9.273  1.00  0.00    -0.550 OA
ATOM      9  O   UNL     1      -0.589  13.174  -7.101  1.00  0.00    -0.550 OA
ENDBRANCH   6   7
ENDBRANCH   5   6
ENDBRANCH   4   5
ENDBRANCH   3   4
ENDBRANCH   2   3
ENDBRANCH   1   2
BRANCH   1  10
ATOM     10  C   UNL     1       2.041   6.701  -9.198  1.00  0.00     0.000 C 
BRANCH  10  11
ATOM     11  C   UNL     1       2.644   6.869  -7.792  1.00  0.00    -0.000 C 
BRANCH  11  12
ATOM     12  C   UNL     1       1.650   7.472  -6.782  1.00  0.00    -0.000 C 
BRANCH  12  13
ATOM     13  C   UNL     1       0.833   6.443  -5.977  1.00  0.00    -0.000 C 
BRANCH  13  14
ATOM     14  C   UNL     1      -0.612   6.301  -6.483  1.00  0.00    -0.000 C 
BRANCH  14  15
ATOM     15  C   UNL     1      -0.837   4.996  -7.263  1.00  0.00    -0.003 C 
ATOM     16  C   UNL     1       0.235   3.945  -6.973  1.00  0.00     0.004 C 
ENDBRANCH  14  15
ENDBRANCH  13  14
ENDBRANCH  12  13
ENDBRANCH  11  12
ENDBRANCH  10  11
ENDBRANCH   1  10
TORSDOF 12
ENDMDL
MODEL 9
REMARK VINA RESULT:    -2.055      3.832      7.483
REMARK INTER + INTRA:          -5.351
REMARK INTER:                  -3.545
REMARK INTRA:                  -1.807
REMARK UNBOUND:                -1.855
REMARK SMILES CCCCCCCCCCCCCC(=O)[O-]
REMARK SMILES IDX 8 1 9 2 10 3 11 4 12 5 13 6 14 7 15 8 16 9 7 10 6 11 5 12
REMARK SMILES IDX 4 13 3 14 2 15 1 16
REMARK H PARENT
REMARK Flexibility Score: inf
ROOT
ATOM      1  C   UNL     1       0.088  13.390  -9.935  1.00  0.00     0.000 C 
ENDROOT
BRANCH   1   2
ATOM      2  C   UNL     1       0.668  13.382  -8.509  1.00  0.00     0.000 C 
BRANCH   2   3
ATOM      3  C   UNL     1      -0.396  13.095  -7.437  1.00  0.00     0.000 C 
BRANCH   3   4
ATOM      4  C   UNL     1       0.128  13.327  -6.009  1.00  0.00     0.000 C 
BRANCH   4   5
ATOM      5  C   UNL     1       1.661  13.466  -5.954  1.00  0.00     0.006 C 
BRANCH   5   6
ATOM      6  C   UNL     1       2.393  12.222  -5.422  1.00  0.00     0.053 C 
BRANCH   6   7
ATOM      7  C   UNL     1       2.534  12.248  -3.930  1.00  0.00     0.041 C 
ATOM      8  O   UNL     1       2.355  13.320  -3.296  1.00  0.00    -0.550 OA
ATOM      9  O   UNL     1       2.898  11.095  -3.246  1.00  0.00    -0.550 OA
ENDBRANCH   6   7
ENDBRANCH   5   6
ENDBRANCH   4   5
ENDBRANCH   3   4
ENDBRANCH   2   3
ENDBRANCH   1   2
BRANCH   1  10
ATOM     10  C   UNL     1      -1.434  13.171  -9.957  1.00  0.00     0.000 C 
BRANCH  10  11
ATOM     11  C   UNL     1      -1.878  12.229 -11.089  1.00  0.00    -0.000 C 
BRANCH  11  12
ATOM     12  C   UNL     1      -1.884  10.747 -10.669  1.00  0.00    -0.000 C 
BRANCH  12  13
ATOM     13  C   UNL     1      -2.307  10.485  -9.211  1.00  0.00    -0.000 C 
BRANCH  13  14
ATOM     14  C   UNL     1      -1.235   9.732  -8.404  1.00  0.00    -0.000 C 
BRANCH  14  15
ATOM     15  C   UNL     1       0.116   9.674  -9.133  1.00  0.00    -0.003 C 
ATOM     16  C   UNL     1       1.305   9.793  -8.179  1.00  0.00     0.004 C 
ENDBRANCH  14  15
ENDBRANCH  13  14
ENDBRANCH  12  13
ENDBRANCH  11  12
ENDBRANCH  10  11
ENDBRANCH   1  10
TORSDOF 12
ENDMDL
