MODEL 1
REMARK VINA RESULT:    -4.748      0.000      0.000
REMARK INTER + INTRA:         -15.113
REMARK INTER:                 -10.855
REMARK INTRA:                  -4.258
REMARK UNBOUND:                -4.258
REMARK SMILES CCCCCCCCCCCCCCCCCCCCCCCC(=O)[O-]
REMARK SMILES IDX 13 1 14 2 15 3 16 4 17 5 18 6 19 7 20 8 21 9 22 10 23 11
REMARK SMILES IDX 24 12 25 13 26 14 12 15 11 16 10 17 9 18 8 19 7 20 6 21 5 22
REMARK SMILES IDX 4 23 3 24 2 25 1 26
REMARK H PARENT
REMARK Flexibility Score: inf
ROOT
ATOM      1  C   UNL     1      12.023  15.266   4.887  1.00  0.00     0.000 C 
ENDROOT
BRANCH   1   2
ATOM      2  C   UNL     1      13.080  14.188   5.208  1.00  0.00     0.000 C 
BRANCH   2   3
ATOM      3  C   UNL     1      12.519  12.811   5.605  1.00  0.00     0.000 C 
BRANCH   3   4
ATOM      4  C   UNL     1      12.646  11.767   4.482  1.00  0.00     0.000 C 
BRANCH   4   5
ATOM      5  C   UNL     1      11.427  11.747   3.541  1.00  0.00     0.000 C 
BRANCH   5   6
ATOM      6  C   UNL     1      10.140  11.154   4.141  1.00  0.00     0.000 C 
BRANCH   6   7
ATOM      7  C   UNL     1       8.869  11.896   3.693  1.00  0.00     0.000 C 
BRANCH   7   8
ATOM      8  C   UNL     1       8.254  12.743   4.818  1.00  0.00     0.000 C 
BRANCH   8   9
ATOM      9  C   UNL     1       8.557  12.180   6.218  1.00  0.00     0.000 C 
BRANCH   9  10
ATOM     10  C   UNL     1       9.270  13.198   7.126  1.00  0.00     0.006 C 
BRANCH  10  11
ATOM     11  C   UNL     1       8.786  14.647   6.950  1.00  0.00     0.053 C 
BRANCH  11  12
ATOM     12  C   UNL     1       7.577  14.939   7.784  1.00  0.00     0.041 C 
ATOM     13  O   UNL     1       6.439  14.552   7.411  1.00  0.00    -0.550 OA
ATOM     14  O   UNL     1       7.704  15.670   8.960  1.00  0.00    -0.550 OA
ENDBRANCH  11  12
ENDBRANCH  10  11
ENDBRANCH   9  10
ENDBRANCH   8   9
ENDBRANCH   7   8
ENDBRANCH   6   7
ENDBRANCH   5   6
ENDBRANCH   4   5
ENDBRANCH   3   4
ENDBRANCH   2   3
ENDBRANCH   1   2
BRANCH   1  15
ATOM     15  C   UNL     1      12.169  15.942   3.512  1.00  0.00     0.000 C 
BRANCH  15  16
ATOM     16  C   UNL     1      11.489  15.149   2.382  1.00  0.00     0.000 C 
BRANCH  16  17
ATOM     17  C   UNL     1      12.411  14.942   1.169  1.00  0.00     0.000 C 
BRANCH  17  18
ATOM     18  C   UNL     1      13.056  13.547   1.143  1.00  0.00    -0.000 C 
BRANCH  18  19
ATOM     19  C   UNL     1      14.585  13.652   1.083  1.00  0.00    -0.000 C 
BRANCH  19  20
ATOM     20  C   UNL     1      15.210  13.336   2.451  1.00  0.00    -0.000 C 
BRANCH  20  21
ATOM     21  C   UNL     1      16.301  14.342   2.854  1.00  0.00    -0.000 C 
BRANCH  21  22
ATOM     22  C   UNL     1      15.791  15.762   3.165  1.00  0.00    -0.000 C 
BRANCH  22  23
ATOM     23  C   UNL     1      16.291  16.835   2.173  1.00  0.00    -0.000 C 
BRANCH  23  24
ATOM     24  C   UNL     1      15.225  17.211   1.134  1.00  0.00    -0.000 C 
BRANCH  24  25
ATOM     25  C   UNL     1      15.768  17.055  -0.292  1.00  0.00    -0.003 C 
ATOM     26  C   UNL     1      14.689  16.542  -1.239  1.00  0.00     0.004 C 
ENDBRANCH  24  25
ENDBRANCH  23  24
ENDBRANCH  22  23
ENDBRANCH  21  22
ENDBRANCH  20  21
ENDBRANCH  19  20
ENDBRANCH  18  19
ENDBRANCH  17  18
ENDBRANCH  16  17
ENDBRANCH  15  16
ENDBRANCH   1  15
TORSDOF 22
ENDMDL
MODEL 2
REMARK VINA RESULT:    -4.693      3.359      7.870
REMARK INTER + INTRA:         -14.987
REMARK INTER:                 -10.991
REMARK INTRA:                  -3.997
REMARK UNBOUND:                -4.258
REMARK SMILES CCCCCCCCCCCCCCCCCCCCCCCC(=O)[O-]
REMARK SMILES IDX 13 1 14 2 15 3 16 4 17 5 18 6 19 7 20 8 21 9 22 10 23 11
REMARK SMILES IDX 24 12 25 13 26 14 12 15 11 16 10 17 9 18 8 19 7 20 6 21 5 22
REMARK SMILES IDX 4 23 3 24 2 25 1 26
REMARK H PARENT
REMARK Flexibility Score: inf
ROOT
ATOM      1  C   UNL     1      12.319  14.883   5.515  1.00  0.00     0.000 C 
ENDROOT
BRANCH   1   2
ATOM      2  C   UNL     1      10.813  15.191   5.643  1.00  0.00     0.000 C 
BRANCH   2   3
ATOM      3  C   UNL     1      10.088  15.510   4.323  1.00  0.00     0.000 C 
BRANCH   3   4
ATOM      4  C   UNL     1      10.773  14.881   3.097  1.00  0.00     0.000 C 
BRANCH   4   5
ATOM      5  C   UNL     1      11.177  15.921   2.036  1.00  0.00     0.000 C 
BRANCH   5   6
ATOM      6  C   UNL     1      11.584  15.343   0.668  1.00  0.00     0.000 C 
BRANCH   6   7
ATOM      7  C   UNL     1      12.853  14.476   0.736  1.00  0.00     0.000 C 
BRANCH   7   8
ATOM      8  C   UNL     1      14.096  15.210   0.208  1.00  0.00     0.000 C 
BRANCH   8   9
ATOM      9  C   UNL     1      14.787  16.059   1.290  1.00  0.00     0.000 C 
BRANCH   9  10
ATOM     10  C   UNL     1      14.740  15.402   2.682  1.00  0.00     0.006 C 
BRANCH  10  11
ATOM     11  C   UNL     1      16.116  15.236   3.347  1.00  0.00     0.053 C 
BRANCH  11  12
ATOM     12  C   UNL     1      16.626  13.832   3.238  1.00  0.00     0.041 C 
ATOM     13  O   UNL     1      17.625  13.465   3.911  1.00  0.00    -0.550 OA
ATOM     14  O   UNL     1      16.018  12.937   2.366  1.00  0.00    -0.550 OA
ENDBRANCH  11  12
ENDBRANCH  10  11
ENDBRANCH   9  10
ENDBRANCH   8   9
ENDBRANCH   7   8
ENDBRANCH   6   7
ENDBRANCH   5   6
ENDBRANCH   4   5
ENDBRANCH   3   4
ENDBRANCH   2   3
ENDBRANCH   1   2
BRANCH   1  15
ATOM     15  C   UNL     1      12.754  13.497   6.026  1.00  0.00     0.000 C 
BRANCH  15  16
ATOM     16  C   UNL     1      13.506  12.679   4.962  1.00  0.00     0.000 C 
BRANCH  16  17
ATOM     17  C   UNL     1      12.557  11.914   4.026  1.00  0.00     0.000 C 
BRANCH  17  18
ATOM     18  C   UNL     1      11.280  11.433   4.734  1.00  0.00    -0.000 C 
BRANCH  18  19
ATOM     19  C   UNL     1      10.157  11.174   3.722  1.00  0.00    -0.000 C 
BRANCH  19  20
ATOM     20  C   UNL     1       8.864  11.888   4.144  1.00  0.00    -0.000 C 
BRANCH  20  21
ATOM     21  C   UNL     1       8.465  11.589   5.599  1.00  0.00    -0.000 C 
BRANCH  21  22
ATOM     22  C   UNL     1       7.539  12.636   6.247  1.00  0.00    -0.000 C 
BRANCH  22  23
ATOM     23  C   UNL     1       8.175  13.375   7.444  1.00  0.00    -0.000 C 
BRANCH  23  24
ATOM     24  C   UNL     1       9.398  12.634   8.005  1.00  0.00    -0.000 C 
BRANCH  24  25
ATOM     25  C   UNL     1       9.187  12.260   9.477  1.00  0.00    -0.003 C 
ATOM     26  C   UNL     1       8.366  10.981   9.608  1.00  0.00     0.004 C 
ENDBRANCH  24  25
ENDBRANCH  23  24
ENDBRANCH  22  23
ENDBRANCH  21  22
ENDBRANCH  20  21
ENDBRANCH  19  20
ENDBRANCH  18  19
ENDBRANCH  17  18
ENDBRANCH  16  17
ENDBRANCH  15  16
ENDBRANCH   1  15
TORSDOF 22
ENDMDL
MODEL 3
REMARK VINA RESULT:    -4.686      1.668      6.531
REMARK INTER + INTRA:         -14.971
REMARK INTER:                 -10.672
REMARK INTRA:                  -4.299
REMARK UNBOUND:                -4.258
REMARK SMILES CCCCCCCCCCCCCCCCCCCCCCCC(=O)[O-]
REMARK SMILES IDX 13 1 14 2 15 3 16 4 17 5 18 6 19 7 20 8 21 9 22 10 23 11
REMARK SMILES IDX 24 12 25 13 26 14 12 15 11 16 10 17 9 18 8 19 7 20 6 21 5 22
REMARK SMILES IDX 4 23 3 24 2 25 1 26
REMARK H PARENT
REMARK Flexibility Score: inf
ROOT
ATOM      1  C   UNL     1      13.623  13.576   2.107  1.00  0.00     0.000 C 
ENDROOT
BRANCH   1   2
ATOM      2  C   UNL     1      13.799  13.988   0.631  1.00  0.00     0.000 C 
BRANCH   2   3
ATOM      3  C   UNL     1      13.232  15.370   0.258  1.00  0.00     0.000 C 
BRANCH   3   4
ATOM      4  C   UNL     1      14.280  16.292  -0.389  1.00  0.00     0.000 C 
BRANCH   4   5
ATOM      5  C   UNL     1      15.140  17.042   0.645  1.00  0.00     0.000 C 
BRANCH   5   6
ATOM      6  C   UNL     1      14.392  17.517   1.905  1.00  0.00     0.000 C 
BRANCH   6   7
ATOM      7  C   UNL     1      15.068  17.066   3.211  1.00  0.00     0.000 C 
BRANCH   7   8
ATOM      8  C   UNL     1      14.110  17.098   4.412  1.00  0.00     0.000 C 
BRANCH   8   9
ATOM      9  C   UNL     1      12.724  16.516   4.081  1.00  0.00     0.000 C 
BRANCH   9  10
ATOM     10  C   UNL     1      11.571  17.384   4.619  1.00  0.00     0.006 C 
BRANCH  10  11
ATOM     11  C   UNL     1      10.420  16.583   5.249  1.00  0.00     0.053 C 
BRANCH  11  12
ATOM     12  C   UNL     1      10.327  16.803   6.728  1.00  0.00     0.041 C 
ATOM     13  O   UNL     1       9.308  16.425   7.363  1.00  0.00    -0.550 OA
ATOM     14  O   UNL     1      11.354  17.455   7.400  1.00  0.00    -0.550 OA
ENDBRANCH  11  12
ENDBRANCH  10  11
ENDBRANCH   9  10
ENDBRANCH   8   9
ENDBRANCH   7   8
ENDBRANCH   6   7
ENDBRANCH   5   6
ENDBRANCH   4   5
ENDBRANCH   3   4
ENDBRANCH   2   3
ENDBRANCH   1   2
BRANCH   1  15
ATOM     15  C   UNL     1      14.895  13.062   2.804  1.00  0.00     0.000 C 
BRANCH  15  16
ATOM     16  C   UNL     1      15.015  13.547   4.260  1.00  0.00     0.000 C 
BRANCH  16  17
ATOM     17  C   UNL     1      14.256  12.646   5.247  1.00  0.00     0.000 C 
BRANCH  17  18
ATOM     18  C   UNL     1      13.225  13.417   6.086  1.00  0.00    -0.000 C 
BRANCH  18  19
ATOM     19  C   UNL     1      11.807  12.892   5.828  1.00  0.00    -0.000 C 
BRANCH  19  20
ATOM     20  C   UNL     1      11.821  11.758   4.792  1.00  0.00    -0.000 C 
BRANCH  20  21
ATOM     21  C   UNL     1      10.676  11.869   3.772  1.00  0.00    -0.000 C 
BRANCH  21  22
ATOM     22  C   UNL     1       9.994  13.250   3.709  1.00  0.00    -0.000 C 
BRANCH  22  23
ATOM     23  C   UNL     1       8.471  13.204   3.954  1.00  0.00    -0.000 C 
BRANCH  23  24
ATOM     24  C   UNL     1       8.112  13.374   5.437  1.00  0.00    -0.000 C 
BRANCH  24  25
ATOM     25  C   UNL     1       7.549  12.073   6.020  1.00  0.00    -0.003 C 
ATOM     26  C   UNL     1       8.586  11.360   6.881  1.00  0.00     0.004 C 
ENDBRANCH  24  25
ENDBRANCH  23  24
ENDBRANCH  22  23
ENDBRANCH  21  22
ENDBRANCH  20  21
ENDBRANCH  19  20
ENDBRANCH  18  19
ENDBRANCH  17  18
ENDBRANCH  16  17
ENDBRANCH  15  16
ENDBRANCH   1  15
TORSDOF 22
ENDMDL
MODEL 4
REMARK VINA RESULT:    -4.655      1.590      3.231
REMARK INTER + INTRA:         -14.899
REMARK INTER:                 -10.782
REMARK INTRA:                  -4.117
REMARK UNBOUND:                -4.258
REMARK SMILES CCCCCCCCCCCCCCCCCCCCCCCC(=O)[O-]
REMARK SMILES IDX 13 1 14 2 15 3 16 4 17 5 18 6 19 7 20 8 21 9 22 10 23 11
REMARK SMILES IDX 24 12 25 13 26 14 12 15 11 16 10 17 9 18 8 19 7 20 6 21 5 22
REMARK SMILES IDX 4 23 3 24 2 25 1 26
REMARK H PARENT
REMARK Flexibility Score: inf
ROOT
ATOM      1  C   UNL     1      10.518  16.239   3.460  1.00  0.00     0.000 C 
ENDROOT
BRANCH   1   2
ATOM      2  C   UNL     1       9.005  15.952   3.553  1.00  0.00     0.000 C 
BRANCH   2   3
ATOM      3  C   UNL     1       8.628  14.544   4.049  1.00  0.00     0.000 C 
BRANCH   3   4
ATOM      4  C   UNL     1       9.594  13.455   3.550  1.00  0.00     0.000 C 
BRANCH   4   5
ATOM      5  C   UNL     1       9.034  12.031   3.723  1.00  0.00     0.000 C 
BRANCH   5   6
ATOM      6  C   UNL     1      10.057  10.970   4.167  1.00  0.00     0.000 C 
BRANCH   6   7
ATOM      7  C   UNL     1       9.630  10.220   5.441  1.00  0.00     0.000 C 
BRANCH   7   8
ATOM      8  C   UNL     1       9.626  11.125   6.683  1.00  0.00     0.000 C 
BRANCH   8   9
ATOM      9  C   UNL     1       8.221  11.294   7.289  1.00  0.00     0.000 C 
BRANCH   9  10
ATOM     10  C   UNL     1       7.675  12.725   7.131  1.00  0.00     0.006 C 
BRANCH  10  11
ATOM     11  C   UNL     1       8.566  13.811   7.754  1.00  0.00     0.053 C 
BRANCH  11  12
ATOM     12  C   UNL     1       8.082  15.190   7.426  1.00  0.00     0.041 C 
ATOM     13  O   UNL     1       8.892  16.153   7.376  1.00  0.00    -0.550 OA
ATOM     14  O   UNL     1       6.728  15.418   7.208  1.00  0.00    -0.550 OA
ENDBRANCH  11  12
ENDBRANCH  10  11
ENDBRANCH   9  10
ENDBRANCH   8   9
ENDBRANCH   7   8
ENDBRANCH   6   7
ENDBRANCH   5   6
ENDBRANCH   4   5
ENDBRANCH   3   4
ENDBRANCH   2   3
ENDBRANCH   1   2
BRANCH   1  15
ATOM     15  C   UNL     1      11.195  16.636   4.783  1.00  0.00     0.000 C 
BRANCH  15  16
ATOM     16  C   UNL     1      12.350  15.695   5.168  1.00  0.00     0.000 C 
BRANCH  16  17
ATOM     17  C   UNL     1      11.991  14.771   6.343  1.00  0.00     0.000 C 
BRANCH  17  18
ATOM     18  C   UNL     1      12.262  13.289   6.040  1.00  0.00    -0.000 C 
BRANCH  18  19
ATOM     19  C   UNL     1      13.657  13.101   5.431  1.00  0.00    -0.000 C 
BRANCH  19  20
ATOM     20  C   UNL     1      13.586  12.260   4.147  1.00  0.00    -0.000 C 
BRANCH  20  21
ATOM     21  C   UNL     1      13.136  13.078   2.924  1.00  0.00    -0.000 C 
BRANCH  21  22
ATOM     22  C   UNL     1      14.260  13.438   1.934  1.00  0.00    -0.000 C 
BRANCH  22  23
ATOM     23  C   UNL     1      15.679  13.152   2.471  1.00  0.00    -0.000 C 
BRANCH  23  24
ATOM     24  C   UNL     1      16.326  14.394   3.102  1.00  0.00    -0.000 C 
BRANCH  24  25
ATOM     25  C   UNL     1      15.808  15.678   2.445  1.00  0.00    -0.003 C 
ATOM     26  C   UNL     1      15.380  16.700   3.493  1.00  0.00     0.004 C 
ENDBRANCH  24  25
ENDBRANCH  23  24
ENDBRANCH  22  23
ENDBRANCH  21  22
ENDBRANCH  20  21
ENDBRANCH  19  20
ENDBRANCH  18  19
ENDBRANCH  17  18
ENDBRANCH  16  17
ENDBRANCH  15  16
ENDBRANCH   1  15
TORSDOF 22
ENDMDL
MODEL 5
REMARK VINA RESULT:    -4.636      3.496      8.209
REMARK INTER + INTRA:         -14.857
REMARK INTER:                 -11.048
REMARK INTRA:                  -3.809
REMARK UNBOUND:                -4.258
REMARK SMILES CCCCCCCCCCCCCCCCCCCCCCCC(=O)[O-]
REMARK SMILES IDX 13 1 14 2 15 3 16 4 17 5 18 6 19 7 20 8 21 9 22 10 23 11
REMARK SMILES IDX 24 12 25 13 26 14 12 15 11 16 10 17 9 18 8 19 7 20 6 21 5 22
REMARK SMILES IDX 4 23 3 24 2 25 1 26
REMARK H PARENT
REMARK Flexibility Score: inf
ROOT
ATOM      1  C   UNL     1      11.892  14.387   5.174  1.00  0.00     0.000 C 
ENDROOT
BRANCH   1   2
ATOM      2  C   UNL     1      12.492  13.021   5.568  1.00  0.00     0.000 C 
BRANCH   2   3
ATOM      3  C   UNL     1      13.194  12.255   4.433  1.00  0.00     0.000 C 
BRANCH   3   4
ATOM      4  C   UNL     1      12.688  12.658   3.037  1.00  0.00     0.000 C 
BRANCH   4   5
ATOM      5  C   UNL     1      13.757  13.383   2.198  1.00  0.00     0.000 C 
BRANCH   5   6
ATOM      6  C   UNL     1      15.216  13.076   2.581  1.00  0.00     0.000 C 
BRANCH   6   7
ATOM      7  C   UNL     1      15.990  14.322   3.045  1.00  0.00     0.000 C 
BRANCH   7   8
ATOM      8  C   UNL     1      15.062  15.448   3.525  1.00  0.00     0.000 C 
BRANCH   8   9
ATOM      9  C   UNL     1      15.340  16.787   2.819  1.00  0.00     0.000 C 
BRANCH   9  10
ATOM     10  C   UNL     1      16.258  16.633   1.593  1.00  0.00     0.006 C 
BRANCH  10  11
ATOM     11  C   UNL     1      15.767  17.378   0.341  1.00  0.00     0.053 C 
BRANCH  11  12
ATOM     12  C   UNL     1      14.808  16.553  -0.462  1.00  0.00     0.041 C 
ATOM     13  O   UNL     1      13.755  16.109   0.068  1.00  0.00    -0.550 OA
ATOM     14  O   UNL     1      15.094  16.247  -1.786  1.00  0.00    -0.550 OA
ENDBRANCH  11  12
ENDBRANCH  10  11
ENDBRANCH   9  10
ENDBRANCH   8   9
ENDBRANCH   7   8
ENDBRANCH   6   7
ENDBRANCH   5   6
ENDBRANCH   4   5
ENDBRANCH   3   4
ENDBRANCH   2   3
ENDBRANCH   1   2
BRANCH   1  15
ATOM     15  C   UNL     1      11.099  15.103   6.282  1.00  0.00     0.000 C 
BRANCH  15  16
ATOM     16  C   UNL     1       9.679  14.537   6.459  1.00  0.00     0.000 C 
BRANCH  16  17
ATOM     17  C   UNL     1       8.770  14.836   5.255  1.00  0.00     0.000 C 
BRANCH  17  18
ATOM     18  C   UNL     1       8.106  13.575   4.682  1.00  0.00    -0.000 C 
BRANCH  18  19
ATOM     19  C   UNL     1       8.974  12.950   3.583  1.00  0.00    -0.000 C 
BRANCH  19  20
ATOM     20  C   UNL     1       9.370  11.511   3.948  1.00  0.00    -0.000 C 
BRANCH  20  21
ATOM     21  C   UNL     1       8.697  11.018   5.240  1.00  0.00    -0.000 C 
BRANCH  21  22
ATOM     22  C   UNL     1       9.658  10.766   6.418  1.00  0.00    -0.000 C 
BRANCH  22  23
ATOM     23  C   UNL     1       9.129  11.280   7.774  1.00  0.00    -0.000 C 
BRANCH  23  24
ATOM     24  C   UNL     1       7.630  11.605   7.731  1.00  0.00    -0.000 C 
BRANCH  24  25
ATOM     25  C   UNL     1       7.273  12.693   8.751  1.00  0.00    -0.003 C 
ATOM     26  C   UNL     1       8.366  12.839   9.805  1.00  0.00     0.004 C 
ENDBRANCH  24  25
ENDBRANCH  23  24
ENDBRANCH  22  23
ENDBRANCH  21  22
ENDBRANCH  20  21
ENDBRANCH  19  20
ENDBRANCH  18  19
ENDBRANCH  17  18
ENDBRANCH  16  17
ENDBRANCH  15  16
ENDBRANCH   1  15
TORSDOF 22
ENDMDL
MODEL 6
REMARK VINA RESULT:    -4.636      3.302      7.641
REMARK INTER + INTRA:         -14.856
REMARK INTER:                 -10.811
REMARK INTRA:                  -4.044
REMARK UNBOUND:                -4.258
REMARK SMILES CCCCCCCCCCCCCCCCCCCCCCCC(=O)[O-]
REMARK SMILES IDX 13 1 14 2 15 3 16 4 17 5 18 6 19 7 20 8 21 9 22 10 23 11
REMARK SMILES IDX 24 12 25 13 26 14 12 15 11 16 10 17 9 18 8 19 7 20 6 21 5 22
REMARK SMILES IDX 4 23 3 24 2 25 1 26
REMARK H PARENT
REMARK Flexibility Score: inf
ROOT
ATOM      1  C   UNL     1       9.596  14.846   6.373  1.00  0.00     0.000 C 
ENDROOT
BRANCH   1   2
ATOM      2  C   UNL     1       9.625  15.725   5.105  1.00  0.00     0.000 C 
BRANCH   2   3
ATOM      3  C   UNL     1       8.961  15.112   3.859  1.00  0.00     0.000 C 
BRANCH   3   4
ATOM      4  C   UNL     1       9.451  15.745   2.546  1.00  0.00     0.000 C 
BRANCH   4   5
ATOM      5  C   UNL     1      10.984  15.726   2.406  1.00  0.00     0.000 C 
BRANCH   5   6
ATOM      6  C   UNL     1      11.521  15.086   1.112  1.00  0.00     0.000 C 
BRANCH   6   7
ATOM      7  C   UNL     1      12.402  16.042   0.290  1.00  0.00     0.000 C 
BRANCH   7   8
ATOM      8  C   UNL     1      13.838  15.523   0.122  1.00  0.00     0.000 C 
BRANCH   8   9
ATOM      9  C   UNL     1      14.049  14.143   0.771  1.00  0.00     0.000 C 
BRANCH   9  10
ATOM     10  C   UNL     1      14.684  14.235   2.170  1.00  0.00     0.006 C 
BRANCH  10  11
ATOM     11  C   UNL     1      15.690  13.115   2.481  1.00  0.00     0.053 C 
BRANCH  11  12
ATOM     12  C   UNL     1      16.600  13.476   3.614  1.00  0.00     0.041 C 
ATOM     13  O   UNL     1      16.312  13.140   4.792  1.00  0.00    -0.550 OA
ATOM     14  O   UNL     1      17.752  14.214   3.371  1.00  0.00    -0.550 OA
ENDBRANCH  11  12
ENDBRANCH  10  11
ENDBRANCH   9  10
ENDBRANCH   8   9
ENDBRANCH   7   8
ENDBRANCH   6   7
ENDBRANCH   5   6
ENDBRANCH   4   5
ENDBRANCH   3   4
ENDBRANCH   2   3
ENDBRANCH   1   2
BRANCH   1  15
ATOM     15  C   UNL     1      10.922  14.149   6.722  1.00  0.00     0.000 C 
BRANCH  15  16
ATOM     16  C   UNL     1      12.151  14.897   6.177  1.00  0.00     0.000 C 
BRANCH  16  17
ATOM     17  C   UNL     1      12.966  14.051   5.187  1.00  0.00     0.000 C 
BRANCH  17  18
ATOM     18  C   UNL     1      12.593  12.561   5.227  1.00  0.00    -0.000 C 
BRANCH  18  19
ATOM     19  C   UNL     1      12.244  12.046   3.826  1.00  0.00    -0.000 C 
BRANCH  19  20
ATOM     20  C   UNL     1      10.723  12.039   3.608  1.00  0.00    -0.000 C 
BRANCH  20  21
ATOM     21  C   UNL     1      10.035  10.819   4.244  1.00  0.00    -0.000 C 
BRANCH  21  22
ATOM     22  C   UNL     1       9.078  11.147   5.407  1.00  0.00    -0.000 C 
BRANCH  22  23
ATOM     23  C   UNL     1       9.627  10.753   6.795  1.00  0.00    -0.000 C 
BRANCH  23  24
ATOM     24  C   UNL     1       8.813  11.371   7.941  1.00  0.00    -0.000 C 
BRANCH  24  25
ATOM     25  C   UNL     1       7.437  11.836   7.451  1.00  0.00    -0.003 C 
ATOM     26  C   UNL     1       7.014  13.128   8.141  1.00  0.00     0.004 C 
ENDBRANCH  24  25
ENDBRANCH  23  24
ENDBRANCH  22  23
ENDBRANCH  21  22
ENDBRANCH  20  21
ENDBRANCH  19  20
ENDBRANCH  18  19
ENDBRANCH  17  18
ENDBRANCH  16  17
ENDBRANCH  15  16
ENDBRANCH   1  15
TORSDOF 22
ENDMDL
MODEL 7
REMARK VINA RESULT:    -4.621      1.772      3.533
REMARK INTER + INTRA:         -14.823
REMARK INTER:                 -10.649
REMARK INTRA:                  -4.173
REMARK UNBOUND:                -4.258
REMARK SMILES CCCCCCCCCCCCCCCCCCCCCCCC(=O)[O-]
REMARK SMILES IDX 13 1 14 2 15 3 16 4 17 5 18 6 19 7 20 8 21 9 22 10 23 11
REMARK SMILES IDX 24 12 25 13 26 14 12 15 11 16 10 17 9 18 8 19 7 20 6 21 5 22
REMARK SMILES IDX 4 23 3 24 2 25 1 26
REMARK H PARENT
REMARK Flexibility Score: inf
ROOT
ATOM      1  C   UNL     1      12.439  12.744   5.297  1.00  0.00     0.000 C 
ENDROOT
BRANCH   1   2
ATOM      2  C   UNL     1      12.302  11.752   4.123  1.00  0.00     0.000 C 
BRANCH   2   3
ATOM      3  C   UNL     1      11.074  10.826   4.179  1.00  0.00     0.000 C 
BRANCH   3   4
ATOM      4  C   UNL     1       9.745  11.585   4.024  1.00  0.00     0.000 C 
BRANCH   4   5
ATOM      5  C   UNL     1       8.681  11.148   5.048  1.00  0.00     0.000 C 
BRANCH   5   6
ATOM      6  C   UNL     1       9.178  11.017   6.499  1.00  0.00     0.000 C 
BRANCH   6   7
ATOM      7  C   UNL     1       8.203  11.620   7.525  1.00  0.00     0.000 C 
BRANCH   7   8
ATOM      8  C   UNL     1       7.135  12.510   6.871  1.00  0.00     0.000 C 
BRANCH   8   9
ATOM      9  C   UNL     1       7.321  14.001   7.204  1.00  0.00     0.000 C 
BRANCH   9  10
ATOM     10  C   UNL     1       7.907  14.805   6.029  1.00  0.00     0.006 C 
BRANCH  10  11
ATOM     11  C   UNL     1       9.440  14.741   5.925  1.00  0.00     0.053 C 
BRANCH  11  12
ATOM     12  C   UNL     1      10.097  15.894   6.620  1.00  0.00     0.041 C 
ATOM     13  O   UNL     1       9.414  16.882   6.996  1.00  0.00    -0.550 OA
ATOM     14  O   UNL     1      11.472  15.891   6.822  1.00  0.00    -0.550 OA
ENDBRANCH  11  12
ENDBRANCH  10  11
ENDBRANCH   9  10
ENDBRANCH   8   9
ENDBRANCH   7   8
ENDBRANCH   6   7
ENDBRANCH   5   6
ENDBRANCH   4   5
ENDBRANCH   3   4
ENDBRANCH   2   3
ENDBRANCH   1   2
BRANCH   1  15
ATOM     15  C   UNL     1      13.701  13.625   5.272  1.00  0.00     0.000 C 
BRANCH  15  16
ATOM     16  C   UNL     1      14.998  12.805   5.156  1.00  0.00     0.000 C 
BRANCH  16  17
ATOM     17  C   UNL     1      16.073  13.517   4.319  1.00  0.00     0.000 C 
BRANCH  17  18
ATOM     18  C   UNL     1      15.498  14.204   3.071  1.00  0.00    -0.000 C 
BRANCH  18  19
ATOM     19  C   UNL     1      15.245  13.186   1.953  1.00  0.00    -0.000 C 
BRANCH  19  20
ATOM     20  C   UNL     1      13.850  13.381   1.339  1.00  0.00    -0.000 C 
BRANCH  20  21
ATOM     21  C   UNL     1      13.710  14.717   0.591  1.00  0.00    -0.000 C 
BRANCH  21  22
ATOM     22  C   UNL     1      12.410  15.491   0.881  1.00  0.00    -0.000 C 
BRANCH  22  23
ATOM     23  C   UNL     1      11.659  14.999   2.137  1.00  0.00    -0.000 C 
BRANCH  23  24
ATOM     24  C   UNL     1      11.678  16.034   3.271  1.00  0.00    -0.000 C 
BRANCH  24  25
ATOM     25  C   UNL     1      12.826  17.034   3.085  1.00  0.00    -0.003 C 
ATOM     26  C   UNL     1      13.661  17.157   4.355  1.00  0.00     0.004 C 
ENDBRANCH  24  25
ENDBRANCH  23  24
ENDBRANCH  22  23
ENDBRANCH  21  22
ENDBRANCH  20  21
ENDBRANCH  19  20
ENDBRANCH  18  19
ENDBRANCH  17  18
ENDBRANCH  16  17
ENDBRANCH  15  16
ENDBRANCH   1  15
TORSDOF 22
ENDMDL
MODEL 8
REMARK VINA RESULT:    -4.595      1.695      3.372
REMARK INTER + INTRA:         -14.762
REMARK INTER:                 -10.306
REMARK INTRA:                  -4.456
REMARK UNBOUND:                -4.258
REMARK SMILES CCCCCCCCCCCCCCCCCCCCCCCC(=O)[O-]
REMARK SMILES IDX 13 1 14 2 15 3 16 4 17 5 18 6 19 7 20 8 21 9 22 10 23 11
REMARK SMILES IDX 24 12 25 13 26 14 12 15 11 16 10 17 9 18 8 19 7 20 6 21 5 22
REMARK SMILES IDX 4 23 3 24 2 25 1 26
REMARK H PARENT
REMARK Flexibility Score: inf
ROOT
ATOM      1  C   UNL     1      13.938  12.746   4.491  1.00  0.00     0.000 C 
ENDROOT
BRANCH   1   2
ATOM      2  C   UNL     1      12.463  12.376   4.752  1.00  0.00     0.000 C 
BRANCH   2   3
ATOM      3  C   UNL     1      11.753  11.637   3.604  1.00  0.00     0.000 C 
BRANCH   3   4
ATOM      4  C   UNL     1      10.351  11.135   3.992  1.00  0.00     0.000 C 
BRANCH   4   5
ATOM      5  C   UNL     1      10.303  10.520   5.403  1.00  0.00     0.000 C 
BRANCH   5   6
ATOM      6  C   UNL     1       9.199  11.070   6.324  1.00  0.00     0.000 C 
BRANCH   6   7
ATOM      7  C   UNL     1       9.566  12.420   6.964  1.00  0.00     0.000 C 
BRANCH   7   8
ATOM      8  C   UNL     1       8.456  13.470   6.802  1.00  0.00     0.000 C 
BRANCH   8   9
ATOM      9  C   UNL     1       8.028  13.659   5.336  1.00  0.00     0.000 C 
BRANCH   9  10
ATOM     10  C   UNL     1       9.106  14.359   4.488  1.00  0.00     0.006 C 
BRANCH  10  11
ATOM     11  C   UNL     1       8.647  15.683   3.854  1.00  0.00     0.053 C 
BRANCH  11  12
ATOM     12  C   UNL     1       8.242  16.689   4.888  1.00  0.00     0.041 C 
ATOM     13  O   UNL     1       7.051  17.094   4.947  1.00  0.00    -0.550 OA
ATOM     14  O   UNL     1       9.188  17.203   5.766  1.00  0.00    -0.550 OA
ENDBRANCH  11  12
ENDBRANCH  10  11
ENDBRANCH   9  10
ENDBRANCH   8   9
ENDBRANCH   7   8
ENDBRANCH   6   7
ENDBRANCH   5   6
ENDBRANCH   4   5
ENDBRANCH   3   4
ENDBRANCH   2   3
ENDBRANCH   1   2
BRANCH   1  15
ATOM     15  C   UNL     1      14.366  12.740   3.012  1.00  0.00     0.000 C 
BRANCH  15  16
ATOM     16  C   UNL     1      15.775  13.320   2.798  1.00  0.00     0.000 C 
BRANCH  16  17
ATOM     17  C   UNL     1      16.018  14.598   3.615  1.00  0.00     0.000 C 
BRANCH  17  18
ATOM     18  C   UNL     1      16.102  15.858   2.740  1.00  0.00    -0.000 C 
BRANCH  18  19
ATOM     19  C   UNL     1      14.925  16.800   3.022  1.00  0.00    -0.000 C 
BRANCH  19  20
ATOM     20  C   UNL     1      14.132  16.334   4.253  1.00  0.00    -0.000 C 
BRANCH  20  21
ATOM     21  C   UNL     1      12.617  16.269   3.997  1.00  0.00    -0.000 C 
BRANCH  21  22
ATOM     22  C   UNL     1      12.203  16.388   2.517  1.00  0.00    -0.000 C 
BRANCH  22  23
ATOM     23  C   UNL     1      11.892  15.032   1.847  1.00  0.00    -0.000 C 
BRANCH  23  24
ATOM     24  C   UNL     1      12.216  15.034   0.346  1.00  0.00    -0.000 C 
BRANCH  24  25
ATOM     25  C   UNL     1      13.720  14.862   0.107  1.00  0.00    -0.003 C 
ATOM     26  C   UNL     1      14.313  16.086  -0.583  1.00  0.00     0.004 C 
ENDBRANCH  24  25
ENDBRANCH  23  24
ENDBRANCH  22  23
ENDBRANCH  21  22
ENDBRANCH  20  21
ENDBRANCH  19  20
ENDBRANCH  18  19
ENDBRANCH  17  18
ENDBRANCH  16  17
ENDBRANCH  15  16
ENDBRANCH   1  15
TORSDOF 22
ENDMDL
MODEL 9
REMARK VINA RESULT:    -4.593      1.701      6.916
REMARK INTER + INTRA:         -14.758
REMARK INTER:                 -11.119
REMARK INTRA:                  -3.640
REMARK UNBOUND:                -4.258
REMARK SMILES CCCCCCCCCCCCCCCCCCCCCCCC(=O)[O-]
REMARK SMILES IDX 13 1 14 2 15 3 16 4 17 5 18 6 19 7 20 8 21 9 22 10 23 11
REMARK SMILES IDX 24 12 25 13 26 14 12 15 11 16 10 17 9 18 8 19 7 20 6 21 5 22
REMARK SMILES IDX 4 23 3 24 2 25 1 26
REMARK H PARENT
REMARK Flexibility Score: inf
ROOT
ATOM      1  C   UNL     1      13.903  13.911   4.391  1.00  0.00     0.000 C 
ENDROOT
BRANCH   1   2
ATOM      2  C   UNL     1      15.386  13.702   4.023  1.00  0.00     0.000 C 
BRANCH   2   3
ATOM      3  C   UNL     1      15.683  13.583   2.517  1.00  0.00     0.000 C 
BRANCH   3   4
ATOM      4  C   UNL     1      14.408  13.522   1.659  1.00  0.00     0.000 C 
BRANCH   4   5
ATOM      5  C   UNL     1      14.104  14.850   0.940  1.00  0.00     0.000 C 
BRANCH   5   6
ATOM      6  C   UNL     1      12.611  15.152   0.716  1.00  0.00     0.000 C 
BRANCH   6   7
ATOM      7  C   UNL     1      11.862  15.481   2.019  1.00  0.00     0.000 C 
BRANCH   7   8
ATOM      8  C   UNL     1      10.336  15.424   1.852  1.00  0.00     0.000 C 
BRANCH   8   9
ATOM      9  C   UNL     1       9.594  15.352   3.199  1.00  0.00     0.000 C 
BRANCH   9  10
ATOM     10  C   UNL     1      10.529  15.562   4.404  1.00  0.00     0.006 C 
BRANCH  10  11
ATOM     11  C   UNL     1      10.044  14.895   5.701  1.00  0.00     0.053 C 
BRANCH  11  12
ATOM     12  C   UNL     1       9.099  15.773   6.464  1.00  0.00     0.041 C 
ATOM     13  O   UNL     1       9.531  16.532   7.371  1.00  0.00    -0.550 OA
ATOM     14  O   UNL     1       7.737  15.727   6.195  1.00  0.00    -0.550 OA
ENDBRANCH  11  12
ENDBRANCH  10  11
ENDBRANCH   9  10
ENDBRANCH   8   9
ENDBRANCH   7   8
ENDBRANCH   6   7
ENDBRANCH   5   6
ENDBRANCH   4   5
ENDBRANCH   3   4
ENDBRANCH   2   3
ENDBRANCH   1   2
BRANCH   1  15
ATOM     15  C   UNL     1      13.266  12.786   5.227  1.00  0.00     0.000 C 
BRANCH  15  16
ATOM     16  C   UNL     1      12.757  11.618   4.365  1.00  0.00     0.000 C 
BRANCH  16  17
ATOM     17  C   UNL     1      11.652  12.045   3.386  1.00  0.00     0.000 C 
BRANCH  17  18
ATOM     18  C   UNL     1      10.244  11.676   3.878  1.00  0.00    -0.000 C 
BRANCH  18  19
ATOM     19  C   UNL     1      10.294  10.478   4.834  1.00  0.00    -0.000 C 
BRANCH  19  20
ATOM     20  C   UNL     1       9.413  10.724   6.069  1.00  0.00    -0.000 C 
BRANCH  20  21
ATOM     21  C   UNL     1       8.206  11.628   5.769  1.00  0.00    -0.000 C 
BRANCH  21  22
ATOM     22  C   UNL     1       7.353  12.002   6.997  1.00  0.00    -0.000 C 
BRANCH  22  23
ATOM     23  C   UNL     1       8.174  12.563   8.177  1.00  0.00    -0.000 C 
BRANCH  23  24
ATOM     24  C   UNL     1       7.382  13.584   9.006  1.00  0.00    -0.000 C 
BRANCH  24  25
ATOM     25  C   UNL     1       7.597  13.360  10.508  1.00  0.00    -0.003 C 
ATOM     26  C   UNL     1       6.604  12.343  11.061  1.00  0.00     0.004 C 
ENDBRANCH  24  25
ENDBRANCH  23  24
ENDBRANCH  22  23
ENDBRANCH  21  22
ENDBRANCH  20  21
ENDBRANCH  19  20
ENDBRANCH  18  19
ENDBRANCH  17  18
ENDBRANCH  16  17
ENDBRANCH  15  16
ENDBRANCH   1  15
TORSDOF 22
ENDMDL
