MODEL 1
REMARK VINA RESULT:    29.918      0.000      0.000
REMARK INTER + INTRA:          32.703
REMARK INTER:                  32.542
REMARK INTRA:                   0.161
REMARK UNBOUND:                 0.161
REMARK SMILES C[C@H]1[C@H](C)CC[C@@]2(C(=O)[O-])CC[C@]3(C)C(=CC[C@H]4[C@@]5(C)CC[C@H](O)C(C)(C)[C@H]5CC[C@]43C)[C@H]12
REMARK SMILES IDX 7 1 6 2 11 3 33 4 5 5 12 6 15 7 2 8 3 9 13 10 16 11 1 12
REMARK SMILES IDX 4 13 14 14 31 15 17 16 18 17 30 18 32 19 19 20 29 21 28 22
REMARK SMILES IDX 21 23 20 24 25 25 22 26 23 27 26 28 27 29 8 30 9 31 10 32
REMARK SMILES IDX 24 33
REMARK H PARENT 24 34
REMARK Flexibility Score: inf
ROOT
ATOM      1  C   UNL     1      18.712  14.328 -10.420  1.00  0.00     0.017 C 
ATOM      2  C   UNL     1      19.934  15.114 -11.125  1.00  0.00     0.014 C 
ATOM      3  C   UNL     1      18.444  12.899 -11.125  1.00  0.00     0.014 C 
ATOM      4  C   UNL     1      19.158  14.136  -8.959  1.00  0.00     0.030 C 
ATOM      5  C   UNL     1      20.990  15.972 -10.292  1.00  0.00     0.004 C 
ATOM      6  C   UNL     1      19.407  11.846 -10.605  1.00  0.00     0.013 C 
ATOM      7  C   UNL     1      18.622  12.854  -8.352  1.00  0.00    -0.063 C 
ATOM      8  C   UNL     1      19.418  15.602  -8.319  1.00  0.00    -0.003 C 
ATOM      9  C   UNL     1      20.886  16.008  -8.723  1.00  0.00    -0.011 C 
ATOM     10  C   UNL     1      19.171  11.523  -9.013  1.00  0.00    -0.006 C 
ATOM     11  C   UNL     1      18.451  12.716  -7.027  1.00  0.00    -0.027 C 
ATOM     12  C   UNL     1      18.901  15.953  -6.877  1.00  0.00     0.008 C 
ATOM     13  C   UNL     1      21.830  17.100  -7.966  1.00  0.00     0.008 C 
ATOM     14  C   UNL     1      17.991  10.468  -8.928  1.00  0.00     0.017 C 
ATOM     15  C   UNL     1      20.596  11.025  -8.309  1.00  0.00    -0.020 C 
ATOM     16  C   UNL     1      19.727  12.574  -6.292  1.00  0.00     0.032 C 
ATOM     17  C   UNL     1      20.690  11.440  -6.783  1.00  0.00     0.006 C 
ATOM     18  C   UNL     1      20.761   9.509  -8.489  1.00  0.00     0.008 C 
ATOM     19  C   UNL     1      21.893  11.629  -9.054  1.00  0.00     0.012 C 
ATOM     20  C   UNL     1      20.793  10.201  -5.687  1.00  0.00    -0.025 C 
ATOM     21  C   UNL     1      21.839   8.873  -7.678  1.00  0.00     0.005 C 
ATOM     22  C   UNL     1      21.683   8.988  -6.127  1.00  0.00     0.003 C 
ATOM     23  C   UNL     1      19.331   9.669  -5.291  1.00  0.00     0.010 C 
ATOM     24  C   UNL     1      21.541  10.885  -4.472  1.00  0.00     0.012 C 
ATOM     25  C   UNL     1      21.342   7.632  -5.400  1.00  0.00    -0.006 C 
ATOM     26  C   UNL     1      18.910   8.252  -5.820  1.00  0.00     0.033 C 
ATOM     27  C   UNL     1      19.963   7.069  -5.867  1.00  0.00     0.120 C 
ATOM     28  C   UNL     1      21.399   7.761  -3.814  1.00  0.00     0.014 C 
ATOM     29  C   UNL     1      22.428   6.563  -5.711  1.00  0.00     0.014 C 
ENDROOT
BRANCH   1  30
ATOM     30  C   UNL     1      17.376  15.142 -10.449  1.00  0.00     0.048 C 
ATOM     31  O   UNL     1      17.473  16.448 -10.326  1.00  0.00    -0.550 OA
ATOM     32  O   UNL     1      16.245  14.600 -11.124  1.00  0.00    -0.550 OA
ENDBRANCH   1  30
BRANCH  27  33
ATOM     33  O   UNL     1      19.622   6.021  -5.057  1.00  0.00    -0.393 OA
ATOM     34  H   UNL     1      18.792   6.110  -4.481  1.00  0.00     0.210 HD
ENDBRANCH  27  33
TORSDOF 2
ENDMDL
