MODEL 1
REMARK VINA RESULT:    -7.891      0.000      0.000
REMARK INTER + INTRA:         -14.878
REMARK INTER:                 -12.966
REMARK INTRA:                  -1.913
REMARK UNBOUND:                -1.913
REMARK SMILES C[C@@H]1O[C@H](OC[C@@H]2O[C@@H](Oc3c(-c4ccc(O)c(O)c4)oc4cc(O)cc(O)c4c3=O)[C@H](O)[C@@H](O)[C@@H]2O)[C@H](O)[C@@H](O)[C@H]1O
REMARK SMILES IDX 7 1 36 2 34 3 32 4 9 5 8 6 6 7 5 8 4 9 1 10 2 11 42 12 3 13
REMARK SMILES IDX 40 14 38 15 43 16 41 18 39 20 37 22 35 24 10 26 11 27 12 28
REMARK SMILES IDX 30 29 21 30 29 31 31 32 22 33 27 34 23 35 26 36 24 37 13 38
REMARK SMILES IDX 20 39 14 40 18 41 15 42 16 43 19 44 17 46 28 48 25 50 33 52
REMARK H PARENT 43 17 41 19 39 21 37 23 35 25 19 45 17 47 28 49 25 51 33 53
REMARK Flexibility Score: inf
ROOT
ATOM      1  C   UNL     1     123.804 113.913 116.795  1.00  0.00     0.180 C 
ATOM      2  C   UNL     1     122.376 114.013 116.178  1.00  0.00     0.177 C 
ATOM      3  C   UNL     1     122.272 115.210 115.214  1.00  0.00     0.180 C 
ATOM      4  C   UNL     1     123.445 115.192 114.240  1.00  0.00     0.214 C 
ATOM      5  C   UNL     1     124.789 115.126 115.015  1.00  0.00     0.339 C 
ATOM      6  O   UNL     1     124.834 113.953 115.813  1.00  0.00    -0.332 OA
ENDROOT
BRANCH   1   7
ATOM      7  C   UNL     1     124.072 114.892 117.977  1.00  0.00     0.198 C 
BRANCH   7   8
ATOM      8  O   UNL     1     123.381 114.531 119.164  1.00  0.00    -0.347 OA
BRANCH   8   9
ATOM      9  C   UNL     1     122.720 115.625 119.796  1.00  0.00     0.281 C 
ATOM     10  C   UNL     1     119.244 115.983 120.752  1.00  0.00     0.041 C 
ATOM     11  C   UNL     1     120.532 116.500 120.120  1.00  0.00     0.150 C 
ATOM     12  C   UNL     1     121.236 117.530 121.077  1.00  0.00     0.174 C 
ATOM     13  O   UNL     1     121.330 115.366 119.765  1.00  0.00    -0.344 OA
ATOM     14  C   UNL     1     122.250 116.820 122.010  1.00  0.00     0.179 C 
ATOM     15  C   UNL     1     123.136 115.773 121.273  1.00  0.00     0.202 C 
BRANCH  12  16
ATOM     16  O   UNL     1     121.886 118.507 120.299  1.00  0.00    -0.388 OA
ATOM     17  H   UNL     1     122.241 118.062 119.483  1.00  0.00     0.211 HD
ENDBRANCH  12  16
BRANCH  14  18
ATOM     18  O   UNL     1     123.045 117.768 122.699  1.00  0.00    -0.387 OA
ATOM     19  H   UNL     1     123.620 118.226 122.030  1.00  0.00     0.211 HD
ENDBRANCH  14  18
BRANCH  15  20
ATOM     20  O   UNL     1     123.013 114.528 121.923  1.00  0.00    -0.385 OA
ATOM     21  H   UNL     1     123.318 113.834 121.281  1.00  0.00     0.211 HD
ENDBRANCH  15  20
ENDBRANCH   8   9
ENDBRANCH   7   8
ENDBRANCH   1   7
BRANCH   2  22
ATOM     22  O   UNL     1     121.396 114.120 117.179  1.00  0.00    -0.387 OA
ATOM     23  H   UNL     1     120.516 113.921 116.745  1.00  0.00     0.211 HD
ENDBRANCH   2  22
BRANCH   3  24
ATOM     24  O   UNL     1     121.069 115.117 114.492  1.00  0.00    -0.387 OA
ATOM     25  H   UNL     1     121.210 114.433 113.790  1.00  0.00     0.211 HD
ENDBRANCH   3  24
BRANCH   5  26
ATOM     26  O   UNL     1     125.875 115.067 114.082  1.00  0.00    -0.454 OA
BRANCH  26  27
ATOM     27  C   UNL     1     126.845 114.049 113.990  1.00  0.00     0.214 A 
ATOM     28  C   UNL     1     126.666 113.050 113.024  1.00  0.00     0.180 A 
ATOM     29  C   UNL     1     127.953 113.942 114.865  1.00  0.00     0.239 A 
ATOM     30  O   UNL     1     127.544 112.069 112.895  1.00  0.00    -0.452 OA
ATOM     31  C   UNL     1     128.871 112.879 114.690  1.00  0.00     0.111 A 
ATOM     32  O   UNL     1     128.100 114.756 115.816  1.00  0.00    -0.285 OA
ATOM     33  C   UNL     1     128.619 111.954 113.660  1.00  0.00     0.146 A 
ATOM     34  C   UNL     1     130.003 112.700 115.525  1.00  0.00     0.134 A 
ATOM     35  C   UNL     1     129.491 110.884 113.442  1.00  0.00     0.094 A 
ATOM     36  C   UNL     1     130.855 111.606 115.310  1.00  0.00     0.093 A 
ATOM     37  C   UNL     1     130.608 110.709 114.269  1.00  0.00     0.123 A 
BRANCH  28  38
ATOM     38  C   UNL     1     125.506 113.054 112.119  1.00  0.00     0.025 A 
ATOM     39  C   UNL     1     124.554 112.029 112.191  1.00  0.00     0.062 A 
ATOM     40  C   UNL     1     125.280 114.153 111.280  1.00  0.00     0.016 A 
ATOM     41  C   UNL     1     123.367 112.104 111.445  1.00  0.00     0.158 A 
ATOM     42  C   UNL     1     124.120 114.214 110.512  1.00  0.00     0.051 A 
ATOM     43  C   UNL     1     123.149 113.206 110.601  1.00  0.00     0.157 A 
BRANCH  41  44
ATOM     44  O   UNL     1     122.413 111.089 111.571  1.00  0.00    -0.504 OA
ATOM     45  H   UNL     1     122.534 110.188 111.128  1.00  0.00     0.293 HD
ENDBRANCH  41  44
BRANCH  43  46
ATOM     46  O   UNL     1     121.966 113.315 109.880  1.00  0.00    -0.504 OA
ATOM     47  H   UNL     1     121.940 113.206 108.877  1.00  0.00     0.293 HD
ENDBRANCH  43  46
ENDBRANCH  28  38
BRANCH  34  48
ATOM     48  O   UNL     1     130.287 113.587 116.567  1.00  0.00    -0.507 OA
ATOM     49  H   UNL     1     130.182 114.584 116.472  1.00  0.00     0.293 HD
ENDBRANCH  34  48
BRANCH  37  50
ATOM     50  O   UNL     1     131.461 109.626 114.058  1.00  0.00    -0.508 OA
ATOM     51  H   UNL     1     131.745 109.352 113.130  1.00  0.00     0.293 HD
ENDBRANCH  37  50
ENDBRANCH  26  27
ENDBRANCH   5  26
BRANCH   4  52
ATOM     52  O   UNL     1     123.393 116.305 113.379  1.00  0.00    -0.384 OA
ATOM     53  H   UNL     1     124.304 116.701 113.325  1.00  0.00     0.211 HD
ENDBRANCH   4  52
TORSDOF 16
ENDMDL
MODEL 2
REMARK VINA RESULT:    -7.804      1.002      1.825
REMARK INTER + INTRA:         -14.734
REMARK INTER:                 -12.801
REMARK INTRA:                  -1.933
REMARK UNBOUND:                -1.913
REMARK SMILES C[C@@H]1O[C@H](OC[C@@H]2O[C@@H](Oc3c(-c4ccc(O)c(O)c4)oc4cc(O)cc(O)c4c3=O)[C@H](O)[C@@H](O)[C@@H]2O)[C@H](O)[C@@H](O)[C@H]1O
REMARK SMILES IDX 7 1 36 2 34 3 32 4 9 5 8 6 6 7 5 8 4 9 1 10 2 11 42 12 3 13
REMARK SMILES IDX 40 14 38 15 43 16 41 18 39 20 37 22 35 24 10 26 11 27 12 28
REMARK SMILES IDX 30 29 21 30 29 31 31 32 22 33 27 34 23 35 26 36 24 37 13 38
REMARK SMILES IDX 20 39 14 40 18 41 15 42 16 43 19 44 17 46 28 48 25 50 33 52
REMARK H PARENT 43 17 41 19 39 21 37 23 35 25 19 45 17 47 28 49 25 51 33 53
REMARK Flexibility Score: inf
ROOT
ATOM      1  C   UNL     1     123.304 113.722 116.328  1.00  0.00     0.180 C 
ATOM      2  C   UNL     1     122.066 114.581 115.928  1.00  0.00     0.177 C 
ATOM      3  C   UNL     1     122.488 116.011 115.537  1.00  0.00     0.180 C 
ATOM      4  C   UNL     1     123.641 115.955 114.541  1.00  0.00     0.214 C 
ATOM      5  C   UNL     1     124.801 115.091 115.105  1.00  0.00     0.339 C 
ATOM      6  O   UNL     1     124.346 113.771 115.359  1.00  0.00    -0.332 OA
ENDROOT
BRANCH   1   7
ATOM      7  C   UNL     1     123.825 113.966 117.775  1.00  0.00     0.198 C 
BRANCH   7   8
ATOM      8  O   UNL     1     122.899 113.565 118.773  1.00  0.00    -0.347 OA
BRANCH   8   9
ATOM      9  C   UNL     1     123.090 114.219 120.027  1.00  0.00     0.281 C 
ATOM     10  C   UNL     1     125.819 116.324 121.140  1.00  0.00     0.041 C 
ATOM     11  C   UNL     1     124.822 115.188 121.338  1.00  0.00     0.150 C 
ATOM     12  C   UNL     1     123.655 115.644 122.289  1.00  0.00     0.174 C 
ATOM     13  O   UNL     1     124.403 114.744 120.043  1.00  0.00    -0.344 OA
ATOM     14  C   UNL     1     122.473 116.235 121.478  1.00  0.00     0.179 C 
ATOM     15  C   UNL     1     122.112 115.395 120.217  1.00  0.00     0.202 C 
BRANCH  12  16
ATOM     16  O   UNL     1     123.226 114.539 123.049  1.00  0.00    -0.388 OA
ATOM     17  H   UNL     1     123.811 114.473 123.851  1.00  0.00     0.211 HD
ENDBRANCH  12  16
BRANCH  14  18
ATOM     18  O   UNL     1     121.342 116.424 122.308  1.00  0.00    -0.387 OA
ATOM     19  H   UNL     1     121.622 116.980 123.083  1.00  0.00     0.211 HD
ENDBRANCH  14  18
BRANCH  15  20
ATOM     20  O   UNL     1     122.153 116.229 119.082  1.00  0.00    -0.385 OA
ATOM     21  H   UNL     1     122.043 115.644 118.287  1.00  0.00     0.211 HD
ENDBRANCH  15  20
ENDBRANCH   8   9
ENDBRANCH   7   8
ENDBRANCH   1   7
BRANCH   2  22
ATOM     22  O   UNL     1     121.123 114.630 116.968  1.00  0.00    -0.387 OA
ATOM     23  H   UNL     1     120.220 114.550 116.544  1.00  0.00     0.211 HD
ENDBRANCH   2  22
BRANCH   3  24
ATOM     24  O   UNL     1     121.395 116.668 114.945  1.00  0.00    -0.387 OA
ATOM     25  H   UNL     1     121.404 117.598 115.286  1.00  0.00     0.211 HD
ENDBRANCH   3  24
BRANCH   5  26
ATOM     26  O   UNL     1     125.854 115.017 114.137  1.00  0.00    -0.454 OA
BRANCH  26  27
ATOM     27  C   UNL     1     126.828 114.003 114.036  1.00  0.00     0.214 A 
ATOM     28  C   UNL     1     126.658 113.020 113.051  1.00  0.00     0.180 A 
ATOM     29  C   UNL     1     127.929 113.884 114.917  1.00  0.00     0.239 A 
ATOM     30  O   UNL     1     127.540 112.043 112.913  1.00  0.00    -0.452 OA
ATOM     31  C   UNL     1     128.852 112.826 114.730  1.00  0.00     0.111 A 
ATOM     32  O   UNL     1     128.067 114.683 115.882  1.00  0.00    -0.285 OA
ATOM     33  C   UNL     1     128.610 111.918 113.684  1.00  0.00     0.146 A 
ATOM     34  C   UNL     1     129.978 112.636 115.571  1.00  0.00     0.134 A 
ATOM     35  C   UNL     1     129.486 110.854 113.454  1.00  0.00     0.094 A 
ATOM     36  C   UNL     1     130.834 111.548 115.345  1.00  0.00     0.093 A 
ATOM     37  C   UNL     1     130.597 110.668 114.287  1.00  0.00     0.123 A 
BRANCH  28  38
ATOM     38  C   UNL     1     125.506 113.036 112.138  1.00  0.00     0.025 A 
ATOM     39  C   UNL     1     124.546 112.017 112.198  1.00  0.00     0.062 A 
ATOM     40  C   UNL     1     125.292 114.141 111.303  1.00  0.00     0.016 A 
ATOM     41  C   UNL     1     123.365 112.103 111.444  1.00  0.00     0.158 A 
ATOM     42  C   UNL     1     124.138 114.213 110.527  1.00  0.00     0.051 A 
ATOM     43  C   UNL     1     123.160 113.211 110.604  1.00  0.00     0.157 A 
BRANCH  41  44
ATOM     44  O   UNL     1     122.403 111.095 111.558  1.00  0.00    -0.504 OA
ATOM     45  H   UNL     1     122.425 110.423 112.315  1.00  0.00     0.293 HD
ENDBRANCH  41  44
BRANCH  43  46
ATOM     46  O   UNL     1     121.983 113.331 109.875  1.00  0.00    -0.504 OA
ATOM     47  H   UNL     1     121.209 113.890 110.202  1.00  0.00     0.293 HD
ENDBRANCH  43  46
ENDBRANCH  28  38
BRANCH  34  48
ATOM     48  O   UNL     1     130.252 113.507 116.630  1.00  0.00    -0.507 OA
ATOM     49  H   UNL     1     131.065 114.100 116.644  1.00  0.00     0.293 HD
ENDBRANCH  34  48
BRANCH  37  50
ATOM     50  O   UNL     1     131.455 109.591 114.064  1.00  0.00    -0.508 OA
ATOM     51  H   UNL     1     131.424 109.062 113.206  1.00  0.00     0.293 HD
ENDBRANCH  37  50
ENDBRANCH  26  27
ENDBRANCH   5  26
BRANCH   4  52
ATOM     52  O   UNL     1     124.071 117.254 114.206  1.00  0.00    -0.384 OA
ATOM     53  H   UNL     1     125.060 117.289 114.303  1.00  0.00     0.211 HD
ENDBRANCH   4  52
TORSDOF 16
ENDMDL
MODEL 3
REMARK VINA RESULT:    -7.776      2.644      9.916
REMARK INTER + INTRA:         -14.689
REMARK INTER:                 -13.374
REMARK INTRA:                  -1.315
REMARK UNBOUND:                -1.913
REMARK SMILES C[C@@H]1O[C@H](OC[C@@H]2O[C@@H](Oc3c(-c4ccc(O)c(O)c4)oc4cc(O)cc(O)c4c3=O)[C@H](O)[C@@H](O)[C@@H]2O)[C@H](O)[C@@H](O)[C@H]1O
REMARK SMILES IDX 7 1 36 2 34 3 32 4 9 5 8 6 6 7 5 8 4 9 1 10 2 11 42 12 3 13
REMARK SMILES IDX 40 14 38 15 43 16 41 18 39 20 37 22 35 24 10 26 11 27 12 28
REMARK SMILES IDX 30 29 21 30 29 31 31 32 22 33 27 34 23 35 26 36 24 37 13 38
REMARK SMILES IDX 20 39 14 40 18 41 15 42 16 43 19 44 17 46 28 48 25 50 33 52
REMARK H PARENT 43 17 41 19 39 21 37 23 35 25 19 45 17 47 28 49 25 51 33 53
REMARK Flexibility Score: inf
ROOT
ATOM      1  C   UNL     1     123.067 116.673 116.144  1.00  0.00     0.180 C 
ATOM      2  C   UNL     1     121.757 116.859 115.319  1.00  0.00     0.177 C 
ATOM      3  C   UNL     1     120.841 115.628 115.451  1.00  0.00     0.180 C 
ATOM      4  C   UNL     1     120.684 115.256 116.921  1.00  0.00     0.214 C 
ATOM      5  C   UNL     1     122.076 115.075 117.584  1.00  0.00     0.339 C 
ATOM      6  O   UNL     1     122.821 116.279 117.490  1.00  0.00    -0.332 OA
ENDROOT
BRANCH   1   7
ATOM      7  C   UNL     1     124.150 115.790 115.454  1.00  0.00     0.198 C 
BRANCH   7   8
ATOM      8  O   UNL     1     123.610 114.629 114.841  1.00  0.00    -0.347 OA
BRANCH   8   9
ATOM      9  C   UNL     1     123.906 114.527 113.449  1.00  0.00     0.281 C 
ATOM     10  C   UNL     1     126.810 113.122 111.802  1.00  0.00     0.041 C 
ATOM     11  C   UNL     1     125.759 114.210 111.992  1.00  0.00     0.150 C 
ATOM     12  C   UNL     1     124.673 114.125 110.857  1.00  0.00     0.174 C 
ATOM     13  O   UNL     1     125.246 114.095 113.324  1.00  0.00    -0.344 OA
ATOM     14  C   UNL     1     123.487 113.224 111.287  1.00  0.00     0.179 C 
ATOM     15  C   UNL     1     123.011 113.489 112.745  1.00  0.00     0.202 C 
BRANCH  12  16
ATOM     16  O   UNL     1     124.220 115.425 110.560  1.00  0.00    -0.388 OA
ATOM     17  H   UNL     1     124.890 116.071 110.912  1.00  0.00     0.211 HD
ENDBRANCH  12  16
BRANCH  14  18
ATOM     18  O   UNL     1     122.414 113.338 110.369  1.00  0.00    -0.387 OA
ATOM     19  H   UNL     1     122.209 112.429 110.026  1.00  0.00     0.211 HD
ENDBRANCH  14  18
BRANCH  15  20
ATOM     20  O   UNL     1     123.041 112.277 113.465  1.00  0.00    -0.385 OA
ATOM     21  H   UNL     1     122.958 111.542 112.802  1.00  0.00     0.211 HD
ENDBRANCH  15  20
ENDBRANCH   8   9
ENDBRANCH   7   8
ENDBRANCH   1   7
BRANCH   2  22
ATOM     22  O   UNL     1     122.039 117.101 113.964  1.00  0.00    -0.387 OA
ATOM     23  H   UNL     1     121.554 116.401 113.438  1.00  0.00     0.211 HD
ENDBRANCH   2  22
BRANCH   3  24
ATOM     24  O   UNL     1     119.577 115.934 114.913  1.00  0.00    -0.387 OA
ATOM     25  H   UNL     1     119.735 116.534 114.141  1.00  0.00     0.211 HD
ENDBRANCH   3  24
BRANCH   5  26
ATOM     26  O   UNL     1     121.907 114.767 118.973  1.00  0.00    -0.454 OA
BRANCH  26  27
ATOM     27  C   UNL     1     121.594 115.680 119.999  1.00  0.00     0.214 A 
ATOM     28  C   UNL     1     122.636 116.138 120.817  1.00  0.00     0.180 A 
ATOM     29  C   UNL     1     120.277 116.107 120.294  1.00  0.00     0.239 A 
ATOM     30  O   UNL     1     122.400 116.994 121.797  1.00  0.00    -0.452 OA
ATOM     31  C   UNL     1     120.068 117.027 121.349  1.00  0.00     0.111 A 
ATOM     32  O   UNL     1     119.294 115.642 119.654  1.00  0.00    -0.285 OA
ATOM     33  C   UNL     1     121.191 117.456 122.080  1.00  0.00     0.146 A 
ATOM     34  C   UNL     1     118.781 117.500 121.709  1.00  0.00     0.134 A 
ATOM     35  C   UNL     1     121.045 118.363 123.133  1.00  0.00     0.094 A 
ATOM     36  C   UNL     1     118.647 118.390 122.786  1.00  0.00     0.093 A 
ATOM     37  C   UNL     1     119.771 118.827 123.487  1.00  0.00     0.123 A 
BRANCH  28  38
ATOM     38  C   UNL     1     124.024 115.693 120.617  1.00  0.00     0.025 A 
ATOM     39  C   UNL     1     124.444 114.453 121.117  1.00  0.00     0.062 A 
ATOM     40  C   UNL     1     124.888 116.443 119.808  1.00  0.00     0.016 A 
ATOM     41  C   UNL     1     125.714 113.949 120.799  1.00  0.00     0.158 A 
ATOM     42  C   UNL     1     126.162 115.961 119.518  1.00  0.00     0.051 A 
ATOM     43  C   UNL     1     126.579 114.709 119.992  1.00  0.00     0.157 A 
BRANCH  41  44
ATOM     44  O   UNL     1     126.090 112.688 121.273  1.00  0.00    -0.504 OA
ATOM     45  H   UNL     1     127.063 112.416 121.345  1.00  0.00     0.293 HD
ENDBRANCH  41  44
BRANCH  43  46
ATOM     46  O   UNL     1     127.827 114.212 119.638  1.00  0.00    -0.504 OA
ATOM     47  H   UNL     1     128.068 113.239 119.761  1.00  0.00     0.293 HD
ENDBRANCH  43  46
ENDBRANCH  28  38
BRANCH  34  48
ATOM     48  O   UNL     1     117.636 117.093 121.019  1.00  0.00    -0.507 OA
ATOM     49  H   UNL     1     117.658 116.377 120.312  1.00  0.00     0.293 HD
ENDBRANCH  34  48
BRANCH  37  50
ATOM     50  O   UNL     1     119.632 119.716 124.554  1.00  0.00    -0.508 OA
ATOM     51  H   UNL     1     119.124 120.581 124.456  1.00  0.00     0.293 HD
ENDBRANCH  37  50
ENDBRANCH  26  27
ENDBRANCH   5  26
BRANCH   4  52
ATOM     52  O   UNL     1     119.885 114.104 117.059  1.00  0.00    -0.384 OA
ATOM     53  H   UNL     1     120.486 113.321 117.185  1.00  0.00     0.211 HD
ENDBRANCH   4  52
TORSDOF 16
ENDMDL
MODEL 4
REMARK VINA RESULT:    -7.773      2.878      7.793
REMARK INTER + INTRA:         -14.685
REMARK INTER:                 -12.559
REMARK INTRA:                  -2.126
REMARK UNBOUND:                -1.913
REMARK SMILES C[C@@H]1O[C@H](OC[C@@H]2O[C@@H](Oc3c(-c4ccc(O)c(O)c4)oc4cc(O)cc(O)c4c3=O)[C@H](O)[C@@H](O)[C@@H]2O)[C@H](O)[C@@H](O)[C@H]1O
REMARK SMILES IDX 7 1 36 2 34 3 32 4 9 5 8 6 6 7 5 8 4 9 1 10 2 11 42 12 3 13
REMARK SMILES IDX 40 14 38 15 43 16 41 18 39 20 37 22 35 24 10 26 11 27 12 28
REMARK SMILES IDX 30 29 21 30 29 31 31 32 22 33 27 34 23 35 26 36 24 37 13 38
REMARK SMILES IDX 20 39 14 40 18 41 15 42 16 43 19 44 17 46 28 48 25 50 33 52
REMARK H PARENT 43 17 41 19 39 21 37 23 35 25 19 45 17 47 28 49 25 51 33 53
REMARK Flexibility Score: inf
ROOT
ATOM      1  C   UNL     1     125.039 112.691 110.378  1.00  0.00     0.180 C 
ATOM      2  C   UNL     1     123.854 111.689 110.525  1.00  0.00     0.177 C 
ATOM      3  C   UNL     1     123.533 111.427 112.009  1.00  0.00     0.180 C 
ATOM      4  C   UNL     1     123.414 112.751 112.754  1.00  0.00     0.214 C 
ATOM      5  C   UNL     1     124.686 113.613 112.530  1.00  0.00     0.339 C 
ATOM      6  O   UNL     1     124.860 113.875 111.146  1.00  0.00    -0.332 OA
ENDROOT
BRANCH   1   7
ATOM      7  C   UNL     1     126.451 112.061 110.575  1.00  0.00     0.198 C 
BRANCH   7   8
ATOM      8  O   UNL     1     127.478 113.032 110.706  1.00  0.00    -0.347 OA
BRANCH   8   9
ATOM      9  C   UNL     1     128.327 112.818 111.832  1.00  0.00     0.281 C 
ATOM     10  C   UNL     1     130.592 110.078 112.528  1.00  0.00     0.041 C 
ATOM     11  C   UNL     1     129.500 111.065 112.930  1.00  0.00     0.150 C 
ATOM     12  C   UNL     1     130.103 112.213 113.820  1.00  0.00     0.174 C 
ATOM     13  O   UNL     1     128.851 111.509 111.734  1.00  0.00    -0.344 OA
ATOM     14  C   UNL     1     130.550 113.416 112.949  1.00  0.00     0.179 C 
ATOM     15  C   UNL     1     129.516 113.799 111.850  1.00  0.00     0.202 C 
BRANCH  12  16
ATOM     16  O   UNL     1     129.135 112.620 114.758  1.00  0.00    -0.388 OA
ATOM     17  H   UNL     1     128.256 112.661 114.292  1.00  0.00     0.211 HD
ENDBRANCH  12  16
BRANCH  14  18
ATOM     18  O   UNL     1     130.869 114.530 113.763  1.00  0.00    -0.387 OA
ATOM     19  H   UNL     1     131.409 115.161 113.217  1.00  0.00     0.211 HD
ENDBRANCH  14  18
BRANCH  15  20
ATOM     20  O   UNL     1     130.154 113.787 110.594  1.00  0.00    -0.385 OA
ATOM     21  H   UNL     1     130.354 114.732 110.361  1.00  0.00     0.211 HD
ENDBRANCH  15  20
ENDBRANCH   8   9
ENDBRANCH   7   8
ENDBRANCH   1   7
BRANCH   2  22
ATOM     22  O   UNL     1     124.131 110.474 109.875  1.00  0.00    -0.387 OA
ATOM     23  H   UNL     1     123.696 110.523 108.974  1.00  0.00     0.211 HD
ENDBRANCH   2  22
BRANCH   3  24
ATOM     24  O   UNL     1     122.313 110.732 112.101  1.00  0.00    -0.387 OA
ATOM     25  H   UNL     1     121.983 110.613 111.174  1.00  0.00     0.211 HD
ENDBRANCH   3  24
BRANCH   5  26
ATOM     26  O   UNL     1     124.535 114.869 113.203  1.00  0.00    -0.454 OA
BRANCH  26  27
ATOM     27  C   UNL     1     124.981 115.181 114.503  1.00  0.00     0.214 A 
ATOM     28  C   UNL     1     124.028 115.574 115.452  1.00  0.00     0.180 A 
ATOM     29  C   UNL     1     126.345 115.185 114.882  1.00  0.00     0.239 A 
ATOM     30  O   UNL     1     124.391 115.880 116.686  1.00  0.00    -0.452 OA
ATOM     31  C   UNL     1     126.689 115.515 116.216  1.00  0.00     0.111 A 
ATOM     32  O   UNL     1     127.247 114.940 114.037  1.00  0.00    -0.285 OA
ATOM     33  C   UNL     1     125.649 115.854 117.100  1.00  0.00     0.146 A 
ATOM     34  C   UNL     1     128.031 115.545 116.674  1.00  0.00     0.134 A 
ATOM     35  C   UNL     1     125.931 116.190 118.427  1.00  0.00     0.094 A 
ATOM     36  C   UNL     1     128.300 115.910 118.002  1.00  0.00     0.093 A 
ATOM     37  C   UNL     1     127.257 116.220 118.877  1.00  0.00     0.123 A 
BRANCH  28  38
ATOM     38  C   UNL     1     122.599 115.657 115.118  1.00  0.00     0.025 A 
ATOM     39  C   UNL     1     122.197 116.045 113.832  1.00  0.00     0.062 A 
ATOM     40  C   UNL     1     121.640 115.216 116.040  1.00  0.00     0.016 A 
ATOM     41  C   UNL     1     120.847 115.977 113.455  1.00  0.00     0.158 A 
ATOM     42  C   UNL     1     120.295 115.181 115.680  1.00  0.00     0.051 A 
ATOM     43  C   UNL     1     119.890 115.540 114.387  1.00  0.00     0.157 A 
BRANCH  41  44
ATOM     44  O   UNL     1     120.481 116.325 112.151  1.00  0.00    -0.504 OA
ATOM     45  H   UNL     1     120.226 117.274 111.907  1.00  0.00     0.293 HD
ENDBRANCH  41  44
BRANCH  43  46
ATOM     46  O   UNL     1     118.553 115.433 114.022  1.00  0.00    -0.504 OA
ATOM     47  H   UNL     1     118.263 115.427 113.055  1.00  0.00     0.293 HD
ENDBRANCH  43  46
ENDBRANCH  28  38
BRANCH  34  48
ATOM     48  O   UNL     1     129.097 115.227 115.829  1.00  0.00    -0.507 OA
ATOM     49  H   UNL     1     129.893 115.832 115.712  1.00  0.00     0.293 HD
ENDBRANCH  34  48
BRANCH  37  50
ATOM     50  O   UNL     1     127.531 116.577 120.197  1.00  0.00    -0.508 OA
ATOM     51  H   UNL     1     127.112 117.391 120.620  1.00  0.00     0.293 HD
ENDBRANCH  37  50
ENDBRANCH  26  27
ENDBRANCH   5  26
BRANCH   4  52
ATOM     52  O   UNL     1     123.165 112.531 114.122  1.00  0.00    -0.384 OA
ATOM     53  H   UNL     1     123.388 113.365 114.617  1.00  0.00     0.211 HD
ENDBRANCH   4  52
TORSDOF 16
ENDMDL
MODEL 5
REMARK VINA RESULT:    -7.700      2.725      7.948
REMARK INTER + INTRA:         -14.563
REMARK INTER:                 -12.170
REMARK INTRA:                  -2.393
REMARK UNBOUND:                -1.913
REMARK SMILES C[C@@H]1O[C@H](OC[C@@H]2O[C@@H](Oc3c(-c4ccc(O)c(O)c4)oc4cc(O)cc(O)c4c3=O)[C@H](O)[C@@H](O)[C@@H]2O)[C@H](O)[C@@H](O)[C@H]1O
REMARK SMILES IDX 7 1 36 2 34 3 32 4 9 5 8 6 6 7 5 8 4 9 1 10 2 11 42 12 3 13
REMARK SMILES IDX 40 14 38 15 43 16 41 18 39 20 37 22 35 24 10 26 11 27 12 28
REMARK SMILES IDX 30 29 21 30 29 31 31 32 22 33 27 34 23 35 26 36 24 37 13 38
REMARK SMILES IDX 20 39 14 40 18 41 15 42 16 43 19 44 17 46 28 48 25 50 33 52
REMARK H PARENT 43 17 41 19 39 21 37 23 35 25 19 45 17 47 28 49 25 51 33 53
REMARK Flexibility Score: inf
ROOT
ATOM      1  C   UNL     1     125.075 112.617 110.329  1.00  0.00     0.180 C 
ATOM      2  C   UNL     1     123.875 111.632 110.470  1.00  0.00     0.177 C 
ATOM      3  C   UNL     1     123.497 111.427 111.950  1.00  0.00     0.180 C 
ATOM      4  C   UNL     1     123.365 112.780 112.641  1.00  0.00     0.214 C 
ATOM      5  C   UNL     1     124.653 113.621 112.433  1.00  0.00     0.339 C 
ATOM      6  O   UNL     1     124.880 113.831 111.048  1.00  0.00    -0.332 OA
ENDROOT
BRANCH   1   7
ATOM      7  C   UNL     1     126.471 111.983 110.601  1.00  0.00     0.198 C 
BRANCH   7   8
ATOM      8  O   UNL     1     127.490 112.951 110.804  1.00  0.00    -0.347 OA
BRANCH   8   9
ATOM      9  C   UNL     1     128.334 112.667 111.918  1.00  0.00     0.281 C 
ATOM     10  C   UNL     1     130.748 110.004 112.367  1.00  0.00     0.041 C 
ATOM     11  C   UNL     1     129.595 110.877 112.848  1.00  0.00     0.150 C 
ATOM     12  C   UNL     1     130.114 111.957 113.867  1.00  0.00     0.174 C 
ATOM     13  O   UNL     1     128.937 111.408 111.693  1.00  0.00    -0.344 OA
ATOM     14  C   UNL     1     130.502 113.269 113.138  1.00  0.00     0.179 C 
ATOM     15  C   UNL     1     129.462 113.707 112.065  1.00  0.00     0.202 C 
BRANCH  12  16
ATOM     16  O   UNL     1     129.110 112.204 114.823  1.00  0.00    -0.388 OA
ATOM     17  H   UNL     1     129.497 112.791 115.528  1.00  0.00     0.211 HD
ENDBRANCH  12  16
BRANCH  14  18
ATOM     18  O   UNL     1     130.742 114.307 114.072  1.00  0.00    -0.387 OA
ATOM     19  H   UNL     1     130.145 115.067 113.842  1.00  0.00     0.211 HD
ENDBRANCH  14  18
BRANCH  15  20
ATOM     20  O   UNL     1     130.118 113.868 110.828  1.00  0.00    -0.385 OA
ATOM     21  H   UNL     1     130.635 113.035 110.663  1.00  0.00     0.211 HD
ENDBRANCH  15  20
ENDBRANCH   8   9
ENDBRANCH   7   8
ENDBRANCH   1   7
BRANCH   2  22
ATOM     22  O   UNL     1     124.162 110.392 109.875  1.00  0.00    -0.387 OA
ATOM     23  H   UNL     1     123.884 109.686 110.528  1.00  0.00     0.211 HD
ENDBRANCH   2  22
BRANCH   3  24
ATOM     24  O   UNL     1     122.268 110.747 112.022  1.00  0.00    -0.387 OA
ATOM     25  H   UNL     1     121.583 111.423 112.258  1.00  0.00     0.211 HD
ENDBRANCH   3  24
BRANCH   5  26
ATOM     26  O   UNL     1     124.491 114.902 113.053  1.00  0.00    -0.454 OA
BRANCH  26  27
ATOM     27  C   UNL     1     125.443 115.573 113.847  1.00  0.00     0.214 A 
ATOM     28  C   UNL     1     125.128 115.817 115.191  1.00  0.00     0.180 A 
ATOM     29  C   UNL     1     126.668 116.075 113.345  1.00  0.00     0.239 A 
ATOM     30  O   UNL     1     125.983 116.446 115.981  1.00  0.00    -0.452 OA
ATOM     31  C   UNL     1     127.556 116.738 114.227  1.00  0.00     0.111 A 
ATOM     32  O   UNL     1     126.949 115.973 112.120  1.00  0.00    -0.285 OA
ATOM     33  C   UNL     1     127.159 116.892 115.568  1.00  0.00     0.146 A 
ATOM     34  C   UNL     1     128.799 117.271 113.802  1.00  0.00     0.134 A 
ATOM     35  C   UNL     1     127.995 117.539 116.482  1.00  0.00     0.094 A 
ATOM     36  C   UNL     1     129.615 117.942 114.725  1.00  0.00     0.093 A 
ATOM     37  C   UNL     1     129.223 118.066 116.059  1.00  0.00     0.123 A 
BRANCH  28  38
ATOM     38  C   UNL     1     123.849 115.385 115.773  1.00  0.00     0.025 A 
ATOM     39  C   UNL     1     123.820 114.359 116.727  1.00  0.00     0.062 A 
ATOM     40  C   UNL     1     122.674 116.091 115.478  1.00  0.00     0.016 A 
ATOM     41  C   UNL     1     122.630 114.046 117.402  1.00  0.00     0.158 A 
ATOM     42  C   UNL     1     121.484 115.759 116.121  1.00  0.00     0.051 A 
ATOM     43  C   UNL     1     121.454 114.753 117.097  1.00  0.00     0.157 A 
BRANCH  41  44
ATOM     44  O   UNL     1     122.640 113.049 118.383  1.00  0.00    -0.504 OA
ATOM     45  H   UNL     1     122.954 113.236 119.327  1.00  0.00     0.293 HD
ENDBRANCH  41  44
BRANCH  43  46
ATOM     46  O   UNL     1     120.275 114.481 117.779  1.00  0.00    -0.504 OA
ATOM     47  H   UNL     1     119.454 114.130 117.307  1.00  0.00     0.293 HD
ENDBRANCH  43  46
ENDBRANCH  28  38
BRANCH  34  48
ATOM     48  O   UNL     1     129.229 117.152 112.477  1.00  0.00    -0.507 OA
ATOM     49  H   UNL     1     129.467 117.951 111.913  1.00  0.00     0.293 HD
ENDBRANCH  34  48
BRANCH  37  50
ATOM     50  O   UNL     1     130.041 118.729 116.973  1.00  0.00    -0.508 OA
ATOM     51  H   UNL     1     130.741 118.238 117.507  1.00  0.00     0.293 HD
ENDBRANCH  37  50
ENDBRANCH  26  27
ENDBRANCH   5  26
BRANCH   4  52
ATOM     52  O   UNL     1     123.065 112.612 114.007  1.00  0.00    -0.384 OA
ATOM     53  H   UNL     1     122.088 112.443 114.093  1.00  0.00     0.211 HD
ENDBRANCH   4  52
TORSDOF 16
ENDMDL
MODEL 6
REMARK VINA RESULT:    -7.656      1.888      2.908
REMARK INTER + INTRA:         -14.492
REMARK INTER:                 -12.076
REMARK INTRA:                  -2.416
REMARK UNBOUND:                -1.913
REMARK SMILES C[C@@H]1O[C@H](OC[C@@H]2O[C@@H](Oc3c(-c4ccc(O)c(O)c4)oc4cc(O)cc(O)c4c3=O)[C@H](O)[C@@H](O)[C@@H]2O)[C@H](O)[C@@H](O)[C@H]1O
REMARK SMILES IDX 7 1 36 2 34 3 32 4 9 5 8 6 6 7 5 8 4 9 1 10 2 11 42 12 3 13
REMARK SMILES IDX 40 14 38 15 43 16 41 18 39 20 37 22 35 24 10 26 11 27 12 28
REMARK SMILES IDX 30 29 21 30 29 31 31 32 22 33 27 34 23 35 26 36 24 37 13 38
REMARK SMILES IDX 20 39 14 40 18 41 15 42 16 43 19 44 17 46 28 48 25 50 33 52
REMARK H PARENT 43 17 41 19 39 21 37 23 35 25 19 45 17 47 28 49 25 51 33 53
REMARK Flexibility Score: inf
ROOT
ATOM      1  C   UNL     1     122.370 115.106 115.896  1.00  0.00     0.180 C 
ATOM      2  C   UNL     1     121.073 114.988 115.038  1.00  0.00     0.177 C 
ATOM      3  C   UNL     1     121.119 115.945 113.831  1.00  0.00     0.180 C 
ATOM      4  C   UNL     1     122.448 115.790 113.100  1.00  0.00     0.214 C 
ATOM      5  C   UNL     1     123.633 115.969 114.088  1.00  0.00     0.339 C 
ATOM      6  O   UNL     1     123.558 114.997 115.119  1.00  0.00    -0.332 OA
ENDROOT
BRANCH   1   7
ATOM      7  C   UNL     1     122.400 116.327 116.863  1.00  0.00     0.198 C 
BRANCH   7   8
ATOM      8  O   UNL     1     121.981 116.003 118.179  1.00  0.00    -0.347 OA
BRANCH   8   9
ATOM      9  C   UNL     1     122.999 115.395 118.971  1.00  0.00     0.281 C 
ATOM     10  C   UNL     1     126.415 116.453 119.548  1.00  0.00     0.041 C 
ATOM     11  C   UNL     1     125.364 115.397 119.224  1.00  0.00     0.150 C 
ATOM     12  C   UNL     1     125.091 114.493 120.481  1.00  0.00     0.174 C 
ATOM     13  O   UNL     1     124.213 116.071 118.706  1.00  0.00    -0.344 OA
ATOM     14  C   UNL     1     123.927 115.060 121.333  1.00  0.00     0.179 C 
ATOM     15  C   UNL     1     122.710 115.525 120.479  1.00  0.00     0.202 C 
BRANCH  12  16
ATOM     16  O   UNL     1     124.792 113.187 120.049  1.00  0.00    -0.388 OA
ATOM     17  H   UNL     1     124.589 113.226 119.075  1.00  0.00     0.211 HD
ENDBRANCH  12  16
BRANCH  14  18
ATOM     18  O   UNL     1     123.531 114.129 122.323  1.00  0.00    -0.387 OA
ATOM     19  H   UNL     1     122.651 114.419 122.680  1.00  0.00     0.211 HD
ENDBRANCH  14  18
BRANCH  15  20
ATOM     20  O   UNL     1     122.418 116.869 120.788  1.00  0.00    -0.385 OA
ATOM     21  H   UNL     1     123.287 117.334 120.913  1.00  0.00     0.211 HD
ENDBRANCH  15  20
ENDBRANCH   8   9
ENDBRANCH   7   8
ENDBRANCH   1   7
BRANCH   2  22
ATOM     22  O   UNL     1     119.928 115.247 115.809  1.00  0.00    -0.387 OA
ATOM     23  H   UNL     1     119.137 115.085 115.216  1.00  0.00     0.211 HD
ENDBRANCH   2  22
BRANCH   3  24
ATOM     24  O   UNL     1     120.067 115.630 112.953  1.00  0.00    -0.387 OA
ATOM     25  H   UNL     1     120.412 114.940 112.332  1.00  0.00     0.211 HD
ENDBRANCH   3  24
BRANCH   5  26
ATOM     26  O   UNL     1     124.868 115.778 113.389  1.00  0.00    -0.454 OA
BRANCH  26  27
ATOM     27  C   UNL     1     126.063 115.261 113.929  1.00  0.00     0.214 A 
ATOM     28  C   UNL     1     126.459 113.972 113.545  1.00  0.00     0.180 A 
ATOM     29  C   UNL     1     126.848 115.943 114.890  1.00  0.00     0.239 A 
ATOM     30  O   UNL     1     127.571 113.437 114.023  1.00  0.00    -0.452 OA
ATOM     31  C   UNL     1     128.033 115.336 115.371  1.00  0.00     0.111 A 
ATOM     32  O   UNL     1     126.478 117.060 115.344  1.00  0.00    -0.285 OA
ATOM     33  C   UNL     1     128.360 114.056 114.887  1.00  0.00     0.146 A 
ATOM     34  C   UNL     1     128.871 115.951 116.335  1.00  0.00     0.134 A 
ATOM     35  C   UNL     1     129.517 113.408 115.329  1.00  0.00     0.094 A 
ATOM     36  C   UNL     1     130.015 115.277 116.788  1.00  0.00     0.093 A 
ATOM     37  C   UNL     1     130.343 114.018 116.282  1.00  0.00     0.123 A 
BRANCH  28  38
ATOM     38  C   UNL     1     125.664 113.172 112.601  1.00  0.00     0.025 A 
ATOM     39  C   UNL     1     124.611 112.374 113.068  1.00  0.00     0.062 A 
ATOM     40  C   UNL     1     125.869 113.314 111.222  1.00  0.00     0.016 A 
ATOM     41  C   UNL     1     123.749 111.732 112.166  1.00  0.00     0.158 A 
ATOM     42  C   UNL     1     125.036 112.650 110.325  1.00  0.00     0.051 A 
ATOM     43  C   UNL     1     123.963 111.872 110.784  1.00  0.00     0.157 A 
BRANCH  41  44
ATOM     44  O   UNL     1     122.678 110.980 112.658  1.00  0.00    -0.504 OA
ATOM     45  H   UNL     1     122.526 110.021 112.372  1.00  0.00     0.293 HD
ENDBRANCH  41  44
BRANCH  43  46
ATOM     46  O   UNL     1     123.100 111.272 109.875  1.00  0.00    -0.504 OA
ATOM     47  H   UNL     1     123.195 111.410 108.880  1.00  0.00     0.293 HD
ENDBRANCH  43  46
ENDBRANCH  28  38
BRANCH  34  48
ATOM     48  O   UNL     1     128.580 117.217 116.852  1.00  0.00    -0.507 OA
ATOM     49  H   UNL     1     128.845 118.067 116.382  1.00  0.00     0.293 HD
ENDBRANCH  34  48
BRANCH  37  50
ATOM     50  O   UNL     1     131.484 113.355 116.733  1.00  0.00    -0.508 OA
ATOM     51  H   UNL     1     131.807 112.506 116.296  1.00  0.00     0.293 HD
ENDBRANCH  37  50
ENDBRANCH  26  27
ENDBRANCH   5  26
BRANCH   4  52
ATOM     52  O   UNL     1     122.528 116.690 112.019  1.00  0.00    -0.384 OA
ATOM     53  H   UNL     1     121.688 116.619 111.492  1.00  0.00     0.211 HD
ENDBRANCH   4  52
TORSDOF 16
ENDMDL
MODEL 7
REMARK VINA RESULT:    -7.603      2.405      4.207
REMARK INTER + INTRA:         -14.404
REMARK INTER:                 -11.253
REMARK INTRA:                  -3.151
REMARK UNBOUND:                -1.913
REMARK SMILES C[C@@H]1O[C@H](OC[C@@H]2O[C@@H](Oc3c(-c4ccc(O)c(O)c4)oc4cc(O)cc(O)c4c3=O)[C@H](O)[C@@H](O)[C@@H]2O)[C@H](O)[C@@H](O)[C@H]1O
REMARK SMILES IDX 7 1 36 2 34 3 32 4 9 5 8 6 6 7 5 8 4 9 1 10 2 11 42 12 3 13
REMARK SMILES IDX 40 14 38 15 43 16 41 18 39 20 37 22 35 24 10 26 11 27 12 28
REMARK SMILES IDX 30 29 21 30 29 31 31 32 22 33 27 34 23 35 26 36 24 37 13 38
REMARK SMILES IDX 20 39 14 40 18 41 15 42 16 43 19 44 17 46 28 48 25 50 33 52
REMARK H PARENT 43 17 41 19 39 21 37 23 35 25 19 45 17 47 28 49 25 51 33 53
REMARK Flexibility Score: inf
ROOT
ATOM      1  C   UNL     1     124.976 116.340 118.689  1.00  0.00     0.180 C 
ATOM      2  C   UNL     1     126.179 117.237 119.111  1.00  0.00     0.177 C 
ATOM      3  C   UNL     1     127.429 116.918 118.269  1.00  0.00     0.180 C 
ATOM      4  C   UNL     1     127.065 116.904 116.789  1.00  0.00     0.214 C 
ATOM      5  C   UNL     1     125.875 115.939 116.534  1.00  0.00     0.339 C 
ATOM      6  O   UNL     1     124.743 116.353 117.284  1.00  0.00    -0.332 OA
ENDROOT
BRANCH   1   7
ATOM      7  C   UNL     1     125.005 114.896 119.273  1.00  0.00     0.198 C 
BRANCH   7   8
ATOM      8  O   UNL     1     123.845 114.579 120.027  1.00  0.00    -0.347 OA
BRANCH   8   9
ATOM      9  C   UNL     1     123.071 115.720 120.392  1.00  0.00     0.281 C 
ATOM     10  C   UNL     1     119.484 116.051 120.773  1.00  0.00     0.041 C 
ATOM     11  C   UNL     1     120.839 116.532 120.265  1.00  0.00     0.150 C 
ATOM     12  C   UNL     1     121.367 117.717 121.155  1.00  0.00     0.174 C 
ATOM     13  O   UNL     1     121.708 115.397 120.198  1.00  0.00    -0.344 OA
ATOM     14  C   UNL     1     122.246 117.190 122.318  1.00  0.00     0.179 C 
ATOM     15  C   UNL     1     123.257 116.091 121.876  1.00  0.00     0.202 C 
BRANCH  12  16
ATOM     16  O   UNL     1     122.102 118.604 120.346  1.00  0.00    -0.388 OA
ATOM     17  H   UNL     1     122.763 118.069 119.828  1.00  0.00     0.211 HD
ENDBRANCH  12  16
BRANCH  14  18
ATOM     18  O   UNL     1     122.906 118.261 122.970  1.00  0.00    -0.387 OA
ATOM     19  H   UNL     1     122.550 119.110 122.596  1.00  0.00     0.211 HD
ENDBRANCH  14  18
BRANCH  15  20
ATOM     20  O   UNL     1     123.068 114.946 122.675  1.00  0.00    -0.385 OA
ATOM     21  H   UNL     1     122.999 115.256 123.617  1.00  0.00     0.211 HD
ENDBRANCH  15  20
ENDBRANCH   8   9
ENDBRANCH   7   8
ENDBRANCH   1   7
BRANCH   2  22
ATOM     22  O   UNL     1     126.472 117.084 120.477  1.00  0.00    -0.387 OA
ATOM     23  H   UNL     1     127.414 116.748 120.535  1.00  0.00     0.211 HD
ENDBRANCH   2  22
BRANCH   3  24
ATOM     24  O   UNL     1     128.403 117.907 118.498  1.00  0.00    -0.387 OA
ATOM     25  H   UNL     1     127.917 118.731 118.754  1.00  0.00     0.211 HD
ENDBRANCH   3  24
BRANCH   5  26
ATOM     26  O   UNL     1     125.522 115.974 115.147  1.00  0.00    -0.454 OA
BRANCH  26  27
ATOM     27  C   UNL     1     125.650 114.915 114.225  1.00  0.00     0.214 A 
ATOM     28  C   UNL     1     124.602 113.991 114.130  1.00  0.00     0.180 A 
ATOM     29  C   UNL     1     126.808 114.697 113.440  1.00  0.00     0.239 A 
ATOM     30  O   UNL     1     124.670 112.977 113.283  1.00  0.00    -0.452 OA
ATOM     31  C   UNL     1     126.837 113.602 112.543  1.00  0.00     0.111 A 
ATOM     32  O   UNL     1     127.818 115.440 113.566  1.00  0.00    -0.285 OA
ATOM     33  C   UNL     1     125.712 112.759 112.496  1.00  0.00     0.146 A 
ATOM     34  C   UNL     1     127.959 113.312 111.725  1.00  0.00     0.134 A 
ATOM     35  C   UNL     1     125.686 111.662 111.630  1.00  0.00     0.094 A 
ATOM     36  C   UNL     1     127.929 112.193 110.880  1.00  0.00     0.093 A 
ATOM     37  C   UNL     1     126.797 111.378 110.824  1.00  0.00     0.123 A 
BRANCH  28  38
ATOM     38  C   UNL     1     123.392 114.112 114.957  1.00  0.00     0.025 A 
ATOM     39  C   UNL     1     123.326 113.477 116.205  1.00  0.00     0.062 A 
ATOM     40  C   UNL     1     122.359 114.973 114.562  1.00  0.00     0.016 A 
ATOM     41  C   UNL     1     122.246 113.712 117.069  1.00  0.00     0.158 A 
ATOM     42  C   UNL     1     121.269 115.182 115.403  1.00  0.00     0.051 A 
ATOM     43  C   UNL     1     121.210 114.572 116.665  1.00  0.00     0.157 A 
BRANCH  41  44
ATOM     44  O   UNL     1     122.229 113.102 118.328  1.00  0.00    -0.504 OA
ATOM     45  H   UNL     1     121.363 112.819 118.769  1.00  0.00     0.293 HD
ENDBRANCH  41  44
BRANCH  43  46
ATOM     46  O   UNL     1     120.149 114.844 117.520  1.00  0.00    -0.504 OA
ATOM     47  H   UNL     1     120.292 115.238 118.438  1.00  0.00     0.293 HD
ENDBRANCH  43  46
ENDBRANCH  28  38
BRANCH  34  48
ATOM     48  O   UNL     1     129.103 114.115 111.747  1.00  0.00    -0.507 OA
ATOM     49  H   UNL     1     130.012 113.754 111.985  1.00  0.00     0.293 HD
ENDBRANCH  34  48
BRANCH  37  50
ATOM     50  O   UNL     1     126.771 110.269 109.979  1.00  0.00    -0.508 OA
ATOM     51  H   UNL     1     126.154 110.228 109.182  1.00  0.00     0.293 HD
ENDBRANCH  37  50
ENDBRANCH  26  27
ENDBRANCH   5  26
BRANCH   4  52
ATOM     52  O   UNL     1     128.186 116.570 116.005  1.00  0.00    -0.384 OA
ATOM     53  H   UNL     1     127.867 116.312 115.099  1.00  0.00     0.211 HD
ENDBRANCH   4  52
TORSDOF 16
ENDMDL
MODEL 8
REMARK VINA RESULT:    -7.582      3.701      5.999
REMARK INTER + INTRA:         -14.371
REMARK INTER:                 -11.142
REMARK INTRA:                  -3.228
REMARK UNBOUND:                -1.913
REMARK SMILES C[C@@H]1O[C@H](OC[C@@H]2O[C@@H](Oc3c(-c4ccc(O)c(O)c4)oc4cc(O)cc(O)c4c3=O)[C@H](O)[C@@H](O)[C@@H]2O)[C@H](O)[C@@H](O)[C@H]1O
REMARK SMILES IDX 7 1 36 2 34 3 32 4 9 5 8 6 6 7 5 8 4 9 1 10 2 11 42 12 3 13
REMARK SMILES IDX 40 14 38 15 43 16 41 18 39 20 37 22 35 24 10 26 11 27 12 28
REMARK SMILES IDX 30 29 21 30 29 31 31 32 22 33 27 34 23 35 26 36 24 37 13 38
REMARK SMILES IDX 20 39 14 40 18 41 15 42 16 43 19 44 17 46 28 48 25 50 33 52
REMARK H PARENT 43 17 41 19 39 21 37 23 35 25 19 45 17 47 28 49 25 51 33 53
REMARK Flexibility Score: inf
ROOT
ATOM      1  C   UNL     1     124.763 118.010 118.210  1.00  0.00     0.180 C 
ATOM      2  C   UNL     1     125.633 119.213 117.734  1.00  0.00     0.177 C 
ATOM      3  C   UNL     1     126.264 118.929 116.357  1.00  0.00     0.180 C 
ATOM      4  C   UNL     1     125.196 118.425 115.393  1.00  0.00     0.214 C 
ATOM      5  C   UNL     1     124.448 117.209 116.004  1.00  0.00     0.339 C 
ATOM      6  O   UNL     1     123.829 117.581 117.226  1.00  0.00    -0.332 OA
ENDROOT
BRANCH   1   7
ATOM      7  C   UNL     1     125.570 116.827 118.822  1.00  0.00     0.198 C 
BRANCH   7   8
ATOM      8  O   UNL     1     126.041 117.095 120.133  1.00  0.00    -0.347 OA
BRANCH   8   9
ATOM      9  C   UNL     1     125.388 116.330 121.144  1.00  0.00     0.281 C 
ATOM     10  C   UNL     1     126.508 115.478 124.482  1.00  0.00     0.041 C 
ATOM     11  C   UNL     1     125.885 115.128 123.135  1.00  0.00     0.150 C 
ATOM     12  C   UNL     1     124.324 114.988 123.275  1.00  0.00     0.174 C 
ATOM     13  O   UNL     1     126.318 116.106 122.185  1.00  0.00    -0.344 OA
ATOM     14  C   UNL     1     123.617 116.339 122.992  1.00  0.00     0.179 C 
ATOM     15  C   UNL     1     124.183 117.081 121.745  1.00  0.00     0.202 C 
BRANCH  12  16
ATOM     16  O   UNL     1     123.871 114.000 122.379  1.00  0.00    -0.388 OA
ATOM     17  H   UNL     1     123.373 113.317 122.905  1.00  0.00     0.211 HD
ENDBRANCH  12  16
BRANCH  14  18
ATOM     18  O   UNL     1     122.217 116.157 122.886  1.00  0.00    -0.387 OA
ATOM     19  H   UNL     1     121.836 116.968 122.457  1.00  0.00     0.211 HD
ENDBRANCH  14  18
BRANCH  15  20
ATOM     20  O   UNL     1     124.580 118.379 122.124  1.00  0.00    -0.385 OA
ATOM     21  H   UNL     1     125.567 118.361 122.235  1.00  0.00     0.211 HD
ENDBRANCH  15  20
ENDBRANCH   8   9
ENDBRANCH   7   8
ENDBRANCH   1   7
BRANCH   2  22
ATOM     22  O   UNL     1     126.639 119.514 118.667  1.00  0.00    -0.387 OA
ATOM     23  H   UNL     1     127.214 120.223 118.255  1.00  0.00     0.211 HD
ENDBRANCH   2  22
BRANCH   3  24
ATOM     24  O   UNL     1     126.821 120.118 115.852  1.00  0.00    -0.387 OA
ATOM     25  H   UNL     1     126.828 120.769 116.598  1.00  0.00     0.211 HD
ENDBRANCH   3  24
BRANCH   5  26
ATOM     26  O   UNL     1     123.422 116.779 115.102  1.00  0.00    -0.454 OA
BRANCH  26  27
ATOM     27  C   UNL     1     123.438 115.612 114.312  1.00  0.00     0.214 A 
ATOM     28  C   UNL     1     123.119 114.393 114.926  1.00  0.00     0.180 A 
ATOM     29  C   UNL     1     123.825 115.593 112.950  1.00  0.00     0.239 A 
ATOM     30  O   UNL     1     123.121 113.266 114.233  1.00  0.00    -0.452 OA
ATOM     31  C   UNL     1     123.808 114.366 112.244  1.00  0.00     0.111 A 
ATOM     32  O   UNL     1     124.220 116.647 112.381  1.00  0.00    -0.285 OA
ATOM     33  C   UNL     1     123.431 113.207 112.947  1.00  0.00     0.146 A 
ATOM     34  C   UNL     1     124.183 114.262 110.881  1.00  0.00     0.134 A 
ATOM     35  C   UNL     1     123.397 111.968 112.301  1.00  0.00     0.094 A 
ATOM     36  C   UNL     1     124.171 113.008 110.253  1.00  0.00     0.093 A 
ATOM     37  C   UNL     1     123.771 111.869 110.954  1.00  0.00     0.123 A 
BRANCH  28  38
ATOM     38  C   UNL     1     122.770 114.319 116.353  1.00  0.00     0.025 A 
ATOM     39  C   UNL     1     123.692 113.812 117.278  1.00  0.00     0.062 A 
ATOM     40  C   UNL     1     121.569 114.882 116.807  1.00  0.00     0.016 A 
ATOM     41  C   UNL     1     123.431 113.881 118.655  1.00  0.00     0.158 A 
ATOM     42  C   UNL     1     121.293 114.921 118.171  1.00  0.00     0.051 A 
ATOM     43  C   UNL     1     122.223 114.441 119.105  1.00  0.00     0.157 A 
BRANCH  41  44
ATOM     44  O   UNL     1     124.390 113.410 119.559  1.00  0.00    -0.504 OA
ATOM     45  H   UNL     1     125.170 112.841 119.256  1.00  0.00     0.293 HD
ENDBRANCH  41  44
BRANCH  43  46
ATOM     46  O   UNL     1     121.963 114.550 120.465  1.00  0.00    -0.504 OA
ATOM     47  H   UNL     1     121.660 113.759 121.015  1.00  0.00     0.293 HD
ENDBRANCH  43  46
ENDBRANCH  28  38
BRANCH  34  48
ATOM     48  O   UNL     1     124.576 115.385 110.146  1.00  0.00    -0.507 OA
ATOM     49  H   UNL     1     123.968 115.835 109.482  1.00  0.00     0.293 HD
ENDBRANCH  34  48
BRANCH  37  50
ATOM     50  O   UNL     1     123.755 110.625 110.323  1.00  0.00    -0.508 OA
ATOM     51  H   UNL     1     122.893 110.130 110.155  1.00  0.00     0.293 HD
ENDBRANCH  37  50
ENDBRANCH  26  27
ENDBRANCH   5  26
BRANCH   4  52
ATOM     52  O   UNL     1     125.762 118.117 114.142  1.00  0.00    -0.384 OA
ATOM     53  H   UNL     1     125.697 117.134 114.004  1.00  0.00     0.211 HD
ENDBRANCH   4  52
TORSDOF 16
ENDMDL
MODEL 9
REMARK VINA RESULT:    -7.575      2.721      4.673
REMARK INTER + INTRA:         -14.358
REMARK INTER:                 -11.727
REMARK INTRA:                  -2.631
REMARK UNBOUND:                -1.913
REMARK SMILES C[C@@H]1O[C@H](OC[C@@H]2O[C@@H](Oc3c(-c4ccc(O)c(O)c4)oc4cc(O)cc(O)c4c3=O)[C@H](O)[C@@H](O)[C@@H]2O)[C@H](O)[C@@H](O)[C@H]1O
REMARK SMILES IDX 7 1 36 2 34 3 32 4 9 5 8 6 6 7 5 8 4 9 1 10 2 11 42 12 3 13
REMARK SMILES IDX 40 14 38 15 43 16 41 18 39 20 37 22 35 24 10 26 11 27 12 28
REMARK SMILES IDX 30 29 21 30 29 31 31 32 22 33 27 34 23 35 26 36 24 37 13 38
REMARK SMILES IDX 20 39 14 40 18 41 15 42 16 43 19 44 17 46 28 48 25 50 33 52
REMARK H PARENT 43 17 41 19 39 21 37 23 35 25 19 45 17 47 28 49 25 51 33 53
REMARK Flexibility Score: inf
ROOT
ATOM      1  C   UNL     1     122.362 114.928 116.002  1.00  0.00     0.180 C 
ATOM      2  C   UNL     1     120.819 114.705 115.980  1.00  0.00     0.177 C 
ATOM      3  C   UNL     1     120.128 115.714 115.043  1.00  0.00     0.180 C 
ATOM      4  C   UNL     1     120.841 115.741 113.695  1.00  0.00     0.214 C 
ATOM      5  C   UNL     1     122.358 116.005 113.892  1.00  0.00     0.339 C 
ATOM      6  O   UNL     1     122.930 114.986 114.697  1.00  0.00    -0.332 OA
ENDROOT
BRANCH   1   7
ATOM      7  C   UNL     1     122.837 116.101 116.910  1.00  0.00     0.198 C 
BRANCH   7   8
ATOM      8  O   UNL     1     123.064 115.704 118.254  1.00  0.00    -0.347 OA
BRANCH   8   9
ATOM      9  C   UNL     1     122.410 116.533 119.213  1.00  0.00     0.281 C 
ATOM     10  C   UNL     1     119.163 118.132 119.051  1.00  0.00     0.041 C 
ATOM     11  C   UNL     1     120.658 118.136 119.353  1.00  0.00     0.150 C 
ATOM     12  C   UNL     1     120.903 118.063 120.905  1.00  0.00     0.174 C 
ATOM     13  O   UNL     1     121.259 117.078 118.598  1.00  0.00    -0.344 OA
ATOM     14  C   UNL     1     121.044 116.593 121.377  1.00  0.00     0.179 C 
ATOM     15  C   UNL     1     121.948 115.731 120.446  1.00  0.00     0.202 C 
BRANCH  12  16
ATOM     16  O   UNL     1     122.065 118.794 121.219  1.00  0.00    -0.388 OA
ATOM     17  H   UNL     1     122.477 118.380 122.025  1.00  0.00     0.211 HD
ENDBRANCH  12  16
BRANCH  14  18
ATOM     18  O   UNL     1     121.495 116.540 122.719  1.00  0.00    -0.387 OA
ATOM     19  H   UNL     1     122.487 116.488 122.705  1.00  0.00     0.211 HD
ENDBRANCH  14  18
BRANCH  15  20
ATOM     20  O   UNL     1     121.224 114.597 120.025  1.00  0.00    -0.385 OA
ATOM     21  H   UNL     1     120.405 114.927 119.570  1.00  0.00     0.211 HD
ENDBRANCH  15  20
ENDBRANCH   8   9
ENDBRANCH   7   8
ENDBRANCH   1   7
BRANCH   2  22
ATOM     22  O   UNL     1     120.273 114.801 117.271  1.00  0.00    -0.387 OA
ATOM     23  H   UNL     1     119.789 115.677 117.316  1.00  0.00     0.211 HD
ENDBRANCH   2  22
BRANCH   3  24
ATOM     24  O   UNL     1     118.790 115.325 114.852  1.00  0.00    -0.387 OA
ATOM     25  H   UNL     1     118.623 114.571 115.472  1.00  0.00     0.211 HD
ENDBRANCH   3  24
BRANCH   5  26
ATOM     26  O   UNL     1     123.015 115.984 112.620  1.00  0.00    -0.454 OA
BRANCH  26  27
ATOM     27  C   UNL     1     123.919 115.005 112.161  1.00  0.00     0.214 A 
ATOM     28  C   UNL     1     125.289 115.295 112.209  1.00  0.00     0.180 A 
ATOM     29  C   UNL     1     123.516 113.773 111.591  1.00  0.00     0.239 A 
ATOM     30  O   UNL     1     126.182 114.414 111.789  1.00  0.00    -0.452 OA
ATOM     31  C   UNL     1     124.505 112.856 111.158  1.00  0.00     0.111 A 
ATOM     32  O   UNL     1     122.294 113.510 111.430  1.00  0.00    -0.285 OA
ATOM     33  C   UNL     1     125.854 113.231 111.292  1.00  0.00     0.146 A 
ATOM     34  C   UNL     1     124.184 111.605 110.575  1.00  0.00     0.134 A 
ATOM     35  C   UNL     1     126.872 112.366 110.880  1.00  0.00     0.094 A 
ATOM     36  C   UNL     1     125.216 110.758 110.142  1.00  0.00     0.093 A 
ATOM     37  C   UNL     1     126.551 111.131 110.303  1.00  0.00     0.123 A 
BRANCH  28  38
ATOM     38  C   UNL     1     125.786 116.579 112.727  1.00  0.00     0.025 A 
ATOM     39  C   UNL     1     126.145 116.701 114.076  1.00  0.00     0.062 A 
ATOM     40  C   UNL     1     126.031 117.640 111.845  1.00  0.00     0.016 A 
ATOM     41  C   UNL     1     126.766 117.869 114.546  1.00  0.00     0.158 A 
ATOM     42  C   UNL     1     126.614 118.814 112.315  1.00  0.00     0.051 A 
ATOM     43  C   UNL     1     127.003 118.932 113.658  1.00  0.00     0.157 A 
BRANCH  41  44
ATOM     44  O   UNL     1     127.157 117.947 115.887  1.00  0.00    -0.504 OA
ATOM     45  H   UNL     1     127.530 117.144 116.378  1.00  0.00     0.293 HD
ENDBRANCH  41  44
BRANCH  43  46
ATOM     46  O   UNL     1     127.647 120.083 114.096  1.00  0.00    -0.504 OA
ATOM     47  H   UNL     1     127.169 120.788 114.637  1.00  0.00     0.293 HD
ENDBRANCH  43  46
ENDBRANCH  28  38
BRANCH  34  48
ATOM     48  O   UNL     1     122.858 111.195 110.412  1.00  0.00    -0.507 OA
ATOM     49  H   UNL     1     122.094 111.848 110.354  1.00  0.00     0.293 HD
ENDBRANCH  34  48
BRANCH  37  50
ATOM     50  O   UNL     1     127.573 110.283 109.875  1.00  0.00    -0.508 OA
ATOM     51  H   UNL     1     127.719 110.085 108.897  1.00  0.00     0.293 HD
ENDBRANCH  37  50
ENDBRANCH  26  27
ENDBRANCH   5  26
BRANCH   4  52
ATOM     52  O   UNL     1     120.251 116.691 112.840  1.00  0.00    -0.384 OA
ATOM     53  H   UNL     1     120.817 116.771 112.026  1.00  0.00     0.211 HD
ENDBRANCH   4  52
TORSDOF 16
ENDMDL
