MODEL 1
REMARK VINA RESULT:    -3.323      0.000      0.000
REMARK INTER + INTRA:          -8.120
REMARK INTER:                  -7.209
REMARK INTRA:                  -0.911
REMARK UNBOUND:                -0.911
REMARK SMILES CCCCCCCCCCCCCCCCCCCCCC(=O)[O-]
REMARK SMILES IDX 12 1 11 2 10 3 9 4 8 5 7 6 6 7 5 8 4 9 3 10 2 11 1 12 13 13
REMARK SMILES IDX 14 14 15 15 16 16 17 17 18 18 19 19 20 20 21 21 22 22 23 23
REMARK SMILES IDX 24 24
REMARK H PARENT
REMARK Flexibility Score: inf
ROOT
ATOM      1  C   UNL     1      13.425  -7.617   5.363  1.00  0.00     0.000 C 
ENDROOT
BRANCH   1   2
ATOM      2  C   UNL     1      12.087  -8.265   4.964  1.00  0.00     0.000 C 
BRANCH   2   3
ATOM      3  C   UNL     1      10.877  -7.425   5.401  1.00  0.00     0.000 C 
BRANCH   3   4
ATOM      4  C   UNL     1       9.539  -8.119   5.093  1.00  0.00    -0.000 C 
BRANCH   4   5
ATOM      5  C   UNL     1       9.273  -9.331   6.004  1.00  0.00    -0.000 C 
BRANCH   5   6
ATOM      6  C   UNL     1       8.474  -9.022   7.286  1.00  0.00    -0.000 C 
BRANCH   6   7
ATOM      7  C   UNL     1       7.053  -8.472   7.061  1.00  0.00    -0.000 C 
BRANCH   7   8
ATOM      8  C   UNL     1       6.220  -9.342   6.105  1.00  0.00    -0.000 C 
BRANCH   8   9
ATOM      9  C   UNL     1       5.395  -8.504   5.114  1.00  0.00    -0.000 C 
BRANCH   9  10
ATOM     10  C   UNL     1       5.515  -6.992   5.374  1.00  0.00    -0.000 C 
BRANCH  10  11
ATOM     11  C   UNL     1       4.632  -6.162   4.428  1.00  0.00    -0.003 C 
ATOM     12  C   UNL     1       3.257  -6.789   4.202  1.00  0.00     0.004 C 
ENDBRANCH  10  11
ENDBRANCH   9  10
ENDBRANCH   8   9
ENDBRANCH   7   8
ENDBRANCH   6   7
ENDBRANCH   5   6
ENDBRANCH   4   5
ENDBRANCH   3   4
ENDBRANCH   2   3
ENDBRANCH   1   2
BRANCH   1  13
ATOM     13  C   UNL     1      14.242  -8.494   6.323  1.00  0.00     0.000 C 
BRANCH  13  14
ATOM     14  C   UNL     1      15.682  -7.982   6.508  1.00  0.00     0.000 C 
BRANCH  14  15
ATOM     15  C   UNL     1      16.421  -7.802   5.173  1.00  0.00     0.000 C 
BRANCH  15  16
ATOM     16  C   UNL     1      17.786  -7.113   5.342  1.00  0.00     0.000 C 
BRANCH  16  17
ATOM     17  C   UNL     1      18.790  -7.508   4.248  1.00  0.00     0.000 C 
BRANCH  17  18
ATOM     18  C   UNL     1      19.039  -9.026   4.197  1.00  0.00     0.000 C 
BRANCH  18  19
ATOM     19  C   UNL     1      18.876  -9.706   5.568  1.00  0.00     0.000 C 
BRANCH  19  20
ATOM     20  C   UNL     1      19.958  -9.353   6.611  1.00  0.00     0.006 C 
BRANCH  20  21
ATOM     21  C   UNL     1      19.844 -10.125   7.935  1.00  0.00     0.053 C 
BRANCH  21  22
ATOM     22  C   UNL     1      19.662  -9.208   9.105  1.00  0.00     0.041 C 
ATOM     23  O   UNL     1      19.836  -9.634  10.277  1.00  0.00    -0.550 OA
ATOM     24  O   UNL     1      19.335  -7.874   8.900  1.00  0.00    -0.550 OA
ENDBRANCH  21  22
ENDBRANCH  20  21
ENDBRANCH  19  20
ENDBRANCH  18  19
ENDBRANCH  17  18
ENDBRANCH  16  17
ENDBRANCH  15  16
ENDBRANCH  14  15
ENDBRANCH  13  14
ENDBRANCH   1  13
TORSDOF 20
ENDMDL
MODEL 2
REMARK VINA RESULT:    -3.148      4.058     10.903
REMARK INTER + INTRA:          -7.740
REMARK INTER:                  -5.595
REMARK INTRA:                  -2.145
REMARK UNBOUND:                -0.911
REMARK SMILES CCCCCCCCCCCCCCCCCCCCCC(=O)[O-]
REMARK SMILES IDX 12 1 11 2 10 3 9 4 8 5 7 6 6 7 5 8 4 9 3 10 2 11 1 12 13 13
REMARK SMILES IDX 14 14 15 15 16 16 17 17 18 18 19 19 20 20 21 21 22 22 23 23
REMARK SMILES IDX 24 24
REMARK H PARENT
REMARK Flexibility Score: inf
ROOT
ATOM      1  C   UNL     1      16.917  -6.390   8.020  1.00  0.00     0.000 C 
ENDROOT
BRANCH   1   2
ATOM      2  C   UNL     1      18.233  -7.105   8.373  1.00  0.00     0.000 C 
BRANCH   2   3
ATOM      3  C   UNL     1      19.054  -7.471   7.126  1.00  0.00     0.000 C 
BRANCH   3   4
ATOM      4  C   UNL     1      19.269  -8.988   6.988  1.00  0.00    -0.000 C 
BRANCH   4   5
ATOM      5  C   UNL     1      18.462  -9.601   5.830  1.00  0.00    -0.000 C 
BRANCH   5   6
ATOM      6  C   UNL     1      19.209  -9.677   4.483  1.00  0.00    -0.000 C 
BRANCH   6   7
ATOM      7  C   UNL     1      20.724  -9.408   4.553  1.00  0.00    -0.000 C 
BRANCH   7   8
ATOM      8  C   UNL     1      21.127  -8.086   3.878  1.00  0.00    -0.000 C 
BRANCH   8   9
ATOM      9  C   UNL     1      22.447  -7.522   4.430  1.00  0.00    -0.000 C 
BRANCH   9  10
ATOM     10  C   UNL     1      22.450  -5.985   4.504  1.00  0.00    -0.000 C 
BRANCH  10  11
ATOM     11  C   UNL     1      21.038  -5.403   4.682  1.00  0.00    -0.003 C 
ATOM     12  C   UNL     1      20.822  -4.123   3.875  1.00  0.00     0.004 C 
ENDBRANCH  10  11
ENDBRANCH   9  10
ENDBRANCH   8   9
ENDBRANCH   7   8
ENDBRANCH   6   7
ENDBRANCH   5   6
ENDBRANCH   4   5
ENDBRANCH   3   4
ENDBRANCH   2   3
ENDBRANCH   1   2
BRANCH   1  13
ATOM     13  C   UNL     1      16.041  -7.210   7.061  1.00  0.00     0.000 C 
BRANCH  13  14
ATOM     14  C   UNL     1      15.657  -6.422   5.795  1.00  0.00     0.000 C 
BRANCH  14  15
ATOM     15  C   UNL     1      16.064  -7.146   4.502  1.00  0.00     0.000 C 
BRANCH  15  16
ATOM     16  C   UNL     1      15.315  -8.477   4.311  1.00  0.00     0.000 C 
BRANCH  16  17
ATOM     17  C   UNL     1      13.823  -8.277   4.000  1.00  0.00     0.000 C 
BRANCH  17  18
ATOM     18  C   UNL     1      12.916  -8.690   5.172  1.00  0.00     0.000 C 
BRANCH  18  19
ATOM     19  C   UNL     1      11.654  -7.816   5.290  1.00  0.00     0.000 C 
BRANCH  19  20
ATOM     20  C   UNL     1      10.461  -8.478   6.011  1.00  0.00     0.006 C 
BRANCH  20  21
ATOM     21  C   UNL     1       9.085  -8.134   5.417  1.00  0.00     0.053 C 
BRANCH  21  22
ATOM     22  C   UNL     1       7.964  -8.600   6.293  1.00  0.00     0.041 C 
ATOM     23  O   UNL     1       8.182  -8.894   7.498  1.00  0.00    -0.550 OA
ATOM     24  O   UNL     1       6.672  -8.677   5.790  1.00  0.00    -0.550 OA
ENDBRANCH  21  22
ENDBRANCH  20  21
ENDBRANCH  19  20
ENDBRANCH  18  19
ENDBRANCH  17  18
ENDBRANCH  16  17
ENDBRANCH  15  16
ENDBRANCH  14  15
ENDBRANCH  13  14
ENDBRANCH   1  13
TORSDOF 20
ENDMDL
MODEL 3
REMARK VINA RESULT:    -3.099      4.693     11.696
REMARK INTER + INTRA:          -7.633
REMARK INTER:                  -6.036
REMARK INTRA:                  -1.597
REMARK UNBOUND:                -0.911
REMARK SMILES CCCCCCCCCCCCCCCCCCCCCC(=O)[O-]
REMARK SMILES IDX 12 1 11 2 10 3 9 4 8 5 7 6 6 7 5 8 4 9 3 10 2 11 1 12 13 13
REMARK SMILES IDX 14 14 15 15 16 16 17 17 18 18 19 19 20 20 21 21 22 22 23 23
REMARK SMILES IDX 24 24
REMARK H PARENT
REMARK Flexibility Score: inf
ROOT
ATOM      1  C   UNL     1      15.135  -7.703   6.155  1.00  0.00     0.000 C 
ENDROOT
BRANCH   1   2
ATOM      2  C   UNL     1      15.676  -7.642   4.716  1.00  0.00     0.000 C 
BRANCH   2   3
ATOM      3  C   UNL     1      16.133  -9.017   4.204  1.00  0.00     0.000 C 
BRANCH   3   4
ATOM      4  C   UNL     1      17.652  -9.083   3.974  1.00  0.00    -0.000 C 
BRANCH   4   5
ATOM      5  C   UNL     1      18.364 -10.023   4.963  1.00  0.00    -0.000 C 
BRANCH   5   6
ATOM      6  C   UNL     1      19.443  -9.354   5.838  1.00  0.00    -0.000 C 
BRANCH   6   7
ATOM      7  C   UNL     1      19.013  -8.047   6.531  1.00  0.00    -0.000 C 
BRANCH   7   8
ATOM      8  C   UNL     1      19.882  -6.844   6.127  1.00  0.00    -0.000 C 
BRANCH   8   9
ATOM      9  C   UNL     1      19.435  -6.215   4.797  1.00  0.00    -0.000 C 
BRANCH   9  10
ATOM     10  C   UNL     1      20.619  -5.875   3.875  1.00  0.00    -0.000 C 
BRANCH  10  11
ATOM     11  C   UNL     1      21.977  -6.054   4.573  1.00  0.00    -0.003 C 
ATOM     12  C   UNL     1      22.693  -7.336   4.150  1.00  0.00     0.004 C 
ENDBRANCH  10  11
ENDBRANCH   9  10
ENDBRANCH   8   9
ENDBRANCH   7   8
ENDBRANCH   6   7
ENDBRANCH   5   6
ENDBRANCH   4   5
ENDBRANCH   3   4
ENDBRANCH   2   3
ENDBRANCH   1   2
BRANCH   1  13
ATOM     13  C   UNL     1      13.659  -8.123   6.212  1.00  0.00     0.000 C 
BRANCH  13  14
ATOM     14  C   UNL     1      13.010  -8.188   4.817  1.00  0.00     0.000 C 
BRANCH  14  15
ATOM     15  C   UNL     1      11.628  -7.518   4.777  1.00  0.00     0.000 C 
BRANCH  15  16
ATOM     16  C   UNL     1      10.938  -7.508   6.153  1.00  0.00     0.000 C 
BRANCH  16  17
ATOM     17  C   UNL     1       9.796  -8.531   6.251  1.00  0.00     0.000 C 
BRANCH  17  18
ATOM     18  C   UNL     1       8.782  -8.395   5.101  1.00  0.00     0.000 C 
BRANCH  18  19
ATOM     19  C   UNL     1       7.852  -9.615   4.975  1.00  0.00     0.000 C 
BRANCH  19  20
ATOM     20  C   UNL     1       6.468  -9.459   5.641  1.00  0.00     0.006 C 
BRANCH  20  21
ATOM     21  C   UNL     1       6.102  -8.016   6.023  1.00  0.00     0.053 C 
BRANCH  21  22
ATOM     22  C   UNL     1       5.166  -7.395   5.033  1.00  0.00     0.041 C 
ATOM     23  O   UNL     1       5.514  -6.370   4.389  1.00  0.00    -0.550 OA
ATOM     24  O   UNL     1       3.922  -7.966   4.796  1.00  0.00    -0.550 OA
ENDBRANCH  21  22
ENDBRANCH  20  21
ENDBRANCH  19  20
ENDBRANCH  18  19
ENDBRANCH  17  18
ENDBRANCH  16  17
ENDBRANCH  15  16
ENDBRANCH  14  15
ENDBRANCH  13  14
ENDBRANCH   1  13
TORSDOF 20
ENDMDL
MODEL 4
REMARK VINA RESULT:    -2.915      4.112     10.455
REMARK INTER + INTRA:          -7.234
REMARK INTER:                  -5.730
REMARK INTRA:                  -1.504
REMARK UNBOUND:                -0.911
REMARK SMILES CCCCCCCCCCCCCCCCCCCCCC(=O)[O-]
REMARK SMILES IDX 12 1 11 2 10 3 9 4 8 5 7 6 6 7 5 8 4 9 3 10 2 11 1 12 13 13
REMARK SMILES IDX 14 14 15 15 16 16 17 17 18 18 19 19 20 20 21 21 22 22 23 23
REMARK SMILES IDX 24 24
REMARK H PARENT
REMARK Flexibility Score: inf
ROOT
ATOM      1  C   UNL     1      15.850  -6.794   5.734  1.00  0.00     0.000 C 
ENDROOT
BRANCH   1   2
ATOM      2  C   UNL     1      16.246  -6.618   4.257  1.00  0.00     0.000 C 
BRANCH   2   3
ATOM      3  C   UNL     1      17.642  -7.185   3.954  1.00  0.00     0.000 C 
BRANCH   3   4
ATOM      4  C   UNL     1      18.725  -6.093   3.919  1.00  0.00    -0.000 C 
BRANCH   4   5
ATOM      5  C   UNL     1      20.152  -6.669   3.945  1.00  0.00    -0.000 C 
BRANCH   5   6
ATOM      6  C   UNL     1      20.237  -8.207   3.875  1.00  0.00    -0.000 C 
BRANCH   6   7
ATOM      7  C   UNL     1      20.555  -8.912   5.207  1.00  0.00    -0.000 C 
BRANCH   7   8
ATOM      8  C   UNL     1      19.298  -9.203   6.044  1.00  0.00    -0.000 C 
BRANCH   8   9
ATOM      9  C   UNL     1      19.635  -9.745   7.443  1.00  0.00    -0.000 C 
BRANCH   9  10
ATOM     10  C   UNL     1      19.526  -8.669   8.537  1.00  0.00    -0.000 C 
BRANCH  10  11
ATOM     11  C   UNL     1      18.608  -7.506   8.128  1.00  0.00    -0.003 C 
ATOM     12  C   UNL     1      19.105  -6.154   8.641  1.00  0.00     0.004 C 
ENDBRANCH  10  11
ENDBRANCH   9  10
ENDBRANCH   8   9
ENDBRANCH   7   8
ENDBRANCH   6   7
ENDBRANCH   5   6
ENDBRANCH   4   5
ENDBRANCH   3   4
ENDBRANCH   2   3
ENDBRANCH   1   2
BRANCH   1  13
ATOM     13  C   UNL     1      14.438  -7.375   5.898  1.00  0.00     0.000 C 
BRANCH  13  14
ATOM     14  C   UNL     1      14.446  -8.905   6.073  1.00  0.00     0.000 C 
BRANCH  14  15
ATOM     15  C   UNL     1      14.800  -9.645   4.773  1.00  0.00     0.000 C 
BRANCH  15  16
ATOM     16  C   UNL     1      13.552 -10.125   4.010  1.00  0.00     0.000 C 
BRANCH  16  17
ATOM     17  C   UNL     1      12.422  -9.084   4.010  1.00  0.00     0.000 C 
BRANCH  17  18
ATOM     18  C   UNL     1      11.025  -9.730   3.994  1.00  0.00     0.000 C 
BRANCH  18  19
ATOM     19  C   UNL     1       9.907  -8.751   4.395  1.00  0.00     0.000 C 
BRANCH  19  20
ATOM     20  C   UNL     1       9.874  -8.366   5.889  1.00  0.00     0.006 C 
BRANCH  20  21
ATOM     21  C   UNL     1       9.143  -9.372   6.792  1.00  0.00     0.053 C 
BRANCH  21  22
ATOM     22  C   UNL     1       7.742  -8.939   7.095  1.00  0.00     0.041 C 
ATOM     23  O   UNL     1       7.394  -8.708   8.283  1.00  0.00    -0.550 OA
ATOM     24  O   UNL     1       6.830  -8.758   6.064  1.00  0.00    -0.550 OA
ENDBRANCH  21  22
ENDBRANCH  20  21
ENDBRANCH  19  20
ENDBRANCH  18  19
ENDBRANCH  17  18
ENDBRANCH  16  17
ENDBRANCH  15  16
ENDBRANCH  14  15
ENDBRANCH  13  14
ENDBRANCH   1  13
TORSDOF 20
ENDMDL
MODEL 5
REMARK VINA RESULT:    -2.842      1.402      2.741
REMARK INTER + INTRA:          -7.076
REMARK INTER:                  -5.736
REMARK INTRA:                  -1.340
REMARK UNBOUND:                -0.911
REMARK SMILES CCCCCCCCCCCCCCCCCCCCCC(=O)[O-]
REMARK SMILES IDX 12 1 11 2 10 3 9 4 8 5 7 6 6 7 5 8 4 9 3 10 2 11 1 12 13 13
REMARK SMILES IDX 14 14 15 15 16 16 17 17 18 18 19 19 20 20 21 21 22 22 23 23
REMARK SMILES IDX 24 24
REMARK H PARENT
REMARK Flexibility Score: inf
ROOT
ATOM      1  C   UNL     1      15.868  -8.098   6.030  1.00  0.00     0.000 C 
ENDROOT
BRANCH   1   2
ATOM      2  C   UNL     1      14.416  -7.698   5.715  1.00  0.00     0.000 C 
BRANCH   2   3
ATOM      3  C   UNL     1      13.901  -8.337   4.415  1.00  0.00     0.000 C 
BRANCH   3   4
ATOM      4  C   UNL     1      12.366  -8.419   4.368  1.00  0.00    -0.000 C 
BRANCH   4   5
ATOM      5  C   UNL     1      11.701  -7.863   5.640  1.00  0.00    -0.000 C 
BRANCH   5   6
ATOM      6  C   UNL     1      10.160  -7.921   5.649  1.00  0.00    -0.000 C 
BRANCH   6   7
ATOM      7  C   UNL     1       9.544  -8.932   6.633  1.00  0.00    -0.000 C 
BRANCH   7   8
ATOM      8  C   UNL     1       8.278  -9.609   6.080  1.00  0.00    -0.000 C 
BRANCH   8   9
ATOM      9  C   UNL     1       6.989  -8.899   6.527  1.00  0.00    -0.000 C 
BRANCH   9  10
ATOM     10  C   UNL     1       6.070  -8.541   5.346  1.00  0.00    -0.000 C 
BRANCH  10  11
ATOM     11  C   UNL     1       6.283  -7.102   4.850  1.00  0.00    -0.003 C 
ATOM     12  C   UNL     1       5.139  -6.168   5.241  1.00  0.00     0.004 C 
ENDBRANCH  10  11
ENDBRANCH   9  10
ENDBRANCH   8   9
ENDBRANCH   7   8
ENDBRANCH   6   7
ENDBRANCH   5   6
ENDBRANCH   4   5
ENDBRANCH   3   4
ENDBRANCH   2   3
ENDBRANCH   1   2
BRANCH   1  13
ATOM     13  C   UNL     1      16.657  -8.491   4.772  1.00  0.00     0.000 C 
BRANCH  13  14
ATOM     14  C   UNL     1      17.194  -9.933   4.840  1.00  0.00     0.000 C 
BRANCH  14  15
ATOM     15  C   UNL     1      18.247 -10.119   5.943  1.00  0.00     0.000 C 
BRANCH  15  16
ATOM     16  C   UNL     1      19.686 -10.044   5.404  1.00  0.00     0.000 C 
BRANCH  16  17
ATOM     17  C   UNL     1      19.815  -9.110   4.190  1.00  0.00     0.000 C 
BRANCH  17  18
ATOM     18  C   UNL     1      21.103  -8.268   4.228  1.00  0.00     0.000 C 
BRANCH  18  19
ATOM     19  C   UNL     1      20.926  -6.935   4.976  1.00  0.00     0.000 C 
BRANCH  19  20
ATOM     20  C   UNL     1      19.567  -6.753   5.684  1.00  0.00     0.006 C 
BRANCH  20  21
ATOM     21  C   UNL     1      19.662  -6.218   7.122  1.00  0.00     0.053 C 
BRANCH  21  22
ATOM     22  C   UNL     1      18.885  -7.061   8.086  1.00  0.00     0.041 C 
ATOM     23  O   UNL     1      17.747  -6.690   8.477  1.00  0.00    -0.550 OA
ATOM     24  O   UNL     1      19.403  -8.271   8.528  1.00  0.00    -0.550 OA
ENDBRANCH  21  22
ENDBRANCH  20  21
ENDBRANCH  19  20
ENDBRANCH  18  19
ENDBRANCH  17  18
ENDBRANCH  16  17
ENDBRANCH  15  16
ENDBRANCH  14  15
ENDBRANCH  13  14
ENDBRANCH   1  13
TORSDOF 20
ENDMDL
MODEL 6
REMARK VINA RESULT:    -2.807      3.878     10.549
REMARK INTER + INTRA:          -7.000
REMARK INTER:                  -6.003
REMARK INTRA:                  -0.998
REMARK UNBOUND:                -0.911
REMARK SMILES CCCCCCCCCCCCCCCCCCCCCC(=O)[O-]
REMARK SMILES IDX 12 1 11 2 10 3 9 4 8 5 7 6 6 7 5 8 4 9 3 10 2 11 1 12 13 13
REMARK SMILES IDX 14 14 15 15 16 16 17 17 18 18 19 19 20 20 21 21 22 22 23 23
REMARK SMILES IDX 24 24
REMARK H PARENT
REMARK Flexibility Score: inf
ROOT
ATOM      1  C   UNL     1      12.637  -7.497   4.905  1.00  0.00     0.000 C 
ENDROOT
BRANCH   1   2
ATOM      2  C   UNL     1      13.275  -8.539   3.969  1.00  0.00     0.000 C 
BRANCH   2   3
ATOM      3  C   UNL     1      14.811  -8.525   4.038  1.00  0.00     0.000 C 
BRANCH   3   4
ATOM      4  C   UNL     1      15.356  -9.418   5.165  1.00  0.00    -0.000 C 
BRANCH   4   5
ATOM      5  C   UNL     1      16.675 -10.115   4.787  1.00  0.00    -0.000 C 
BRANCH   5   6
ATOM      6  C   UNL     1      17.892  -9.719   5.647  1.00  0.00    -0.000 C 
BRANCH   6   7
ATOM      7  C   UNL     1      19.125  -9.233   4.861  1.00  0.00    -0.000 C 
BRANCH   7   8
ATOM      8  C   UNL     1      19.937  -8.171   5.621  1.00  0.00    -0.000 C 
BRANCH   8   9
ATOM      9  C   UNL     1      19.050  -7.056   6.201  1.00  0.00    -0.000 C 
BRANCH   9  10
ATOM     10  C   UNL     1      18.803  -7.221   7.711  1.00  0.00    -0.000 C 
BRANCH  10  11
ATOM     11  C   UNL     1      17.351  -6.910   8.106  1.00  0.00    -0.003 C 
ATOM     12  C   UNL     1      16.413  -6.843   6.900  1.00  0.00     0.004 C 
ENDBRANCH  10  11
ENDBRANCH   9  10
ENDBRANCH   8   9
ENDBRANCH   7   8
ENDBRANCH   6   7
ENDBRANCH   5   6
ENDBRANCH   4   5
ENDBRANCH   3   4
ENDBRANCH   2   3
ENDBRANCH   1   2
BRANCH   1  13
ATOM     13  C   UNL     1      12.073  -8.126   6.188  1.00  0.00     0.000 C 
BRANCH  13  14
ATOM     14  C   UNL     1      10.623  -8.614   6.018  1.00  0.00     0.000 C 
BRANCH  14  15
ATOM     15  C   UNL     1      10.360  -9.208   4.625  1.00  0.00     0.000 C 
BRANCH  15  16
ATOM     16  C   UNL     1       9.103  -8.619   3.961  1.00  0.00     0.000 C 
BRANCH  16  17
ATOM     17  C   UNL     1       8.791  -7.194   4.443  1.00  0.00     0.000 C 
BRANCH  17  18
ATOM     18  C   UNL     1       7.345  -6.770   4.133  1.00  0.00     0.000 C 
BRANCH  18  19
ATOM     19  C   UNL     1       6.335  -7.921   4.294  1.00  0.00     0.000 C 
BRANCH  19  20
ATOM     20  C   UNL     1       5.794  -8.127   5.724  1.00  0.00     0.006 C 
BRANCH  20  21
ATOM     21  C   UNL     1       6.818  -7.861   6.840  1.00  0.00     0.053 C 
BRANCH  21  22
ATOM     22  C   UNL     1       7.265  -9.127   7.504  1.00  0.00     0.041 C 
ATOM     23  O   UNL     1       7.057  -9.304   8.733  1.00  0.00    -0.550 OA
ATOM     24  O   UNL     1       7.880 -10.125   6.760  1.00  0.00    -0.550 OA
ENDBRANCH  21  22
ENDBRANCH  20  21
ENDBRANCH  19  20
ENDBRANCH  18  19
ENDBRANCH  17  18
ENDBRANCH  16  17
ENDBRANCH  15  16
ENDBRANCH  14  15
ENDBRANCH  13  14
ENDBRANCH   1  13
TORSDOF 20
ENDMDL
