MODEL 1
REMARK VINA RESULT:    -5.457      0.000      0.000
REMARK INTER + INTRA:          -6.857
REMARK INTER:                  -6.573
REMARK INTRA:                  -0.283
REMARK UNBOUND:                -0.283
REMARK SMILES O=c1c(O)c(-c2ccc(O)c(O)c2)oc2cc(O)cc(O)c12
REMARK SMILES IDX 5 1 3 2 2 3 1 4 22 5 20 6 19 7 17 8 16 9 15 10 14 11 6 12
REMARK SMILES IDX 7 13 8 14 9 15 13 16 11 17 10 18 12 20 4 22 21 24 18 26
REMARK H PARENT 10 19 12 21 4 23 21 25 18 27
REMARK Flexibility Score: inf
ROOT
ATOM      1  C   UNL     1      44.849  15.799  -3.387  1.00  0.00     0.180 A 
ATOM      2  C   UNL     1      45.495  16.740  -4.208  1.00  0.00     0.208 A 
ATOM      3  C   UNL     1      46.845  16.544  -4.537  1.00  0.00     0.238 A 
ATOM      4  O   UNL     1      47.402  17.361  -5.316  1.00  0.00    -0.285 OA
ATOM      5  C   UNL     1      47.538  15.419  -4.030  1.00  0.00     0.111 A 
ATOM      6  C   UNL     1      48.918  15.142  -4.265  1.00  0.00     0.134 A 
ATOM      7  C   UNL     1      49.465  13.932  -3.821  1.00  0.00     0.093 A 
ATOM      8  C   UNL     1      48.699  13.018  -3.094  1.00  0.00     0.123 A 
ATOM      9  C   UNL     1      47.367  13.306  -2.807  1.00  0.00     0.094 A 
ATOM     10  C   UNL     1      46.783  14.489  -3.268  1.00  0.00     0.146 A 
ATOM     11  O   UNL     1      45.507  14.720  -2.982  1.00  0.00    -0.452 OA
ENDROOT
BRANCH   1  12
ATOM     12  C   UNL     1      43.434  15.949  -2.977  1.00  0.00     0.025 A 
ATOM     13  C   UNL     1      42.407  15.234  -3.618  1.00  0.00     0.016 A 
ATOM     14  C   UNL     1      41.077  15.411  -3.231  1.00  0.00     0.051 A 
ATOM     15  C   UNL     1      40.750  16.311  -2.208  1.00  0.00     0.157 A 
ATOM     16  C   UNL     1      43.100  16.866  -1.967  1.00  0.00     0.062 A 
ATOM     17  C   UNL     1      41.768  17.044  -1.576  1.00  0.00     0.158 A 
BRANCH  15  18
ATOM     18  O   UNL     1      39.421  16.482  -1.823  1.00  0.00    -0.504 OA
ATOM     19  H   UNL     1      39.089  17.358  -1.437  1.00  0.00     0.293 HD
ENDBRANCH  15  18
BRANCH  17  20
ATOM     20  O   UNL     1      41.476  17.954  -0.560  1.00  0.00    -0.504 OA
ATOM     21  H   UNL     1      40.524  18.196  -0.311  1.00  0.00     0.293 HD
ENDBRANCH  17  20
ENDBRANCH   1  12
BRANCH   2  22
ATOM     22  O   UNL     1      44.786  17.833  -4.716  1.00  0.00    -0.502 OA
ATOM     23  H   UNL     1      45.234  18.710  -4.952  1.00  0.00     0.293 HD
ENDBRANCH   2  22
BRANCH   6  24
ATOM     24  O   UNL     1      49.794  16.028  -4.901  1.00  0.00    -0.507 OA
ATOM     25  H   UNL     1      50.576  16.483  -4.454  1.00  0.00     0.293 HD
ENDBRANCH   6  24
BRANCH   8  26
ATOM     26  O   UNL     1      49.257  11.824  -2.643  1.00  0.00    -0.508 OA
ATOM     27  H   UNL     1      49.292  10.999  -3.232  1.00  0.00     0.293 HD
ENDBRANCH   8  26
TORSDOF 6
ENDMDL
MODEL 2
REMARK VINA RESULT:    -5.281      2.073      3.355
REMARK INTER + INTRA:          -6.646
REMARK INTER:                  -6.594
REMARK INTRA:                  -0.051
REMARK UNBOUND:                -0.283
REMARK SMILES O=c1c(O)c(-c2ccc(O)c(O)c2)oc2cc(O)cc(O)c12
REMARK SMILES IDX 5 1 3 2 2 3 1 4 22 5 20 6 19 7 17 8 16 9 15 10 14 11 6 12
REMARK SMILES IDX 7 13 8 14 9 15 13 16 11 17 10 18 12 20 4 22 21 24 18 26
REMARK H PARENT 10 19 12 21 4 23 21 25 18 27
REMARK Flexibility Score: inf
ROOT
ATOM      1  C   UNL     1      45.187  15.789  -3.450  1.00  0.00     0.180 A 
ATOM      2  C   UNL     1      44.563  14.597  -3.041  1.00  0.00     0.208 A 
ATOM      3  C   UNL     1      45.332  13.427  -2.937  1.00  0.00     0.238 A 
ATOM      4  O   UNL     1      44.781  12.376  -2.519  1.00  0.00    -0.285 OA
ATOM      5  C   UNL     1      46.711  13.459  -3.259  1.00  0.00     0.111 A 
ATOM      6  C   UNL     1      47.577  12.326  -3.229  1.00  0.00     0.134 A 
ATOM      7  C   UNL     1      48.950  12.500  -3.440  1.00  0.00     0.093 A 
ATOM      8  C   UNL     1      49.479  13.756  -3.745  1.00  0.00     0.123 A 
ATOM      9  C   UNL     1      48.633  14.859  -3.836  1.00  0.00     0.094 A 
ATOM     10  C   UNL     1      47.264  14.723  -3.594  1.00  0.00     0.146 A 
ATOM     11  O   UNL     1      46.494  15.801  -3.680  1.00  0.00    -0.452 OA
ENDROOT
BRANCH   1  12
ATOM     12  C   UNL     1      44.438  17.057  -3.606  1.00  0.00     0.025 A 
ATOM     13  C   UNL     1      44.455  17.772  -4.817  1.00  0.00     0.016 A 
ATOM     14  C   UNL     1      43.761  18.979  -4.933  1.00  0.00     0.051 A 
ATOM     15  C   UNL     1      43.051  19.495  -3.842  1.00  0.00     0.157 A 
ATOM     16  C   UNL     1      43.742  17.589  -2.509  1.00  0.00     0.062 A 
ATOM     17  C   UNL     1      43.045  18.797  -2.622  1.00  0.00     0.158 A 
BRANCH  15  18
ATOM     18  O   UNL     1      42.358  20.699  -3.963  1.00  0.00    -0.504 OA
ATOM     19  H   UNL     1      42.198  21.302  -3.165  1.00  0.00     0.293 HD
ENDBRANCH  15  18
BRANCH  17  20
ATOM     20  O   UNL     1      42.354  19.288  -1.515  1.00  0.00    -0.504 OA
ATOM     21  H   UNL     1      42.148  18.711  -0.709  1.00  0.00     0.293 HD
ENDBRANCH  17  20
ENDBRANCH   1  12
BRANCH   2  22
ATOM     22  O   UNL     1      43.206  14.592  -2.707  1.00  0.00    -0.502 OA
ATOM     23  H   UNL     1      42.490  14.940  -3.334  1.00  0.00     0.293 HD
ENDBRANCH   2  22
BRANCH   6  24
ATOM     24  O   UNL     1      47.138  11.013  -3.024  1.00  0.00    -0.507 OA
ATOM     25  H   UNL     1      46.757  10.663  -2.158  1.00  0.00     0.293 HD
ENDBRANCH   6  24
BRANCH   8  26
ATOM     26  O   UNL     1      50.844  13.917  -3.969  1.00  0.00    -0.508 OA
ATOM     27  H   UNL     1      51.193  14.482  -4.734  1.00  0.00     0.293 HD
ENDBRANCH   8  26
TORSDOF 6
ENDMDL
MODEL 3
REMARK VINA RESULT:    -5.217      1.881      3.266
REMARK INTER + INTRA:          -6.568
REMARK INTER:                  -6.615
REMARK INTRA:                   0.047
REMARK UNBOUND:                -0.283
REMARK SMILES O=c1c(O)c(-c2ccc(O)c(O)c2)oc2cc(O)cc(O)c12
REMARK SMILES IDX 5 1 3 2 2 3 1 4 22 5 20 6 19 7 17 8 16 9 15 10 14 11 6 12
REMARK SMILES IDX 7 13 8 14 9 15 13 16 11 17 10 18 12 20 4 22 21 24 18 26
REMARK H PARENT 10 19 12 21 4 23 21 25 18 27
REMARK Flexibility Score: inf
ROOT
ATOM      1  C   UNL     1      45.972  16.006  -3.772  1.00  0.00     0.180 A 
ATOM      2  C   UNL     1      45.716  14.696  -3.331  1.00  0.00     0.208 A 
ATOM      3  C   UNL     1      46.765  13.764  -3.320  1.00  0.00     0.238 A 
ATOM      4  O   UNL     1      46.542  12.608  -2.874  1.00  0.00    -0.285 OA
ATOM      5  C   UNL     1      48.053  14.147  -3.766  1.00  0.00     0.111 A 
ATOM      6  C   UNL     1      49.180  13.275  -3.837  1.00  0.00     0.134 A 
ATOM      7  C   UNL     1      50.437  13.795  -4.169  1.00  0.00     0.093 A 
ATOM      8  C   UNL     1      50.595  15.143  -4.496  1.00  0.00     0.123 A 
ATOM      9  C   UNL     1      49.490  15.991  -4.488  1.00  0.00     0.094 A 
ATOM     10  C   UNL     1      48.230  15.509  -4.126  1.00  0.00     0.146 A 
ATOM     11  O   UNL     1      47.205  16.353  -4.120  1.00  0.00    -0.452 OA
ENDROOT
BRANCH   1  12
ATOM     12  C   UNL     1      44.911  17.039  -3.834  1.00  0.00     0.025 A 
ATOM     13  C   UNL     1      44.734  17.836  -4.979  1.00  0.00     0.016 A 
ATOM     14  C   UNL     1      43.743  18.820  -5.006  1.00  0.00     0.051 A 
ATOM     15  C   UNL     1      42.925  19.032  -3.889  1.00  0.00     0.157 A 
ATOM     16  C   UNL     1      44.103  17.269  -2.710  1.00  0.00     0.062 A 
ATOM     17  C   UNL     1      43.109  18.253  -2.734  1.00  0.00     0.158 A 
BRANCH  15  18
ATOM     18  O   UNL     1      41.936  20.014  -3.922  1.00  0.00    -0.504 OA
ATOM     19  H   UNL     1      41.838  20.643  -4.710  1.00  0.00     0.293 HD
ENDBRANCH  15  18
BRANCH  17  20
ATOM     20  O   UNL     1      42.316  18.445  -1.603  1.00  0.00    -0.504 OA
ATOM     21  H   UNL     1      41.438  17.956  -1.472  1.00  0.00     0.293 HD
ENDBRANCH  17  20
ENDBRANCH   1  12
BRANCH   2  22
ATOM     22  O   UNL     1      44.442  14.344  -2.875  1.00  0.00    -0.502 OA
ATOM     23  H   UNL     1      43.929  13.554  -3.247  1.00  0.00     0.293 HD
ENDBRANCH   2  22
BRANCH   6  24
ATOM     24  O   UNL     1      49.112  11.894  -3.619  1.00  0.00    -0.507 OA
ATOM     25  H   UNL     1      48.543  11.256  -4.153  1.00  0.00     0.293 HD
ENDBRANCH   6  24
BRANCH   8  26
ATOM     26  O   UNL     1      51.846  15.649  -4.841  1.00  0.00    -0.508 OA
ATOM     27  H   UNL     1      51.947  16.411  -5.501  1.00  0.00     0.293 HD
ENDBRANCH   8  26
TORSDOF 6
ENDMDL
MODEL 4
REMARK VINA RESULT:    -5.125      1.575      6.777
REMARK INTER + INTRA:          -6.457
REMARK INTER:                  -6.866
REMARK INTRA:                   0.409
REMARK UNBOUND:                -0.283
REMARK SMILES O=c1c(O)c(-c2ccc(O)c(O)c2)oc2cc(O)cc(O)c12
REMARK SMILES IDX 5 1 3 2 2 3 1 4 22 5 20 6 19 7 17 8 16 9 15 10 14 11 6 12
REMARK SMILES IDX 7 13 8 14 9 15 13 16 11 17 10 18 12 20 4 22 21 24 18 26
REMARK H PARENT 10 19 12 21 4 23 21 25 18 27
REMARK Flexibility Score: inf
ROOT
ATOM      1  C   UNL     1      46.128  16.491  -4.182  1.00  0.00     0.180 A 
ATOM      2  C   UNL     1      45.790  17.485  -5.117  1.00  0.00     0.208 A 
ATOM      3  C   UNL     1      44.500  18.037  -5.087  1.00  0.00     0.238 A 
ATOM      4  O   UNL     1      44.220  18.965  -5.891  1.00  0.00    -0.285 OA
ATOM      5  C   UNL     1      43.559  17.579  -4.133  1.00  0.00     0.111 A 
ATOM      6  C   UNL     1      42.212  18.038  -4.038  1.00  0.00     0.134 A 
ATOM      7  C   UNL     1      41.409  17.609  -2.973  1.00  0.00     0.093 A 
ATOM      8  C   UNL     1      41.885  16.687  -2.038  1.00  0.00     0.123 A 
ATOM      9  C   UNL     1      43.180  16.186  -2.158  1.00  0.00     0.094 A 
ATOM     10  C   UNL     1      44.016  16.623  -3.188  1.00  0.00     0.146 A 
ATOM     11  O   UNL     1      45.246  16.129  -3.259  1.00  0.00    -0.452 OA
ENDROOT
BRANCH   1  12
ATOM     12  C   UNL     1      47.461  15.844  -4.167  1.00  0.00     0.025 A 
ATOM     13  C   UNL     1      48.562  16.421  -4.825  1.00  0.00     0.016 A 
ATOM     14  C   UNL     1      49.803  15.780  -4.818  1.00  0.00     0.051 A 
ATOM     15  C   UNL     1      49.961  14.551  -4.165  1.00  0.00     0.157 A 
ATOM     16  C   UNL     1      47.620  14.602  -3.532  1.00  0.00     0.062 A 
ATOM     17  C   UNL     1      48.862  13.958  -3.522  1.00  0.00     0.158 A 
BRANCH  15  18
ATOM     18  O   UNL     1      51.203  13.916  -4.158  1.00  0.00    -0.504 OA
ATOM     19  H   UNL     1      51.709  13.730  -5.016  1.00  0.00     0.293 HD
ENDBRANCH  15  18
BRANCH  17  20
ATOM     20  O   UNL     1      48.985  12.731  -2.870  1.00  0.00    -0.504 OA
ATOM     21  H   UNL     1      48.216  12.313  -2.360  1.00  0.00     0.293 HD
ENDBRANCH  17  20
ENDBRANCH   1  12
BRANCH   2  22
ATOM     22  O   UNL     1      46.741  17.939  -6.036  1.00  0.00    -0.502 OA
ATOM     23  H   UNL     1      47.199  18.838  -5.945  1.00  0.00     0.293 HD
ENDBRANCH   2  22
BRANCH   6  24
ATOM     24  O   UNL     1      41.609  18.888  -4.971  1.00  0.00    -0.507 OA
ATOM     25  H   UNL     1      40.669  18.783  -5.320  1.00  0.00     0.293 HD
ENDBRANCH   6  24
BRANCH   8  26
ATOM     26  O   UNL     1      41.074  16.253  -0.992  1.00  0.00    -0.508 OA
ATOM     27  H   UNL     1      41.216  15.353  -0.548  1.00  0.00     0.293 HD
ENDBRANCH   8  26
TORSDOF 6
ENDMDL
MODEL 5
REMARK VINA RESULT:    -5.082      1.756      2.242
REMARK INTER + INTRA:          -6.406
REMARK INTER:                  -6.335
REMARK INTRA:                  -0.070
REMARK UNBOUND:                -0.283
REMARK SMILES O=c1c(O)c(-c2ccc(O)c(O)c2)oc2cc(O)cc(O)c12
REMARK SMILES IDX 5 1 3 2 2 3 1 4 22 5 20 6 19 7 17 8 16 9 15 10 14 11 6 12
REMARK SMILES IDX 7 13 8 14 9 15 13 16 11 17 10 18 12 20 4 22 21 24 18 26
REMARK H PARENT 10 19 12 21 4 23 21 25 18 27
REMARK Flexibility Score: inf
ROOT
ATOM      1  C   UNL     1      45.219  15.277  -3.297  1.00  0.00     0.180 A 
ATOM      2  C   UNL     1      45.703  15.124  -4.608  1.00  0.00     0.208 A 
ATOM      3  C   UNL     1      46.753  14.223  -4.845  1.00  0.00     0.238 A 
ATOM      4  O   UNL     1      47.147  14.052  -6.028  1.00  0.00    -0.285 OA
ATOM      5  C   UNL     1      47.316  13.497  -3.768  1.00  0.00     0.111 A 
ATOM      6  C   UNL     1      48.409  12.589  -3.886  1.00  0.00     0.134 A 
ATOM      7  C   UNL     1      48.799  11.828  -2.776  1.00  0.00     0.093 A 
ATOM      8  C   UNL     1      48.176  11.992  -1.536  1.00  0.00     0.123 A 
ATOM      9  C   UNL     1      47.147  12.920  -1.396  1.00  0.00     0.094 A 
ATOM     10  C   UNL     1      46.713  13.667  -2.493  1.00  0.00     0.146 A 
ATOM     11  O   UNL     1      45.722  14.533  -2.319  1.00  0.00    -0.452 OA
ENDROOT
BRANCH   1  12
ATOM     12  C   UNL     1      44.130  16.225  -2.964  1.00  0.00     0.025 A 
ATOM     13  C   UNL     1      44.210  17.583  -3.319  1.00  0.00     0.016 A 
ATOM     14  C   UNL     1      43.182  18.464  -2.973  1.00  0.00     0.051 A 
ATOM     15  C   UNL     1      42.068  18.006  -2.258  1.00  0.00     0.157 A 
ATOM     16  C   UNL     1      43.022  15.776  -2.229  1.00  0.00     0.062 A 
ATOM     17  C   UNL     1      41.990  16.655  -1.882  1.00  0.00     0.158 A 
BRANCH  15  18
ATOM     18  O   UNL     1      41.044  18.888  -1.916  1.00  0.00    -0.504 OA
ATOM     19  H   UNL     1      40.068  18.628  -2.002  1.00  0.00     0.293 HD
ENDBRANCH  15  18
BRANCH  17  20
ATOM     20  O   UNL     1      40.898  16.169  -1.163  1.00  0.00    -0.504 OA
ATOM     21  H   UNL     1      39.976  16.088  -1.574  1.00  0.00     0.293 HD
ENDBRANCH  17  20
ENDBRANCH   1  12
BRANCH   2  22
ATOM     22  O   UNL     1      45.119  15.835  -5.661  1.00  0.00    -0.502 OA
ATOM     23  H   UNL     1      45.384  16.785  -5.889  1.00  0.00     0.293 HD
ENDBRANCH   2  22
BRANCH   6  24
ATOM     24  O   UNL     1      49.159  12.417  -5.055  1.00  0.00    -0.507 OA
ATOM     25  H   UNL     1      49.713  11.601  -5.266  1.00  0.00     0.293 HD
ENDBRANCH   6  24
BRANCH   8  26
ATOM     26  O   UNL     1      48.581  11.242  -0.434  1.00  0.00    -0.508 OA
ATOM     27  H   UNL     1      48.686  11.661   0.483  1.00  0.00     0.293 HD
ENDBRANCH   8  26
TORSDOF 6
ENDMDL
MODEL 6
REMARK VINA RESULT:    -4.868      1.840      7.282
REMARK INTER + INTRA:          -6.148
REMARK INTER:                  -6.180
REMARK INTRA:                   0.032
REMARK UNBOUND:                -0.283
REMARK SMILES O=c1c(O)c(-c2ccc(O)c(O)c2)oc2cc(O)cc(O)c12
REMARK SMILES IDX 5 1 3 2 2 3 1 4 22 5 20 6 19 7 17 8 16 9 15 10 14 11 6 12
REMARK SMILES IDX 7 13 8 14 9 15 13 16 11 17 10 18 12 20 4 22 21 24 18 26
REMARK H PARENT 10 19 12 21 4 23 21 25 18 27
REMARK Flexibility Score: inf
ROOT
ATOM      1  C   UNL     1      44.296  15.929  -2.892  1.00  0.00     0.180 A 
ATOM      2  C   UNL     1      43.127  15.151  -2.827  1.00  0.00     0.208 A 
ATOM      3  C   UNL     1      41.890  15.794  -2.664  1.00  0.00     0.238 A 
ATOM      4  O   UNL     1      40.842  15.096  -2.660  1.00  0.00    -0.285 OA
ATOM      5  C   UNL     1      41.838  17.204  -2.553  1.00  0.00     0.111 A 
ATOM      6  C   UNL     1      40.645  17.958  -2.345  1.00  0.00     0.134 A 
ATOM      7  C   UNL     1      40.696  19.357  -2.380  1.00  0.00     0.093 A 
ATOM      8  C   UNL     1      41.907  20.030  -2.552  1.00  0.00     0.123 A 
ATOM      9  C   UNL     1      43.087  19.303  -2.696  1.00  0.00     0.094 A 
ATOM     10  C   UNL     1      43.063  17.907  -2.700  1.00  0.00     0.146 A 
ATOM     11  O   UNL     1      44.209  17.253  -2.851  1.00  0.00    -0.452 OA
ENDROOT
BRANCH   1  12
ATOM     12  C   UNL     1      45.640  15.322  -3.039  1.00  0.00     0.025 A 
ATOM     13  C   UNL     1      46.034  14.221  -2.257  1.00  0.00     0.016 A 
ATOM     14  C   UNL     1      47.315  13.681  -2.395  1.00  0.00     0.051 A 
ATOM     15  C   UNL     1      48.224  14.238  -3.304  1.00  0.00     0.157 A 
ATOM     16  C   UNL     1      46.562  15.889  -3.933  1.00  0.00     0.062 A 
ATOM     17  C   UNL     1      47.845  15.350  -4.075  1.00  0.00     0.158 A 
BRANCH  15  18
ATOM     18  O   UNL     1      49.500  13.694  -3.441  1.00  0.00    -0.504 OA
ATOM     19  H   UNL     1      50.333  14.243  -3.264  1.00  0.00     0.293 HD
ENDBRANCH  15  18
BRANCH  17  20
ATOM     20  O   UNL     1      48.729  15.931  -4.983  1.00  0.00    -0.504 OA
ATOM     21  H   UNL     1      48.508  16.021  -5.967  1.00  0.00     0.293 HD
ENDBRANCH  17  20
ENDBRANCH   1  12
BRANCH   2  22
ATOM     22  O   UNL     1      43.199  13.761  -2.961  1.00  0.00    -0.502 OA
ATOM     23  H   UNL     1      42.971  13.129  -2.203  1.00  0.00     0.293 HD
ENDBRANCH   2  22
BRANCH   6  24
ATOM     24  O   UNL     1      39.397  17.385  -2.073  1.00  0.00    -0.507 OA
ATOM     25  H   UNL     1      38.965  17.356  -1.163  1.00  0.00     0.293 HD
ENDBRANCH   6  24
BRANCH   8  26
ATOM     26  O   UNL     1      41.951  21.422  -2.571  1.00  0.00    -0.508 OA
ATOM     27  H   UNL     1      41.532  21.956  -3.323  1.00  0.00     0.293 HD
ENDBRANCH   8  26
TORSDOF 6
ENDMDL
MODEL 7
REMARK VINA RESULT:    -4.856      1.869      7.234
REMARK INTER + INTRA:          -6.133
REMARK INTER:                  -6.087
REMARK INTRA:                  -0.046
REMARK UNBOUND:                -0.283
REMARK SMILES O=c1c(O)c(-c2ccc(O)c(O)c2)oc2cc(O)cc(O)c12
REMARK SMILES IDX 5 1 3 2 2 3 1 4 22 5 20 6 19 7 17 8 16 9 15 10 14 11 6 12
REMARK SMILES IDX 7 13 8 14 9 15 13 16 11 17 10 18 12 20 4 22 21 24 18 26
REMARK H PARENT 10 19 12 21 4 23 21 25 18 27
REMARK Flexibility Score: inf
ROOT
ATOM      1  C   UNL     1      44.269  15.850  -2.831  1.00  0.00     0.180 A 
ATOM      2  C   UNL     1      43.090  15.085  -2.808  1.00  0.00     0.208 A 
ATOM      3  C   UNL     1      41.856  15.739  -2.667  1.00  0.00     0.238 A 
ATOM      4  O   UNL     1      40.801  15.054  -2.702  1.00  0.00    -0.285 OA
ATOM      5  C   UNL     1      41.817  17.148  -2.535  1.00  0.00     0.111 A 
ATOM      6  C   UNL     1      40.627  17.912  -2.346  1.00  0.00     0.134 A 
ATOM      7  C   UNL     1      40.694  19.311  -2.358  1.00  0.00     0.093 A 
ATOM      8  C   UNL     1      41.918  19.972  -2.486  1.00  0.00     0.123 A 
ATOM      9  C   UNL     1      43.093  19.235  -2.611  1.00  0.00     0.094 A 
ATOM     10  C   UNL     1      43.053  17.839  -2.639  1.00  0.00     0.146 A 
ATOM     11  O   UNL     1      44.195  17.174  -2.771  1.00  0.00    -0.452 OA
ENDROOT
BRANCH   1  12
ATOM     12  C   UNL     1      45.609  15.230  -2.952  1.00  0.00     0.025 A 
ATOM     13  C   UNL     1      46.484  15.578  -3.997  1.00  0.00     0.016 A 
ATOM     14  C   UNL     1      47.732  14.962  -4.106  1.00  0.00     0.051 A 
ATOM     15  C   UNL     1      48.122  13.983  -3.182  1.00  0.00     0.157 A 
ATOM     16  C   UNL     1      45.996  14.234  -2.042  1.00  0.00     0.062 A 
ATOM     17  C   UNL     1      47.247  13.616  -2.147  1.00  0.00     0.158 A 
BRANCH  15  18
ATOM     18  O   UNL     1      49.371  13.373  -3.293  1.00  0.00    -0.504 OA
ATOM     19  H   UNL     1      49.607  12.787  -4.085  1.00  0.00     0.293 HD
ENDBRANCH  15  18
BRANCH  17  20
ATOM     20  O   UNL     1      47.602  12.640  -1.216  1.00  0.00    -0.504 OA
ATOM     21  H   UNL     1      48.445  12.087  -1.311  1.00  0.00     0.293 HD
ENDBRANCH  17  20
ENDBRANCH   1  12
BRANCH   2  22
ATOM     22  O   UNL     1      43.150  13.697  -2.963  1.00  0.00    -0.502 OA
ATOM     23  H   UNL     1      43.690  13.103  -2.345  1.00  0.00     0.293 HD
ENDBRANCH   2  22
BRANCH   6  24
ATOM     24  O   UNL     1      39.367  17.350  -2.116  1.00  0.00    -0.507 OA
ATOM     25  H   UNL     1      38.536  17.568  -2.645  1.00  0.00     0.293 HD
ENDBRANCH   6  24
BRANCH   8  26
ATOM     26  O   UNL     1      41.977  21.364  -2.481  1.00  0.00    -0.508 OA
ATOM     27  H   UNL     1      42.255  21.880  -1.655  1.00  0.00     0.293 HD
ENDBRANCH   8  26
TORSDOF 6
ENDMDL
MODEL 8
REMARK VINA RESULT:    -4.818      2.121      7.499
REMARK INTER + INTRA:          -6.087
REMARK INTER:                  -5.764
REMARK INTRA:                  -0.323
REMARK UNBOUND:                -0.283
REMARK SMILES O=c1c(O)c(-c2ccc(O)c(O)c2)oc2cc(O)cc(O)c12
REMARK SMILES IDX 5 1 3 2 2 3 1 4 22 5 20 6 19 7 17 8 16 9 15 10 14 11 6 12
REMARK SMILES IDX 7 13 8 14 9 15 13 16 11 17 10 18 12 20 4 22 21 24 18 26
REMARK H PARENT 10 19 12 21 4 23 21 25 18 27
REMARK Flexibility Score: inf
ROOT
ATOM      1  C   UNL     1      43.896  17.372  -3.866  1.00  0.00     0.180 A 
ATOM      2  C   UNL     1      42.791  16.672  -4.382  1.00  0.00     0.208 A 
ATOM      3  C   UNL     1      41.502  17.014  -3.943  1.00  0.00     0.238 A 
ATOM      4  O   UNL     1      40.514  16.421  -4.449  1.00  0.00    -0.285 OA
ATOM      5  C   UNL     1      41.335  18.040  -2.981  1.00  0.00     0.111 A 
ATOM      6  C   UNL     1      40.080  18.441  -2.435  1.00  0.00     0.134 A 
ATOM      7  C   UNL     1      40.019  19.555  -1.588  1.00  0.00     0.093 A 
ATOM      8  C   UNL     1      41.178  20.241  -1.216  1.00  0.00     0.123 A 
ATOM      9  C   UNL     1      42.415  19.820  -1.697  1.00  0.00     0.094 A 
ATOM     10  C   UNL     1      42.503  18.735  -2.572  1.00  0.00     0.146 A 
ATOM     11  O   UNL     1      43.701  18.372  -3.016  1.00  0.00    -0.452 OA
ENDROOT
BRANCH   1  12
ATOM     12  C   UNL     1      45.287  17.052  -4.263  1.00  0.00     0.025 A 
ATOM     13  C   UNL     1      45.886  17.661  -5.380  1.00  0.00     0.016 A 
ATOM     14  C   UNL     1      47.191  17.326  -5.749  1.00  0.00     0.051 A 
ATOM     15  C   UNL     1      47.911  16.372  -5.019  1.00  0.00     0.157 A 
ATOM     16  C   UNL     1      46.005  16.082  -3.547  1.00  0.00     0.062 A 
ATOM     17  C   UNL     1      47.313  15.745  -3.914  1.00  0.00     0.158 A 
BRANCH  15  18
ATOM     18  O   UNL     1      49.214  16.043  -5.391  1.00  0.00    -0.504 OA
ATOM     19  H   UNL     1      49.854  16.738  -5.756  1.00  0.00     0.293 HD
ENDBRANCH  15  18
BRANCH  17  20
ATOM     20  O   UNL     1      48.000  14.785  -3.171  1.00  0.00    -0.504 OA
ATOM     21  H   UNL     1      47.519  14.078  -2.629  1.00  0.00     0.293 HD
ENDBRANCH  17  20
ENDBRANCH   1  12
BRANCH   2  22
ATOM     22  O   UNL     1      42.977  15.677  -5.347  1.00  0.00    -0.502 OA
ATOM     23  H   UNL     1      42.550  14.762  -5.274  1.00  0.00     0.293 HD
ENDBRANCH   2  22
BRANCH   6  24
ATOM     24  O   UNL     1      38.875  17.769  -2.669  1.00  0.00    -0.507 OA
ATOM     25  H   UNL     1      38.063  18.180  -3.103  1.00  0.00     0.293 HD
ENDBRANCH   6  24
BRANCH   8  26
ATOM     26  O   UNL     1      41.110  21.338  -0.361  1.00  0.00    -0.508 OA
ATOM     27  H   UNL     1      40.345  22.001  -0.408  1.00  0.00     0.293 HD
ENDBRANCH   8  26
TORSDOF 6
ENDMDL
MODEL 9
REMARK VINA RESULT:    -4.778      1.760      7.144
REMARK INTER + INTRA:          -6.039
REMARK INTER:                  -5.886
REMARK INTRA:                  -0.154
REMARK UNBOUND:                -0.283
REMARK SMILES O=c1c(O)c(-c2ccc(O)c(O)c2)oc2cc(O)cc(O)c12
REMARK SMILES IDX 5 1 3 2 2 3 1 4 22 5 20 6 19 7 17 8 16 9 15 10 14 11 6 12
REMARK SMILES IDX 7 13 8 14 9 15 13 16 11 17 10 18 12 20 4 22 21 24 18 26
REMARK H PARENT 10 19 12 21 4 23 21 25 18 27
REMARK Flexibility Score: inf
ROOT
ATOM      1  C   UNL     1      46.157  15.746  -4.164  1.00  0.00     0.180 A 
ATOM      2  C   UNL     1      45.482  14.550  -4.464  1.00  0.00     0.208 A 
ATOM      3  C   UNL     1      44.155  14.391  -4.035  1.00  0.00     0.238 A 
ATOM      4  O   UNL     1      43.538  13.341  -4.352  1.00  0.00    -0.285 OA
ATOM      5  C   UNL     1      43.524  15.423  -3.298  1.00  0.00     0.111 A 
ATOM      6  C   UNL     1      42.198  15.354  -2.778  1.00  0.00     0.134 A 
ATOM      7  C   UNL     1      41.631  16.485  -2.177  1.00  0.00     0.093 A 
ATOM      8  C   UNL     1      42.366  17.662  -2.019  1.00  0.00     0.123 A 
ATOM      9  C   UNL     1      43.683  17.720  -2.470  1.00  0.00     0.094 A 
ATOM     10  C   UNL     1      44.263  16.620  -3.105  1.00  0.00     0.146 A 
ATOM     11  O   UNL     1      45.518  16.721  -3.530  1.00  0.00    -0.452 OA
ENDROOT
BRANCH   1  12
ATOM     12  C   UNL     1      47.565  15.978  -4.562  1.00  0.00     0.025 A 
ATOM     13  C   UNL     1      47.906  16.967  -5.502  1.00  0.00     0.016 A 
ATOM     14  C   UNL     1      49.238  17.150  -5.881  1.00  0.00     0.051 A 
ATOM     15  C   UNL     1      50.246  16.344  -5.338  1.00  0.00     0.157 A 
ATOM     16  C   UNL     1      48.576  15.158  -4.037  1.00  0.00     0.062 A 
ATOM     17  C   UNL     1      49.912  15.340  -4.413  1.00  0.00     0.158 A 
BRANCH  15  18
ATOM     18  O   UNL     1      51.575  16.533  -5.717  1.00  0.00    -0.504 OA
ATOM     19  H   UNL     1      51.859  17.326  -6.279  1.00  0.00     0.293 HD
ENDBRANCH  15  18
BRANCH  17  20
ATOM     20  O   UNL     1      50.891  14.515  -3.860  1.00  0.00    -0.504 OA
ATOM     21  H   UNL     1      51.783  14.361  -4.313  1.00  0.00     0.293 HD
ENDBRANCH  17  20
ENDBRANCH   1  12
BRANCH   2  22
ATOM     22  O   UNL     1      46.116  13.553  -5.211  1.00  0.00    -0.502 OA
ATOM     23  H   UNL     1      45.790  13.270  -6.128  1.00  0.00     0.293 HD
ENDBRANCH   2  22
BRANCH   6  24
ATOM     24  O   UNL     1      41.409  14.198  -2.801  1.00  0.00    -0.507 OA
ATOM     25  H   UNL     1      40.681  13.986  -2.137  1.00  0.00     0.293 HD
ENDBRANCH   6  24
BRANCH   8  26
ATOM     26  O   UNL     1      41.800  18.777  -1.406  1.00  0.00    -0.508 OA
ATOM     27  H   UNL     1      42.247  19.685  -1.439  1.00  0.00     0.293 HD
ENDBRANCH   8  26
TORSDOF 6
ENDMDL
