MODEL 1
REMARK VINA RESULT:    -5.125      0.000      0.000
REMARK INTER + INTRA:          -9.298
REMARK INTER:                  -8.720
REMARK INTRA:                  -0.578
REMARK UNBOUND:                -0.578
REMARK SMILES CCCCCCCCCCCCCC(=O)[O-]
REMARK SMILES IDX 8 1 9 2 10 3 11 4 12 5 13 6 14 7 15 8 16 9 7 10 6 11 5 12
REMARK SMILES IDX 4 13 3 14 2 15 1 16
REMARK H PARENT
REMARK Flexibility Score: inf
ROOT
ATOM      1  C   UNL     1      96.507 124.591 124.854  1.00  0.00     0.000 C 
ENDROOT
BRANCH   1   2
ATOM      2  C   UNL     1      95.382 123.926 124.038  1.00  0.00     0.000 C 
BRANCH   2   3
ATOM      3  C   UNL     1      94.299 123.217 124.873  1.00  0.00     0.000 C 
BRANCH   3   4
ATOM      4  C   UNL     1      92.974 123.047 124.116  1.00  0.00     0.000 C 
BRANCH   4   5
ATOM      5  C   UNL     1      93.181 123.212 122.603  1.00  0.00     0.006 C 
BRANCH   5   6
ATOM      6  C   UNL     1      92.463 122.122 121.796  1.00  0.00     0.053 C 
BRANCH   6   7
ATOM      7  C   UNL     1      92.883 122.129 120.358  1.00  0.00     0.041 C 
ATOM      8  O   UNL     1      93.871 121.443 119.983  1.00  0.00    -0.550 OA
ATOM      9  O   UNL     1      92.165 122.868 119.427  1.00  0.00    -0.550 OA
ENDBRANCH   6   7
ENDBRANCH   5   6
ENDBRANCH   4   5
ENDBRANCH   3   4
ENDBRANCH   2   3
ENDBRANCH   1   2
BRANCH   1  10
ATOM     10  C   UNL     1      97.026 123.700 125.996  1.00  0.00     0.000 C 
BRANCH  10  11
ATOM     11  C   UNL     1      98.329 124.232 126.612  1.00  0.00    -0.000 C 
BRANCH  11  12
ATOM     12  C   UNL     1      99.487 123.228 126.514  1.00  0.00    -0.000 C 
BRANCH  12  13
ATOM     13  C   UNL     1      98.962 121.788 126.457  1.00  0.00    -0.000 C 
BRANCH  13  14
ATOM     14  C   UNL     1     100.056 120.786 126.852  1.00  0.00    -0.000 C 
BRANCH  14  15
ATOM     15  C   UNL     1     101.347 120.970 126.038  1.00  0.00    -0.003 C 
ATOM     16  C   UNL     1     101.821 119.673 125.382  1.00  0.00     0.004 C 
ENDBRANCH  14  15
ENDBRANCH  13  14
ENDBRANCH  12  13
ENDBRANCH  11  12
ENDBRANCH  10  11
ENDBRANCH   1  10
TORSDOF 12
ENDMDL
MODEL 2
REMARK VINA RESULT:    -4.977      3.223      7.667
REMARK INTER + INTRA:          -9.046
REMARK INTER:                  -8.419
REMARK INTRA:                  -0.627
REMARK UNBOUND:                -0.578
REMARK SMILES CCCCCCCCCCCCCC(=O)[O-]
REMARK SMILES IDX 8 1 9 2 10 3 11 4 12 5 13 6 14 7 15 8 16 9 7 10 6 11 5 12
REMARK SMILES IDX 4 13 3 14 2 15 1 16
REMARK H PARENT
REMARK Flexibility Score: inf
ROOT
ATOM      1  C   UNL     1      96.617 124.653 124.884  1.00  0.00     0.000 C 
ENDROOT
BRANCH   1   2
ATOM      2  C   UNL     1      97.075 123.722 126.021  1.00  0.00     0.000 C 
BRANCH   2   3
ATOM      3  C   UNL     1      98.391 124.129 126.711  1.00  0.00     0.000 C 
BRANCH   3   4
ATOM      4  C   UNL     1      99.551 123.171 126.404  1.00  0.00     0.000 C 
BRANCH   4   5
ATOM      5  C   UNL     1      99.099 121.707 126.515  1.00  0.00     0.006 C 
BRANCH   5   6
ATOM      6  C   UNL     1     100.271 120.756 126.793  1.00  0.00     0.053 C 
BRANCH   6   7
ATOM      7  C   UNL     1     100.877 120.238 125.525  1.00  0.00     0.041 C 
ATOM      8  O   UNL     1     102.115 120.351 125.320  1.00  0.00    -0.550 OA
ATOM      9  O   UNL     1     100.079 119.601 124.583  1.00  0.00    -0.550 OA
ENDBRANCH   6   7
ENDBRANCH   5   6
ENDBRANCH   4   5
ENDBRANCH   3   4
ENDBRANCH   2   3
ENDBRANCH   1   2
BRANCH   1  10
ATOM     10  C   UNL     1      95.385 124.120 124.132  1.00  0.00     0.000 C 
BRANCH  10  11
ATOM     11  C   UNL     1      94.515 123.200 125.004  1.00  0.00    -0.000 C 
BRANCH  11  12
ATOM     12  C   UNL     1      93.098 123.015 124.442  1.00  0.00    -0.000 C 
BRANCH  12  13
ATOM     13  C   UNL     1      93.030 123.446 122.971  1.00  0.00    -0.000 C 
BRANCH  13  14
ATOM     14  C   UNL     1      92.439 122.330 122.097  1.00  0.00    -0.000 C 
BRANCH  14  15
ATOM     15  C   UNL     1      93.170 122.182 120.754  1.00  0.00    -0.003 C 
ATOM     16  C   UNL     1      92.287 122.536 119.558  1.00  0.00     0.004 C 
ENDBRANCH  14  15
ENDBRANCH  13  14
ENDBRANCH  12  13
ENDBRANCH  11  12
ENDBRANCH  10  11
ENDBRANCH   1  10
TORSDOF 12
ENDMDL
MODEL 3
REMARK VINA RESULT:    -4.619      3.707      8.423
REMARK INTER + INTRA:          -8.437
REMARK INTER:                  -7.721
REMARK INTRA:                  -0.716
REMARK UNBOUND:                -0.578
REMARK SMILES CCCCCCCCCCCCCC(=O)[O-]
REMARK SMILES IDX 8 1 9 2 10 3 11 4 12 5 13 6 14 7 15 8 16 9 7 10 6 11 5 12
REMARK SMILES IDX 4 13 3 14 2 15 1 16
REMARK H PARENT
REMARK Flexibility Score: inf
ROOT
ATOM      1  C   UNL     1      92.859 123.362 122.608  1.00  0.00     0.000 C 
ENDROOT
BRANCH   1   2
ATOM      2  C   UNL     1      92.918 123.016 124.108  1.00  0.00     0.000 C 
BRANCH   2   3
ATOM      3  C   UNL     1      94.307 123.153 124.757  1.00  0.00     0.000 C 
BRANCH   3   4
ATOM      4  C   UNL     1      95.235 124.110 123.994  1.00  0.00     0.000 C 
BRANCH   4   5
ATOM      5  C   UNL     1      96.516 124.388 124.793  1.00  0.00     0.006 C 
BRANCH   5   6
ATOM      6  C   UNL     1      96.649 123.469 126.015  1.00  0.00     0.053 C 
BRANCH   6   7
ATOM      7  C   UNL     1      98.080 123.287 126.418  1.00  0.00     0.041 C 
ATOM      8  O   UNL     1      98.786 124.285 126.722  1.00  0.00    -0.550 OA
ATOM      9  O   UNL     1      98.626 122.011 126.489  1.00  0.00    -0.550 OA
ENDBRANCH   6   7
ENDBRANCH   5   6
ENDBRANCH   4   5
ENDBRANCH   3   4
ENDBRANCH   2   3
ENDBRANCH   1   2
BRANCH   1  10
ATOM     10  C   UNL     1      92.631 122.128 121.717  1.00  0.00     0.000 C 
BRANCH  10  11
ATOM     11  C   UNL     1      93.812 121.860 120.770  1.00  0.00    -0.000 C 
BRANCH  11  12
ATOM     12  C   UNL     1      93.370 121.652 119.314  1.00  0.00    -0.000 C 
BRANCH  12  13
ATOM     13  C   UNL     1      92.217 122.597 118.950  1.00  0.00    -0.000 C 
BRANCH  13  14
ATOM     14  C   UNL     1      91.757 122.371 117.502  1.00  0.00    -0.000 C 
BRANCH  14  15
ATOM     15  C   UNL     1      92.152 120.986 116.966  1.00  0.00    -0.003 C 
ATOM     16  C   UNL     1      92.226 120.943 115.440  1.00  0.00     0.004 C 
ENDBRANCH  14  15
ENDBRANCH  13  14
ENDBRANCH  12  13
ENDBRANCH  11  12
ENDBRANCH  10  11
ENDBRANCH   1  10
TORSDOF 12
ENDMDL
MODEL 4
REMARK VINA RESULT:    -4.429     12.612     15.167
REMARK INTER + INTRA:          -8.114
REMARK INTER:                  -7.298
REMARK INTRA:                  -0.816
REMARK UNBOUND:                -0.578
REMARK SMILES CCCCCCCCCCCCCC(=O)[O-]
REMARK SMILES IDX 8 1 9 2 10 3 11 4 12 5 13 6 14 7 15 8 16 9 7 10 6 11 5 12
REMARK SMILES IDX 4 13 3 14 2 15 1 16
REMARK H PARENT
REMARK Flexibility Score: inf
ROOT
ATOM      1  C   UNL     1      83.128 126.366 129.768  1.00  0.00     0.000 C 
ENDROOT
BRANCH   1   2
ATOM      2  C   UNL     1      82.840 124.855 129.838  1.00  0.00     0.000 C 
BRANCH   2   3
ATOM      3  C   UNL     1      82.606 124.169 128.479  1.00  0.00     0.000 C 
BRANCH   3   4
ATOM      4  C   UNL     1      83.784 123.286 128.042  1.00  0.00     0.000 C 
BRANCH   4   5
ATOM      5  C   UNL     1      84.657 124.008 127.005  1.00  0.00     0.006 C 
BRANCH   5   6
ATOM      6  C   UNL     1      83.942 124.171 125.656  1.00  0.00     0.053 C 
BRANCH   6   7
ATOM      7  C   UNL     1      83.744 122.853 124.972  1.00  0.00     0.041 C 
ATOM      8  O   UNL     1      84.731 122.109 124.730  1.00  0.00    -0.550 OA
ATOM      9  O   UNL     1      82.465 122.433 124.630  1.00  0.00    -0.550 OA
ENDBRANCH   6   7
ENDBRANCH   5   6
ENDBRANCH   4   5
ENDBRANCH   3   4
ENDBRANCH   2   3
ENDBRANCH   1   2
BRANCH   1  10
ATOM     10  C   UNL     1      82.172 127.199 130.639  1.00  0.00     0.000 C 
BRANCH  10  11
ATOM     11  C   UNL     1      82.602 128.671 130.743  1.00  0.00    -0.000 C 
BRANCH  11  12
ATOM     12  C   UNL     1      84.101 128.872 130.480  1.00  0.00    -0.000 C 
BRANCH  12  13
ATOM     13  C   UNL     1      84.815 129.394 131.734  1.00  0.00    -0.000 C 
BRANCH  13  14
ATOM     14  C   UNL     1      83.836 130.136 132.655  1.00  0.00    -0.000 C 
BRANCH  14  15
ATOM     15  C   UNL     1      83.930 131.663 132.510  1.00  0.00    -0.003 C 
ATOM     16  C   UNL     1      82.761 132.255 131.723  1.00  0.00     0.004 C 
ENDBRANCH  14  15
ENDBRANCH  13  14
ENDBRANCH  12  13
ENDBRANCH  11  12
ENDBRANCH  10  11
ENDBRANCH   1  10
TORSDOF 12
ENDMDL
MODEL 5
REMARK VINA RESULT:    -4.361     13.654     15.476
REMARK INTER + INTRA:          -7.999
REMARK INTER:                  -7.088
REMARK INTRA:                  -0.911
REMARK UNBOUND:                -0.578
REMARK SMILES CCCCCCCCCCCCCC(=O)[O-]
REMARK SMILES IDX 8 1 9 2 10 3 11 4 12 5 13 6 14 7 15 8 16 9 7 10 6 11 5 12
REMARK SMILES IDX 4 13 3 14 2 15 1 16
REMARK H PARENT
REMARK Flexibility Score: inf
ROOT
ATOM      1  C   UNL     1      82.095 124.475 127.800  1.00  0.00     0.000 C 
ENDROOT
BRANCH   1   2
ATOM      2  C   UNL     1      83.444 124.699 128.509  1.00  0.00     0.000 C 
BRANCH   2   3
ATOM      3  C   UNL     1      83.382 125.579 129.771  1.00  0.00     0.000 C 
BRANCH   3   4
ATOM      4  C   UNL     1      82.028 126.283 129.945  1.00  0.00     0.000 C 
BRANCH   4   5
ATOM      5  C   UNL     1      82.215 127.708 130.488  1.00  0.00     0.006 C 
BRANCH   5   6
ATOM      6  C   UNL     1      83.595 128.285 130.141  1.00  0.00     0.053 C 
BRANCH   6   7
ATOM      7  C   UNL     1      84.028 129.320 131.133  1.00  0.00     0.041 C 
ATOM      8  O   UNL     1      85.062 129.139 131.829  1.00  0.00    -0.550 OA
ATOM      9  O   UNL     1      83.307 130.499 131.268  1.00  0.00    -0.550 OA
ENDBRANCH   6   7
ENDBRANCH   5   6
ENDBRANCH   4   5
ENDBRANCH   3   4
ENDBRANCH   2   3
ENDBRANCH   1   2
BRANCH   1  10
ATOM     10  C   UNL     1      82.254 123.921 126.373  1.00  0.00     0.000 C 
BRANCH  10  11
ATOM     11  C   UNL     1      83.669 124.135 125.812  1.00  0.00    -0.000 C 
BRANCH  11  12
ATOM     12  C   UNL     1      84.113 123.002 124.875  1.00  0.00    -0.000 C 
BRANCH  12  13
ATOM     13  C   UNL     1      83.841 121.629 125.505  1.00  0.00    -0.000 C 
BRANCH  13  14
ATOM     14  C   UNL     1      83.081 120.718 124.530  1.00  0.00    -0.000 C 
BRANCH  14  15
ATOM     15  C   UNL     1      82.284 121.509 123.481  1.00  0.00    -0.003 C 
ATOM     16  C   UNL     1      82.560 121.040 122.052  1.00  0.00     0.004 C 
ENDBRANCH  14  15
ENDBRANCH  13  14
ENDBRANCH  12  13
ENDBRANCH  11  12
ENDBRANCH  10  11
ENDBRANCH   1  10
TORSDOF 12
ENDMDL
MODEL 6
REMARK VINA RESULT:    -4.326     13.974     16.016
REMARK INTER + INTRA:          -7.939
REMARK INTER:                  -7.364
REMARK INTRA:                  -0.575
REMARK UNBOUND:                -0.578
REMARK SMILES CCCCCCCCCCCCCC(=O)[O-]
REMARK SMILES IDX 8 1 9 2 10 3 11 4 12 5 13 6 14 7 15 8 16 9 7 10 6 11 5 12
REMARK SMILES IDX 4 13 3 14 2 15 1 16
REMARK H PARENT
REMARK Flexibility Score: inf
ROOT
ATOM      1  C   UNL     1      83.364 125.496 129.439  1.00  0.00     0.000 C 
ENDROOT
BRANCH   1   2
ATOM      2  C   UNL     1      82.951 126.806 130.137  1.00  0.00     0.000 C 
BRANCH   2   3
ATOM      3  C   UNL     1      83.471 126.972 131.577  1.00  0.00     0.000 C 
BRANCH   3   4
ATOM      4  C   UNL     1      84.374 128.202 131.751  1.00  0.00     0.000 C 
BRANCH   4   5
ATOM      5  C   UNL     1      83.927 129.346 130.829  1.00  0.00     0.006 C 
BRANCH   5   6
ATOM      6  C   UNL     1      82.812 130.196 131.456  1.00  0.00     0.053 C 
BRANCH   6   7
ATOM      7  C   UNL     1      83.327 131.517 131.939  1.00  0.00     0.041 C 
ATOM      8  O   UNL     1      84.310 131.566 132.724  1.00  0.00    -0.550 OA
ATOM      9  O   UNL     1      82.740 132.695 131.496  1.00  0.00    -0.550 OA
ENDBRANCH   6   7
ENDBRANCH   5   6
ENDBRANCH   4   5
ENDBRANCH   3   4
ENDBRANCH   2   3
ENDBRANCH   1   2
BRANCH   1  10
ATOM     10  C   UNL     1      82.176 124.755 128.803  1.00  0.00     0.000 C 
BRANCH  10  11
ATOM     11  C   UNL     1      82.533 124.122 127.449  1.00  0.00    -0.000 C 
BRANCH  11  12
ATOM     12  C   UNL     1      83.990 124.380 127.039  1.00  0.00    -0.000 C 
BRANCH  12  13
ATOM     13  C   UNL     1      84.230 123.976 125.578  1.00  0.00    -0.000 C 
BRANCH  13  14
ATOM     14  C   UNL     1      83.065 123.132 125.042  1.00  0.00    -0.000 C 
BRANCH  14  15
ATOM     15  C   UNL     1      83.501 121.717 124.629  1.00  0.00    -0.003 C 
ATOM     16  C   UNL     1      82.800 121.230 123.361  1.00  0.00     0.004 C 
ENDBRANCH  14  15
ENDBRANCH  13  14
ENDBRANCH  12  13
ENDBRANCH  11  12
ENDBRANCH  10  11
ENDBRANCH   1  10
TORSDOF 12
ENDMDL
MODEL 7
REMARK VINA RESULT:    -4.293     13.313     15.029
REMARK INTER + INTRA:          -7.883
REMARK INTER:                  -6.636
REMARK INTRA:                  -1.247
REMARK UNBOUND:                -0.578
REMARK SMILES CCCCCCCCCCCCCC(=O)[O-]
REMARK SMILES IDX 8 1 9 2 10 3 11 4 12 5 13 6 14 7 15 8 16 9 7 10 6 11 5 12
REMARK SMILES IDX 4 13 3 14 2 15 1 16
REMARK H PARENT
REMARK Flexibility Score: inf
ROOT
ATOM      1  C   UNL     1      84.101 124.155 128.322  1.00  0.00     0.000 C 
ENDROOT
BRANCH   1   2
ATOM      2  C   UNL     1      82.575 124.221 128.518  1.00  0.00     0.000 C 
BRANCH   2   3
ATOM      3  C   UNL     1      82.060 125.484 129.234  1.00  0.00     0.000 C 
BRANCH   3   4
ATOM      4  C   UNL     1      83.121 126.138 130.132  1.00  0.00     0.000 C 
BRANCH   4   5
ATOM      5  C   UNL     1      82.757 127.598 130.437  1.00  0.00     0.006 C 
BRANCH   5   6
ATOM      6  C   UNL     1      83.927 128.556 130.173  1.00  0.00     0.053 C 
BRANCH   6   7
ATOM      7  C   UNL     1      84.012 129.628 131.215  1.00  0.00     0.041 C 
ATOM      8  O   UNL     1      83.126 130.521 131.280  1.00  0.00    -0.550 OA
ATOM      9  O   UNL     1      85.052 129.623 132.136  1.00  0.00    -0.550 OA
ENDBRANCH   6   7
ENDBRANCH   5   6
ENDBRANCH   4   5
ENDBRANCH   3   4
ENDBRANCH   2   3
ENDBRANCH   1   2
BRANCH   1  10
ATOM     10  C   UNL     1      84.525 124.341 126.855  1.00  0.00     0.000 C 
BRANCH  10  11
ATOM     11  C   UNL     1      83.338 124.249 125.882  1.00  0.00    -0.000 C 
BRANCH  11  12
ATOM     12  C   UNL     1      83.554 123.203 124.778  1.00  0.00    -0.000 C 
BRANCH  12  13
ATOM     13  C   UNL     1      84.488 122.084 125.257  1.00  0.00    -0.000 C 
BRANCH  13  14
ATOM     14  C   UNL     1      83.713 120.778 125.478  1.00  0.00    -0.000 C 
BRANCH  14  15
ATOM     15  C   UNL     1      83.482 120.472 126.966  1.00  0.00    -0.003 C 
ATOM     16  C   UNL     1      84.766 120.553 127.792  1.00  0.00     0.004 C 
ENDBRANCH  14  15
ENDBRANCH  13  14
ENDBRANCH  12  13
ENDBRANCH  11  12
ENDBRANCH  10  11
ENDBRANCH   1  10
TORSDOF 12
ENDMDL
MODEL 8
REMARK VINA RESULT:    -4.205     12.708     14.485
REMARK INTER + INTRA:          -7.732
REMARK INTER:                  -6.928
REMARK INTRA:                  -0.805
REMARK UNBOUND:                -0.578
REMARK SMILES CCCCCCCCCCCCCC(=O)[O-]
REMARK SMILES IDX 8 1 9 2 10 3 11 4 12 5 13 6 14 7 15 8 16 9 7 10 6 11 5 12
REMARK SMILES IDX 4 13 3 14 2 15 1 16
REMARK H PARENT
REMARK Flexibility Score: inf
ROOT
ATOM      1  C   UNL     1      83.611 124.736 128.352  1.00  0.00     0.000 C 
ENDROOT
BRANCH   1   2
ATOM      2  C   UNL     1      82.971 124.116 127.096  1.00  0.00     0.000 C 
BRANCH   2   3
ATOM      3  C   UNL     1      83.839 124.169 125.825  1.00  0.00     0.000 C 
BRANCH   3   4
ATOM      4  C   UNL     1      83.521 123.039 124.834  1.00  0.00     0.000 C 
BRANCH   4   5
ATOM      5  C   UNL     1      84.501 121.870 125.001  1.00  0.00     0.006 C 
BRANCH   5   6
ATOM      6  C   UNL     1      83.866 120.678 125.730  1.00  0.00     0.053 C 
BRANCH   6   7
ATOM      7  C   UNL     1      84.568 120.378 127.018  1.00  0.00     0.041 C 
ATOM      8  O   UNL     1      84.911 121.315 127.787  1.00  0.00    -0.550 OA
ATOM      9  O   UNL     1      84.814 119.062 127.387  1.00  0.00    -0.550 OA
ENDBRANCH   6   7
ENDBRANCH   5   6
ENDBRANCH   4   5
ENDBRANCH   3   4
ENDBRANCH   2   3
ENDBRANCH   1   2
BRANCH   1  10
ATOM     10  C   UNL     1      82.573 125.303 129.336  1.00  0.00     0.000 C 
BRANCH  10  11
ATOM     11  C   UNL     1      83.044 125.226 130.798  1.00  0.00    -0.000 C 
BRANCH  11  12
ATOM     12  C   UNL     1      83.392 126.603 131.382  1.00  0.00    -0.000 C 
BRANCH  12  13
ATOM     13  C   UNL     1      82.940 127.729 130.443  1.00  0.00    -0.000 C 
BRANCH  13  14
ATOM     14  C   UNL     1      84.114 128.652 130.086  1.00  0.00    -0.000 C 
BRANCH  14  15
ATOM     15  C   UNL     1      84.802 129.241 131.328  1.00  0.00    -0.003 C 
ATOM     16  C   UNL     1      83.947 130.293 132.033  1.00  0.00     0.004 C 
ENDBRANCH  14  15
ENDBRANCH  13  14
ENDBRANCH  12  13
ENDBRANCH  11  12
ENDBRANCH  10  11
ENDBRANCH   1  10
TORSDOF 12
ENDMDL
MODEL 9
REMARK VINA RESULT:    -4.181     12.244     14.435
REMARK INTER + INTRA:          -7.693
REMARK INTER:                  -7.008
REMARK INTRA:                  -0.685
REMARK UNBOUND:                -0.578
REMARK SMILES CCCCCCCCCCCCCC(=O)[O-]
REMARK SMILES IDX 8 1 9 2 10 3 11 4 12 5 13 6 14 7 15 8 16 9 7 10 6 11 5 12
REMARK SMILES IDX 4 13 3 14 2 15 1 16
REMARK H PARENT
REMARK Flexibility Score: inf
ROOT
ATOM      1  C   UNL     1      82.992 124.432 127.839  1.00  0.00     0.000 C 
ENDROOT
BRANCH   1   2
ATOM      2  C   UNL     1      84.167 124.432 126.843  1.00  0.00     0.000 C 
BRANCH   2   3
ATOM      3  C   UNL     1      85.125 123.232 126.961  1.00  0.00     0.000 C 
BRANCH   3   4
ATOM      4  C   UNL     1      84.402 121.916 127.284  1.00  0.00     0.000 C 
BRANCH   4   5
ATOM      5  C   UNL     1      84.372 120.991 126.059  1.00  0.00     0.006 C 
BRANCH   5   6
ATOM      6  C   UNL     1      84.409 121.773 124.739  1.00  0.00     0.053 C 
BRANCH   6   7
ATOM      7  C   UNL     1      83.051 121.873 124.115  1.00  0.00     0.041 C 
ATOM      8  O   UNL     1      82.853 121.432 122.952  1.00  0.00    -0.550 OA
ATOM      9  O   UNL     1      81.996 122.424 124.831  1.00  0.00    -0.550 OA
ENDBRANCH   6   7
ENDBRANCH   5   6
ENDBRANCH   4   5
ENDBRANCH   3   4
ENDBRANCH   2   3
ENDBRANCH   1   2
BRANCH   1  10
ATOM     10  C   UNL     1      83.391 124.937 129.236  1.00  0.00     0.000 C 
BRANCH  10  11
ATOM     11  C   UNL     1      82.299 125.803 129.883  1.00  0.00    -0.000 C 
BRANCH  11  12
ATOM     12  C   UNL     1      82.856 126.774 130.935  1.00  0.00    -0.000 C 
BRANCH  12  13
ATOM     13  C   UNL     1      82.188 128.150 130.823  1.00  0.00    -0.000 C 
BRANCH  13  14
ATOM     14  C   UNL     1      83.206 129.225 130.419  1.00  0.00    -0.000 C 
BRANCH  14  15
ATOM     15  C   UNL     1      84.600 128.972 131.015  1.00  0.00    -0.003 C 
ATOM     16  C   UNL     1      84.807 129.677 132.355  1.00  0.00     0.004 C 
ENDBRANCH  14  15
ENDBRANCH  13  14
ENDBRANCH  12  13
ENDBRANCH  11  12
ENDBRANCH  10  11
ENDBRANCH   1  10
TORSDOF 12
ENDMDL
