MODEL 1
REMARK VINA RESULT:    26.632      0.000      0.000
REMARK INTER + INTRA:          31.038
REMARK INTER:                  31.303
REMARK INTRA:                  -0.264
REMARK UNBOUND:                -0.264
REMARK SMILES O=c1cc(-c2ccc(O)c(O)c2)oc2cc(O)cc(O)c12
REMARK SMILES IDX 4 1 3 2 2 3 1 4 21 5 19 6 18 7 16 8 15 9 14 10 13 11 5 12
REMARK SMILES IDX 6 13 7 14 8 15 12 16 10 17 9 18 11 20 20 22 17 24
REMARK H PARENT 9 19 11 21 20 23 17 25
REMARK Flexibility Score: inf
ROOT
ATOM      1  C   UNL     1      -6.004   7.729  16.577  1.00  0.00     0.138 A 
ATOM      2  C   UNL     1      -4.772   8.376  16.413  1.00  0.00     0.100 A 
ATOM      3  C   UNL     1      -4.675   9.748  16.651  1.00  0.00     0.197 A 
ATOM      4  O   UNL     1      -3.544  10.290  16.549  1.00  0.00    -0.289 OA
ATOM      5  C   UNL     1      -5.828  10.481  17.022  1.00  0.00     0.107 A 
ATOM      6  C   UNL     1      -5.857  11.889  17.257  1.00  0.00     0.134 A 
ATOM      7  C   UNL     1      -7.038  12.487  17.716  1.00  0.00     0.093 A 
ATOM      8  C   UNL     1      -8.203  11.743  17.892  1.00  0.00     0.123 A 
ATOM      9  C   UNL     1      -8.199  10.376  17.616  1.00  0.00     0.094 A 
ATOM     10  C   UNL     1      -7.030   9.742  17.191  1.00  0.00     0.146 A 
ATOM     11  O   UNL     1      -7.064   8.434  16.956  1.00  0.00    -0.456 OA
ENDROOT
BRANCH   1  12
ATOM     12  C   UNL     1      -6.165   6.273  16.334  1.00  0.00     0.021 A 
ATOM     13  C   UNL     1      -5.884   5.365  17.370  1.00  0.00     0.016 A 
ATOM     14  C   UNL     1      -6.020   3.991  17.166  1.00  0.00     0.051 A 
ATOM     15  C   UNL     1      -6.429   3.497  15.924  1.00  0.00     0.157 A 
ATOM     16  C   UNL     1      -6.564   5.771  15.081  1.00  0.00     0.062 A 
ATOM     17  C   UNL     1      -6.700   4.389  14.875  1.00  0.00     0.158 A 
BRANCH  15  18
ATOM     18  O   UNL     1      -6.558   2.119  15.751  1.00  0.00    -0.504 OA
ATOM     19  H   UNL     1      -7.042   1.535  16.422  1.00  0.00     0.293 HD
ENDBRANCH  15  18
BRANCH  17  20
ATOM     20  O   UNL     1      -7.097   3.903  13.631  1.00  0.00    -0.504 OA
ATOM     21  H   UNL     1      -7.963   3.389  13.511  1.00  0.00     0.293 HD
ENDBRANCH  17  20
ENDBRANCH   1  12
BRANCH   6  22
ATOM     22  O   UNL     1      -4.771  12.743  17.039  1.00  0.00    -0.507 OA
ATOM     23  H   UNL     1      -3.838  12.596  17.390  1.00  0.00     0.293 HD
ENDBRANCH   6  22
BRANCH   8  24
ATOM     24  O   UNL     1      -9.362  12.376  18.334  1.00  0.00    -0.508 OA
ATOM     25  H   UNL     1      -9.920  11.993  19.088  1.00  0.00     0.293 HD
ENDBRANCH   8  24
TORSDOF 5
ENDMDL
MODEL 2
REMARK VINA RESULT:    26.683      4.779      5.686
REMARK INTER + INTRA:          31.099
REMARK INTER:                  31.388
REMARK INTRA:                  -0.290
REMARK UNBOUND:                -0.264
REMARK SMILES O=c1cc(-c2ccc(O)c(O)c2)oc2cc(O)cc(O)c12
REMARK SMILES IDX 4 1 3 2 2 3 1 4 21 5 19 6 18 7 16 8 15 9 14 10 13 11 5 12
REMARK SMILES IDX 6 13 7 14 8 15 12 16 10 17 9 18 11 20 20 22 17 24
REMARK H PARENT 9 19 11 21 20 23 17 25
REMARK Flexibility Score: inf
ROOT
ATOM      1  C   UNL     1     -10.345   8.047  19.526  1.00  0.00     0.138 A 
ATOM      2  C   UNL     1      -8.965   8.224  19.698  1.00  0.00     0.100 A 
ATOM      3  C   UNL     1      -8.358   9.395  19.241  1.00  0.00     0.197 A 
ATOM      4  O   UNL     1      -7.127   9.548  19.459  1.00  0.00    -0.289 OA
ATOM      5  C   UNL     1      -9.131  10.377  18.578  1.00  0.00     0.107 A 
ATOM      6  C   UNL     1      -8.614  11.594  18.039  1.00  0.00     0.134 A 
ATOM      7  C   UNL     1      -9.495  12.535  17.491  1.00  0.00     0.093 A 
ATOM      8  C   UNL     1     -10.863  12.281  17.409  1.00  0.00     0.123 A 
ATOM      9  C   UNL     1     -11.373  11.073  17.886  1.00  0.00     0.094 A 
ATOM     10  C   UNL     1     -10.526  10.128  18.469  1.00  0.00     0.146 A 
ATOM     11  O   UNL     1     -11.054   8.998  18.928  1.00  0.00    -0.456 OA
ENDROOT
BRANCH   1  12
ATOM     12  C   UNL     1     -11.043   6.821  19.989  1.00  0.00     0.021 A 
ATOM     13  C   UNL     1     -12.239   6.430  19.364  1.00  0.00     0.016 A 
ATOM     14  C   UNL     1     -12.919   5.285  19.784  1.00  0.00     0.051 A 
ATOM     15  C   UNL     1     -12.424   4.516  20.841  1.00  0.00     0.157 A 
ATOM     16  C   UNL     1     -10.554   6.050  21.061  1.00  0.00     0.062 A 
ATOM     17  C   UNL     1     -11.238   4.900  21.485  1.00  0.00     0.158 A 
BRANCH  15  18
ATOM     18  O   UNL     1     -13.124   3.377  21.237  1.00  0.00    -0.504 OA
ATOM     19  H   UNL     1     -14.075   3.422  21.581  1.00  0.00     0.293 HD
ENDBRANCH  15  18
BRANCH  17  20
ATOM     20  O   UNL     1     -10.745   4.145  22.548  1.00  0.00    -0.504 OA
ATOM     21  H   UNL     1     -10.206   4.566  23.296  1.00  0.00     0.293 HD
ENDBRANCH  17  20
ENDBRANCH   1  12
BRANCH   6  22
ATOM     22  O   UNL     1      -7.254  11.918  17.998  1.00  0.00    -0.507 OA
ATOM     23  H   UNL     1      -6.800  12.421  17.252  1.00  0.00     0.293 HD
ENDBRANCH   6  22
BRANCH   8  24
ATOM     24  O   UNL     1     -11.707  13.233  16.842  1.00  0.00    -0.508 OA
ATOM     25  H   UNL     1     -12.702  13.069  16.746  1.00  0.00     0.293 HD
ENDBRANCH   8  24
TORSDOF 5
ENDMDL
MODEL 3
REMARK VINA RESULT:    26.806     11.567     12.462
REMARK INTER + INTRA:          31.243
REMARK INTER:                  31.552
REMARK INTRA:                  -0.309
REMARK UNBOUND:                -0.264
REMARK SMILES O=c1cc(-c2ccc(O)c(O)c2)oc2cc(O)cc(O)c12
REMARK SMILES IDX 4 1 3 2 2 3 1 4 21 5 19 6 18 7 16 8 15 9 14 10 13 11 5 12
REMARK SMILES IDX 6 13 7 14 8 15 12 16 10 17 9 18 11 20 20 22 17 24
REMARK H PARENT 9 19 11 21 20 23 17 25
REMARK Flexibility Score: inf
ROOT
ATOM      1  C   UNL     1      -5.743  -2.364  12.930  1.00  0.00     0.138 A 
ATOM      2  C   UNL     1      -6.595  -1.860  11.938  1.00  0.00     0.100 A 
ATOM      3  C   UNL     1      -7.977  -1.915  12.123  1.00  0.00     0.197 A 
ATOM      4  O   UNL     1      -8.715  -1.405  11.240  1.00  0.00    -0.289 OA
ATOM      5  C   UNL     1      -8.508  -2.508  13.294  1.00  0.00     0.107 A 
ATOM      6  C   UNL     1      -9.901  -2.651  13.575  1.00  0.00     0.134 A 
ATOM      7  C   UNL     1     -10.305  -3.167  14.813  1.00  0.00     0.093 A 
ATOM      8  C   UNL     1      -9.372  -3.600  15.754  1.00  0.00     0.123 A 
ATOM      9  C   UNL     1      -8.009  -3.512  15.469  1.00  0.00     0.094 A 
ATOM     10  C   UNL     1      -7.572  -2.970  14.258  1.00  0.00     0.146 A 
ATOM     11  O   UNL     1      -6.265  -2.888  14.033  1.00  0.00    -0.456 OA
ENDROOT
BRANCH   1  12
ATOM     12  C   UNL     1      -4.265  -2.335  12.784  1.00  0.00     0.021 A 
ATOM     13  C   UNL     1      -3.674  -1.386  11.931  1.00  0.00     0.016 A 
ATOM     14  C   UNL     1      -2.288  -1.342  11.771  1.00  0.00     0.051 A 
ATOM     15  C   UNL     1      -1.468  -2.248  12.449  1.00  0.00     0.157 A 
ATOM     16  C   UNL     1      -3.436  -3.253  13.455  1.00  0.00     0.062 A 
ATOM     17  C   UNL     1      -2.043  -3.210  13.293  1.00  0.00     0.158 A 
BRANCH  15  18
ATOM     18  O   UNL     1      -0.086  -2.178  12.270  1.00  0.00    -0.504 OA
ATOM     19  H   UNL     1       0.548  -1.999  13.039  1.00  0.00     0.293 HD
ENDBRANCH  15  18
BRANCH  17  20
ATOM     20  O   UNL     1      -1.232  -4.124  13.963  1.00  0.00    -0.504 OA
ATOM     21  H   UNL     1      -0.337  -3.854  14.356  1.00  0.00     0.293 HD
ENDBRANCH  17  20
ENDBRANCH   1  12
BRANCH   6  22
ATOM     22  O   UNL     1     -10.920  -2.324  12.675  1.00  0.00    -0.507 OA
ATOM     23  H   UNL     1     -11.789  -1.878  12.920  1.00  0.00     0.293 HD
ENDBRANCH   6  22
BRANCH   8  24
ATOM     24  O   UNL     1      -9.812  -4.123  16.967  1.00  0.00    -0.508 OA
ATOM     25  H   UNL     1     -10.164  -5.070  17.039  1.00  0.00     0.293 HD
ENDBRANCH   8  24
TORSDOF 5
ENDMDL
MODEL 4
REMARK VINA RESULT:    27.187      1.351      7.136
REMARK INTER + INTRA:          31.691
REMARK INTER:                  31.957
REMARK INTRA:                  -0.267
REMARK UNBOUND:                -0.264
REMARK SMILES O=c1cc(-c2ccc(O)c(O)c2)oc2cc(O)cc(O)c12
REMARK SMILES IDX 4 1 3 2 2 3 1 4 21 5 19 6 18 7 16 8 15 9 14 10 13 11 5 12
REMARK SMILES IDX 6 13 7 14 8 15 12 16 10 17 9 18 11 20 20 22 17 24
REMARK H PARENT 9 19 11 21 20 23 17 25
REMARK Flexibility Score: inf
ROOT
ATOM      1  C   UNL     1      -5.950   7.396  16.624  1.00  0.00     0.138 A 
ATOM      2  C   UNL     1      -5.583   6.473  17.612  1.00  0.00     0.100 A 
ATOM      3  C   UNL     1      -5.803   5.111  17.401  1.00  0.00     0.197 A 
ATOM      4  O   UNL     1      -5.412   4.303  18.283  1.00  0.00    -0.289 OA
ATOM      5  C   UNL     1      -6.428   4.676  16.207  1.00  0.00     0.107 A 
ATOM      6  C   UNL     1      -6.735   3.316  15.898  1.00  0.00     0.134 A 
ATOM      7  C   UNL     1      -7.265   2.998  14.641  1.00  0.00     0.093 A 
ATOM      8  C   UNL     1      -7.554   3.991  13.706  1.00  0.00     0.123 A 
ATOM      9  C   UNL     1      -7.305   5.328  14.018  1.00  0.00     0.094 A 
ATOM     10  C   UNL     1      -6.745   5.676  15.249  1.00  0.00     0.146 A 
ATOM     11  O   UNL     1      -6.507   6.959  15.499  1.00  0.00    -0.456 OA
ENDROOT
BRANCH   1  12
ATOM     12  C   UNL     1      -5.742   8.856  16.797  1.00  0.00     0.021 A 
ATOM     13  C   UNL     1      -4.465   9.402  16.577  1.00  0.00     0.016 A 
ATOM     14  C   UNL     1      -4.241  10.771  16.740  1.00  0.00     0.051 A 
ATOM     15  C   UNL     1      -5.281  11.616  17.133  1.00  0.00     0.157 A 
ATOM     16  C   UNL     1      -6.784   9.710  17.206  1.00  0.00     0.062 A 
ATOM     17  C   UNL     1      -6.558  11.085  17.371  1.00  0.00     0.158 A 
BRANCH  15  18
ATOM     18  O   UNL     1      -5.027  12.979  17.286  1.00  0.00    -0.504 OA
ATOM     19  H   UNL     1      -5.751  13.635  17.552  1.00  0.00     0.293 HD
ENDBRANCH  15  18
BRANCH  17  20
ATOM     20  O   UNL     1      -7.597  11.921  17.776  1.00  0.00    -0.504 OA
ATOM     21  H   UNL     1      -8.405  12.090  17.187  1.00  0.00     0.293 HD
ENDBRANCH  17  20
ENDBRANCH   1  12
BRANCH   6  22
ATOM     22  O   UNL     1      -6.561   2.251  16.787  1.00  0.00    -0.507 OA
ATOM     23  H   UNL     1      -5.673   1.929  17.138  1.00  0.00     0.293 HD
ENDBRANCH   6  22
BRANCH   8  24
ATOM     24  O   UNL     1      -8.096   3.638  12.473  1.00  0.00    -0.508 OA
ATOM     25  H   UNL     1      -8.737   2.859  12.379  1.00  0.00     0.293 HD
ENDBRANCH   8  24
TORSDOF 5
ENDMDL
MODEL 5
REMARK VINA RESULT:    27.761      1.437      7.346
REMARK INTER + INTRA:          32.365
REMARK INTER:                  32.631
REMARK INTRA:                  -0.266
REMARK UNBOUND:                -0.264
REMARK SMILES O=c1cc(-c2ccc(O)c(O)c2)oc2cc(O)cc(O)c12
REMARK SMILES IDX 4 1 3 2 2 3 1 4 21 5 19 6 18 7 16 8 15 9 14 10 13 11 5 12
REMARK SMILES IDX 6 13 7 14 8 15 12 16 10 17 9 18 11 20 20 22 17 24
REMARK H PARENT 9 19 11 21 20 23 17 25
REMARK Flexibility Score: inf
ROOT
ATOM      1  C   UNL     1      -6.269   7.273  15.992  1.00  0.00     0.138 A 
ATOM      2  C   UNL     1      -7.095   6.987  14.898  1.00  0.00     0.100 A 
ATOM      3  C   UNL     1      -7.332   5.659  14.540  1.00  0.00     0.197 A 
ATOM      4  O   UNL     1      -8.123   5.433  13.587  1.00  0.00    -0.289 OA
ATOM      5  C   UNL     1      -6.708   4.613  15.262  1.00  0.00     0.107 A 
ATOM      6  C   UNL     1      -6.848   3.223  14.966  1.00  0.00     0.134 A 
ATOM      7  C   UNL     1      -6.260   2.276  15.814  1.00  0.00     0.093 A 
ATOM      8  C   UNL     1      -5.491   2.665  16.909  1.00  0.00     0.123 A 
ATOM      9  C   UNL     1      -5.305   4.022  17.177  1.00  0.00     0.094 A 
ATOM     10  C   UNL     1      -5.907   4.992  16.372  1.00  0.00     0.146 A 
ATOM     11  O   UNL     1      -5.720   6.273  16.673  1.00  0.00    -0.456 OA
ENDROOT
BRANCH   1  12
ATOM     12  C   UNL     1      -5.980   8.667  16.415  1.00  0.00     0.021 A 
ATOM     13  C   UNL     1      -4.673   9.169  16.292  1.00  0.00     0.016 A 
ATOM     14  C   UNL     1      -4.373  10.474  16.688  1.00  0.00     0.051 A 
ATOM     15  C   UNL     1      -5.367  11.297  17.223  1.00  0.00     0.157 A 
ATOM     16  C   UNL     1      -6.976   9.495  16.966  1.00  0.00     0.062 A 
ATOM     17  C   UNL     1      -6.674  10.806  17.367  1.00  0.00     0.158 A 
BRANCH  15  18
ATOM     18  O   UNL     1      -5.038  12.596  17.609  1.00  0.00    -0.504 OA
ATOM     19  H   UNL     1      -5.728  13.337  17.649  1.00  0.00     0.293 HD
ENDBRANCH  15  18
BRANCH  17  20
ATOM     20  O   UNL     1      -7.668  11.618  17.911  1.00  0.00    -0.504 OA
ATOM     21  H   UNL     1      -7.572  12.034  18.830  1.00  0.00     0.293 HD
ENDBRANCH  17  20
ENDBRANCH   1  12
BRANCH   6  22
ATOM     22  O   UNL     1      -7.530   2.723  13.852  1.00  0.00    -0.507 OA
ATOM     23  H   UNL     1      -7.379   1.817  13.439  1.00  0.00     0.293 HD
ENDBRANCH   6  22
BRANCH   8  24
ATOM     24  O   UNL     1      -4.908   1.695  17.720  1.00  0.00    -0.508 OA
ATOM     25  H   UNL     1      -4.810   0.735  17.411  1.00  0.00     0.293 HD
ENDBRANCH   8  24
TORSDOF 5
ENDMDL
MODEL 6
REMARK VINA RESULT:    29.332      2.025      6.912
REMARK INTER + INTRA:          34.212
REMARK INTER:                  34.519
REMARK INTRA:                  -0.307
REMARK UNBOUND:                -0.264
REMARK SMILES O=c1cc(-c2ccc(O)c(O)c2)oc2cc(O)cc(O)c12
REMARK SMILES IDX 4 1 3 2 2 3 1 4 21 5 19 6 18 7 16 8 15 9 14 10 13 11 5 12
REMARK SMILES IDX 6 13 7 14 8 15 12 16 10 17 9 18 11 20 20 22 17 24
REMARK H PARENT 9 19 11 21 20 23 17 25
REMARK Flexibility Score: inf
ROOT
ATOM      1  C   UNL     1      -7.044   8.412  16.755  1.00  0.00     0.138 A 
ATOM      2  C   UNL     1      -6.121   7.924  17.690  1.00  0.00     0.100 A 
ATOM      3  C   UNL     1      -5.603   6.637  17.541  1.00  0.00     0.197 A 
ATOM      4  O   UNL     1      -4.735   6.248  18.365  1.00  0.00    -0.289 OA
ATOM      5  C   UNL     1      -6.038   5.822  16.468  1.00  0.00     0.107 A 
ATOM      6  C   UNL     1      -5.605   4.481  16.236  1.00  0.00     0.134 A 
ATOM      7  C   UNL     1      -6.032   3.808  15.084  1.00  0.00     0.093 A 
ATOM      8  C   UNL     1      -6.919   4.402  14.188  1.00  0.00     0.123 A 
ATOM      9  C   UNL     1      -7.389   5.693  14.432  1.00  0.00     0.094 A 
ATOM     10  C   UNL     1      -6.956   6.405  15.553  1.00  0.00     0.146 A 
ATOM     11  O   UNL     1      -7.414   7.638  15.739  1.00  0.00    -0.456 OA
ENDROOT
BRANCH   1  12
ATOM     12  C   UNL     1      -7.630   9.772  16.866  1.00  0.00     0.021 A 
ATOM     13  C   UNL     1      -7.790  10.353  18.136  1.00  0.00     0.016 A 
ATOM     14  C   UNL     1      -8.345  11.627  18.269  1.00  0.00     0.051 A 
ATOM     15  C   UNL     1      -8.759  12.340  17.141  1.00  0.00     0.157 A 
ATOM     16  C   UNL     1      -8.060  10.488  15.733  1.00  0.00     0.062 A 
ATOM     17  C   UNL     1      -8.620  11.768  15.867  1.00  0.00     0.158 A 
BRANCH  15  18
ATOM     18  O   UNL     1      -9.308  13.611  17.305  1.00  0.00    -0.504 OA
ATOM     19  H   UNL     1      -9.871  13.855  18.111  1.00  0.00     0.293 HD
ENDBRANCH  15  18
BRANCH  17  20
ATOM     20  O   UNL     1      -9.042  12.469  14.738  1.00  0.00    -0.504 OA
ATOM     21  H   UNL     1      -9.606  13.308  14.812  1.00  0.00     0.293 HD
ENDBRANCH  17  20
ENDBRANCH   1  12
BRANCH   6  22
ATOM     22  O   UNL     1      -4.780   3.762  17.106  1.00  0.00    -0.507 OA
ATOM     23  H   UNL     1      -3.974   4.136  17.582  1.00  0.00     0.293 HD
ENDBRANCH   6  22
BRANCH   8  24
ATOM     24  O   UNL     1      -7.335   3.697  13.062  1.00  0.00    -0.508 OA
ATOM     25  H   UNL     1      -6.895   3.832  12.160  1.00  0.00     0.293 HD
ENDBRANCH   8  24
TORSDOF 5
ENDMDL
