MODEL 1
REMARK VINA RESULT:    -4.853      0.000      0.000
REMARK INTER + INTRA:          -9.433
REMARK INTER:                  -8.257
REMARK INTRA:                  -1.177
REMARK UNBOUND:                -1.177
REMARK SMILES CCCCCCCCCCCCCC(=O)[O-]
REMARK SMILES IDX 8 1 9 2 10 3 11 4 12 5 13 6 14 7 15 8 16 9 7 10 6 11 5 12
REMARK SMILES IDX 4 13 3 14 2 15 1 16
REMARK H PARENT
REMARK Flexibility Score: inf
ROOT
ATOM      1  C   UNL     1      -4.609  36.483  21.306  1.00  0.00     0.000 C 
ENDROOT
BRANCH   1   2
ATOM      2  C   UNL     1      -4.845  37.190  19.960  1.00  0.00     0.000 C 
BRANCH   2   3
ATOM      3  C   UNL     1      -3.699  36.967  18.956  1.00  0.00     0.000 C 
BRANCH   3   4
ATOM      4  C   UNL     1      -2.565  38.005  19.020  1.00  0.00     0.000 C 
BRANCH   4   5
ATOM      5  C   UNL     1      -1.604  37.918  17.821  1.00  0.00     0.006 C 
BRANCH   5   6
ATOM      6  C   UNL     1      -2.092  36.926  16.758  1.00  0.00     0.053 C 
BRANCH   6   7
ATOM      7  C   UNL     1      -2.387  37.607  15.457  1.00  0.00     0.041 C 
ATOM      8  O   UNL     1      -1.815  37.230  14.400  1.00  0.00    -0.550 OA
ATOM      9  O   UNL     1      -3.267  38.682  15.417  1.00  0.00    -0.550 OA
ENDBRANCH   6   7
ENDBRANCH   5   6
ENDBRANCH   4   5
ENDBRANCH   3   4
ENDBRANCH   2   3
ENDBRANCH   1   2
BRANCH   1  10
ATOM     10  C   UNL     1      -5.894  36.362  22.141  1.00  0.00     0.000 C 
BRANCH  10  11
ATOM     11  C   UNL     1      -5.642  35.729  23.521  1.00  0.00    -0.000 C 
BRANCH  11  12
ATOM     12  C   UNL     1      -5.815  36.734  24.672  1.00  0.00    -0.000 C 
BRANCH  12  13
ATOM     13  C   UNL     1      -6.012  38.176  24.178  1.00  0.00    -0.000 C 
BRANCH  13  14
ATOM     14  C   UNL     1      -4.753  39.018  24.428  1.00  0.00    -0.000 C 
BRANCH  14  15
ATOM     15  C   UNL     1      -4.215  39.673  23.146  1.00  0.00    -0.003 C 
ATOM     16  C   UNL     1      -5.329  40.138  22.208  1.00  0.00     0.004 C 
ENDBRANCH  14  15
ENDBRANCH  13  14
ENDBRANCH  12  13
ENDBRANCH  11  12
ENDBRANCH  10  11
ENDBRANCH   1  10
TORSDOF 12
ENDMDL
MODEL 2
REMARK VINA RESULT:    -4.835      3.533      7.620
REMARK INTER + INTRA:          -9.404
REMARK INTER:                  -8.681
REMARK INTRA:                  -0.723
REMARK UNBOUND:                -1.177
REMARK SMILES CCCCCCCCCCCCCC(=O)[O-]
REMARK SMILES IDX 8 1 9 2 10 3 11 4 12 5 13 6 14 7 15 8 16 9 7 10 6 11 5 12
REMARK SMILES IDX 4 13 3 14 2 15 1 16
REMARK H PARENT
REMARK Flexibility Score: inf
ROOT
ATOM      1  C   UNL     1      -4.308  38.002  20.312  1.00  0.00     0.000 C 
ENDROOT
BRANCH   1   2
ATOM      2  C   UNL     1      -4.611  36.587  20.835  1.00  0.00     0.000 C 
BRANCH   2   3
ATOM      3  C   UNL     1      -5.786  36.554  21.829  1.00  0.00     0.000 C 
BRANCH   3   4
ATOM      4  C   UNL     1      -5.557  35.690  23.082  1.00  0.00     0.000 C 
BRANCH   4   5
ATOM      5  C   UNL     1      -5.911  36.423  24.388  1.00  0.00     0.006 C 
BRANCH   5   6
ATOM      6  C   UNL     1      -6.056  37.937  24.182  1.00  0.00     0.053 C 
BRANCH   6   7
ATOM      7  C   UNL     1      -4.852  38.681  24.674  1.00  0.00     0.041 C 
ATOM      8  O   UNL     1      -4.449  39.707  24.065  1.00  0.00    -0.550 OA
ATOM      9  O   UNL     1      -4.154  38.221  25.784  1.00  0.00    -0.550 OA
ENDBRANCH   6   7
ENDBRANCH   5   6
ENDBRANCH   4   5
ENDBRANCH   3   4
ENDBRANCH   2   3
ENDBRANCH   1   2
BRANCH   1  10
ATOM     10  C   UNL     1      -3.734  37.992  18.886  1.00  0.00     0.000 C 
BRANCH  10  11
ATOM     11  C   UNL     1      -2.236  38.344  18.852  1.00  0.00    -0.000 C 
BRANCH  11  12
ATOM     12  C   UNL     1      -1.493  37.653  17.696  1.00  0.00    -0.000 C 
BRANCH  12  13
ATOM     13  C   UNL     1      -2.446  37.006  16.679  1.00  0.00    -0.000 C 
BRANCH  13  14
ATOM     14  C   UNL     1      -2.072  37.410  15.245  1.00  0.00    -0.000 C 
BRANCH  14  15
ATOM     15  C   UNL     1      -3.304  37.654  14.359  1.00  0.00    -0.003 C 
ATOM     16  C   UNL     1      -3.760  39.113  14.368  1.00  0.00     0.004 C 
ENDBRANCH  14  15
ENDBRANCH  13  14
ENDBRANCH  12  13
ENDBRANCH  11  12
ENDBRANCH  10  11
ENDBRANCH   1  10
TORSDOF 12
ENDMDL
MODEL 3
REMARK VINA RESULT:    -4.764      2.865      6.424
REMARK INTER + INTRA:          -9.283
REMARK INTER:                  -8.098
REMARK INTRA:                  -1.186
REMARK UNBOUND:                -1.177
REMARK SMILES CCCCCCCCCCCCCC(=O)[O-]
REMARK SMILES IDX 8 1 9 2 10 3 11 4 12 5 13 6 14 7 15 8 16 9 7 10 6 11 5 12
REMARK SMILES IDX 4 13 3 14 2 15 1 16
REMARK H PARENT
REMARK Flexibility Score: inf
ROOT
ATOM      1  C   UNL     1      -4.583  36.245  22.043  1.00  0.00     0.000 C 
ENDROOT
BRANCH   1   2
ATOM      2  C   UNL     1      -5.256  35.581  23.257  1.00  0.00     0.000 C 
BRANCH   2   3
ATOM      3  C   UNL     1      -5.876  36.600  24.231  1.00  0.00     0.000 C 
BRANCH   3   4
ATOM      4  C   UNL     1      -4.864  37.376  25.094  1.00  0.00     0.000 C 
BRANCH   4   5
ATOM      5  C   UNL     1      -4.865  38.888  24.804  1.00  0.00     0.006 C 
BRANCH   5   6
ATOM      6  C   UNL     1      -5.833  39.261  23.674  1.00  0.00     0.053 C 
BRANCH   6   7
ATOM      7  C   UNL     1      -5.125  39.928  22.535  1.00  0.00     0.041 C 
ATOM      8  O   UNL     1      -3.878  39.810  22.407  1.00  0.00    -0.550 OA
ATOM      9  O   UNL     1      -5.837  40.711  21.635  1.00  0.00    -0.550 OA
ENDBRANCH   6   7
ENDBRANCH   5   6
ENDBRANCH   4   5
ENDBRANCH   3   4
ENDBRANCH   2   3
ENDBRANCH   1   2
BRANCH   1  10
ATOM     10  C   UNL     1      -5.590  36.615  20.942  1.00  0.00     0.000 C 
BRANCH  10  11
ATOM     11  C   UNL     1      -4.946  37.427  19.804  1.00  0.00    -0.000 C 
BRANCH  11  12
ATOM     12  C   UNL     1      -3.522  36.952  19.472  1.00  0.00    -0.000 C 
BRANCH  12  13
ATOM     13  C   UNL     1      -2.599  38.100  19.032  1.00  0.00    -0.000 C 
BRANCH  13  14
ATOM     14  C   UNL     1      -1.898  37.763  17.709  1.00  0.00    -0.000 C 
BRANCH  14  15
ATOM     15  C   UNL     1      -2.777  36.922  16.770  1.00  0.00    -0.003 C 
ATOM     16  C   UNL     1      -2.756  37.428  15.328  1.00  0.00     0.004 C 
ENDBRANCH  14  15
ENDBRANCH  13  14
ENDBRANCH  12  13
ENDBRANCH  11  12
ENDBRANCH  10  11
ENDBRANCH   1  10
TORSDOF 12
ENDMDL
MODEL 4
REMARK VINA RESULT:    -4.689      1.377      1.914
REMARK INTER + INTRA:          -9.155
REMARK INTER:                  -7.645
REMARK INTRA:                  -1.510
REMARK UNBOUND:                -1.177
REMARK SMILES CCCCCCCCCCCCCC(=O)[O-]
REMARK SMILES IDX 8 1 9 2 10 3 11 4 12 5 13 6 14 7 15 8 16 9 7 10 6 11 5 12
REMARK SMILES IDX 4 13 3 14 2 15 1 16
REMARK H PARENT
REMARK Flexibility Score: inf
ROOT
ATOM      1  C   UNL     1      -4.772  36.047  22.301  1.00  0.00     0.000 C 
ENDROOT
BRANCH   1   2
ATOM      2  C   UNL     1      -5.807  36.518  21.263  1.00  0.00     0.000 C 
BRANCH   2   3
ATOM      3  C   UNL     1      -5.284  36.437  19.817  1.00  0.00     0.000 C 
BRANCH   3   4
ATOM      4  C   UNL     1      -3.768  36.653  19.659  1.00  0.00     0.000 C 
BRANCH   4   5
ATOM      5  C   UNL     1      -3.412  38.063  19.158  1.00  0.00     0.006 C 
BRANCH   5   6
ATOM      6  C   UNL     1      -3.070  38.078  17.662  1.00  0.00     0.053 C 
BRANCH   6   7
ATOM      7  C   UNL     1      -1.650  37.672  17.414  1.00  0.00     0.041 C 
ATOM      8  O   UNL     1      -1.348  37.024  16.377  1.00  0.00    -0.550 OA
ATOM      9  O   UNL     1      -0.665  37.978  18.345  1.00  0.00    -0.550 OA
ENDBRANCH   6   7
ENDBRANCH   5   6
ENDBRANCH   4   5
ENDBRANCH   3   4
ENDBRANCH   2   3
ENDBRANCH   1   2
BRANCH   1  10
ATOM     10  C   UNL     1      -5.429  35.480  23.570  1.00  0.00     0.000 C 
BRANCH  10  11
ATOM     11  C   UNL     1      -6.008  36.581  24.476  1.00  0.00    -0.000 C 
BRANCH  11  12
ATOM     12  C   UNL     1      -4.916  37.384  25.202  1.00  0.00    -0.000 C 
BRANCH  12  13
ATOM     13  C   UNL     1      -4.959  38.883  24.868  1.00  0.00    -0.000 C 
BRANCH  13  14
ATOM     14  C   UNL     1      -6.063  39.185  23.845  1.00  0.00    -0.000 C 
BRANCH  14  15
ATOM     15  C   UNL     1      -5.518  39.822  22.557  1.00  0.00    -0.003 C 
ATOM     16  C   UNL     1      -3.992  39.781  22.477  1.00  0.00     0.004 C 
ENDBRANCH  14  15
ENDBRANCH  13  14
ENDBRANCH  12  13
ENDBRANCH  11  12
ENDBRANCH  10  11
ENDBRANCH   1  10
TORSDOF 12
ENDMDL
MODEL 5
REMARK VINA RESULT:    -4.363      1.986      3.154
REMARK INTER + INTRA:          -8.600
REMARK INTER:                  -7.465
REMARK INTRA:                  -1.135
REMARK UNBOUND:                -1.177
REMARK SMILES CCCCCCCCCCCCCC(=O)[O-]
REMARK SMILES IDX 8 1 9 2 10 3 11 4 12 5 13 6 14 7 15 8 16 9 7 10 6 11 5 12
REMARK SMILES IDX 4 13 3 14 2 15 1 16
REMARK H PARENT
REMARK Flexibility Score: inf
ROOT
ATOM      1  C   UNL     1      -4.909  37.043  20.739  1.00  0.00     0.000 C 
ENDROOT
BRANCH   1   2
ATOM      2  C   UNL     1      -3.859  36.298  19.896  1.00  0.00     0.000 C 
BRANCH   2   3
ATOM      3  C   UNL     1      -4.433  35.736  18.582  1.00  0.00     0.000 C 
BRANCH   3   4
ATOM      4  C   UNL     1      -3.581  36.006  17.330  1.00  0.00     0.000 C 
BRANCH   4   5
ATOM      5  C   UNL     1      -3.019  37.438  17.283  1.00  0.00     0.006 C 
BRANCH   5   6
ATOM      6  C   UNL     1      -1.487  37.462  17.360  1.00  0.00     0.053 C 
BRANCH   6   7
ATOM      7  C   UNL     1      -1.004  38.214  18.562  1.00  0.00     0.041 C 
ATOM      8  O   UNL     1      -1.800  38.931  19.223  1.00  0.00    -0.550 OA
ATOM      9  O   UNL     1       0.334  38.152  18.931  1.00  0.00    -0.550 OA
ENDBRANCH   6   7
ENDBRANCH   5   6
ENDBRANCH   4   5
ENDBRANCH   3   4
ENDBRANCH   2   3
ENDBRANCH   1   2
BRANCH   1  10
ATOM     10  C   UNL     1      -4.876  38.563  20.511  1.00  0.00     0.000 C 
BRANCH  10  11
ATOM     11  C   UNL     1      -4.565  39.345  21.800  1.00  0.00    -0.000 C 
BRANCH  11  12
ATOM     12  C   UNL     1      -5.460  38.923  22.977  1.00  0.00    -0.000 C 
BRANCH  12  13
ATOM     13  C   UNL     1      -4.663  38.648  24.261  1.00  0.00    -0.000 C 
BRANCH  13  14
ATOM     14  C   UNL     1      -5.134  37.349  24.931  1.00  0.00    -0.000 C 
BRANCH  14  15
ATOM     15  C   UNL     1      -6.125  36.560  24.060  1.00  0.00    -0.003 C 
ATOM     16  C   UNL     1      -5.577  35.201  23.624  1.00  0.00     0.004 C 
ENDBRANCH  14  15
ENDBRANCH  13  14
ENDBRANCH  12  13
ENDBRANCH  11  12
ENDBRANCH  10  11
ENDBRANCH   1  10
TORSDOF 12
ENDMDL
MODEL 6
REMARK VINA RESULT:    -4.307      3.896      7.560
REMARK INTER + INTRA:          -8.505
REMARK INTER:                  -7.793
REMARK INTRA:                  -0.712
REMARK UNBOUND:                -1.177
REMARK SMILES CCCCCCCCCCCCCC(=O)[O-]
REMARK SMILES IDX 8 1 9 2 10 3 11 4 12 5 13 6 14 7 15 8 16 9 7 10 6 11 5 12
REMARK SMILES IDX 4 13 3 14 2 15 1 16
REMARK H PARENT
REMARK Flexibility Score: inf
ROOT
ATOM      1  C   UNL     1      -4.184  36.324  20.190  1.00  0.00     0.000 C 
ENDROOT
BRANCH   1   2
ATOM      2  C   UNL     1      -5.064  37.311  20.977  1.00  0.00     0.000 C 
BRANCH   2   3
ATOM      3  C   UNL     1      -4.364  38.656  21.244  1.00  0.00     0.000 C 
BRANCH   3   4
ATOM      4  C   UNL     1      -5.298  39.806  21.664  1.00  0.00     0.000 C 
BRANCH   4   5
ATOM      5  C   UNL     1      -5.685  39.751  23.152  1.00  0.00     0.006 C 
BRANCH   5   6
ATOM      6  C   UNL     1      -4.532  39.251  24.033  1.00  0.00     0.053 C 
BRANCH   6   7
ATOM      7  C   UNL     1      -5.006  38.278  25.068  1.00  0.00     0.041 C 
ATOM      8  O   UNL     1      -5.351  38.684  26.209  1.00  0.00    -0.550 OA
ATOM      9  O   UNL     1      -5.033  36.918  24.785  1.00  0.00    -0.550 OA
ENDBRANCH   6   7
ENDBRANCH   5   6
ENDBRANCH   4   5
ENDBRANCH   3   4
ENDBRANCH   2   3
ENDBRANCH   1   2
BRANCH   1  10
ATOM     10  C   UNL     1      -4.858  35.837  18.897  1.00  0.00     0.000 C 
BRANCH  10  11
ATOM     11  C   UNL     1      -3.858  35.667  17.740  1.00  0.00    -0.000 C 
BRANCH  11  12
ATOM     12  C   UNL     1      -3.093  36.964  17.425  1.00  0.00    -0.000 C 
BRANCH  12  13
ATOM     13  C   UNL     1      -1.809  36.716  16.619  1.00  0.00    -0.000 C 
BRANCH  13  14
ATOM     14  C   UNL     1      -1.877  37.411  15.251  1.00  0.00    -0.000 C 
BRANCH  14  15
ATOM     15  C   UNL     1      -3.304  37.455  14.681  1.00  0.00    -0.003 C 
ATOM     16  C   UNL     1      -3.729  38.862  14.260  1.00  0.00     0.004 C 
ENDBRANCH  14  15
ENDBRANCH  13  14
ENDBRANCH  12  13
ENDBRANCH  11  12
ENDBRANCH  10  11
ENDBRANCH   1  10
TORSDOF 12
ENDMDL
MODEL 7
REMARK VINA RESULT:    -4.190      3.734      6.929
REMARK INTER + INTRA:          -8.306
REMARK INTER:                  -7.090
REMARK INTRA:                  -1.216
REMARK UNBOUND:                -1.177
REMARK SMILES CCCCCCCCCCCCCC(=O)[O-]
REMARK SMILES IDX 8 1 9 2 10 3 11 4 12 5 13 6 14 7 15 8 16 9 7 10 6 11 5 12
REMARK SMILES IDX 4 13 3 14 2 15 1 16
REMARK H PARENT
REMARK Flexibility Score: inf
ROOT
ATOM      1  C   UNL     1      -4.619  36.945  20.853  1.00  0.00     0.000 C 
ENDROOT
BRANCH   1   2
ATOM      2  C   UNL     1      -5.102  38.213  20.126  1.00  0.00     0.000 C 
BRANCH   2   3
ATOM      3  C   UNL     1      -5.145  39.450  21.043  1.00  0.00     0.000 C 
BRANCH   3   4
ATOM      4  C   UNL     1      -4.282  39.350  22.313  1.00  0.00     0.000 C 
BRANCH   4   5
ATOM      5  C   UNL     1      -5.013  39.843  23.575  1.00  0.00     0.006 C 
BRANCH   5   6
ATOM      6  C   UNL     1      -5.863  38.741  24.221  1.00  0.00     0.053 C 
BRANCH   6   7
ATOM      7  C   UNL     1      -5.012  37.664  24.820  1.00  0.00     0.041 C 
ATOM      8  O   UNL     1      -5.098  36.481  24.399  1.00  0.00    -0.550 OA
ATOM      9  O   UNL     1      -4.149  37.960  25.868  1.00  0.00    -0.550 OA
ENDBRANCH   6   7
ENDBRANCH   5   6
ENDBRANCH   4   5
ENDBRANCH   3   4
ENDBRANCH   2   3
ENDBRANCH   1   2
BRANCH   1  10
ATOM     10  C   UNL     1      -3.899  35.966  19.912  1.00  0.00     0.000 C 
BRANCH  10  11
ATOM     11  C   UNL     1      -4.534  35.921  18.511  1.00  0.00    -0.000 C 
BRANCH  11  12
ATOM     12  C   UNL     1      -3.512  35.601  17.408  1.00  0.00    -0.000 C 
BRANCH  12  13
ATOM     13  C   UNL     1      -3.104  36.840  16.596  1.00  0.00    -0.000 C 
BRANCH  13  14
ATOM     14  C   UNL     1      -1.708  37.329  17.008  1.00  0.00    -0.000 C 
BRANCH  14  15
ATOM     15  C   UNL     1      -1.736  38.207  18.268  1.00  0.00    -0.003 C 
ATOM     16  C   UNL     1      -0.365  38.332  18.933  1.00  0.00     0.004 C 
ENDBRANCH  14  15
ENDBRANCH  13  14
ENDBRANCH  12  13
ENDBRANCH  11  12
ENDBRANCH  10  11
ENDBRANCH   1  10
TORSDOF 12
ENDMDL
MODEL 8
REMARK VINA RESULT:    -4.024      3.747      7.225
REMARK INTER + INTRA:          -8.023
REMARK INTER:                  -6.823
REMARK INTRA:                  -1.200
REMARK UNBOUND:                -1.177
REMARK SMILES CCCCCCCCCCCCCC(=O)[O-]
REMARK SMILES IDX 8 1 9 2 10 3 11 4 12 5 13 6 14 7 15 8 16 9 7 10 6 11 5 12
REMARK SMILES IDX 4 13 3 14 2 15 1 16
REMARK H PARENT
REMARK Flexibility Score: inf
ROOT
ATOM      1  C   UNL     1      -4.192  37.837  19.732  1.00  0.00     0.000 C 
ENDROOT
BRANCH   1   2
ATOM      2  C   UNL     1      -5.063  37.888  20.999  1.00  0.00     0.000 C 
BRANCH   2   3
ATOM      3  C   UNL     1      -5.894  36.608  21.207  1.00  0.00     0.000 C 
BRANCH   3   4
ATOM      4  C   UNL     1      -5.752  35.956  22.595  1.00  0.00     0.000 C 
BRANCH   4   5
ATOM      5  C   UNL     1      -4.801  36.730  23.526  1.00  0.00     0.006 C 
BRANCH   5   6
ATOM      6  C   UNL     1      -5.467  37.098  24.858  1.00  0.00     0.053 C 
BRANCH   6   7
ATOM      7  C   UNL     1      -5.205  38.524  25.233  1.00  0.00     0.041 C 
ATOM      8  O   UNL     1      -5.370  38.908  26.421  1.00  0.00    -0.550 OA
ATOM      9  O   UNL     1      -4.813  39.439  24.263  1.00  0.00    -0.550 OA
ENDBRANCH   6   7
ENDBRANCH   5   6
ENDBRANCH   4   5
ENDBRANCH   3   4
ENDBRANCH   2   3
ENDBRANCH   1   2
BRANCH   1  10
ATOM     10  C   UNL     1      -3.549  36.458  19.515  1.00  0.00     0.000 C 
BRANCH  10  11
ATOM     11  C   UNL     1      -4.020  35.787  18.213  1.00  0.00    -0.000 C 
BRANCH  11  12
ATOM     12  C   UNL     1      -3.646  36.598  16.961  1.00  0.00    -0.000 C 
BRANCH  12  13
ATOM     13  C   UNL     1      -2.144  36.542  16.643  1.00  0.00    -0.000 C 
BRANCH  13  14
ATOM     14  C   UNL     1      -1.481  37.905  16.889  1.00  0.00    -0.000 C 
BRANCH  14  15
ATOM     15  C   UNL     1      -0.496  37.880  18.068  1.00  0.00    -0.003 C 
ATOM     16  C   UNL     1      -0.780  38.972  19.099  1.00  0.00     0.004 C 
ENDBRANCH  14  15
ENDBRANCH  13  14
ENDBRANCH  12  13
ENDBRANCH  11  12
ENDBRANCH  10  11
ENDBRANCH   1  10
TORSDOF 12
ENDMDL
MODEL 9
REMARK VINA RESULT:    -2.462      1.117      2.514
REMARK INTER + INTRA:          -5.366
REMARK INTER:                  -4.341
REMARK INTRA:                  -1.025
REMARK UNBOUND:                -1.177
REMARK SMILES CCCCCCCCCCCCCC(=O)[O-]
REMARK SMILES IDX 8 1 9 2 10 3 11 4 12 5 13 6 14 7 15 8 16 9 7 10 6 11 5 12
REMARK SMILES IDX 4 13 3 14 2 15 1 16
REMARK H PARENT
REMARK Flexibility Score: inf
ROOT
ATOM      1  C   UNL     1      -5.187  37.245  20.398  1.00  0.00     0.000 C 
ENDROOT
BRANCH   1   2
ATOM      2  C   UNL     1      -3.943  36.483  19.907  1.00  0.00     0.000 C 
BRANCH   2   3
ATOM      3  C   UNL     1      -4.247  35.531  18.736  1.00  0.00     0.000 C 
BRANCH   3   4
ATOM      4  C   UNL     1      -3.767  36.018  17.357  1.00  0.00     0.000 C 
BRANCH   4   5
ATOM      5  C   UNL     1      -2.551  36.957  17.444  1.00  0.00     0.006 C 
BRANCH   5   6
ATOM      6  C   UNL     1      -2.806  38.302  16.750  1.00  0.00     0.053 C 
BRANCH   6   7
ATOM      7  C   UNL     1      -2.822  38.162  15.259  1.00  0.00     0.041 C 
ATOM      8  O   UNL     1      -3.591  38.877  14.564  1.00  0.00    -0.550 OA
ATOM      9  O   UNL     1      -2.013  37.218  14.639  1.00  0.00    -0.550 OA
ENDBRANCH   6   7
ENDBRANCH   5   6
ENDBRANCH   4   5
ENDBRANCH   3   4
ENDBRANCH   2   3
ENDBRANCH   1   2
BRANCH   1  10
ATOM     10  C   UNL     1      -4.885  38.716  20.727  1.00  0.00     0.000 C 
BRANCH  10  11
ATOM     11  C   UNL     1      -4.323  38.898  22.148  1.00  0.00    -0.000 C 
BRANCH  11  12
ATOM     12  C   UNL     1      -5.428  39.090  23.200  1.00  0.00    -0.000 C 
BRANCH  12  13
ATOM     13  C   UNL     1      -4.909  38.951  24.640  1.00  0.00    -0.000 C 
BRANCH  13  14
ATOM     14  C   UNL     1      -4.985  37.491  25.111  1.00  0.00    -0.000 C 
BRANCH  14  15
ATOM     15  C   UNL     1      -6.125  36.711  24.438  1.00  0.00    -0.003 C 
ATOM     16  C   UNL     1      -5.624  35.529  23.608  1.00  0.00     0.004 C 
ENDBRANCH  14  15
ENDBRANCH  13  14
ENDBRANCH  12  13
ENDBRANCH  11  12
ENDBRANCH  10  11
ENDBRANCH   1  10
TORSDOF 12
ENDMDL
