MODEL 1
REMARK VINA RESULT:    -2.848      0.000      0.000
REMARK INTER + INTRA:          -3.616
REMARK INTER:                  -3.347
REMARK INTRA:                  -0.269
REMARK UNBOUND:                -0.269
REMARK SMILES O=c1c(O)c(-c2ccc(O)cc2)oc2cc(O)cc(O)c12
REMARK SMILES IDX 5 1 3 2 2 3 1 4 21 5 19 6 18 7 16 8 15 9 14 10 13 11 6 12
REMARK SMILES IDX 7 13 8 14 9 15 12 16 11 17 10 18 4 20 20 22 17 24
REMARK H PARENT 10 19 4 21 20 23 17 25
REMARK Flexibility Score: inf
ROOT
ATOM      1  C   UNL     1     -23.727 -19.057 -13.091  1.00  0.00     0.180 A 
ATOM      2  C   UNL     1     -22.374 -18.893 -12.744  1.00  0.00     0.208 A 
ATOM      3  C   UNL     1     -21.700 -17.735 -13.161  1.00  0.00     0.238 A 
ATOM      4  O   UNL     1     -20.504 -17.569 -12.801  1.00  0.00    -0.285 OA
ATOM      5  C   UNL     1     -22.381 -16.762 -13.932  1.00  0.00     0.111 A 
ATOM      6  C   UNL     1     -21.785 -15.570 -14.442  1.00  0.00     0.134 A 
ATOM      7  C   UNL     1     -22.585 -14.615 -15.081  1.00  0.00     0.093 A 
ATOM      8  C   UNL     1     -23.946 -14.840 -15.287  1.00  0.00     0.123 A 
ATOM      9  C   UNL     1     -24.527 -16.029 -14.845  1.00  0.00     0.094 A 
ATOM     10  C   UNL     1     -23.761 -16.983 -14.172  1.00  0.00     0.146 A 
ATOM     11  O   UNL     1     -24.355 -18.097 -13.759  1.00  0.00    -0.452 OA
ENDROOT
BRANCH   1  12
ATOM     12  C   UNL     1     -24.497 -20.262 -12.710  1.00  0.00     0.021 A 
ATOM     13  C   UNL     1     -24.704 -21.318 -13.617  1.00  0.00     0.016 A 
ATOM     14  C   UNL     1     -25.456 -22.435 -13.242  1.00  0.00     0.047 A 
ATOM     15  C   UNL     1     -26.021 -22.508 -11.965  1.00  0.00     0.115 A 
ATOM     16  C   UNL     1     -25.085 -20.334 -11.435  1.00  0.00     0.016 A 
ATOM     17  C   UNL     1     -25.835 -21.452 -11.062  1.00  0.00     0.047 A 
BRANCH  15  18
ATOM     18  O   UNL     1     -26.765 -23.629 -11.604  1.00  0.00    -0.508 OA
ATOM     19  H   UNL     1     -27.383 -24.088 -12.264  1.00  0.00     0.293 HD
ENDBRANCH  15  18
ENDBRANCH   1  12
BRANCH   2  20
ATOM     20  O   UNL     1     -21.727 -19.855 -11.963  1.00  0.00    -0.502 OA
ATOM     21  H   UNL     1     -20.767 -19.752 -11.657  1.00  0.00     0.293 HD
ENDBRANCH   2  20
BRANCH   6  22
ATOM     22  O   UNL     1     -20.416 -15.289 -14.371  1.00  0.00    -0.507 OA
ATOM     23  H   UNL     1     -19.683 -15.946 -14.589  1.00  0.00     0.293 HD
ENDBRANCH   6  22
BRANCH   8  24
ATOM     24  O   UNL     1     -24.711 -13.875 -15.941  1.00  0.00    -0.508 OA
ATOM     25  H   UNL     1     -24.680 -12.900 -15.668  1.00  0.00     0.293 HD
ENDBRANCH   8  24
TORSDOF 5
ENDMDL
MODEL 2
REMARK VINA RESULT:    -2.500      0.101      1.062
REMARK INTER + INTRA:          -3.208
REMARK INTER:                  -2.947
REMARK INTRA:                  -0.261
REMARK UNBOUND:                -0.269
REMARK SMILES O=c1c(O)c(-c2ccc(O)cc2)oc2cc(O)cc(O)c12
REMARK SMILES IDX 5 1 3 2 2 3 1 4 21 5 19 6 18 7 16 8 15 9 14 10 13 11 6 12
REMARK SMILES IDX 7 13 8 14 9 15 12 16 11 17 10 18 4 20 20 22 17 24
REMARK H PARENT 10 19 4 21 20 23 17 25
REMARK Flexibility Score: inf
ROOT
ATOM      1  C   UNL     1     -23.784 -19.069 -13.062  1.00  0.00     0.180 A 
ATOM      2  C   UNL     1     -22.441 -18.924 -12.672  1.00  0.00     0.208 A 
ATOM      3  C   UNL     1     -21.737 -17.775 -13.068  1.00  0.00     0.238 A 
ATOM      4  O   UNL     1     -20.552 -17.626 -12.670  1.00  0.00    -0.285 OA
ATOM      5  C   UNL     1     -22.379 -16.794 -13.860  1.00  0.00     0.111 A 
ATOM      6  C   UNL     1     -21.751 -15.610 -14.351  1.00  0.00     0.134 A 
ATOM      7  C   UNL     1     -22.517 -14.645 -15.016  1.00  0.00     0.093 A 
ATOM      8  C   UNL     1     -23.874 -14.850 -15.265  1.00  0.00     0.123 A 
ATOM      9  C   UNL     1     -24.485 -16.031 -14.842  1.00  0.00     0.094 A 
ATOM     10  C   UNL     1     -23.755 -16.996 -14.144  1.00  0.00     0.146 A 
ATOM     11  O   UNL     1     -24.376 -18.101 -13.750  1.00  0.00    -0.452 OA
ENDROOT
BRANCH   1  12
ATOM     12  C   UNL     1     -24.583 -20.263 -12.706  1.00  0.00     0.021 A 
ATOM     13  C   UNL     1     -25.167 -20.402 -11.434  1.00  0.00     0.016 A 
ATOM     14  C   UNL     1     -25.897 -21.551 -11.113  1.00  0.00     0.047 A 
ATOM     15  C   UNL     1     -26.041 -22.579 -12.050  1.00  0.00     0.115 A 
ATOM     16  C   UNL     1     -24.714 -21.310 -13.635  1.00  0.00     0.016 A 
ATOM     17  C   UNL     1     -25.445 -22.456 -13.312  1.00  0.00     0.047 A 
BRANCH  15  18
ATOM     18  O   UNL     1     -26.773 -23.716 -11.716  1.00  0.00    -0.508 OA
ATOM     19  H   UNL     1     -26.356 -24.640 -11.744  1.00  0.00     0.293 HD
ENDBRANCH  15  18
ENDBRANCH   1  12
BRANCH   2  20
ATOM     20  O   UNL     1     -21.833 -19.894 -11.871  1.00  0.00    -0.502 OA
ATOM     21  H   UNL     1     -21.115 -19.668 -11.193  1.00  0.00     0.293 HD
ENDBRANCH   2  20
BRANCH   6  22
ATOM     22  O   UNL     1     -20.382 -15.348 -14.237  1.00  0.00    -0.507 OA
ATOM     23  H   UNL     1     -19.985 -14.447 -14.019  1.00  0.00     0.293 HD
ENDBRANCH   6  22
BRANCH   8  24
ATOM     24  O   UNL     1     -24.604 -13.875 -15.943  1.00  0.00    -0.508 OA
ATOM     25  H   UNL     1     -25.611 -13.811 -15.855  1.00  0.00     0.293 HD
ENDBRANCH   8  24
TORSDOF 5
ENDMDL
MODEL 3
REMARK VINA RESULT:    -2.251      1.651      3.023
REMARK INTER + INTRA:          -2.915
REMARK INTER:                  -2.869
REMARK INTRA:                  -0.045
REMARK UNBOUND:                -0.269
REMARK SMILES O=c1c(O)c(-c2ccc(O)cc2)oc2cc(O)cc(O)c12
REMARK SMILES IDX 5 1 3 2 2 3 1 4 21 5 19 6 18 7 16 8 15 9 14 10 13 11 6 12
REMARK SMILES IDX 7 13 8 14 9 15 12 16 11 17 10 18 4 20 20 22 17 24
REMARK H PARENT 10 19 4 21 20 23 17 25
REMARK Flexibility Score: inf
ROOT
ATOM      1  C   UNL     1     -23.339 -18.660 -13.359  1.00  0.00     0.180 A 
ATOM      2  C   UNL     1     -24.363 -18.112 -14.153  1.00  0.00     0.208 A 
ATOM      3  C   UNL     1     -24.236 -16.792 -14.613  1.00  0.00     0.238 A 
ATOM      4  O   UNL     1     -25.130 -16.327 -15.368  1.00  0.00    -0.285 OA
ATOM      5  C   UNL     1     -23.096 -16.030 -14.261  1.00  0.00     0.111 A 
ATOM      6  C   UNL     1     -22.882 -14.670 -14.637  1.00  0.00     0.134 A 
ATOM      7  C   UNL     1     -21.659 -14.056 -14.344  1.00  0.00     0.093 A 
ATOM      8  C   UNL     1     -20.668 -14.729 -13.631  1.00  0.00     0.123 A 
ATOM      9  C   UNL     1     -20.890 -16.040 -13.206  1.00  0.00     0.094 A 
ATOM     10  C   UNL     1     -22.086 -16.692 -13.515  1.00  0.00     0.146 A 
ATOM     11  O   UNL     1     -22.253 -17.942 -13.101  1.00  0.00    -0.452 OA
ENDROOT
BRANCH   1  12
ATOM     12  C   UNL     1     -23.414 -20.035 -12.816  1.00  0.00     0.021 A 
ATOM     13  C   UNL     1     -22.440 -21.001 -13.129  1.00  0.00     0.016 A 
ATOM     14  C   UNL     1     -22.545 -22.301 -12.624  1.00  0.00     0.047 A 
ATOM     15  C   UNL     1     -23.627 -22.655 -11.813  1.00  0.00     0.115 A 
ATOM     16  C   UNL     1     -24.509 -20.405 -12.017  1.00  0.00     0.016 A 
ATOM     17  C   UNL     1     -24.611 -21.704 -11.512  1.00  0.00     0.047 A 
BRANCH  15  18
ATOM     18  O   UNL     1     -23.717 -23.953 -11.315  1.00  0.00    -0.508 OA
ATOM     19  H   UNL     1     -24.426 -24.599 -11.645  1.00  0.00     0.293 HD
ENDBRANCH  15  18
ENDBRANCH   1  12
BRANCH   2  20
ATOM     20  O   UNL     1     -25.469 -18.890 -14.507  1.00  0.00    -0.502 OA
ATOM     21  H   UNL     1     -25.434 -19.581 -15.247  1.00  0.00     0.293 HD
ENDBRANCH   2  20
BRANCH   6  22
ATOM     22  O   UNL     1     -23.843 -13.876 -15.273  1.00  0.00    -0.507 OA
ATOM     23  H   UNL     1     -24.165 -14.011 -16.219  1.00  0.00     0.293 HD
ENDBRANCH   6  22
BRANCH   8  24
ATOM     24  O   UNL     1     -19.468 -14.082 -13.343  1.00  0.00    -0.508 OA
ATOM     25  H   UNL     1     -18.640 -14.598 -13.069  1.00  0.00     0.293 HD
ENDBRANCH   8  24
TORSDOF 5
ENDMDL
MODEL 4
REMARK VINA RESULT:    -1.235      1.708      6.826
REMARK INTER + INTRA:          -1.721
REMARK INTER:                  -1.470
REMARK INTRA:                  -0.251
REMARK UNBOUND:                -0.269
REMARK SMILES O=c1c(O)c(-c2ccc(O)cc2)oc2cc(O)cc(O)c12
REMARK SMILES IDX 5 1 3 2 2 3 1 4 21 5 19 6 18 7 16 8 15 9 14 10 13 11 6 12
REMARK SMILES IDX 7 13 8 14 9 15 12 16 11 17 10 18 4 20 20 22 17 24
REMARK H PARENT 10 19 4 21 20 23 17 25
REMARK Flexibility Score: inf
ROOT
ATOM      1  C   UNL     1     -23.630 -19.205 -13.040  1.00  0.00     0.180 A 
ATOM      2  C   UNL     1     -24.148 -19.461 -11.758  1.00  0.00     0.208 A 
ATOM      3  C   UNL     1     -24.885 -20.636 -11.543  1.00  0.00     0.238 A 
ATOM      4  O   UNL     1     -25.300 -20.884 -10.380  1.00  0.00    -0.285 OA
ATOM      5  C   UNL     1     -25.109 -21.533 -12.614  1.00  0.00     0.111 A 
ATOM      6  C   UNL     1     -25.875 -22.734 -12.520  1.00  0.00     0.134 A 
ATOM      7  C   UNL     1     -25.921 -23.612 -13.609  1.00  0.00     0.093 A 
ATOM      8  C   UNL     1     -25.284 -23.303 -14.810  1.00  0.00     0.123 A 
ATOM      9  C   UNL     1     -24.582 -22.103 -14.933  1.00  0.00     0.094 A 
ATOM     10  C   UNL     1     -24.487 -21.224 -13.852  1.00  0.00     0.146 A 
ATOM     11  O   UNL     1     -23.802 -20.098 -14.007  1.00  0.00    -0.452 OA
ENDROOT
BRANCH   1  12
ATOM     12  C   UNL     1     -22.866 -17.976 -13.350  1.00  0.00     0.021 A 
ATOM     13  C   UNL     1     -21.517 -17.837 -12.976  1.00  0.00     0.016 A 
ATOM     14  C   UNL     1     -20.822 -16.657 -13.259  1.00  0.00     0.047 A 
ATOM     15  C   UNL     1     -21.468 -15.598 -13.905  1.00  0.00     0.115 A 
ATOM     16  C   UNL     1     -23.513 -16.900 -13.981  1.00  0.00     0.016 A 
ATOM     17  C   UNL     1     -22.817 -15.721 -14.263  1.00  0.00     0.047 A 
BRANCH  15  18
ATOM     18  O   UNL     1     -20.763 -14.429 -14.182  1.00  0.00    -0.508 OA
ATOM     19  H   UNL     1     -21.198 -13.650 -14.664  1.00  0.00     0.293 HD
ENDBRANCH  15  18
ENDBRANCH   1  12
BRANCH   2  20
ATOM     20  O   UNL     1     -23.897 -18.572 -10.709  1.00  0.00    -0.502 OA
ATOM     21  H   UNL     1     -23.632 -18.885  -9.782  1.00  0.00     0.293 HD
ENDBRANCH   2  20
BRANCH   6  22
ATOM     22  O   UNL     1     -26.625 -23.094 -11.396  1.00  0.00    -0.507 OA
ATOM     23  H   UNL     1     -27.622 -22.974 -11.307  1.00  0.00     0.293 HD
ENDBRANCH   6  22
BRANCH   8  24
ATOM     24  O   UNL     1     -25.363 -24.193 -15.880  1.00  0.00    -0.508 OA
ATOM     25  H   UNL     1     -24.906 -24.002 -16.763  1.00  0.00     0.293 HD
ENDBRANCH   8  24
TORSDOF 5
ENDMDL
