MODEL 1
REMARK VINA RESULT:    -6.055      0.000      0.000
REMARK INTER + INTRA:          -7.536
REMARK INTER:                  -7.294
REMARK INTRA:                  -0.242
REMARK UNBOUND:                -0.242
REMARK SMILES O=c1c(O)c(-c2ccc(O)c(O)c2)oc2cc(O)cc(O)c12
REMARK SMILES IDX 5 1 3 2 2 3 1 4 22 5 20 6 19 7 17 8 16 9 15 10 14 11 6 12
REMARK SMILES IDX 7 13 8 14 9 15 13 16 11 17 10 18 12 20 4 22 21 24 18 26
REMARK H PARENT 10 19 12 21 4 23 21 25 18 27
REMARK Flexibility Score: inf
ROOT
ATOM      1  C   UNL     1       3.798 -13.998   7.694  1.00  0.00     0.180 A 
ATOM      2  C   UNL     1       2.512 -13.586   8.082  1.00  0.00     0.208 A 
ATOM      3  C   UNL     1       2.136 -12.248   7.883  1.00  0.00     0.238 A 
ATOM      4  O   UNL     1       0.958 -11.905   8.164  1.00  0.00    -0.285 OA
ATOM      5  C   UNL     1       3.069 -11.325   7.350  1.00  0.00     0.111 A 
ATOM      6  C   UNL     1       2.811  -9.936   7.147  1.00  0.00     0.134 A 
ATOM      7  C   UNL     1       3.774  -9.141   6.514  1.00  0.00     0.093 A 
ATOM      8  C   UNL     1       5.008  -9.667   6.136  1.00  0.00     0.123 A 
ATOM      9  C   UNL     1       5.292 -11.011   6.379  1.00  0.00     0.094 A 
ATOM     10  C   UNL     1       4.337 -11.840   6.973  1.00  0.00     0.146 A 
ATOM     11  O   UNL     1       4.641 -13.117   7.167  1.00  0.00    -0.452 OA
ENDROOT
BRANCH   1  12
ATOM     12  C   UNL     1       4.262 -15.394   7.858  1.00  0.00     0.025 A 
ATOM     13  C   UNL     1       3.753 -16.394   7.014  1.00  0.00     0.016 A 
ATOM     14  C   UNL     1       4.161 -17.723   7.164  1.00  0.00     0.051 A 
ATOM     15  C   UNL     1       5.072 -18.072   8.170  1.00  0.00     0.157 A 
ATOM     16  C   UNL     1       5.161 -15.754   8.879  1.00  0.00     0.062 A 
ATOM     17  C   UNL     1       5.569 -17.087   9.032  1.00  0.00     0.158 A 
BRANCH  15  18
ATOM     18  O   UNL     1       5.482 -19.395   8.321  1.00  0.00    -0.504 OA
ATOM     19  H   UNL     1       4.896 -20.082   8.780  1.00  0.00     0.293 HD
ENDBRANCH  15  18
BRANCH  17  20
ATOM     20  O   UNL     1       6.464 -17.440  10.041  1.00  0.00    -0.504 OA
ATOM     21  H   UNL     1       7.465 -17.389   9.902  1.00  0.00     0.293 HD
ENDBRANCH  17  20
ENDBRANCH   1  12
BRANCH   2  22
ATOM     22  O   UNL     1       1.632 -14.495   8.677  1.00  0.00    -0.502 OA
ATOM     23  H   UNL     1       1.876 -15.025   9.505  1.00  0.00     0.293 HD
ENDBRANCH   2  22
BRANCH   6  24
ATOM     24  O   UNL     1       1.646  -9.285   7.566  1.00  0.00    -0.507 OA
ATOM     25  H   UNL     1       0.730  -9.431   7.172  1.00  0.00     0.293 HD
ENDBRANCH   6  24
BRANCH   8  26
ATOM     26  O   UNL     1       5.949  -8.841   5.523  1.00  0.00    -0.508 OA
ATOM     27  H   UNL     1       5.688  -8.190   4.792  1.00  0.00     0.293 HD
ENDBRANCH   8  26
TORSDOF 6
ENDMDL
MODEL 2
REMARK VINA RESULT:    -6.031      2.763      4.540
REMARK INTER + INTRA:          -7.507
REMARK INTER:                  -7.185
REMARK INTRA:                  -0.322
REMARK UNBOUND:                -0.242
REMARK SMILES O=c1c(O)c(-c2ccc(O)c(O)c2)oc2cc(O)cc(O)c12
REMARK SMILES IDX 5 1 3 2 2 3 1 4 22 5 20 6 19 7 17 8 16 9 15 10 14 11 6 12
REMARK SMILES IDX 7 13 8 14 9 15 13 16 11 17 10 18 12 20 4 22 21 24 18 26
REMARK H PARENT 10 19 12 21 4 23 21 25 18 27
REMARK Flexibility Score: inf
ROOT
ATOM      1  C   UNL     1       4.202 -17.750   6.267  1.00  0.00     0.180 A 
ATOM      2  C   UNL     1       3.844 -17.344   4.970  1.00  0.00     0.208 A 
ATOM      3  C   UNL     1       3.673 -15.975   4.707  1.00  0.00     0.238 A 
ATOM      4  O   UNL     1       3.426 -15.615   3.527  1.00  0.00    -0.285 OA
ATOM      5  C   UNL     1       3.808 -15.033   5.756  1.00  0.00     0.111 A 
ATOM      6  C   UNL     1       3.615 -13.626   5.613  1.00  0.00     0.134 A 
ATOM      7  C   UNL     1       3.879 -12.780   6.696  1.00  0.00     0.093 A 
ATOM      8  C   UNL     1       4.268 -13.292   7.933  1.00  0.00     0.123 A 
ATOM      9  C   UNL     1       4.408 -14.670   8.099  1.00  0.00     0.094 A 
ATOM     10  C   UNL     1       4.189 -15.538   7.026  1.00  0.00     0.146 A 
ATOM     11  O   UNL     1       4.353 -16.841   7.223  1.00  0.00    -0.452 OA
ENDROOT
BRANCH   1  12
ATOM     12  C   UNL     1       4.414 -19.172   6.618  1.00  0.00     0.025 A 
ATOM     13  C   UNL     1       3.320 -19.950   7.032  1.00  0.00     0.016 A 
ATOM     14  C   UNL     1       3.500 -21.290   7.389  1.00  0.00     0.051 A 
ATOM     15  C   UNL     1       4.777 -21.865   7.350  1.00  0.00     0.157 A 
ATOM     16  C   UNL     1       5.697 -19.749   6.600  1.00  0.00     0.062 A 
ATOM     17  C   UNL     1       5.877 -21.093   6.961  1.00  0.00     0.158 A 
BRANCH  15  18
ATOM     18  O   UNL     1       4.960 -23.201   7.703  1.00  0.00    -0.504 OA
ATOM     19  H   UNL     1       5.706 -23.487   8.326  1.00  0.00     0.293 HD
ENDBRANCH  15  18
BRANCH  17  20
ATOM     20  O   UNL     1       7.149 -21.663   6.937  1.00  0.00    -0.504 OA
ATOM     21  H   UNL     1       7.957 -21.172   7.299  1.00  0.00     0.293 HD
ENDBRANCH  17  20
ENDBRANCH   1  12
BRANCH   2  22
ATOM     22  O   UNL     1       3.640 -18.296   3.967  1.00  0.00    -0.502 OA
ATOM     23  H   UNL     1       4.271 -19.074   3.819  1.00  0.00     0.293 HD
ENDBRANCH   2  22
BRANCH   6  24
ATOM     24  O   UNL     1       3.143 -13.014   4.447  1.00  0.00    -0.507 OA
ATOM     25  H   UNL     1       3.167 -12.022   4.265  1.00  0.00     0.293 HD
ENDBRANCH   6  24
BRANCH   8  26
ATOM     26  O   UNL     1       4.507 -12.421   8.994  1.00  0.00    -0.508 OA
ATOM     27  H   UNL     1       4.924 -12.742   9.860  1.00  0.00     0.293 HD
ENDBRANCH   8  26
TORSDOF 6
ENDMDL
MODEL 3
REMARK VINA RESULT:    -5.991      1.742      7.262
REMARK INTER + INTRA:          -7.460
REMARK INTER:                  -7.152
REMARK INTRA:                  -0.308
REMARK UNBOUND:                -0.242
REMARK SMILES O=c1c(O)c(-c2ccc(O)c(O)c2)oc2cc(O)cc(O)c12
REMARK SMILES IDX 5 1 3 2 2 3 1 4 22 5 20 6 19 7 17 8 16 9 15 10 14 11 6 12
REMARK SMILES IDX 7 13 8 14 9 15 13 16 11 17 10 18 12 20 4 22 21 24 18 26
REMARK H PARENT 10 19 12 21 4 23 21 25 18 27
REMARK Flexibility Score: inf
ROOT
ATOM      1  C   UNL     1       3.676 -14.547   7.337  1.00  0.00     0.180 A 
ATOM      2  C   UNL     1       4.908 -14.949   7.881  1.00  0.00     0.208 A 
ATOM      3  C   UNL     1       5.223 -16.317   7.916  1.00  0.00     0.238 A 
ATOM      4  O   UNL     1       6.357 -16.663   8.335  1.00  0.00    -0.285 OA
ATOM      5  C   UNL     1       4.281 -17.270   7.457  1.00  0.00     0.111 A 
ATOM      6  C   UNL     1       4.476 -18.683   7.485  1.00  0.00     0.134 A 
ATOM      7  C   UNL     1       3.518 -19.524   6.906  1.00  0.00     0.093 A 
ATOM      8  C   UNL     1       2.344 -19.010   6.359  1.00  0.00     0.123 A 
ATOM      9  C   UNL     1       2.118 -17.633   6.374  1.00  0.00     0.094 A 
ATOM     10  C   UNL     1       3.073 -16.765   6.909  1.00  0.00     0.146 A 
ATOM     11  O   UNL     1       2.826 -15.461   6.885  1.00  0.00    -0.452 OA
ENDROOT
BRANCH   1  12
ATOM     12  C   UNL     1       3.279 -13.123   7.253  1.00  0.00     0.025 A 
ATOM     13  C   UNL     1       3.503 -12.414   6.062  1.00  0.00     0.016 A 
ATOM     14  C   UNL     1       3.156 -11.063   5.966  1.00  0.00     0.051 A 
ATOM     15  C   UNL     1       2.593 -10.400   7.064  1.00  0.00     0.157 A 
ATOM     16  C   UNL     1       2.732 -12.447   8.359  1.00  0.00     0.062 A 
ATOM     17  C   UNL     1       2.385 -11.091   8.264  1.00  0.00     0.158 A 
BRANCH  15  18
ATOM     18  O   UNL     1       2.243  -9.054   6.972  1.00  0.00    -0.504 OA
ATOM     19  H   UNL     1       2.081  -8.609   6.077  1.00  0.00     0.293 HD
ENDBRANCH  15  18
BRANCH  17  20
ATOM     20  O   UNL     1       1.838 -10.425   9.360  1.00  0.00    -0.504 OA
ATOM     21  H   UNL     1       2.374  -9.749   9.891  1.00  0.00     0.293 HD
ENDBRANCH  17  20
ENDBRANCH   1  12
BRANCH   2  22
ATOM     22  O   UNL     1       5.792 -13.998   8.400  1.00  0.00    -0.502 OA
ATOM     23  H   UNL     1       5.915 -13.856   9.395  1.00  0.00     0.293 HD
ENDBRANCH   2  22
BRANCH   6  24
ATOM     24  O   UNL     1       5.571 -19.312   8.087  1.00  0.00    -0.507 OA
ATOM     25  H   UNL     1       5.818 -20.282   7.967  1.00  0.00     0.293 HD
ENDBRANCH   6  24
BRANCH   8  26
ATOM     26  O   UNL     1       1.404 -19.878   5.806  1.00  0.00    -0.508 OA
ATOM     27  H   UNL     1       0.658 -20.276   6.364  1.00  0.00     0.293 HD
ENDBRANCH   8  26
TORSDOF 6
ENDMDL
MODEL 4
REMARK VINA RESULT:    -5.910      2.527      7.612
REMARK INTER + INTRA:          -7.361
REMARK INTER:                  -7.140
REMARK INTRA:                  -0.221
REMARK UNBOUND:                -0.242
REMARK SMILES O=c1c(O)c(-c2ccc(O)c(O)c2)oc2cc(O)cc(O)c12
REMARK SMILES IDX 5 1 3 2 2 3 1 4 22 5 20 6 19 7 17 8 16 9 15 10 14 11 6 12
REMARK SMILES IDX 7 13 8 14 9 15 13 16 11 17 10 18 12 20 4 22 21 24 18 26
REMARK H PARENT 10 19 12 21 4 23 21 25 18 27
REMARK Flexibility Score: inf
ROOT
ATOM      1  C   UNL     1       3.586 -16.586   6.895  1.00  0.00     0.180 A 
ATOM      2  C   UNL     1       2.321 -17.121   6.601  1.00  0.00     0.208 A 
ATOM      3  C   UNL     1       2.195 -18.506   6.408  1.00  0.00     0.238 A 
ATOM      4  O   UNL     1       1.047 -18.986   6.219  1.00  0.00    -0.285 OA
ATOM      5  C   UNL     1       3.344 -19.332   6.457  1.00  0.00     0.111 A 
ATOM      6  C   UNL     1       3.341 -20.742   6.233  1.00  0.00     0.134 A 
ATOM      7  C   UNL     1       4.522 -21.472   6.413  1.00  0.00     0.093 A 
ATOM      8  C   UNL     1       5.718 -20.838   6.744  1.00  0.00     0.123 A 
ATOM      9  C   UNL     1       5.744 -19.454   6.912  1.00  0.00     0.094 A 
ATOM     10  C   UNL     1       4.575 -18.702   6.778  1.00  0.00     0.146 A 
ATOM     11  O   UNL     1       4.641 -17.389   6.967  1.00  0.00    -0.452 OA
ENDROOT
BRANCH   1  12
ATOM     12  C   UNL     1       3.796 -15.138   7.126  1.00  0.00     0.025 A 
ATOM     13  C   UNL     1       4.048 -14.677   8.428  1.00  0.00     0.016 A 
ATOM     14  C   UNL     1       4.228 -13.312   8.673  1.00  0.00     0.051 A 
ATOM     15  C   UNL     1       4.145 -12.390   7.622  1.00  0.00     0.157 A 
ATOM     16  C   UNL     1       3.694 -14.206   6.077  1.00  0.00     0.062 A 
ATOM     17  C   UNL     1       3.873 -12.836   6.323  1.00  0.00     0.158 A 
BRANCH  15  18
ATOM     18  O   UNL     1       4.327 -11.029   7.861  1.00  0.00    -0.504 OA
ATOM     19  H   UNL     1       3.673 -10.498   8.425  1.00  0.00     0.293 HD
ENDBRANCH  15  18
BRANCH  17  20
ATOM     20  O   UNL     1       3.777 -11.915   5.281  1.00  0.00    -0.504 OA
ATOM     21  H   UNL     1       2.909 -11.435   5.077  1.00  0.00     0.293 HD
ENDBRANCH  17  20
ENDBRANCH   1  12
BRANCH   2  22
ATOM     22  O   UNL     1       1.212 -16.278   6.481  1.00  0.00    -0.502 OA
ATOM     23  H   UNL     1       0.360 -16.564   6.013  1.00  0.00     0.293 HD
ENDBRANCH   2  22
BRANCH   6  24
ATOM     24  O   UNL     1       2.221 -21.466   5.812  1.00  0.00    -0.507 OA
ATOM     25  H   UNL     1       1.273 -21.286   6.105  1.00  0.00     0.293 HD
ENDBRANCH   6  24
BRANCH   8  26
ATOM     26  O   UNL     1       6.878 -21.595   6.898  1.00  0.00    -0.508 OA
ATOM     27  H   UNL     1       7.555 -21.685   6.149  1.00  0.00     0.293 HD
ENDBRANCH   8  26
TORSDOF 6
ENDMDL
MODEL 5
REMARK VINA RESULT:    -5.778      2.962      8.186
REMARK INTER + INTRA:          -7.203
REMARK INTER:                  -7.250
REMARK INTRA:                   0.047
REMARK UNBOUND:                -0.242
REMARK SMILES O=c1c(O)c(-c2ccc(O)c(O)c2)oc2cc(O)cc(O)c12
REMARK SMILES IDX 5 1 3 2 2 3 1 4 22 5 20 6 19 7 17 8 16 9 15 10 14 11 6 12
REMARK SMILES IDX 7 13 8 14 9 15 13 16 11 17 10 18 12 20 4 22 21 24 18 26
REMARK H PARENT 10 19 12 21 4 23 21 25 18 27
REMARK Flexibility Score: inf
ROOT
ATOM      1  C   UNL     1       3.783 -17.753   7.364  1.00  0.00     0.180 A 
ATOM      2  C   UNL     1       4.761 -18.636   7.855  1.00  0.00     0.208 A 
ATOM      3  C   UNL     1       4.744 -19.974   7.431  1.00  0.00     0.238 A 
ATOM      4  O   UNL     1       5.666 -20.739   7.816  1.00  0.00    -0.285 OA
ATOM      5  C   UNL     1       3.719 -20.428   6.565  1.00  0.00     0.111 A 
ATOM      6  C   UNL     1       3.579 -21.772   6.106  1.00  0.00     0.134 A 
ATOM      7  C   UNL     1       2.588 -22.082   5.168  1.00  0.00     0.093 A 
ATOM      8  C   UNL     1       1.692 -21.113   4.720  1.00  0.00     0.123 A 
ATOM      9  C   UNL     1       1.785 -19.807   5.203  1.00  0.00     0.094 A 
ATOM     10  C   UNL     1       2.788 -19.458   6.110  1.00  0.00     0.146 A 
ATOM     11  O   UNL     1       2.853 -18.199   6.528  1.00  0.00    -0.452 OA
ENDROOT
BRANCH   1  12
ATOM     12  C   UNL     1       3.743 -16.325   7.754  1.00  0.00     0.025 A 
ATOM     13  C   UNL     1       2.509 -15.727   8.056  1.00  0.00     0.016 A 
ATOM     14  C   UNL     1       2.444 -14.375   8.406  1.00  0.00     0.051 A 
ATOM     15  C   UNL     1       3.610 -13.600   8.443  1.00  0.00     0.157 A 
ATOM     16  C   UNL     1       4.908 -15.537   7.773  1.00  0.00     0.062 A 
ATOM     17  C   UNL     1       4.843 -14.180   8.121  1.00  0.00     0.158 A 
BRANCH  15  18
ATOM     18  O   UNL     1       3.551 -12.252   8.793  1.00  0.00    -0.504 OA
ATOM     19  H   UNL     1       4.379 -11.669   8.797  1.00  0.00     0.293 HD
ENDBRANCH  15  18
BRANCH  17  20
ATOM     20  O   UNL     1       6.000 -13.403   8.145  1.00  0.00    -0.504 OA
ATOM     21  H   UNL     1       6.486 -13.202   9.011  1.00  0.00     0.293 HD
ENDBRANCH  17  20
ENDBRANCH   1  12
BRANCH   2  22
ATOM     22  O   UNL     1       5.718 -18.187   8.769  1.00  0.00    -0.502 OA
ATOM     23  H   UNL     1       6.710 -18.346   8.639  1.00  0.00     0.293 HD
ENDBRANCH   2  22
BRANCH   6  24
ATOM     24  O   UNL     1       4.364 -22.839   6.555  1.00  0.00    -0.507 OA
ATOM     25  H   UNL     1       5.125 -23.253   6.040  1.00  0.00     0.293 HD
ENDBRANCH   6  24
BRANCH   8  26
ATOM     26  O   UNL     1       0.706 -21.460   3.797  1.00  0.00    -0.508 OA
ATOM     27  H   UNL     1       0.401 -20.814   3.079  1.00  0.00     0.293 HD
ENDBRANCH   8  26
TORSDOF 6
ENDMDL
MODEL 6
REMARK VINA RESULT:    -5.778      2.837      4.559
REMARK INTER + INTRA:          -7.202
REMARK INTER:                  -7.019
REMARK INTRA:                  -0.183
REMARK UNBOUND:                -0.242
REMARK SMILES O=c1c(O)c(-c2ccc(O)c(O)c2)oc2cc(O)cc(O)c12
REMARK SMILES IDX 5 1 3 2 2 3 1 4 22 5 20 6 19 7 17 8 16 9 15 10 14 11 6 12
REMARK SMILES IDX 7 13 8 14 9 15 13 16 11 17 10 18 12 20 4 22 21 24 18 26
REMARK H PARENT 10 19 12 21 4 23 21 25 18 27
REMARK Flexibility Score: inf
ROOT
ATOM      1  C   UNL     1       3.714 -17.850   6.530  1.00  0.00     0.180 A 
ATOM      2  C   UNL     1       2.314 -17.893   6.645  1.00  0.00     0.208 A 
ATOM      3  C   UNL     1       1.640 -16.782   7.175  1.00  0.00     0.238 A 
ATOM      4  O   UNL     1       0.382 -16.798   7.205  1.00  0.00    -0.285 OA
ATOM      5  C   UNL     1       2.376 -15.663   7.636  1.00  0.00     0.111 A 
ATOM      6  C   UNL     1       1.800 -14.501   8.231  1.00  0.00     0.134 A 
ATOM      7  C   UNL     1       2.619 -13.411   8.551  1.00  0.00     0.093 A 
ATOM      8  C   UNL     1       3.998 -13.465   8.359  1.00  0.00     0.123 A 
ATOM      9  C   UNL     1       4.579 -14.617   7.828  1.00  0.00     0.094 A 
ATOM     10  C   UNL     1       3.784 -15.706   7.461  1.00  0.00     0.146 A 
ATOM     11  O   UNL     1       4.376 -16.774   6.940  1.00  0.00    -0.452 OA
ENDROOT
BRANCH   1  12
ATOM     12  C   UNL     1       4.494 -18.976   5.968  1.00  0.00     0.025 A 
ATOM     13  C   UNL     1       4.347 -19.308   4.612  1.00  0.00     0.016 A 
ATOM     14  C   UNL     1       5.058 -20.380   4.064  1.00  0.00     0.051 A 
ATOM     15  C   UNL     1       5.914 -21.143   4.869  1.00  0.00     0.157 A 
ATOM     16  C   UNL     1       5.340 -19.758   6.776  1.00  0.00     0.062 A 
ATOM     17  C   UNL     1       6.051 -20.835   6.227  1.00  0.00     0.158 A 
BRANCH  15  18
ATOM     18  O   UNL     1       6.625 -22.212   4.326  1.00  0.00    -0.504 OA
ATOM     19  H   UNL     1       6.154 -23.019   3.937  1.00  0.00     0.293 HD
ENDBRANCH  15  18
BRANCH  17  20
ATOM     20  O   UNL     1       6.892 -21.606   7.029  1.00  0.00    -0.504 OA
ATOM     21  H   UNL     1       6.557 -22.052   7.874  1.00  0.00     0.293 HD
ENDBRANCH  17  20
ENDBRANCH   1  12
BRANCH   2  22
ATOM     22  O   UNL     1       1.612 -19.037   6.256  1.00  0.00    -0.502 OA
ATOM     23  H   UNL     1       0.997 -19.538   6.886  1.00  0.00     0.293 HD
ENDBRANCH   2  22
BRANCH   6  24
ATOM     24  O   UNL     1       0.444 -14.374   8.551  1.00  0.00    -0.507 OA
ATOM     25  H   UNL     1       0.080 -13.819   9.310  1.00  0.00     0.293 HD
ENDBRANCH   6  24
BRANCH   8  26
ATOM     26  O   UNL     1       4.785 -12.368   8.705  1.00  0.00    -0.508 OA
ATOM     27  H   UNL     1       4.388 -11.553   9.159  1.00  0.00     0.293 HD
ENDBRANCH   8  26
TORSDOF 6
ENDMDL
MODEL 7
REMARK VINA RESULT:    -5.769      3.072      5.140
REMARK INTER + INTRA:          -7.192
REMARK INTER:                  -6.865
REMARK INTRA:                  -0.327
REMARK UNBOUND:                -0.242
REMARK SMILES O=c1c(O)c(-c2ccc(O)c(O)c2)oc2cc(O)cc(O)c12
REMARK SMILES IDX 5 1 3 2 2 3 1 4 22 5 20 6 19 7 17 8 16 9 15 10 14 11 6 12
REMARK SMILES IDX 7 13 8 14 9 15 13 16 11 17 10 18 12 20 4 22 21 24 18 26
REMARK H PARENT 10 19 12 21 4 23 21 25 18 27
REMARK Flexibility Score: inf
ROOT
ATOM      1  C   UNL     1       4.397 -17.975   6.171  1.00  0.00     0.180 A 
ATOM      2  C   UNL     1       5.015 -17.700   7.402  1.00  0.00     0.208 A 
ATOM      3  C   UNL     1       5.076 -16.371   7.851  1.00  0.00     0.238 A 
ATOM      4  O   UNL     1       5.565 -16.142   8.988  1.00  0.00    -0.285 OA
ATOM      5  C   UNL     1       4.567 -15.327   7.040  1.00  0.00     0.111 A 
ATOM      6  C   UNL     1       4.615 -13.941   7.376  1.00  0.00     0.134 A 
ATOM      7  C   UNL     1       3.984 -13.007   6.545  1.00  0.00     0.093 A 
ATOM      8  C   UNL     1       3.364 -13.400   5.360  1.00  0.00     0.123 A 
ATOM      9  C   UNL     1       3.359 -14.746   4.995  1.00  0.00     0.094 A 
ATOM     10  C   UNL     1       3.945 -15.707   5.822  1.00  0.00     0.146 A 
ATOM     11  O   UNL     1       3.899 -16.980   5.446  1.00  0.00    -0.452 OA
ENDROOT
BRANCH   1  12
ATOM     12  C   UNL     1       4.281 -19.351   5.637  1.00  0.00     0.025 A 
ATOM     13  C   UNL     1       5.306 -19.865   4.827  1.00  0.00     0.016 A 
ATOM     14  C   UNL     1       5.209 -21.154   4.294  1.00  0.00     0.051 A 
ATOM     15  C   UNL     1       4.079 -21.940   4.552  1.00  0.00     0.157 A 
ATOM     16  C   UNL     1       3.139 -20.137   5.876  1.00  0.00     0.062 A 
ATOM     17  C   UNL     1       3.040 -21.430   5.339  1.00  0.00     0.158 A 
BRANCH  15  18
ATOM     18  O   UNL     1       3.979 -23.226   4.024  1.00  0.00    -0.504 OA
ATOM     19  H   UNL     1       4.494 -24.003   4.420  1.00  0.00     0.293 HD
ENDBRANCH  15  18
BRANCH  17  20
ATOM     20  O   UNL     1       1.910 -22.209   5.582  1.00  0.00    -0.504 OA
ATOM     21  H   UNL     1       1.984 -23.153   5.940  1.00  0.00     0.293 HD
ENDBRANCH  17  20
ENDBRANCH   1  12
BRANCH   2  22
ATOM     22  O   UNL     1       5.580 -18.735   8.152  1.00  0.00    -0.502 OA
ATOM     23  H   UNL     1       6.543 -18.716   8.466  1.00  0.00     0.293 HD
ENDBRANCH   2  22
BRANCH   6  24
ATOM     24  O   UNL     1       5.285 -13.427   8.491  1.00  0.00    -0.507 OA
ATOM     25  H   UNL     1       6.087 -13.853   8.930  1.00  0.00     0.293 HD
ENDBRANCH   6  24
BRANCH   8  26
ATOM     26  O   UNL     1       2.761 -12.441   4.548  1.00  0.00    -0.508 OA
ATOM     27  H   UNL     1       3.041 -12.313   3.582  1.00  0.00     0.293 HD
ENDBRANCH   8  26
TORSDOF 6
ENDMDL
MODEL 8
REMARK VINA RESULT:    -5.764      3.217      8.339
REMARK INTER + INTRA:          -7.185
REMARK INTER:                  -6.999
REMARK INTRA:                  -0.187
REMARK UNBOUND:                -0.242
REMARK SMILES O=c1c(O)c(-c2ccc(O)c(O)c2)oc2cc(O)cc(O)c12
REMARK SMILES IDX 5 1 3 2 2 3 1 4 22 5 20 6 19 7 17 8 16 9 15 10 14 11 6 12
REMARK SMILES IDX 7 13 8 14 9 15 13 16 11 17 10 18 12 20 4 22 21 24 18 26
REMARK H PARENT 10 19 12 21 4 23 21 25 18 27
REMARK Flexibility Score: inf
ROOT
ATOM      1  C   UNL     1       3.535 -17.838   6.734  1.00  0.00     0.180 A 
ATOM      2  C   UNL     1       2.809 -18.039   5.548  1.00  0.00     0.208 A 
ATOM      3  C   UNL     1       2.610 -19.349   5.085  1.00  0.00     0.238 A 
ATOM      4  O   UNL     1       1.895 -19.525   4.064  1.00  0.00    -0.285 OA
ATOM      5  C   UNL     1       3.186 -20.439   5.781  1.00  0.00     0.111 A 
ATOM      6  C   UNL     1       3.087 -21.805   5.378  1.00  0.00     0.134 A 
ATOM      7  C   UNL     1       3.607 -22.808   6.204  1.00  0.00     0.093 A 
ATOM      8  C   UNL     1       4.280 -22.494   7.384  1.00  0.00     0.123 A 
ATOM      9  C   UNL     1       4.431 -21.159   7.760  1.00  0.00     0.094 A 
ATOM     10  C   UNL     1       3.888 -20.137   6.978  1.00  0.00     0.146 A 
ATOM     11  O   UNL     1       4.037 -18.882   7.384  1.00  0.00    -0.452 OA
ENDROOT
BRANCH   1  12
ATOM     12  C   UNL     1       3.775 -16.489   7.293  1.00  0.00     0.025 A 
ATOM     13  C   UNL     1       5.092 -16.017   7.418  1.00  0.00     0.016 A 
ATOM     14  C   UNL     1       5.343 -14.755   7.963  1.00  0.00     0.051 A 
ATOM     15  C   UNL     1       4.282 -13.953   8.404  1.00  0.00     0.157 A 
ATOM     16  C   UNL     1       2.715 -15.688   7.756  1.00  0.00     0.062 A 
ATOM     17  C   UNL     1       2.967 -14.422   8.304  1.00  0.00     0.158 A 
BRANCH  15  18
ATOM     18  O   UNL     1       4.528 -12.693   8.946  1.00  0.00    -0.504 OA
ATOM     19  H   UNL     1       4.288 -11.845   8.445  1.00  0.00     0.293 HD
ENDBRANCH  15  18
BRANCH  17  20
ATOM     20  O   UNL     1       1.914 -13.627   8.757  1.00  0.00    -0.504 OA
ATOM     21  H   UNL     1       1.662 -12.765   8.290  1.00  0.00     0.293 HD
ENDBRANCH  17  20
ENDBRANCH   1  12
BRANCH   2  22
ATOM     22  O   UNL     1       2.313 -16.945   4.833  1.00  0.00    -0.502 OA
ATOM     23  H   UNL     1       2.457 -16.837   3.836  1.00  0.00     0.293 HD
ENDBRANCH   2  22
BRANCH   6  24
ATOM     24  O   UNL     1       2.513 -22.227   4.174  1.00  0.00    -0.507 OA
ATOM     25  H   UNL     1       2.957 -22.840   3.507  1.00  0.00     0.293 HD
ENDBRANCH   6  24
BRANCH   8  26
ATOM     26  O   UNL     1       4.800 -23.518   8.173  1.00  0.00    -0.508 OA
ATOM     27  H   UNL     1       4.289 -23.889   8.965  1.00  0.00     0.293 HD
ENDBRANCH   8  26
TORSDOF 6
ENDMDL
MODEL 9
REMARK VINA RESULT:    -5.763      2.159      6.877
REMARK INTER + INTRA:          -7.184
REMARK INTER:                  -6.858
REMARK INTRA:                  -0.327
REMARK UNBOUND:                -0.242
REMARK SMILES O=c1c(O)c(-c2ccc(O)c(O)c2)oc2cc(O)cc(O)c12
REMARK SMILES IDX 5 1 3 2 2 3 1 4 22 5 20 6 19 7 17 8 16 9 15 10 14 11 6 12
REMARK SMILES IDX 7 13 8 14 9 15 13 16 11 17 10 18 12 20 4 22 21 24 18 26
REMARK H PARENT 10 19 12 21 4 23 21 25 18 27
REMARK Flexibility Score: inf
ROOT
ATOM      1  C   UNL     1       3.204 -14.910   6.877  1.00  0.00     0.180 A 
ATOM      2  C   UNL     1       1.896 -15.373   6.653  1.00  0.00     0.208 A 
ATOM      3  C   UNL     1       1.668 -16.755   6.568  1.00  0.00     0.238 A 
ATOM      4  O   UNL     1       0.484 -17.164   6.442  1.00  0.00    -0.285 OA
ATOM      5  C   UNL     1       2.757 -17.657   6.652  1.00  0.00     0.111 A 
ATOM      6  C   UNL     1       2.648 -19.075   6.535  1.00  0.00     0.134 A 
ATOM      7  C   UNL     1       3.779 -19.874   6.741  1.00  0.00     0.093 A 
ATOM      8  C   UNL     1       5.026 -19.306   6.996  1.00  0.00     0.123 A 
ATOM      9  C   UNL     1       5.154 -17.918   7.059  1.00  0.00     0.094 A 
ATOM     10  C   UNL     1       4.037 -17.095   6.897  1.00  0.00     0.146 A 
ATOM     11  O   UNL     1       4.201 -15.781   6.985  1.00  0.00    -0.452 OA
ENDROOT
BRANCH   1  12
ATOM     12  C   UNL     1       3.522 -13.469   6.994  1.00  0.00     0.025 A 
ATOM     13  C   UNL     1       3.849 -12.739   5.839  1.00  0.00     0.016 A 
ATOM     14  C   UNL     1       4.173 -11.382   5.927  1.00  0.00     0.051 A 
ATOM     15  C   UNL     1       4.189 -10.741   7.172  1.00  0.00     0.157 A 
ATOM     16  C   UNL     1       3.559 -12.824   8.244  1.00  0.00     0.062 A 
ATOM     17  C   UNL     1       3.886 -11.463   8.332  1.00  0.00     0.158 A 
BRANCH  15  18
ATOM     18  O   UNL     1       4.509  -9.387   7.264  1.00  0.00    -0.504 OA
ATOM     19  H   UNL     1       5.445  -9.080   7.501  1.00  0.00     0.293 HD
ENDBRANCH  15  18
BRANCH  17  20
ATOM     20  O   UNL     1       3.917 -10.825   9.572  1.00  0.00    -0.504 OA
ATOM     21  H   UNL     1       4.791 -10.584  10.022  1.00  0.00     0.293 HD
ENDBRANCH  17  20
ENDBRANCH   1  12
BRANCH   2  22
ATOM     22  O   UNL     1       0.846 -14.463   6.496  1.00  0.00    -0.502 OA
ATOM     23  H   UNL     1       0.388 -14.311   5.605  1.00  0.00     0.293 HD
ENDBRANCH   2  22
BRANCH   6  24
ATOM     24  O   UNL     1       1.468 -19.745   6.195  1.00  0.00    -0.507 OA
ATOM     25  H   UNL     1       0.840 -20.180   6.854  1.00  0.00     0.293 HD
ENDBRANCH   6  24
BRANCH   8  26
ATOM     26  O   UNL     1       6.134 -20.131   7.180  1.00  0.00    -0.508 OA
ATOM     27  H   UNL     1       6.542 -20.649   6.410  1.00  0.00     0.293 HD
ENDBRANCH   8  26
TORSDOF 6
ENDMDL
