MODEL 1
REMARK VINA RESULT:    -5.302      0.000      0.000
REMARK INTER + INTRA:          -6.861
REMARK INTER:                  -6.387
REMARK INTRA:                  -0.474
REMARK UNBOUND:                -0.474
REMARK SMILES O=c1c(O)c(-c2ccc(O)cc2O)oc2cc(O)cc(O)c12
REMARK SMILES IDX 5 1 3 2 2 3 1 4 22 5 20 6 19 7 17 8 16 9 15 10 14 11 6 12
REMARK SMILES IDX 8 13 7 14 9 15 11 16 12 17 10 18 13 20 4 22 21 24 18 26
REMARK H PARENT 10 19 13 21 4 23 21 25 18 27
REMARK Flexibility Score: inf
ROOT
ATOM      1  C   UNL     1      52.696  23.128  53.473  1.00  0.00     0.184 A 
ATOM      2  C   UNL     1      51.621  24.004  53.695  1.00  0.00     0.208 A 
ATOM      3  C   UNL     1      50.382  23.725  53.098  1.00  0.00     0.238 A 
ATOM      4  O   UNL     1      49.443  24.552  53.242  1.00  0.00    -0.285 OA
ATOM      5  C   UNL     1      50.219  22.547  52.328  1.00  0.00     0.111 A 
ATOM      6  C   UNL     1      48.995  22.141  51.714  1.00  0.00     0.134 A 
ATOM      7  C   UNL     1      48.980  21.012  50.886  1.00  0.00     0.093 A 
ATOM      8  C   UNL     1      50.128  20.238  50.701  1.00  0.00     0.123 A 
ATOM      9  C   UNL     1      51.313  20.594  51.341  1.00  0.00     0.094 A 
ATOM     10  C   UNL     1      51.369  21.736  52.143  1.00  0.00     0.146 A 
ATOM     11  O   UNL     1      52.524  22.051  52.717  1.00  0.00    -0.451 OA
ENDROOT
BRANCH   1  12
ATOM     12  C   UNL     1      54.035  23.368  54.062  1.00  0.00     0.063 A 
ATOM     13  C   UNL     1      56.175  24.526  54.033  1.00  0.00     0.047 A 
ATOM     14  C   UNL     1      54.902  24.320  53.496  1.00  0.00     0.020 A 
ATOM     15  C   UNL     1      56.604  23.778  55.135  1.00  0.00     0.119 A 
ATOM     16  C   UNL     1      55.755  22.820  55.695  1.00  0.00     0.093 A 
ATOM     17  C   UNL     1      54.474  22.606  55.163  1.00  0.00     0.130 A 
BRANCH  15  18
ATOM     18  O   UNL     1      57.871  23.975  55.679  1.00  0.00    -0.508 OA
ATOM     19  H   UNL     1      58.415  23.203  56.047  1.00  0.00     0.293 HD
ENDBRANCH  15  18
BRANCH  17  20
ATOM     20  O   UNL     1      53.634  21.651  55.736  1.00  0.00    -0.507 OA
ATOM     21  H   UNL     1      52.918  21.181  55.195  1.00  0.00     0.293 HD
ENDBRANCH  17  20
ENDBRANCH   1  12
BRANCH   2  22
ATOM     22  O   UNL     1      51.786  25.124  54.514  1.00  0.00    -0.502 OA
ATOM     23  H   UNL     1      52.263  25.961  54.199  1.00  0.00     0.293 HD
ENDBRANCH   2  22
BRANCH   6  24
ATOM     24  O   UNL     1      47.771  22.790  51.902  1.00  0.00    -0.507 OA
ATOM     25  H   UNL     1      47.581  23.466  52.626  1.00  0.00     0.293 HD
ENDBRANCH   6  24
BRANCH   8  26
ATOM     26  O   UNL     1      50.099  19.106  49.889  1.00  0.00    -0.508 OA
ATOM     27  H   UNL     1      50.722  19.007  49.096  1.00  0.00     0.293 HD
ENDBRANCH   8  26
TORSDOF 6
ENDMDL
MODEL 2
REMARK VINA RESULT:    -5.110      1.778      2.441
REMARK INTER + INTRA:          -6.629
REMARK INTER:                  -6.341
REMARK INTRA:                  -0.289
REMARK UNBOUND:                -0.474
REMARK SMILES O=c1c(O)c(-c2ccc(O)cc2O)oc2cc(O)cc(O)c12
REMARK SMILES IDX 5 1 3 2 2 3 1 4 22 5 20 6 19 7 17 8 16 9 15 10 14 11 6 12
REMARK SMILES IDX 8 13 7 14 9 15 11 16 12 17 10 18 13 20 4 22 21 24 18 26
REMARK H PARENT 10 19 13 21 4 23 21 25 18 27
REMARK Flexibility Score: inf
ROOT
ATOM      1  C   UNL     1      53.814  22.676  54.842  1.00  0.00     0.184 A 
ATOM      2  C   UNL     1      52.560  22.810  55.460  1.00  0.00     0.208 A 
ATOM      3  C   UNL     1      51.407  22.452  54.744  1.00  0.00     0.238 A 
ATOM      4  O   UNL     1      50.283  22.644  55.277  1.00  0.00    -0.285 OA
ATOM      5  C   UNL     1      51.525  21.915  53.439  1.00  0.00     0.111 A 
ATOM      6  C   UNL     1      50.427  21.475  52.639  1.00  0.00     0.134 A 
ATOM      7  C   UNL     1      50.655  21.061  51.320  1.00  0.00     0.093 A 
ATOM      8  C   UNL     1      51.949  21.011  50.795  1.00  0.00     0.123 A 
ATOM      9  C   UNL     1      53.032  21.385  51.585  1.00  0.00     0.094 A 
ATOM     10  C   UNL     1      52.833  21.837  52.892  1.00  0.00     0.146 A 
ATOM     11  O   UNL     1      53.892  22.204  53.603  1.00  0.00    -0.451 OA
ENDROOT
BRANCH   1  12
ATOM     12  C   UNL     1      55.071  23.048  55.533  1.00  0.00     0.063 A 
ATOM     13  C   UNL     1      56.556  22.866  57.453  1.00  0.00     0.047 A 
ATOM     14  C   UNL     1      55.384  22.495  56.788  1.00  0.00     0.020 A 
ATOM     15  C   UNL     1      57.424  23.803  56.881  1.00  0.00     0.119 A 
ATOM     16  C   UNL     1      57.113  24.369  55.641  1.00  0.00     0.093 A 
ATOM     17  C   UNL     1      55.940  24.001  54.965  1.00  0.00     0.130 A 
BRANCH  15  18
ATOM     18  O   UNL     1      58.594  24.181  57.535  1.00  0.00    -0.508 OA
ATOM     19  H   UNL     1      58.577  24.547  58.480  1.00  0.00     0.293 HD
ENDBRANCH  15  18
BRANCH  17  20
ATOM     20  O   UNL     1      55.646  24.569  53.725  1.00  0.00    -0.507 OA
ATOM     21  H   UNL     1      55.825  24.075  52.859  1.00  0.00     0.293 HD
ENDBRANCH  17  20
ENDBRANCH   1  12
BRANCH   2  22
ATOM     22  O   UNL     1      52.472  23.279  56.773  1.00  0.00    -0.502 OA
ATOM     23  H   UNL     1      51.584  23.426  57.240  1.00  0.00     0.293 HD
ENDBRANCH   2  22
BRANCH   6  24
ATOM     24  O   UNL     1      49.107  21.401  53.093  1.00  0.00    -0.507 OA
ATOM     25  H   UNL     1      48.586  20.547  53.217  1.00  0.00     0.293 HD
ENDBRANCH   6  24
BRANCH   8  26
ATOM     26  O   UNL     1      52.168  20.581  49.487  1.00  0.00    -0.508 OA
ATOM     27  H   UNL     1      51.584  20.897  48.722  1.00  0.00     0.293 HD
ENDBRANCH   8  26
TORSDOF 6
ENDMDL
MODEL 3
REMARK VINA RESULT:    -5.010      2.884      6.648
REMARK INTER + INTRA:          -6.509
REMARK INTER:                  -6.192
REMARK INTRA:                  -0.316
REMARK UNBOUND:                -0.474
REMARK SMILES O=c1c(O)c(-c2ccc(O)cc2O)oc2cc(O)cc(O)c12
REMARK SMILES IDX 5 1 3 2 2 3 1 4 22 5 20 6 19 7 17 8 16 9 15 10 14 11 6 12
REMARK SMILES IDX 8 13 7 14 9 15 11 16 12 17 10 18 13 20 4 22 21 24 18 26
REMARK H PARENT 10 19 13 21 4 23 21 25 18 27
REMARK Flexibility Score: inf
ROOT
ATOM      1  C   UNL     1      48.948  22.660  52.919  1.00  0.00     0.184 A 
ATOM      2  C   UNL     1      48.890  21.627  51.969  1.00  0.00     0.208 A 
ATOM      3  C   UNL     1      50.065  21.254  51.298  1.00  0.00     0.238 A 
ATOM      4  O   UNL     1      49.992  20.378  50.396  1.00  0.00    -0.285 OA
ATOM      5  C   UNL     1      51.293  21.881  51.622  1.00  0.00     0.111 A 
ATOM      6  C   UNL     1      52.553  21.550  51.039  1.00  0.00     0.134 A 
ATOM      7  C   UNL     1      53.684  22.312  51.360  1.00  0.00     0.093 A 
ATOM      8  C   UNL     1      53.612  23.351  52.291  1.00  0.00     0.123 A 
ATOM      9  C   UNL     1      52.399  23.646  52.907  1.00  0.00     0.094 A 
ATOM     10  C   UNL     1      51.246  22.928  52.580  1.00  0.00     0.146 A 
ATOM     11  O   UNL     1      50.106  23.256  53.177  1.00  0.00    -0.451 OA
ENDROOT
BRANCH   1  12
ATOM     12  C   UNL     1      47.744  23.115  53.654  1.00  0.00     0.063 A 
ATOM     13  C   UNL     1      46.080  24.827  54.123  1.00  0.00     0.047 A 
ATOM     14  C   UNL     1      47.198  24.387  53.410  1.00  0.00     0.020 A 
ATOM     15  C   UNL     1      45.499  24.008  55.098  1.00  0.00     0.119 A 
ATOM     16  C   UNL     1      46.044  22.747  55.358  1.00  0.00     0.093 A 
ATOM     17  C   UNL     1      47.166  22.296  54.646  1.00  0.00     0.130 A 
BRANCH  15  18
ATOM     18  O   UNL     1      44.384  24.437  55.815  1.00  0.00    -0.508 OA
ATOM     19  H   UNL     1      44.340  24.352  56.824  1.00  0.00     0.293 HD
ENDBRANCH  15  18
BRANCH  17  20
ATOM     20  O   UNL     1      47.695  21.033  54.912  1.00  0.00    -0.507 OA
ATOM     21  H   UNL     1      47.121  20.284  55.278  1.00  0.00     0.293 HD
ENDBRANCH  17  20
ENDBRANCH   1  12
BRANCH   2  22
ATOM     22  O   UNL     1      47.680  20.976  51.713  1.00  0.00    -0.502 OA
ATOM     23  H   UNL     1      47.357  20.193  52.269  1.00  0.00     0.293 HD
ENDBRANCH   2  22
BRANCH   6  24
ATOM     24  O   UNL     1      52.755  20.477  50.166  1.00  0.00    -0.507 OA
ATOM     25  H   UNL     1      53.282  20.523  49.307  1.00  0.00     0.293 HD
ENDBRANCH   6  24
BRANCH   8  26
ATOM     26  O   UNL     1      54.746  24.093  52.616  1.00  0.00    -0.508 OA
ATOM     27  H   UNL     1      54.680  25.062  52.904  1.00  0.00     0.293 HD
ENDBRANCH   8  26
TORSDOF 6
ENDMDL
MODEL 4
REMARK VINA RESULT:    -4.983      1.384      2.794
REMARK INTER + INTRA:          -6.477
REMARK INTER:                  -6.049
REMARK INTRA:                  -0.428
REMARK UNBOUND:                -0.474
REMARK SMILES O=c1c(O)c(-c2ccc(O)cc2O)oc2cc(O)cc(O)c12
REMARK SMILES IDX 5 1 3 2 2 3 1 4 22 5 20 6 19 7 17 8 16 9 15 10 14 11 6 12
REMARK SMILES IDX 8 13 7 14 9 15 11 16 12 17 10 18 13 20 4 22 21 24 18 26
REMARK H PARENT 10 19 13 21 4 23 21 25 18 27
REMARK Flexibility Score: inf
ROOT
ATOM      1  C   UNL     1      52.558  22.720  53.054  1.00  0.00     0.184 A 
ATOM      2  C   UNL     1      52.495  22.049  51.822  1.00  0.00     0.208 A 
ATOM      3  C   UNL     1      51.241  21.665  51.320  1.00  0.00     0.238 A 
ATOM      4  O   UNL     1      51.197  21.000  50.252  1.00  0.00    -0.285 OA
ATOM      5  C   UNL     1      50.064  22.003  52.031  1.00  0.00     0.111 A 
ATOM      6  C   UNL     1      48.737  21.705  51.593  1.00  0.00     0.134 A 
ATOM      7  C   UNL     1      47.653  21.992  52.431  1.00  0.00     0.093 A 
ATOM      8  C   UNL     1      47.841  22.625  53.663  1.00  0.00     0.123 A 
ATOM      9  C   UNL     1      49.126  22.970  54.073  1.00  0.00     0.094 A 
ATOM     10  C   UNL     1      50.231  22.663  53.277  1.00  0.00     0.146 A 
ATOM     11  O   UNL     1      51.440  22.992  53.716  1.00  0.00    -0.451 OA
ENDROOT
BRANCH   1  12
ATOM     12  C   UNL     1      53.848  23.142  53.649  1.00  0.00     0.063 A 
ATOM     13  C   UNL     1      55.822  24.565  53.614  1.00  0.00     0.047 A 
ATOM     14  C   UNL     1      54.593  24.186  53.070  1.00  0.00     0.020 A 
ATOM     15  C   UNL     1      56.331  23.902  54.736  1.00  0.00     0.119 A 
ATOM     16  C   UNL     1      55.605  22.854  55.309  1.00  0.00     0.093 A 
ATOM     17  C   UNL     1      54.368  22.466  54.771  1.00  0.00     0.130 A 
BRANCH  15  18
ATOM     18  O   UNL     1      57.556  24.272  55.286  1.00  0.00    -0.508 OA
ATOM     19  H   UNL     1      58.129  24.993  54.864  1.00  0.00     0.293 HD
ENDBRANCH  15  18
BRANCH  17  20
ATOM     20  O   UNL     1      53.652  21.423  55.357  1.00  0.00    -0.507 OA
ATOM     21  H   UNL     1      52.644  21.458  55.449  1.00  0.00     0.293 HD
ENDBRANCH  17  20
ENDBRANCH   1  12
BRANCH   2  22
ATOM     22  O   UNL     1      53.665  21.786  51.105  1.00  0.00    -0.502 OA
ATOM     23  H   UNL     1      54.052  20.853  51.019  1.00  0.00     0.293 HD
ENDBRANCH   2  22
BRANCH   6  24
ATOM     24  O   UNL     1      48.429  21.154  50.346  1.00  0.00    -0.507 OA
ATOM     25  H   UNL     1      47.893  21.616  49.627  1.00  0.00     0.293 HD
ENDBRANCH   6  24
BRANCH   8  26
ATOM     26  O   UNL     1      46.754  22.923  54.482  1.00  0.00    -0.508 OA
ATOM     27  H   UNL     1      46.882  23.267  55.427  1.00  0.00     0.293 HD
ENDBRANCH   8  26
TORSDOF 6
ENDMDL
MODEL 5
REMARK VINA RESULT:    -4.961      2.005      3.286
REMARK INTER + INTRA:          -6.450
REMARK INTER:                  -6.031
REMARK INTRA:                  -0.419
REMARK UNBOUND:                -0.474
REMARK SMILES O=c1c(O)c(-c2ccc(O)cc2O)oc2cc(O)cc(O)c12
REMARK SMILES IDX 5 1 3 2 2 3 1 4 22 5 20 6 19 7 17 8 16 9 15 10 14 11 6 12
REMARK SMILES IDX 8 13 7 14 9 15 11 16 12 17 10 18 13 20 4 22 21 24 18 26
REMARK H PARENT 10 19 13 21 4 23 21 25 18 27
REMARK Flexibility Score: inf
ROOT
ATOM      1  C   UNL     1      52.444  22.856  53.999  1.00  0.00     0.184 A 
ATOM      2  C   UNL     1      52.039  22.131  52.867  1.00  0.00     0.208 A 
ATOM      3  C   UNL     1      50.700  21.722  52.764  1.00  0.00     0.238 A 
ATOM      4  O   UNL     1      50.361  21.011  51.783  1.00  0.00    -0.285 OA
ATOM      5  C   UNL     1      49.772  22.088  53.769  1.00  0.00     0.111 A 
ATOM      6  C   UNL     1      48.380  21.767  53.745  1.00  0.00     0.134 A 
ATOM      7  C   UNL     1      47.578  22.088  54.848  1.00  0.00     0.093 A 
ATOM      8  C   UNL     1      48.104  22.775  55.945  1.00  0.00     0.123 A 
ATOM      9  C   UNL     1      49.447  23.141  55.953  1.00  0.00     0.094 A 
ATOM     10  C   UNL     1      50.281  22.803  54.885  1.00  0.00     0.146 A 
ATOM     11  O   UNL     1      51.560  23.153  54.944  1.00  0.00    -0.451 OA
ENDROOT
BRANCH   1  12
ATOM     12  C   UNL     1      53.844  23.308  54.179  1.00  0.00     0.063 A 
ATOM     13  C   UNL     1      55.715  24.704  53.492  1.00  0.00     0.047 A 
ATOM     14  C   UNL     1      54.387  24.298  53.341  1.00  0.00     0.020 A 
ATOM     15  C   UNL     1      56.523  24.120  54.474  1.00  0.00     0.119 A 
ATOM     16  C   UNL     1      55.996  23.125  55.303  1.00  0.00     0.093 A 
ATOM     17  C   UNL     1      54.663  22.711  55.159  1.00  0.00     0.130 A 
BRANCH  15  18
ATOM     18  O   UNL     1      57.849  24.517  54.634  1.00  0.00    -0.508 OA
ATOM     19  H   UNL     1      58.357  24.976  53.887  1.00  0.00     0.293 HD
ENDBRANCH  15  18
BRANCH  17  20
ATOM     20  O   UNL     1      54.149  21.722  55.997  1.00  0.00    -0.507 OA
ATOM     21  H   UNL     1      53.503  21.020  55.655  1.00  0.00     0.293 HD
ENDBRANCH  17  20
ENDBRANCH   1  12
BRANCH   2  22
ATOM     22  O   UNL     1      52.958  21.840  51.855  1.00  0.00    -0.502 OA
ATOM     23  H   UNL     1      53.548  22.550  51.436  1.00  0.00     0.293 HD
ENDBRANCH   2  22
BRANCH   6  24
ATOM     24  O   UNL     1      47.735  21.161  52.663  1.00  0.00    -0.507 OA
ATOM     25  H   UNL     1      47.802  20.184  52.424  1.00  0.00     0.293 HD
ENDBRANCH   6  24
BRANCH   8  26
ATOM     26  O   UNL     1      47.294  23.105  57.030  1.00  0.00    -0.508 OA
ATOM     27  H   UNL     1      47.096  22.437  57.765  1.00  0.00     0.293 HD
ENDBRANCH   8  26
TORSDOF 6
ENDMDL
MODEL 6
REMARK VINA RESULT:    -4.865      3.148      6.024
REMARK INTER + INTRA:          -6.335
REMARK INTER:                  -5.876
REMARK INTRA:                  -0.459
REMARK UNBOUND:                -0.474
REMARK SMILES O=c1c(O)c(-c2ccc(O)cc2O)oc2cc(O)cc(O)c12
REMARK SMILES IDX 5 1 3 2 2 3 1 4 22 5 20 6 19 7 17 8 16 9 15 10 14 11 6 12
REMARK SMILES IDX 8 13 7 14 9 15 11 16 12 17 10 18 13 20 4 22 21 24 18 26
REMARK H PARENT 10 19 13 21 4 23 21 25 18 27
REMARK Flexibility Score: inf
ROOT
ATOM      1  C   UNL     1      48.938  22.738  53.505  1.00  0.00     0.184 A 
ATOM      2  C   UNL     1      50.314  23.014  53.581  1.00  0.00     0.208 A 
ATOM      3  C   UNL     1      51.187  22.365  52.696  1.00  0.00     0.238 A 
ATOM      4  O   UNL     1      52.425  22.561  52.817  1.00  0.00    -0.285 OA
ATOM      5  C   UNL     1      50.671  21.488  51.711  1.00  0.00     0.111 A 
ATOM      6  C   UNL     1      51.460  20.811  50.732  1.00  0.00     0.134 A 
ATOM      7  C   UNL     1      50.852  19.883  49.876  1.00  0.00     0.093 A 
ATOM      8  C   UNL     1      49.474  19.657  49.921  1.00  0.00     0.123 A 
ATOM      9  C   UNL     1      48.688  20.353  50.835  1.00  0.00     0.094 A 
ATOM     10  C   UNL     1      49.270  21.257  51.727  1.00  0.00     0.146 A 
ATOM     11  O   UNL     1      48.486  21.884  52.596  1.00  0.00    -0.451 OA
ENDROOT
BRANCH   1  12
ATOM     12  C   UNL     1      47.961  23.377  54.418  1.00  0.00     0.063 A 
ATOM     13  C   UNL     1      46.974  23.600  56.631  1.00  0.00     0.047 A 
ATOM     14  C   UNL     1      47.914  23.019  55.777  1.00  0.00     0.020 A 
ATOM     15  C   UNL     1      46.060  24.539  56.138  1.00  0.00     0.119 A 
ATOM     16  C   UNL     1      46.090  24.891  54.786  1.00  0.00     0.093 A 
ATOM     17  C   UNL     1      47.032  24.313  53.921  1.00  0.00     0.130 A 
BRANCH  15  18
ATOM     18  O   UNL     1      45.118  25.125  56.981  1.00  0.00    -0.508 OA
ATOM     19  H   UNL     1      44.571  25.926  56.687  1.00  0.00     0.293 HD
ENDBRANCH  15  18
BRANCH  17  20
ATOM     20  O   UNL     1      47.053  24.679  52.574  1.00  0.00    -0.507 OA
ATOM     21  H   UNL     1      46.630  24.098  51.860  1.00  0.00     0.293 HD
ENDBRANCH  17  20
ENDBRANCH   1  12
BRANCH   2  22
ATOM     22  O   UNL     1      50.794  23.935  54.517  1.00  0.00    -0.502 OA
ATOM     23  H   UNL     1      51.780  24.143  54.617  1.00  0.00     0.293 HD
ENDBRANCH   2  22
BRANCH   6  24
ATOM     24  O   UNL     1      52.827  21.028  50.541  1.00  0.00    -0.507 OA
ATOM     25  H   UNL     1      53.445  21.452  51.217  1.00  0.00     0.293 HD
ENDBRANCH   6  24
BRANCH   8  26
ATOM     26  O   UNL     1      48.875  18.745  49.054  1.00  0.00    -0.508 OA
ATOM     27  H   UNL     1      49.409  18.005  48.613  1.00  0.00     0.293 HD
ENDBRANCH   8  26
TORSDOF 6
ENDMDL
MODEL 7
REMARK VINA RESULT:    -4.824      3.393      6.228
REMARK INTER + INTRA:          -6.285
REMARK INTER:                  -5.852
REMARK INTRA:                  -0.434
REMARK UNBOUND:                -0.474
REMARK SMILES O=c1c(O)c(-c2ccc(O)cc2O)oc2cc(O)cc(O)c12
REMARK SMILES IDX 5 1 3 2 2 3 1 4 22 5 20 6 19 7 17 8 16 9 15 10 14 11 6 12
REMARK SMILES IDX 8 13 7 14 9 15 11 16 12 17 10 18 13 20 4 22 21 24 18 26
REMARK H PARENT 10 19 13 21 4 23 21 25 18 27
REMARK Flexibility Score: inf
ROOT
ATOM      1  C   UNL     1      48.439  22.623  53.126  1.00  0.00     0.184 A 
ATOM      2  C   UNL     1      49.784  22.980  53.320  1.00  0.00     0.208 A 
ATOM      3  C   UNL     1      50.774  22.339  52.559  1.00  0.00     0.238 A 
ATOM      4  O   UNL     1      51.981  22.611  52.789  1.00  0.00    -0.285 OA
ATOM      5  C   UNL     1      50.404  21.388  51.577  1.00  0.00     0.111 A 
ATOM      6  C   UNL     1      51.321  20.711  50.717  1.00  0.00     0.134 A 
ATOM      7  C   UNL     1      50.850  19.710  49.857  1.00  0.00     0.093 A 
ATOM      8  C   UNL     1      49.488  19.407  49.781  1.00  0.00     0.123 A 
ATOM      9  C   UNL     1      48.580  20.101  50.576  1.00  0.00     0.094 A 
ATOM     10  C   UNL     1      49.022  21.078  51.470  1.00  0.00     0.146 A 
ATOM     11  O   UNL     1      48.125  21.701  52.225  1.00  0.00    -0.451 OA
ENDROOT
BRANCH   1  12
ATOM     12  C   UNL     1      47.344  23.248  53.904  1.00  0.00     0.063 A 
ATOM     13  C   UNL     1      45.848  25.125  54.308  1.00  0.00     0.047 A 
ATOM     14  C   UNL     1      46.861  24.523  53.558  1.00  0.00     0.020 A 
ATOM     15  C   UNL     1      45.311  24.469  55.421  1.00  0.00     0.119 A 
ATOM     16  C   UNL     1      45.795  23.208  55.782  1.00  0.00     0.093 A 
ATOM     17  C   UNL     1      46.811  22.594  55.034  1.00  0.00     0.130 A 
BRANCH  15  18
ATOM     18  O   UNL     1      44.301  25.059  56.177  1.00  0.00    -0.508 OA
ATOM     19  H   UNL     1      43.386  24.632  56.262  1.00  0.00     0.293 HD
ENDBRANCH  15  18
BRANCH  17  20
ATOM     20  O   UNL     1      47.280  21.333  55.402  1.00  0.00    -0.507 OA
ATOM     21  H   UNL     1      46.906  20.842  56.205  1.00  0.00     0.293 HD
ENDBRANCH  17  20
ENDBRANCH   1  12
BRANCH   2  22
ATOM     22  O   UNL     1      50.120  23.970  54.247  1.00  0.00    -0.502 OA
ATOM     23  H   UNL     1      50.099  23.808  55.247  1.00  0.00     0.293 HD
ENDBRANCH   2  22
BRANCH   6  24
ATOM     24  O   UNL     1      52.687  20.996  50.647  1.00  0.00    -0.507 OA
ATOM     25  H   UNL     1      53.119  21.842  50.986  1.00  0.00     0.293 HD
ENDBRANCH   6  24
BRANCH   8  26
ATOM     26  O   UNL     1      49.026  18.422  48.910  1.00  0.00    -0.508 OA
ATOM     27  H   UNL     1      48.494  18.656  48.081  1.00  0.00     0.293 HD
ENDBRANCH   8  26
TORSDOF 6
ENDMDL
MODEL 8
REMARK VINA RESULT:    -4.807      1.869      6.622
REMARK INTER + INTRA:          -6.265
REMARK INTER:                  -6.037
REMARK INTRA:                  -0.228
REMARK UNBOUND:                -0.474
REMARK SMILES O=c1c(O)c(-c2ccc(O)cc2O)oc2cc(O)cc(O)c12
REMARK SMILES IDX 5 1 3 2 2 3 1 4 22 5 20 6 19 7 17 8 16 9 15 10 14 11 6 12
REMARK SMILES IDX 8 13 7 14 9 15 11 16 12 17 10 18 13 20 4 22 21 24 18 26
REMARK H PARENT 10 19 13 21 4 23 21 25 18 27
REMARK Flexibility Score: inf
ROOT
ATOM      1  C   UNL     1      51.184  22.550  53.056  1.00  0.00     0.184 A 
ATOM      2  C   UNL     1      51.027  22.501  54.451  1.00  0.00     0.208 A 
ATOM      3  C   UNL     1      52.045  23.014  55.268  1.00  0.00     0.238 A 
ATOM      4  O   UNL     1      51.931  22.902  56.517  1.00  0.00    -0.285 OA
ATOM      5  C   UNL     1      53.185  23.617  54.682  1.00  0.00     0.111 A 
ATOM      6  C   UNL     1      54.257  24.212  55.414  1.00  0.00     0.134 A 
ATOM      7  C   UNL     1      55.384  24.682  54.728  1.00  0.00     0.093 A 
ATOM      8  C   UNL     1      55.449  24.638  53.333  1.00  0.00     0.123 A 
ATOM      9  C   UNL     1      54.384  24.111  52.607  1.00  0.00     0.094 A 
ATOM     10  C   UNL     1      53.263  23.600  53.264  1.00  0.00     0.146 A 
ATOM     11  O   UNL     1      52.279  23.088  52.534  1.00  0.00    -0.451 OA
ENDROOT
BRANCH   1  12
ATOM     12  C   UNL     1      50.155  22.014  52.134  1.00  0.00     0.063 A 
ATOM     13  C   UNL     1      47.832  21.863  51.422  1.00  0.00     0.047 A 
ATOM     14  C   UNL     1      48.807  22.389  52.274  1.00  0.00     0.020 A 
ATOM     15  C   UNL     1      48.188  20.946  50.427  1.00  0.00     0.119 A 
ATOM     16  C   UNL     1      49.523  20.555  50.289  1.00  0.00     0.093 A 
ATOM     17  C   UNL     1      50.509  21.080  51.139  1.00  0.00     0.130 A 
BRANCH  15  18
ATOM     18  O   UNL     1      47.225  20.414  49.573  1.00  0.00    -0.508 OA
ATOM     19  H   UNL     1      46.449  20.973  49.237  1.00  0.00     0.293 HD
ENDBRANCH  15  18
BRANCH  17  20
ATOM     20  O   UNL     1      51.839  20.686  50.986  1.00  0.00    -0.507 OA
ATOM     21  H   UNL     1      52.293  20.690  50.081  1.00  0.00     0.293 HD
ENDBRANCH  17  20
ENDBRANCH   1  12
BRANCH   2  22
ATOM     22  O   UNL     1      49.863  21.962  55.007  1.00  0.00    -0.502 OA
ATOM     23  H   UNL     1      49.755  21.815  56.004  1.00  0.00     0.293 HD
ENDBRANCH   2  22
BRANCH   6  24
ATOM     24  O   UNL     1      54.256  24.387  56.800  1.00  0.00    -0.507 OA
ATOM     25  H   UNL     1      53.588  23.976  57.434  1.00  0.00     0.293 HD
ENDBRANCH   6  24
BRANCH   8  26
ATOM     26  O   UNL     1      56.567  25.124  52.658  1.00  0.00    -0.508 OA
ATOM     27  H   UNL     1      56.556  26.026  52.197  1.00  0.00     0.293 HD
ENDBRANCH   8  26
TORSDOF 6
ENDMDL
MODEL 9
REMARK VINA RESULT:    -4.764      2.977      5.148
REMARK INTER + INTRA:          -6.212
REMARK INTER:                  -6.155
REMARK INTRA:                  -0.057
REMARK UNBOUND:                -0.474
REMARK SMILES O=c1c(O)c(-c2ccc(O)cc2O)oc2cc(O)cc(O)c12
REMARK SMILES IDX 5 1 3 2 2 3 1 4 22 5 20 6 19 7 17 8 16 9 15 10 14 11 6 12
REMARK SMILES IDX 8 13 7 14 9 15 11 16 12 17 10 18 13 20 4 22 21 24 18 26
REMARK H PARENT 10 19 13 21 4 23 21 25 18 27
REMARK Flexibility Score: inf
ROOT
ATOM      1  C   UNL     1      50.835  22.291  53.149  1.00  0.00     0.184 A 
ATOM      2  C   UNL     1      51.233  23.492  53.759  1.00  0.00     0.208 A 
ATOM      3  C   UNL     1      50.458  24.011  54.808  1.00  0.00     0.238 A 
ATOM      4  O   UNL     1      50.779  25.124  55.301  1.00  0.00    -0.285 OA
ATOM      5  C   UNL     1      49.325  23.297  55.269  1.00  0.00     0.111 A 
ATOM      6  C   UNL     1      48.494  23.707  56.355  1.00  0.00     0.134 A 
ATOM      7  C   UNL     1      47.337  22.975  56.653  1.00  0.00     0.093 A 
ATOM      8  C   UNL     1      47.016  21.814  55.945  1.00  0.00     0.123 A 
ATOM      9  C   UNL     1      47.851  21.376  54.921  1.00  0.00     0.094 A 
ATOM     10  C   UNL     1      48.992  22.104  54.575  1.00  0.00     0.146 A 
ATOM     11  O   UNL     1      49.748  21.661  53.578  1.00  0.00    -0.451 OA
ENDROOT
BRANCH   1  12
ATOM     12  C   UNL     1      51.598  21.692  52.028  1.00  0.00     0.063 A 
ATOM     13  C   UNL     1      53.724  21.159  50.970  1.00  0.00     0.047 A 
ATOM     14  C   UNL     1      53.004  21.698  52.040  1.00  0.00     0.020 A 
ATOM     15  C   UNL     1      53.050  20.619  49.870  1.00  0.00     0.119 A 
ATOM     16  C   UNL     1      51.653  20.622  49.842  1.00  0.00     0.093 A 
ATOM     17  C   UNL     1      50.921  21.159  50.913  1.00  0.00     0.130 A 
BRANCH  15  18
ATOM     18  O   UNL     1      53.757  20.080  48.797  1.00  0.00    -0.508 OA
ATOM     19  H   UNL     1      54.244  20.671  48.134  1.00  0.00     0.293 HD
ENDBRANCH  15  18
BRANCH  17  20
ATOM     20  O   UNL     1      49.527  21.151  50.875  1.00  0.00    -0.507 OA
ATOM     21  H   UNL     1      49.006  20.300  50.699  1.00  0.00     0.293 HD
ENDBRANCH  17  20
ENDBRANCH   1  12
BRANCH   2  22
ATOM     22  O   UNL     1      52.392  24.145  53.332  1.00  0.00    -0.502 OA
ATOM     23  H   UNL     1      53.303  23.954  53.734  1.00  0.00     0.293 HD
ENDBRANCH   2  22
BRANCH   6  24
ATOM     24  O   UNL     1      48.768  24.799  57.183  1.00  0.00    -0.507 OA
ATOM     25  H   UNL     1      49.321  25.600  56.919  1.00  0.00     0.293 HD
ENDBRANCH   6  24
BRANCH   8  26
ATOM     26  O   UNL     1      45.872  21.083  56.260  1.00  0.00    -0.508 OA
ATOM     27  H   UNL     1      45.396  20.520  55.565  1.00  0.00     0.293 HD
ENDBRANCH   8  26
TORSDOF 6
ENDMDL
