MODEL 1
REMARK VINA RESULT:    -5.255      0.000      0.000
REMARK INTER + INTRA:          -6.302
REMARK INTER:                  -6.177
REMARK INTRA:                  -0.126
REMARK UNBOUND:                -0.126
REMARK SMILES O=C([O-])C=Cc1ccc(O)c(O)c1
REMARK SMILES IDX 6 1 13 2 7 3 11 4 8 5 9 6 5 7 4 8 2 9 1 10 3 11 12 12 10 14
REMARK H PARENT 12 13 10 15
REMARK Flexibility Score: inf
ROOT
ATOM      1  C   UNL     1     -21.458  -2.410  18.783  1.00  0.00    -0.022 A 
ATOM      2  C   UNL     1     -21.743  -1.613  19.903  1.00  0.00     0.058 A 
ATOM      3  C   UNL     1     -20.941  -3.703  18.985  1.00  0.00     0.012 A 
ATOM      4  C   UNL     1     -21.547  -2.094  21.204  1.00  0.00     0.157 A 
ATOM      5  C   UNL     1     -20.743  -4.190  20.278  1.00  0.00     0.051 A 
ATOM      6  C   UNL     1     -21.043  -3.402  21.394  1.00  0.00     0.157 A 
ENDROOT
BRANCH   1   7
ATOM      7  C   UNL     1     -21.676  -1.839  17.431  1.00  0.00     0.010 C 
ATOM      8  C   UNL     1     -22.877  -1.464  16.966  1.00  0.00     0.025 C 
BRANCH   8   9
ATOM      9  C   UNL     1     -23.045  -0.891  15.621  1.00  0.00     0.064 C 
ATOM     10  O   UNL     1     -23.127  -1.657  14.626  1.00  0.00    -0.545 OA
ATOM     11  O   UNL     1     -23.113   0.484  15.430  1.00  0.00    -0.545 OA
ENDBRANCH   8   9
ENDBRANCH   1   7
BRANCH   4  12
ATOM     12  O   UNL     1     -21.862  -1.245  22.267  1.00  0.00    -0.504 OA
ATOM     13  H   UNL     1     -21.308  -1.164  23.108  1.00  0.00     0.293 HD
ENDBRANCH   4  12
BRANCH   6  14
ATOM     14  O   UNL     1     -20.825  -3.951  22.660  1.00  0.00    -0.504 OA
ATOM     15  H   UNL     1     -20.208  -4.729  22.839  1.00  0.00     0.293 HD
ENDBRANCH   6  14
TORSDOF 4
ENDMDL
MODEL 2
REMARK VINA RESULT:    -5.064      1.260      1.502
REMARK INTER + INTRA:          -6.078
REMARK INTER:                  -5.943
REMARK INTRA:                  -0.135
REMARK UNBOUND:                -0.126
REMARK SMILES O=C([O-])C=Cc1ccc(O)c(O)c1
REMARK SMILES IDX 6 1 13 2 7 3 11 4 8 5 9 6 5 7 4 8 2 9 1 10 3 11 12 12 10 14
REMARK H PARENT 12 13 10 15
REMARK Flexibility Score: inf
ROOT
ATOM      1  C   UNL     1     -21.427  -2.434  18.756  1.00  0.00    -0.022 A 
ATOM      2  C   UNL     1     -21.713  -1.576  19.830  1.00  0.00     0.058 A 
ATOM      3  C   UNL     1     -20.976  -3.738  19.032  1.00  0.00     0.012 A 
ATOM      4  C   UNL     1     -21.583  -2.007  21.156  1.00  0.00     0.157 A 
ATOM      5  C   UNL     1     -20.843  -4.175  20.351  1.00  0.00     0.051 A 
ATOM      6  C   UNL     1     -21.145  -3.325  21.421  1.00  0.00     0.157 A 
ENDROOT
BRANCH   1   7
ATOM      7  C   UNL     1     -21.575  -1.916  17.374  1.00  0.00     0.010 C 
ATOM      8  C   UNL     1     -20.600  -1.957  16.455  1.00  0.00     0.025 C 
BRANCH   8   9
ATOM      9  C   UNL     1     -20.795  -1.441  15.090  1.00  0.00     0.064 C 
ATOM     10  O   UNL     1     -19.843  -0.867  14.502  1.00  0.00    -0.545 OA
ATOM     11  O   UNL     1     -22.016  -1.577  14.440  1.00  0.00    -0.545 OA
ENDBRANCH   8   9
ENDBRANCH   1   7
BRANCH   4  12
ATOM     12  O   UNL     1     -21.895  -1.098  22.170  1.00  0.00    -0.504 OA
ATOM     13  H   UNL     1     -22.786  -1.064  22.643  1.00  0.00     0.293 HD
ENDBRANCH   4  12
BRANCH   6  14
ATOM     14  O   UNL     1     -20.994  -3.826  22.716  1.00  0.00    -0.504 OA
ATOM     15  H   UNL     1     -20.670  -4.758  22.927  1.00  0.00     0.293 HD
ENDBRANCH   6  14
TORSDOF 4
ENDMDL
MODEL 3
REMARK VINA RESULT:    -5.051     15.860     17.508
REMARK INTER + INTRA:          -6.062
REMARK INTER:                  -5.926
REMARK INTRA:                  -0.136
REMARK UNBOUND:                -0.126
REMARK SMILES O=C([O-])C=Cc1ccc(O)c(O)c1
REMARK SMILES IDX 6 1 13 2 7 3 11 4 8 5 9 6 5 7 4 8 2 9 1 10 3 11 12 12 10 14
REMARK H PARENT 12 13 10 15
REMARK Flexibility Score: inf
ROOT
ATOM      1  C   UNL     1      -9.304  -5.983   7.985  1.00  0.00    -0.022 A 
ATOM      2  C   UNL     1     -10.231  -5.241   7.237  1.00  0.00     0.058 A 
ATOM      3  C   UNL     1      -7.949  -5.953   7.609  1.00  0.00     0.012 A 
ATOM      4  C   UNL     1      -9.824  -4.458   6.149  1.00  0.00     0.157 A 
ATOM      5  C   UNL     1      -7.534  -5.175   6.526  1.00  0.00     0.051 A 
ATOM      6  C   UNL     1      -8.456  -4.422   5.791  1.00  0.00     0.157 A 
ENDROOT
BRANCH   1   7
ATOM      7  C   UNL     1      -9.799  -6.801   9.120  1.00  0.00     0.010 C 
ATOM      8  C   UNL     1     -11.086  -6.853   9.495  1.00  0.00     0.025 C 
BRANCH   8   9
ATOM      9  C   UNL     1     -11.534  -7.689  10.620  1.00  0.00     0.064 C 
ATOM     10  O   UNL     1     -10.852  -8.691  10.959  1.00  0.00    -0.545 OA
ATOM     11  O   UNL     1     -12.701  -7.391  11.315  1.00  0.00    -0.545 OA
ENDBRANCH   8   9
ENDBRANCH   1   7
BRANCH   4  12
ATOM     12  O   UNL     1     -10.803  -3.741   5.459  1.00  0.00    -0.504 OA
ATOM     13  H   UNL     1     -10.815  -3.622   4.456  1.00  0.00     0.293 HD
ENDBRANCH   4  12
BRANCH   6  14
ATOM     14  O   UNL     1      -7.975  -3.663   4.721  1.00  0.00    -0.504 OA
ATOM     15  H   UNL     1      -7.137  -3.102   4.759  1.00  0.00     0.293 HD
ENDBRANCH   6  14
TORSDOF 4
ENDMDL
MODEL 4
REMARK VINA RESULT:    -5.050      2.784      3.829
REMARK INTER + INTRA:          -6.061
REMARK INTER:                  -5.933
REMARK INTRA:                  -0.128
REMARK UNBOUND:                -0.126
REMARK SMILES O=C([O-])C=Cc1ccc(O)c(O)c1
REMARK SMILES IDX 6 1 13 2 7 3 11 4 8 5 9 6 5 7 4 8 2 9 1 10 3 11 12 12 10 14
REMARK H PARENT 12 13 10 15
REMARK Flexibility Score: inf
ROOT
ATOM      1  C   UNL     1     -20.706  -2.953  19.096  1.00  0.00    -0.022 A 
ATOM      2  C   UNL     1     -20.552  -3.715  20.265  1.00  0.00     0.058 A 
ATOM      3  C   UNL     1     -21.384  -1.723  19.173  1.00  0.00     0.012 A 
ATOM      4  C   UNL     1     -21.035  -3.257  21.497  1.00  0.00     0.157 A 
ATOM      5  C   UNL     1     -21.869  -1.259  20.397  1.00  0.00     0.051 A 
ATOM      6  C   UNL     1     -21.700  -2.011  21.565  1.00  0.00     0.157 A 
ENDROOT
BRANCH   1   7
ATOM      7  C   UNL     1     -20.181  -3.498  17.819  1.00  0.00     0.010 C 
ATOM      8  C   UNL     1     -18.992  -4.105  17.702  1.00  0.00     0.025 C 
BRANCH   8   9
ATOM      9  C   UNL     1     -18.516  -4.641  16.416  1.00  0.00     0.064 C 
ATOM     10  O   UNL     1     -18.393  -5.885  16.270  1.00  0.00    -0.545 OA
ATOM     11  O   UNL     1     -18.199  -3.796  15.359  1.00  0.00    -0.545 OA
ENDBRANCH   8   9
ENDBRANCH   1   7
BRANCH   4  12
ATOM     12  O   UNL     1     -20.836  -4.067  22.618  1.00  0.00    -0.504 OA
ATOM     13  H   UNL     1     -20.413  -3.748  23.477  1.00  0.00     0.293 HD
ENDBRANCH   4  12
BRANCH   6  14
ATOM     14  O   UNL     1     -22.206  -1.488  22.757  1.00  0.00    -0.504 OA
ATOM     15  H   UNL     1     -23.135  -1.108  22.858  1.00  0.00     0.293 HD
ENDBRANCH   6  14
TORSDOF 4
ENDMDL
MODEL 5
REMARK VINA RESULT:    -4.935      3.299      5.698
REMARK INTER + INTRA:          -5.926
REMARK INTER:                  -5.785
REMARK INTRA:                  -0.142
REMARK UNBOUND:                -0.126
REMARK SMILES O=C([O-])C=Cc1ccc(O)c(O)c1
REMARK SMILES IDX 6 1 13 2 7 3 11 4 8 5 9 6 5 7 4 8 2 9 1 10 3 11 12 12 10 14
REMARK H PARENT 12 13 10 15
REMARK Flexibility Score: inf
ROOT
ATOM      1  C   UNL     1     -20.415  -3.978  19.506  1.00  0.00    -0.022 A 
ATOM      2  C   UNL     1     -19.875  -5.264  19.350  1.00  0.00     0.058 A 
ATOM      3  C   UNL     1     -20.166  -3.014  18.513  1.00  0.00     0.012 A 
ATOM      4  C   UNL     1     -19.123  -5.603  18.218  1.00  0.00     0.157 A 
ATOM      5  C   UNL     1     -19.417  -3.342  17.381  1.00  0.00     0.051 A 
ATOM      6  C   UNL     1     -18.894  -4.629  17.218  1.00  0.00     0.157 A 
ENDROOT
BRANCH   1   7
ATOM      7  C   UNL     1     -21.194  -3.678  20.733  1.00  0.00     0.010 C 
ATOM      8  C   UNL     1     -21.364  -2.442  21.223  1.00  0.00     0.025 C 
BRANCH   8   9
ATOM      9  C   UNL     1     -22.155  -2.190  22.439  1.00  0.00     0.064 C 
ATOM     10  O   UNL     1     -22.167  -1.037  22.943  1.00  0.00    -0.545 OA
ATOM     11  O   UNL     1     -22.889  -3.205  23.040  1.00  0.00    -0.545 OA
ENDBRANCH   8   9
ENDBRANCH   1   7
BRANCH   4  12
ATOM     12  O   UNL     1     -18.626  -6.906  18.131  1.00  0.00    -0.504 OA
ATOM     13  H   UNL     1     -19.032  -7.698  18.607  1.00  0.00     0.293 HD
ENDBRANCH   4  12
BRANCH   6  14
ATOM     14  O   UNL     1     -18.157  -4.894  16.061  1.00  0.00    -0.504 OA
ATOM     15  H   UNL     1     -18.049  -4.241  15.299  1.00  0.00     0.293 HD
ENDBRANCH   6  14
TORSDOF 4
ENDMDL
MODEL 6
REMARK VINA RESULT:    -4.871      1.083      2.036
REMARK INTER + INTRA:          -5.851
REMARK INTER:                  -5.723
REMARK INTRA:                  -0.128
REMARK UNBOUND:                -0.126
REMARK SMILES O=C([O-])C=Cc1ccc(O)c(O)c1
REMARK SMILES IDX 6 1 13 2 7 3 11 4 8 5 9 6 5 7 4 8 2 9 1 10 3 11 12 12 10 14
REMARK H PARENT 12 13 10 15
REMARK Flexibility Score: inf
ROOT
ATOM      1  C   UNL     1     -21.605  -2.167  18.606  1.00  0.00    -0.022 A 
ATOM      2  C   UNL     1     -21.132  -3.488  18.619  1.00  0.00     0.058 A 
ATOM      3  C   UNL     1     -21.803  -1.505  19.831  1.00  0.00     0.012 A 
ATOM      4  C   UNL     1     -20.831  -4.138  19.823  1.00  0.00     0.157 A 
ATOM      5  C   UNL     1     -21.506  -2.145  21.036  1.00  0.00     0.051 A 
ATOM      6  C   UNL     1     -21.018  -3.456  21.048  1.00  0.00     0.157 A 
ENDROOT
BRANCH   1   7
ATOM      7  C   UNL     1     -21.916  -1.537  17.298  1.00  0.00     0.010 C 
ATOM      8  C   UNL     1     -23.063  -1.731  16.632  1.00  0.00     0.025 C 
BRANCH   8   9
ATOM      9  C   UNL     1     -23.333  -1.075  15.342  1.00  0.00     0.064 C 
ATOM     10  O   UNL     1     -24.380  -1.364  14.707  1.00  0.00    -0.545 OA
ATOM     11  O   UNL     1     -22.449  -0.143  14.812  1.00  0.00    -0.545 OA
ENDBRANCH   8   9
ENDBRANCH   1   7
BRANCH   4  12
ATOM     12  O   UNL     1     -20.356  -5.450  19.755  1.00  0.00    -0.504 OA
ATOM     13  H   UNL     1     -20.354  -6.007  18.912  1.00  0.00     0.293 HD
ENDBRANCH   4  12
BRANCH   6  14
ATOM     14  O   UNL     1     -20.737  -4.037  22.286  1.00  0.00    -0.504 OA
ATOM     15  H   UNL     1     -21.066  -3.673  23.169  1.00  0.00     0.293 HD
ENDBRANCH   6  14
TORSDOF 4
ENDMDL
MODEL 7
REMARK VINA RESULT:    -4.863      3.643      4.344
REMARK INTER + INTRA:          -5.841
REMARK INTER:                  -5.710
REMARK INTRA:                  -0.131
REMARK UNBOUND:                -0.126
REMARK SMILES O=C([O-])C=Cc1ccc(O)c(O)c1
REMARK SMILES IDX 6 1 13 2 7 3 11 4 8 5 9 6 5 7 4 8 2 9 1 10 3 11 12 12 10 14
REMARK H PARENT 12 13 10 15
REMARK Flexibility Score: inf
ROOT
ATOM      1  C   UNL     1     -19.575  -3.162  17.878  1.00  0.00    -0.022 A 
ATOM      2  C   UNL     1     -20.791  -2.471  17.758  1.00  0.00     0.058 A 
ATOM      3  C   UNL     1     -19.064  -3.417  19.164  1.00  0.00     0.012 A 
ATOM      4  C   UNL     1     -21.506  -2.062  18.890  1.00  0.00     0.157 A 
ATOM      5  C   UNL     1     -19.771  -3.012  20.298  1.00  0.00     0.051 A 
ATOM      6  C   UNL     1     -20.991  -2.339  20.178  1.00  0.00     0.157 A 
ENDROOT
BRANCH   1   7
ATOM      7  C   UNL     1     -18.859  -3.560  16.640  1.00  0.00     0.010 C 
ATOM      8  C   UNL     1     -18.446  -4.810  16.389  1.00  0.00     0.025 C 
BRANCH   8   9
ATOM      9  C   UNL     1     -17.749  -5.162  15.141  1.00  0.00     0.064 C 
ATOM     10  O   UNL     1     -18.112  -6.177  14.492  1.00  0.00    -0.545 OA
ATOM     11  O   UNL     1     -16.693  -4.391  14.667  1.00  0.00    -0.545 OA
ENDBRANCH   8   9
ENDBRANCH   1   7
BRANCH   4  12
ATOM     12  O   UNL     1     -22.713  -1.387  18.690  1.00  0.00    -0.504 OA
ATOM     13  H   UNL     1     -23.556  -1.569  19.215  1.00  0.00     0.293 HD
ENDBRANCH   4  12
BRANCH   6  14
ATOM     14  O   UNL     1     -21.649  -1.965  21.352  1.00  0.00    -0.504 OA
ATOM     15  H   UNL     1     -22.562  -2.301  21.618  1.00  0.00     0.293 HD
ENDBRANCH   6  14
TORSDOF 4
ENDMDL
MODEL 8
REMARK VINA RESULT:    -4.801      2.523      5.445
REMARK INTER + INTRA:          -5.769
REMARK INTER:                  -5.634
REMARK INTRA:                  -0.134
REMARK UNBOUND:                -0.126
REMARK SMILES O=C([O-])C=Cc1ccc(O)c(O)c1
REMARK SMILES IDX 6 1 13 2 7 3 11 4 8 5 9 6 5 7 4 8 2 9 1 10 3 11 12 12 10 14
REMARK H PARENT 12 13 10 15
REMARK Flexibility Score: inf
ROOT
ATOM      1  C   UNL     1     -20.235  -3.878  19.297  1.00  0.00    -0.022 A 
ATOM      2  C   UNL     1     -20.287  -2.858  18.334  1.00  0.00     0.058 A 
ATOM      3  C   UNL     1     -19.496  -5.041  19.014  1.00  0.00     0.012 A 
ATOM      4  C   UNL     1     -19.597  -2.972  17.120  1.00  0.00     0.157 A 
ATOM      5  C   UNL     1     -18.805  -5.162  17.807  1.00  0.00     0.051 A 
ATOM      6  C   UNL     1     -18.843  -4.139  16.854  1.00  0.00     0.157 A 
ENDROOT
BRANCH   1   7
ATOM      7  C   UNL     1     -20.997  -3.703  20.559  1.00  0.00     0.010 C 
ATOM      8  C   UNL     1     -21.253  -2.510  21.114  1.00  0.00     0.025 C 
BRANCH   8   9
ATOM      9  C   UNL     1     -22.024  -2.383  22.362  1.00  0.00     0.064 C 
ATOM     10  O   UNL     1     -22.542  -3.407  22.877  1.00  0.00    -0.545 OA
ATOM     11  O   UNL     1     -22.190  -1.149  22.980  1.00  0.00    -0.545 OA
ENDBRANCH   8   9
ENDBRANCH   1   7
BRANCH   4  12
ATOM     12  O   UNL     1     -19.690  -1.911  16.216  1.00  0.00    -0.504 OA
ATOM     13  H   UNL     1     -20.562  -1.503  15.912  1.00  0.00     0.293 HD
ENDBRANCH   4  12
BRANCH   6  14
ATOM     14  O   UNL     1     -18.127  -4.322  15.669  1.00  0.00    -0.504 OA
ATOM     15  H   UNL     1     -17.322  -3.774  15.406  1.00  0.00     0.293 HD
ENDBRANCH   6  14
TORSDOF 4
ENDMDL
