MODEL 1
REMARK VINA RESULT:    35.968      0.000      0.000
REMARK INTER + INTRA:          42.515
REMARK INTER:                  42.276
REMARK INTRA:                   0.239
REMARK UNBOUND:                 0.239
REMARK SMILES O=c1c(O)c(-c2ccc(O)cc2)oc2cc(O)cc(O)c12
REMARK SMILES IDX 5 1 3 2 2 3 1 4 21 5 19 6 18 7 16 8 15 9 14 10 13 11 6 12
REMARK SMILES IDX 7 13 8 14 9 15 12 16 11 17 10 18 4 20 20 22 17 24
REMARK H PARENT 10 19 4 21 20 23 17 25
REMARK Flexibility Score: inf
ROOT
ATOM      1  C   UNL     1       9.901  60.569  22.423  1.00  0.00     0.180 A 
ATOM      2  C   UNL     1      11.252  60.833  22.135  1.00  0.00     0.208 A 
ATOM      3  C   UNL     1      11.850  61.983  22.675  1.00  0.00     0.238 A 
ATOM      4  O   UNL     1      13.074  62.185  22.458  1.00  0.00    -0.285 OA
ATOM      5  C   UNL     1      11.088  62.861  23.483  1.00  0.00     0.111 A 
ATOM      6  C   UNL     1      11.582  64.075  24.049  1.00  0.00     0.134 A 
ATOM      7  C   UNL     1      10.779  64.800  24.938  1.00  0.00     0.093 A 
ATOM      8  C   UNL     1       9.479  64.390  25.231  1.00  0.00     0.123 A 
ATOM      9  C   UNL     1       8.965  63.237  24.636  1.00  0.00     0.094 A 
ATOM     10  C   UNL     1       9.754  62.474  23.773  1.00  0.00     0.146 A 
ATOM     11  O   UNL     1       9.231  61.377  23.237  1.00  0.00    -0.452 OA
ENDROOT
BRANCH   1  12
ATOM     12  C   UNL     1       9.193  59.392  21.870  1.00  0.00     0.021 A 
ATOM     13  C   UNL     1       9.846  58.158  21.697  1.00  0.00     0.016 A 
ATOM     14  C   UNL     1       9.164  57.067  21.150  1.00  0.00     0.047 A 
ATOM     15  C   UNL     1       7.826  57.198  20.757  1.00  0.00     0.115 A 
ATOM     16  C   UNL     1       7.857  59.521  21.454  1.00  0.00     0.016 A 
ATOM     17  C   UNL     1       7.177  58.428  20.908  1.00  0.00     0.047 A 
BRANCH  15  18
ATOM     18  O   UNL     1       7.136  56.118  20.212  1.00  0.00    -0.508 OA
ATOM     19  H   UNL     1       6.500  56.236  19.432  1.00  0.00     0.293 HD
ENDBRANCH  15  18
ENDBRANCH   1  12
BRANCH   2  20
ATOM     20  O   UNL     1      11.991  59.941  21.354  1.00  0.00    -0.502 OA
ATOM     21  H   UNL     1      12.784  59.427  21.719  1.00  0.00     0.293 HD
ENDBRANCH   2  20
BRANCH   6  22
ATOM     22  O   UNL     1      12.834  64.623  23.751  1.00  0.00    -0.507 OA
ATOM     23  H   UNL     1      12.986  65.403  23.130  1.00  0.00     0.293 HD
ENDBRANCH   6  22
BRANCH   8  24
ATOM     24  O   UNL     1       8.702  65.144  26.108  1.00  0.00    -0.508 OA
ATOM     25  H   UNL     1       8.363  64.758  26.982  1.00  0.00     0.293 HD
ENDBRANCH   8  24
TORSDOF 5
ENDMDL
MODEL 2
REMARK VINA RESULT:    36.203      0.084      1.059
REMARK INTER + INTRA:          42.791
REMARK INTER:                  42.585
REMARK INTRA:                   0.206
REMARK UNBOUND:                 0.239
REMARK SMILES O=c1c(O)c(-c2ccc(O)cc2)oc2cc(O)cc(O)c12
REMARK SMILES IDX 5 1 3 2 2 3 1 4 21 5 19 6 18 7 16 8 15 9 14 10 13 11 6 12
REMARK SMILES IDX 7 13 8 14 9 15 12 16 11 17 10 18 4 20 20 22 17 24
REMARK H PARENT 10 19 4 21 20 23 17 25
REMARK Flexibility Score: inf
ROOT
ATOM      1  C   UNL     1       9.859  60.548  22.377  1.00  0.00     0.180 A 
ATOM      2  C   UNL     1      11.215  60.788  22.094  1.00  0.00     0.208 A 
ATOM      3  C   UNL     1      11.837  61.919  22.648  1.00  0.00     0.238 A 
ATOM      4  O   UNL     1      13.064  62.097  22.435  1.00  0.00    -0.285 OA
ATOM      5  C   UNL     1      11.092  62.803  23.465  1.00  0.00     0.111 A 
ATOM      6  C   UNL     1      11.610  63.999  24.046  1.00  0.00     0.134 A 
ATOM      7  C   UNL     1      10.820  64.730  24.942  1.00  0.00     0.093 A 
ATOM      8  C   UNL     1       9.511  64.345  25.229  1.00  0.00     0.123 A 
ATOM      9  C   UNL     1       8.975  63.209  24.620  1.00  0.00     0.094 A 
ATOM     10  C   UNL     1       9.750  62.440  23.749  1.00  0.00     0.146 A 
ATOM     11  O   UNL     1       9.205  61.360  23.199  1.00  0.00    -0.452 OA
ENDROOT
BRANCH   1  12
ATOM     12  C   UNL     1       9.128  59.392  21.810  1.00  0.00     0.021 A 
ATOM     13  C   UNL     1       7.795  59.509  21.373  1.00  0.00     0.016 A 
ATOM     14  C   UNL     1       7.118  58.397  20.864  1.00  0.00     0.047 A 
ATOM     15  C   UNL     1       7.757  57.153  20.796  1.00  0.00     0.115 A 
ATOM     16  C   UNL     1       9.755  58.136  21.758  1.00  0.00     0.016 A 
ATOM     17  C   UNL     1       9.075  57.026  21.246  1.00  0.00     0.047 A 
BRANCH  15  18
ATOM     18  O   UNL     1       7.092  56.039  20.289  1.00  0.00    -0.508 OA
ATOM     19  H   UNL     1       6.472  55.485  20.867  1.00  0.00     0.293 HD
ENDBRANCH  15  18
ENDBRANCH   1  12
BRANCH   2  20
ATOM     20  O   UNL     1      11.938  59.890  21.304  1.00  0.00    -0.502 OA
ATOM     21  H   UNL     1      11.499  59.313  20.597  1.00  0.00     0.293 HD
ENDBRANCH   2  20
BRANCH   6  22
ATOM     22  O   UNL     1      12.873  64.525  23.756  1.00  0.00    -0.507 OA
ATOM     23  H   UNL     1      13.651  63.988  23.404  1.00  0.00     0.293 HD
ENDBRANCH   6  22
BRANCH   8  24
ATOM     24  O   UNL     1       8.748  65.104  26.114  1.00  0.00    -0.508 OA
ATOM     25  H   UNL     1       8.716  66.114  26.054  1.00  0.00     0.293 HD
ENDBRANCH   8  24
TORSDOF 5
ENDMDL
