MODEL 1
REMARK VINA RESULT:    -4.920      0.000      0.000
REMARK INTER + INTRA:          -5.790
REMARK INTER:                  -5.639
REMARK INTRA:                  -0.151
REMARK UNBOUND:                -0.151
REMARK SMILES O=C([O-])C=Cc1ccc(O)cc1
REMARK SMILES IDX 6 1 7 2 12 3 8 4 11 5 9 6 5 7 4 8 2 9 1 10 3 11 10 12
REMARK H PARENT 10 13
REMARK Flexibility Score: inf
ROOT
ATOM      1  C   UNL     1      11.776 -16.890   7.495  1.00  0.00    -0.025 A 
ATOM      2  C   UNL     1      11.598 -15.510   7.691  1.00  0.00     0.012 A 
ATOM      3  C   UNL     1      13.054 -17.366   7.136  1.00  0.00     0.012 A 
ATOM      4  C   UNL     1      12.662 -14.622   7.507  1.00  0.00     0.047 A 
ATOM      5  C   UNL     1      14.116 -16.473   6.954  1.00  0.00     0.047 A 
ATOM      6  C   UNL     1      13.923 -15.101   7.136  1.00  0.00     0.115 A 
ENDROOT
BRANCH   1   7
ATOM      7  C   UNL     1      10.619 -17.794   7.712  1.00  0.00     0.010 C 
ATOM      8  C   UNL     1       9.345 -17.379   7.744  1.00  0.00     0.025 C 
BRANCH   8   9
ATOM      9  C   UNL     1       8.222 -18.304   7.973  1.00  0.00     0.064 C 
ATOM     10  O   UNL     1       8.239 -19.125   8.929  1.00  0.00    -0.545 OA
ATOM     11  O   UNL     1       7.127 -18.273   7.120  1.00  0.00    -0.545 OA
ENDBRANCH   8   9
ENDBRANCH   1   7
BRANCH   6  12
ATOM     12  O   UNL     1      14.990 -14.226   6.950  1.00  0.00    -0.508 OA
ATOM     13  H   UNL     1      15.394 -13.712   7.724  1.00  0.00     0.293 HD
ENDBRANCH   6  12
TORSDOF 3
ENDMDL
MODEL 2
REMARK VINA RESULT:    -4.907      0.092      1.398
REMARK INTER + INTRA:          -5.775
REMARK INTER:                  -5.634
REMARK INTRA:                  -0.140
REMARK UNBOUND:                -0.151
REMARK SMILES O=C([O-])C=Cc1ccc(O)cc1
REMARK SMILES IDX 6 1 7 2 12 3 8 4 11 5 9 6 5 7 4 8 2 9 1 10 3 11 10 12
REMARK H PARENT 10 13
REMARK Flexibility Score: inf
ROOT
ATOM      1  C   UNL     1      11.731 -16.810   7.498  1.00  0.00    -0.025 A 
ATOM      2  C   UNL     1      12.947 -17.324   7.017  1.00  0.00     0.012 A 
ATOM      3  C   UNL     1      11.628 -15.424   7.742  1.00  0.00     0.012 A 
ATOM      4  C   UNL     1      14.043 -16.483   6.810  1.00  0.00     0.047 A 
ATOM      5  C   UNL     1      12.728 -14.586   7.532  1.00  0.00     0.047 A 
ATOM      6  C   UNL     1      13.937 -15.112   7.069  1.00  0.00     0.115 A 
ENDROOT
BRANCH   1   7
ATOM      7  C   UNL     1      10.592 -17.742   7.693  1.00  0.00     0.010 C 
ATOM      8  C   UNL     1       9.312 -17.351   7.764  1.00  0.00     0.025 C 
BRANCH   8   9
ATOM      9  C   UNL     1       8.208 -18.304   7.971  1.00  0.00     0.064 C 
ATOM     10  O   UNL     1       8.227 -19.125   8.926  1.00  0.00    -0.545 OA
ATOM     11  O   UNL     1       7.130 -18.299   7.096  1.00  0.00    -0.545 OA
ENDBRANCH   8   9
ENDBRANCH   1   7
BRANCH   6  12
ATOM     12  O   UNL     1      15.023 -14.263   6.865  1.00  0.00    -0.508 OA
ATOM     13  H   UNL     1      15.849 -14.572   6.366  1.00  0.00     0.293 HD
ENDBRANCH   6  12
TORSDOF 3
ENDMDL
MODEL 3
REMARK VINA RESULT:    -4.907      1.937      6.162
REMARK INTER + INTRA:          -5.775
REMARK INTER:                  -5.639
REMARK INTRA:                  -0.136
REMARK UNBOUND:                -0.151
REMARK SMILES O=C([O-])C=Cc1ccc(O)cc1
REMARK SMILES IDX 6 1 7 2 12 3 8 4 11 5 9 6 5 7 4 8 2 9 1 10 3 11 10 12
REMARK H PARENT 10 13
REMARK Flexibility Score: inf
ROOT
ATOM      1  C   UNL     1       8.713 -16.881   7.824  1.00  0.00    -0.025 A 
ATOM      2  C   UNL     1       7.633 -16.490   8.633  1.00  0.00     0.012 A 
ATOM      3  C   UNL     1       8.573 -18.023   7.008  1.00  0.00     0.012 A 
ATOM      4  C   UNL     1       6.450 -17.234   8.648  1.00  0.00     0.047 A 
ATOM      5  C   UNL     1       7.386 -18.764   7.027  1.00  0.00     0.047 A 
ATOM      6  C   UNL     1       6.325 -18.375   7.847  1.00  0.00     0.115 A 
ENDROOT
BRANCH   1   7
ATOM      7  C   UNL     1       9.945 -16.053   7.834  1.00  0.00     0.010 C 
ATOM      8  C   UNL     1      11.137 -16.496   8.258  1.00  0.00     0.025 C 
BRANCH   8   9
ATOM      9  C   UNL     1      12.336 -15.641   8.265  1.00  0.00     0.064 C 
ATOM     10  O   UNL     1      12.448 -14.670   7.470  1.00  0.00    -0.545 OA
ATOM     11  O   UNL     1      13.362 -15.912   9.160  1.00  0.00    -0.545 OA
ENDBRANCH   8   9
ENDBRANCH   1   7
BRANCH   6  12
ATOM     12  O   UNL     1       5.150 -19.124   7.854  1.00  0.00    -0.508 OA
ATOM     13  H   UNL     1       4.975 -19.827   8.563  1.00  0.00     0.293 HD
ENDBRANCH   6  12
TORSDOF 3
ENDMDL
MODEL 4
REMARK VINA RESULT:    -4.899      1.982      6.324
REMARK INTER + INTRA:          -5.765
REMARK INTER:                  -5.626
REMARK INTRA:                  -0.139
REMARK UNBOUND:                -0.151
REMARK SMILES O=C([O-])C=Cc1ccc(O)cc1
REMARK SMILES IDX 6 1 7 2 12 3 8 4 11 5 9 6 5 7 4 8 2 9 1 10 3 11 10 12
REMARK H PARENT 10 13
REMARK Flexibility Score: inf
ROOT
ATOM      1  C   UNL     1       8.609 -16.876   7.804  1.00  0.00    -0.025 A 
ATOM      2  C   UNL     1       8.477 -18.040   7.028  1.00  0.00     0.012 A 
ATOM      3  C   UNL     1       7.539 -16.489   8.637  1.00  0.00     0.012 A 
ATOM      4  C   UNL     1       7.296 -18.787   7.062  1.00  0.00     0.047 A 
ATOM      5  C   UNL     1       6.360 -17.241   8.668  1.00  0.00     0.047 A 
ATOM      6  C   UNL     1       6.234 -18.388   7.880  1.00  0.00     0.115 A 
ENDROOT
BRANCH   1   7
ATOM      7  C   UNL     1       9.886 -16.121   7.741  1.00  0.00     0.010 C 
ATOM      8  C   UNL     1      11.018 -16.522   8.335  1.00  0.00     0.025 C 
BRANCH   8   9
ATOM      9  C   UNL     1      12.265 -15.740   8.261  1.00  0.00     0.064 C 
ATOM     10  O   UNL     1      12.366 -14.747   7.492  1.00  0.00    -0.545 OA
ATOM     11  O   UNL     1      13.347 -16.106   9.049  1.00  0.00    -0.545 OA
ENDBRANCH   8   9
ENDBRANCH   1   7
BRANCH   6  12
ATOM     12  O   UNL     1       5.052 -19.125   7.923  1.00  0.00    -0.508 OA
ATOM     13  H   UNL     1       4.150 -18.674   8.015  1.00  0.00     0.293 HD
ENDBRANCH   6  12
TORSDOF 3
ENDMDL
MODEL 5
REMARK VINA RESULT:    -4.565      1.379      2.032
REMARK INTER + INTRA:          -5.383
REMARK INTER:                  -5.232
REMARK INTRA:                  -0.151
REMARK UNBOUND:                -0.151
REMARK SMILES O=C([O-])C=Cc1ccc(O)cc1
REMARK SMILES IDX 6 1 7 2 12 3 8 4 11 5 9 6 5 7 4 8 2 9 1 10 3 11 10 12
REMARK H PARENT 10 13
REMARK Flexibility Score: inf
ROOT
ATOM      1  C   UNL     1      10.939 -16.404   7.938  1.00  0.00    -0.025 A 
ATOM      2  C   UNL     1      11.616 -17.545   8.399  1.00  0.00     0.012 A 
ATOM      3  C   UNL     1      11.693 -15.271   7.566  1.00  0.00     0.012 A 
ATOM      4  C   UNL     1      13.009 -17.550   8.513  1.00  0.00     0.047 A 
ATOM      5  C   UNL     1      13.087 -15.281   7.681  1.00  0.00     0.047 A 
ATOM      6  C   UNL     1      13.748 -16.416   8.156  1.00  0.00     0.115 A 
ENDROOT
BRANCH   1   7
ATOM      7  C   UNL     1       9.460 -16.451   7.825  1.00  0.00     0.010 C 
ATOM      8  C   UNL     1       8.705 -17.432   8.339  1.00  0.00     0.025 C 
BRANCH   8   9
ATOM      9  C   UNL     1       7.239 -17.452   8.197  1.00  0.00     0.064 C 
ATOM     10  O   UNL     1       6.515 -16.612   8.797  1.00  0.00    -0.545 OA
ATOM     11  O   UNL     1       6.643 -18.413   7.392  1.00  0.00    -0.545 OA
ENDBRANCH   8   9
ENDBRANCH   1   7
BRANCH   6  12
ATOM     12  O   UNL     1      15.137 -16.409   8.265  1.00  0.00    -0.508 OA
ATOM     13  H   UNL     1      15.598 -16.194   9.141  1.00  0.00     0.293 HD
ENDBRANCH   6  12
TORSDOF 3
ENDMDL
MODEL 6
REMARK VINA RESULT:    -4.554      1.365      5.816
REMARK INTER + INTRA:          -5.371
REMARK INTER:                  -5.227
REMARK INTRA:                  -0.144
REMARK UNBOUND:                -0.151
REMARK SMILES O=C([O-])C=Cc1ccc(O)cc1
REMARK SMILES IDX 6 1 7 2 12 3 8 4 11 5 9 6 5 7 4 8 2 9 1 10 3 11 10 12
REMARK H PARENT 10 13
REMARK Flexibility Score: inf
ROOT
ATOM      1  C   UNL     1      10.185 -17.121   8.497  1.00  0.00    -0.025 A 
ATOM      2  C   UNL     1       9.194 -16.155   8.255  1.00  0.00     0.012 A 
ATOM      3  C   UNL     1       9.804 -18.476   8.596  1.00  0.00     0.012 A 
ATOM      4  C   UNL     1       7.852 -16.526   8.140  1.00  0.00     0.047 A 
ATOM      5  C   UNL     1       8.459 -18.842   8.478  1.00  0.00     0.047 A 
ATOM      6  C   UNL     1       7.481 -17.871   8.253  1.00  0.00     0.115 A 
ENDROOT
BRANCH   1   7
ATOM      7  C   UNL     1      11.598 -16.679   8.603  1.00  0.00     0.010 C 
ATOM      8  C   UNL     1      12.182 -15.836   7.739  1.00  0.00     0.025 C 
BRANCH   8   9
ATOM      9  C   UNL     1      13.591 -15.429   7.869  1.00  0.00     0.064 C 
ATOM     10  O   UNL     1      13.948 -14.240   7.652  1.00  0.00    -0.545 OA
ATOM     11  O   UNL     1      14.544 -16.370   8.235  1.00  0.00    -0.545 OA
ENDBRANCH   8   9
ENDBRANCH   1   7
BRANCH   6  12
ATOM     12  O   UNL     1       6.146 -18.252   8.140  1.00  0.00    -0.508 OA
ATOM     13  H   UNL     1       5.884 -19.217   7.974  1.00  0.00     0.293 HD
ENDBRANCH   6  12
TORSDOF 3
ENDMDL
MODEL 7
REMARK VINA RESULT:    -4.232      1.835      5.870
REMARK INTER + INTRA:          -5.002
REMARK INTER:                  -4.849
REMARK INTRA:                  -0.152
REMARK UNBOUND:                -0.151
REMARK SMILES O=C([O-])C=Cc1ccc(O)cc1
REMARK SMILES IDX 6 1 7 2 12 3 8 4 11 5 9 6 5 7 4 8 2 9 1 10 3 11 10 12
REMARK H PARENT 10 13
REMARK Flexibility Score: inf
ROOT
ATOM      1  C   UNL     1       9.769 -17.235   7.843  1.00  0.00    -0.025 A 
ATOM      2  C   UNL     1       9.264 -18.530   7.638  1.00  0.00     0.012 A 
ATOM      3  C   UNL     1       8.895 -16.229   8.305  1.00  0.00     0.012 A 
ATOM      4  C   UNL     1       7.914 -18.810   7.864  1.00  0.00     0.047 A 
ATOM      5  C   UNL     1       7.544 -16.516   8.530  1.00  0.00     0.047 A 
ATOM      6  C   UNL     1       7.049 -17.803   8.308  1.00  0.00     0.115 A 
ENDROOT
BRANCH   1   7
ATOM      7  C   UNL     1      11.212 -16.988   7.598  1.00  0.00     0.010 C 
ATOM      8  C   UNL     1      12.067 -17.927   7.169  1.00  0.00     0.025 C 
BRANCH   8   9
ATOM      9  C   UNL     1      13.496 -17.648   6.949  1.00  0.00     0.064 C 
ATOM     10  O   UNL     1      14.365 -18.550   7.088  1.00  0.00    -0.545 OA
ATOM     11  O   UNL     1      13.893 -16.369   6.584  1.00  0.00    -0.545 OA
ENDBRANCH   8   9
ENDBRANCH   1   7
BRANCH   6  12
ATOM     12  O   UNL     1       5.702 -18.072   8.537  1.00  0.00    -0.508 OA
ATOM     13  H   UNL     1       5.367 -18.360   9.449  1.00  0.00     0.293 HD
ENDBRANCH   6  12
TORSDOF 3
ENDMDL
MODEL 8
REMARK VINA RESULT:    -3.910      1.462      2.124
REMARK INTER + INTRA:          -4.632
REMARK INTER:                  -4.495
REMARK INTRA:                  -0.137
REMARK UNBOUND:                -0.151
REMARK SMILES O=C([O-])C=Cc1ccc(O)cc1
REMARK SMILES IDX 6 1 7 2 12 3 8 4 11 5 9 6 5 7 4 8 2 9 1 10 3 11 10 12
REMARK H PARENT 10 13
REMARK Flexibility Score: inf
ROOT
ATOM      1  C   UNL     1      10.004 -17.424   7.499  1.00  0.00    -0.025 A 
ATOM      2  C   UNL     1      10.364 -16.123   7.889  1.00  0.00     0.012 A 
ATOM      3  C   UNL     1      11.020 -18.324   7.113  1.00  0.00     0.012 A 
ATOM      4  C   UNL     1      11.702 -15.720   7.870  1.00  0.00     0.047 A 
ATOM      5  C   UNL     1      12.358 -17.915   7.097  1.00  0.00     0.047 A 
ATOM      6  C   UNL     1      12.702 -16.614   7.472  1.00  0.00     0.115 A 
ENDROOT
BRANCH   1   7
ATOM      7  C   UNL     1       8.572 -17.809   7.545  1.00  0.00     0.010 C 
ATOM      8  C   UNL     1       7.991 -18.398   8.599  1.00  0.00     0.025 C 
BRANCH   8   9
ATOM      9  C   UNL     1       6.568 -18.777   8.605  1.00  0.00     0.064 C 
ATOM     10  O   UNL     1       5.980 -19.116   7.543  1.00  0.00    -0.545 OA
ATOM     11  O   UNL     1       5.861 -18.758   9.799  1.00  0.00    -0.545 OA
ENDBRANCH   8   9
ENDBRANCH   1   7
BRANCH   6  12
ATOM     12  O   UNL     1      14.039 -16.223   7.450  1.00  0.00    -0.508 OA
ATOM     13  H   UNL     1      14.473 -15.872   6.605  1.00  0.00     0.293 HD
ENDBRANCH   6  12
TORSDOF 3
ENDMDL
MODEL 9
REMARK VINA RESULT:    -3.323      3.003      6.805
REMARK INTER + INTRA:          -3.959
REMARK INTER:                  -3.820
REMARK INTRA:                  -0.139
REMARK UNBOUND:                -0.151
REMARK SMILES O=C([O-])C=Cc1ccc(O)cc1
REMARK SMILES IDX 6 1 7 2 12 3 8 4 11 5 9 6 5 7 4 8 2 9 1 10 3 11 10 12
REMARK H PARENT 10 13
REMARK Flexibility Score: inf
ROOT
ATOM      1  C   UNL     1       7.736 -18.981   8.120  1.00  0.00    -0.025 A 
ATOM      2  C   UNL     1       7.616 -19.122   9.512  1.00  0.00     0.012 A 
ATOM      3  C   UNL     1       6.567 -18.790   7.352  1.00  0.00     0.012 A 
ATOM      4  C   UNL     1       6.359 -19.100  10.124  1.00  0.00     0.047 A 
ATOM      5  C   UNL     1       5.312 -18.768   7.970  1.00  0.00     0.047 A 
ATOM      6  C   UNL     1       5.204 -18.926   9.354  1.00  0.00     0.115 A 
ENDROOT
BRANCH   1   7
ATOM      7  C   UNL     1       9.092 -19.001   7.517  1.00  0.00     0.010 C 
ATOM      8  C   UNL     1       9.981 -18.006   7.649  1.00  0.00     0.025 C 
BRANCH   8   9
ATOM      9  C   UNL     1      11.315 -18.056   7.026  1.00  0.00     0.064 C 
ATOM     10  O   UNL     1      12.162 -17.146   7.229  1.00  0.00    -0.545 OA
ATOM     11  O   UNL     1      11.644 -19.123   6.201  1.00  0.00    -0.545 OA
ENDBRANCH   8   9
ENDBRANCH   1   7
BRANCH   6  12
ATOM     12  O   UNL     1       3.946 -18.902   9.953  1.00  0.00    -0.508 OA
ATOM     13  H   UNL     1       3.840 -18.927  10.960  1.00  0.00     0.293 HD
ENDBRANCH   6  12
TORSDOF 3
ENDMDL
