MODEL 1
REMARK VINA RESULT:    -6.966      0.000      0.000
REMARK INTER + INTRA:          -8.457
REMARK INTER:                  -8.391
REMARK INTRA:                  -0.065
REMARK UNBOUND:                -0.065
REMARK SMILES O=c1c(O)c(-c2ccc(O)c(O)c2)oc2cc(O)cc(O)c12
REMARK SMILES IDX 5 1 3 2 2 3 1 4 22 5 20 6 19 7 17 8 16 9 15 10 14 11 6 12
REMARK SMILES IDX 7 13 8 14 9 15 13 16 11 17 10 18 12 20 4 22 21 24 18 26
REMARK H PARENT 10 19 12 21 4 23 21 25 18 27
REMARK Flexibility Score: inf
ROOT
ATOM      1  C   UNL     1      62.013  40.636   9.520  1.00  0.00     0.180 A 
ATOM      2  C   UNL     1      61.598  41.462   8.456  1.00  0.00     0.208 A 
ATOM      3  C   UNL     1      60.723  40.935   7.493  1.00  0.00     0.238 A 
ATOM      4  O   UNL     1      60.352  41.661   6.530  1.00  0.00    -0.285 OA
ATOM      5  C   UNL     1      60.264  39.608   7.618  1.00  0.00     0.111 A 
ATOM      6  C   UNL     1      59.379  39.005   6.692  1.00  0.00     0.134 A 
ATOM      7  C   UNL     1      58.961  37.680   6.892  1.00  0.00     0.093 A 
ATOM      8  C   UNL     1      59.408  36.951   7.995  1.00  0.00     0.123 A 
ATOM      9  C   UNL     1      60.284  37.541   8.912  1.00  0.00     0.094 A 
ATOM     10  C   UNL     1      60.714  38.859   8.731  1.00  0.00     0.146 A 
ATOM     11  O   UNL     1      61.548  39.395   9.614  1.00  0.00    -0.452 OA
ENDROOT
BRANCH   1  12
ATOM     12  C   UNL     1      62.949  41.113  10.565  1.00  0.00     0.025 A 
ATOM     13  C   UNL     1      64.191  41.680  10.231  1.00  0.00     0.016 A 
ATOM     14  C   UNL     1      65.068  42.100  11.236  1.00  0.00     0.051 A 
ATOM     15  C   UNL     1      64.722  41.946  12.585  1.00  0.00     0.157 A 
ATOM     16  C   UNL     1      62.617  40.941  11.919  1.00  0.00     0.062 A 
ATOM     17  C   UNL     1      63.496  41.363  12.927  1.00  0.00     0.158 A 
BRANCH  15  18
ATOM     18  O   UNL     1      65.594  42.364  13.589  1.00  0.00    -0.504 OA
ATOM     19  H   UNL     1      66.162  41.704  14.106  1.00  0.00     0.293 HD
ENDBRANCH  15  18
BRANCH  17  20
ATOM     20  O   UNL     1      63.157  41.204  14.270  1.00  0.00    -0.504 OA
ATOM     21  H   UNL     1      62.810  40.323  14.628  1.00  0.00     0.293 HD
ENDBRANCH  17  20
ENDBRANCH   1  12
BRANCH   2  22
ATOM     22  O   UNL     1      62.027  42.789   8.382  1.00  0.00    -0.502 OA
ATOM     23  H   UNL     1      61.381  43.569   8.384  1.00  0.00     0.293 HD
ENDBRANCH   2  22
BRANCH   6  24
ATOM     24  O   UNL     1      58.913  39.708   5.580  1.00  0.00    -0.507 OA
ATOM     25  H   UNL     1      58.844  39.274   4.667  1.00  0.00     0.293 HD
ENDBRANCH   6  24
BRANCH   8  26
ATOM     26  O   UNL     1      58.978  35.637   8.171  1.00  0.00    -0.508 OA
ATOM     27  H   UNL     1      58.020  35.364   7.991  1.00  0.00     0.293 HD
ENDBRANCH   8  26
TORSDOF 6
ENDMDL
MODEL 2
REMARK VINA RESULT:    -6.243      2.868      4.124
REMARK INTER + INTRA:          -7.586
REMARK INTER:                  -7.358
REMARK INTRA:                  -0.228
REMARK UNBOUND:                -0.065
REMARK SMILES O=c1c(O)c(-c2ccc(O)c(O)c2)oc2cc(O)cc(O)c12
REMARK SMILES IDX 5 1 3 2 2 3 1 4 22 5 20 6 19 7 17 8 16 9 15 10 14 11 6 12
REMARK SMILES IDX 7 13 8 14 9 15 13 16 11 17 10 18 12 20 4 22 21 24 18 26
REMARK H PARENT 10 19 12 21 4 23 21 25 18 27
REMARK Flexibility Score: inf
ROOT
ATOM      1  C   UNL     1      62.935  40.736  10.451  1.00  0.00     0.180 A 
ATOM      2  C   UNL     1      64.166  40.848   9.775  1.00  0.00     0.208 A 
ATOM      3  C   UNL     1      64.168  41.267   8.436  1.00  0.00     0.238 A 
ATOM      4  O   UNL     1      65.263  41.361   7.817  1.00  0.00    -0.285 OA
ATOM      5  C   UNL     1      62.948  41.585   7.803  1.00  0.00     0.111 A 
ATOM      6  C   UNL     1      62.865  42.019   6.458  1.00  0.00     0.134 A 
ATOM      7  C   UNL     1      61.613  42.325   5.902  1.00  0.00     0.093 A 
ATOM      8  C   UNL     1      60.449  42.207   6.663  1.00  0.00     0.123 A 
ATOM      9  C   UNL     1      60.525  41.779   7.993  1.00  0.00     0.094 A 
ATOM     10  C   UNL     1      61.762  41.467   8.564  1.00  0.00     0.146 A 
ATOM     11  O   UNL     1      61.807  41.058   9.827  1.00  0.00    -0.452 OA
ENDROOT
BRANCH   1  12
ATOM     12  C   UNL     1      62.849  40.282  11.859  1.00  0.00     0.025 A 
ATOM     13  C   UNL     1      62.558  41.180  12.900  1.00  0.00     0.016 A 
ATOM     14  C   UNL     1      62.506  40.734  14.223  1.00  0.00     0.051 A 
ATOM     15  C   UNL     1      62.760  39.389  14.526  1.00  0.00     0.157 A 
ATOM     16  C   UNL     1      63.123  38.940  12.170  1.00  0.00     0.062 A 
ATOM     17  C   UNL     1      63.071  38.491  13.497  1.00  0.00     0.158 A 
BRANCH  15  18
ATOM     18  O   UNL     1      62.708  38.940  15.844  1.00  0.00    -0.504 OA
ATOM     19  H   UNL     1      62.868  39.567  16.624  1.00  0.00     0.293 HD
ENDBRANCH  15  18
BRANCH  17  20
ATOM     20  O   UNL     1      63.330  37.156  13.801  1.00  0.00    -0.504 OA
ATOM     21  H   UNL     1      64.135  36.672  13.422  1.00  0.00     0.293 HD
ENDBRANCH  17  20
ENDBRANCH   1  12
BRANCH   2  22
ATOM     22  O   UNL     1      65.364  40.575  10.440  1.00  0.00    -0.502 OA
ATOM     23  H   UNL     1      66.262  40.888  10.091  1.00  0.00     0.293 HD
ENDBRANCH   2  22
BRANCH   6  24
ATOM     24  O   UNL     1      64.011  42.147   5.671  1.00  0.00    -0.507 OA
ATOM     25  H   UNL     1      64.937  42.175   6.081  1.00  0.00     0.293 HD
ENDBRANCH   6  24
BRANCH   8  26
ATOM     26  O   UNL     1      59.218  42.518   6.089  1.00  0.00    -0.508 OA
ATOM     27  H   UNL     1      58.907  43.476   5.985  1.00  0.00     0.293 HD
ENDBRANCH   8  26
TORSDOF 6
ENDMDL
MODEL 3
REMARK VINA RESULT:    -6.204      1.437      6.660
REMARK INTER + INTRA:          -7.538
REMARK INTER:                  -7.845
REMARK INTRA:                   0.307
REMARK UNBOUND:                -0.065
REMARK SMILES O=c1c(O)c(-c2ccc(O)c(O)c2)oc2cc(O)cc(O)c12
REMARK SMILES IDX 5 1 3 2 2 3 1 4 22 5 20 6 19 7 17 8 16 9 15 10 14 11 6 12
REMARK SMILES IDX 7 13 8 14 9 15 13 16 11 17 10 18 12 20 4 22 21 24 18 26
REMARK H PARENT 10 19 12 21 4 23 21 25 18 27
REMARK Flexibility Score: inf
ROOT
ATOM      1  C   UNL     1      61.973  39.947   8.654  1.00  0.00     0.180 A 
ATOM      2  C   UNL     1      62.906  40.834   8.081  1.00  0.00     0.208 A 
ATOM      3  C   UNL     1      63.719  41.602   8.928  1.00  0.00     0.238 A 
ATOM      4  O   UNL     1      64.551  42.407   8.427  1.00  0.00    -0.285 OA
ATOM      5  C   UNL     1      63.601  41.459  10.326  1.00  0.00     0.111 A 
ATOM      6  C   UNL     1      64.386  42.194  11.248  1.00  0.00     0.134 A 
ATOM      7  C   UNL     1      64.215  41.988  12.625  1.00  0.00     0.093 A 
ATOM      8  C   UNL     1      63.280  41.065  13.097  1.00  0.00     0.123 A 
ATOM      9  C   UNL     1      62.501  40.337  12.191  1.00  0.00     0.094 A 
ATOM     10  C   UNL     1      62.655  40.529  10.815  1.00  0.00     0.146 A 
ATOM     11  O   UNL     1      61.900  39.828   9.976  1.00  0.00    -0.452 OA
ENDROOT
BRANCH   1  12
ATOM     12  C   UNL     1      61.067  39.116   7.827  1.00  0.00     0.025 A 
ATOM     13  C   UNL     1      60.712  39.498   6.521  1.00  0.00     0.016 A 
ATOM     14  C   UNL     1      59.837  38.710   5.769  1.00  0.00     0.051 A 
ATOM     15  C   UNL     1      59.294  37.539   6.315  1.00  0.00     0.157 A 
ATOM     16  C   UNL     1      60.503  37.953   8.377  1.00  0.00     0.062 A 
ATOM     17  C   UNL     1      59.625  37.162   7.622  1.00  0.00     0.158 A 
BRANCH  15  18
ATOM     18  O   UNL     1      58.421  36.750   5.567  1.00  0.00    -0.504 OA
ATOM     19  H   UNL     1      58.188  35.805   5.849  1.00  0.00     0.293 HD
ENDBRANCH  15  18
BRANCH  17  20
ATOM     20  O   UNL     1      59.078  36.001   8.166  1.00  0.00    -0.504 OA
ATOM     21  H   UNL     1      58.771  35.960   9.130  1.00  0.00     0.293 HD
ENDBRANCH  17  20
ENDBRANCH   1  12
BRANCH   2  22
ATOM     22  O   UNL     1      63.038  40.920   6.693  1.00  0.00    -0.502 OA
ATOM     23  H   UNL     1      62.517  41.589   6.139  1.00  0.00     0.293 HD
ENDBRANCH   2  22
BRANCH   6  24
ATOM     24  O   UNL     1      65.330  43.123  10.808  1.00  0.00    -0.507 OA
ATOM     25  H   UNL     1      65.371  44.061  11.189  1.00  0.00     0.293 HD
ENDBRANCH   6  24
BRANCH   8  26
ATOM     26  O   UNL     1      63.129  40.878  14.469  1.00  0.00    -0.508 OA
ATOM     27  H   UNL     1      63.023  41.662  15.103  1.00  0.00     0.293 HD
ENDBRANCH   8  26
TORSDOF 6
ENDMDL
MODEL 4
REMARK VINA RESULT:    -5.917      1.415      6.828
REMARK INTER + INTRA:          -7.193
REMARK INTER:                  -7.445
REMARK INTRA:                   0.252
REMARK UNBOUND:                -0.065
REMARK SMILES O=c1c(O)c(-c2ccc(O)c(O)c2)oc2cc(O)cc(O)c12
REMARK SMILES IDX 5 1 3 2 2 3 1 4 22 5 20 6 19 7 17 8 16 9 15 10 14 11 6 12
REMARK SMILES IDX 7 13 8 14 9 15 13 16 11 17 10 18 12 20 4 22 21 24 18 26
REMARK H PARENT 10 19 12 21 4 23 21 25 18 27
REMARK Flexibility Score: inf
ROOT
ATOM      1  C   UNL     1      61.832  39.899   8.621  1.00  0.00     0.180 A 
ATOM      2  C   UNL     1      62.741  40.767   7.986  1.00  0.00     0.208 A 
ATOM      3  C   UNL     1      63.589  41.557   8.778  1.00  0.00     0.238 A 
ATOM      4  O   UNL     1      64.400  42.347   8.221  1.00  0.00    -0.285 OA
ATOM      5  C   UNL     1      63.529  41.452  10.183  1.00  0.00     0.111 A 
ATOM      6  C   UNL     1      64.352  42.210  11.051  1.00  0.00     0.134 A 
ATOM      7  C   UNL     1      64.238  42.041  12.439  1.00  0.00     0.093 A 
ATOM      8  C   UNL     1      63.322  41.133  12.974  1.00  0.00     0.123 A 
ATOM      9  C   UNL     1      62.506  40.382  12.121  1.00  0.00     0.094 A 
ATOM     10  C   UNL     1      62.603  40.537  10.735  1.00  0.00     0.146 A 
ATOM     11  O   UNL     1      61.814  39.815   9.947  1.00  0.00    -0.452 OA
ENDROOT
BRANCH   1  12
ATOM     12  C   UNL     1      60.892  39.048   7.855  1.00  0.00     0.025 A 
ATOM     13  C   UNL     1      60.566  37.749   8.283  1.00  0.00     0.016 A 
ATOM     14  C   UNL     1      59.695  36.955   7.530  1.00  0.00     0.051 A 
ATOM     15  C   UNL     1      59.152  37.442   6.334  1.00  0.00     0.157 A 
ATOM     16  C   UNL     1      60.361  39.522   6.644  1.00  0.00     0.062 A 
ATOM     17  C   UNL     1      59.488  38.726   5.889  1.00  0.00     0.158 A 
BRANCH  15  18
ATOM     18  O   UNL     1      58.283  36.653   5.581  1.00  0.00    -0.504 OA
ATOM     19  H   UNL     1      58.482  35.678   5.392  1.00  0.00     0.293 HD
ENDBRANCH  15  18
BRANCH  17  20
ATOM     20  O   UNL     1      58.951  39.205   4.695  1.00  0.00    -0.504 OA
ATOM     21  H   UNL     1      59.541  39.442   3.906  1.00  0.00     0.293 HD
ENDBRANCH  17  20
ENDBRANCH   1  12
BRANCH   2  22
ATOM     22  O   UNL     1      62.815  40.816   6.592  1.00  0.00    -0.502 OA
ATOM     23  H   UNL     1      63.645  41.129   6.103  1.00  0.00     0.293 HD
ENDBRANCH   2  22
BRANCH   6  24
ATOM     24  O   UNL     1      65.277  43.125  10.548  1.00  0.00    -0.507 OA
ATOM     25  H   UNL     1      66.274  42.946  10.579  1.00  0.00     0.293 HD
ENDBRANCH   6  24
BRANCH   8  26
ATOM     26  O   UNL     1      63.229  40.984  14.356  1.00  0.00    -0.508 OA
ATOM     27  H   UNL     1      63.072  40.078  14.783  1.00  0.00     0.293 HD
ENDBRANCH   8  26
TORSDOF 6
ENDMDL
MODEL 5
REMARK VINA RESULT:    -5.880     17.981     20.882
REMARK INTER + INTRA:          -7.149
REMARK INTER:                  -7.123
REMARK INTRA:                  -0.026
REMARK UNBOUND:                -0.065
REMARK SMILES O=c1c(O)c(-c2ccc(O)c(O)c2)oc2cc(O)cc(O)c12
REMARK SMILES IDX 5 1 3 2 2 3 1 4 22 5 20 6 19 7 17 8 16 9 15 10 14 11 6 12
REMARK SMILES IDX 7 13 8 14 9 15 13 16 11 17 10 18 12 20 4 22 21 24 18 26
REMARK H PARENT 10 19 12 21 4 23 21 25 18 27
REMARK Flexibility Score: inf
ROOT
ATOM      1  C   UNL     1      49.507  26.981  19.851  1.00  0.00     0.180 A 
ATOM      2  C   UNL     1      48.194  27.214  20.305  1.00  0.00     0.208 A 
ATOM      3  C   UNL     1      47.398  28.150  19.625  1.00  0.00     0.238 A 
ATOM      4  O   UNL     1      46.225  28.376  20.029  1.00  0.00    -0.285 OA
ATOM      5  C   UNL     1      47.918  28.818  18.497  1.00  0.00     0.111 A 
ATOM      6  C   UNL     1      47.179  29.772  17.755  1.00  0.00     0.134 A 
ATOM      7  C   UNL     1      47.764  30.388  16.638  1.00  0.00     0.093 A 
ATOM      8  C   UNL     1      49.067  30.069  16.250  1.00  0.00     0.123 A 
ATOM      9  C   UNL     1      49.801  29.128  16.980  1.00  0.00     0.094 A 
ATOM     10  C   UNL     1      49.237  28.505  18.097  1.00  0.00     0.146 A 
ATOM     11  O   UNL     1      49.957  27.618  18.775  1.00  0.00    -0.452 OA
ENDROOT
BRANCH   1  12
ATOM     12  C   UNL     1      50.413  26.023  20.525  1.00  0.00     0.025 A 
ATOM     13  C   UNL     1      50.622  26.068  21.915  1.00  0.00     0.016 A 
ATOM     14  C   UNL     1      51.500  25.169  22.526  1.00  0.00     0.051 A 
ATOM     15  C   UNL     1      52.193  24.224  21.757  1.00  0.00     0.157 A 
ATOM     16  C   UNL     1      51.126  25.088  19.756  1.00  0.00     0.062 A 
ATOM     17  C   UNL     1      52.008  24.186  20.369  1.00  0.00     0.158 A 
BRANCH  15  18
ATOM     18  O   UNL     1      53.069  23.325  22.363  1.00  0.00    -0.504 OA
ATOM     19  H   UNL     1      53.782  23.637  23.012  1.00  0.00     0.293 HD
ENDBRANCH  15  18
BRANCH  17  20
ATOM     20  O   UNL     1      52.703  23.250  19.605  1.00  0.00    -0.504 OA
ATOM     21  H   UNL     1      53.366  23.534  18.894  1.00  0.00     0.293 HD
ENDBRANCH  17  20
ENDBRANCH   1  12
BRANCH   2  22
ATOM     22  O   UNL     1      47.686  26.503  21.394  1.00  0.00    -0.502 OA
ATOM     23  H   UNL     1      48.186  25.731  21.819  1.00  0.00     0.293 HD
ENDBRANCH   2  22
BRANCH   6  24
ATOM     24  O   UNL     1      45.875  30.112  18.117  1.00  0.00    -0.507 OA
ATOM     25  H   UNL     1      45.123  30.137  17.438  1.00  0.00     0.293 HD
ENDBRANCH   6  24
BRANCH   8  26
ATOM     26  O   UNL     1      49.625  30.694  15.137  1.00  0.00    -0.508 OA
ATOM     27  H   UNL     1      50.071  30.163  14.398  1.00  0.00     0.293 HD
ENDBRANCH   8  26
TORSDOF 6
ENDMDL
MODEL 6
REMARK VINA RESULT:    -5.772      1.794      2.120
REMARK INTER + INTRA:          -7.019
REMARK INTER:                  -6.978
REMARK INTRA:                  -0.041
REMARK UNBOUND:                -0.065
REMARK SMILES O=c1c(O)c(-c2ccc(O)c(O)c2)oc2cc(O)cc(O)c12
REMARK SMILES IDX 5 1 3 2 2 3 1 4 22 5 20 6 19 7 17 8 16 9 15 10 14 11 6 12
REMARK SMILES IDX 7 13 8 14 9 15 13 16 11 17 10 18 12 20 4 22 21 24 18 26
REMARK H PARENT 10 19 12 21 4 23 21 25 18 27
REMARK Flexibility Score: inf
ROOT
ATOM      1  C   UNL     1      61.300  40.647   8.049  1.00  0.00     0.180 A 
ATOM      2  C   UNL     1      60.557  41.716   7.510  1.00  0.00     0.208 A 
ATOM      3  C   UNL     1      59.695  41.466   6.431  1.00  0.00     0.238 A 
ATOM      4  O   UNL     1      59.032  42.417   5.933  1.00  0.00    -0.285 OA
ATOM      5  C   UNL     1      59.575  40.156   5.923  1.00  0.00     0.111 A 
ATOM      6  C   UNL     1      58.726  39.820   4.841  1.00  0.00     0.134 A 
ATOM      7  C   UNL     1      58.656  38.490   4.399  1.00  0.00     0.093 A 
ATOM      8  C   UNL     1      59.414  37.494   5.017  1.00  0.00     0.123 A 
ATOM      9  C   UNL     1      60.255  37.819   6.086  1.00  0.00     0.094 A 
ATOM     10  C   UNL     1      60.341  39.139   6.540  1.00  0.00     0.146 A 
ATOM     11  O   UNL     1      61.150  39.423   7.554  1.00  0.00    -0.452 OA
ENDROOT
BRANCH   1  12
ATOM     12  C   UNL     1      62.244  40.835   9.175  1.00  0.00     0.025 A 
ATOM     13  C   UNL     1      63.238  41.828   9.139  1.00  0.00     0.016 A 
ATOM     14  C   UNL     1      64.132  41.970  10.204  1.00  0.00     0.051 A 
ATOM     15  C   UNL     1      64.056  41.113  11.310  1.00  0.00     0.157 A 
ATOM     16  C   UNL     1      62.185  39.965  10.277  1.00  0.00     0.062 A 
ATOM     17  C   UNL     1      63.082  40.108  11.345  1.00  0.00     0.158 A 
BRANCH  15  18
ATOM     18  O   UNL     1      64.945  41.253  12.374  1.00  0.00    -0.504 OA
ATOM     19  H   UNL     1      65.009  42.115  12.902  1.00  0.00     0.293 HD
ENDBRANCH  15  18
BRANCH  17  20
ATOM     20  O   UNL     1      63.012  39.252  12.444  1.00  0.00    -0.504 OA
ATOM     21  H   UNL     1      63.629  38.454  12.534  1.00  0.00     0.293 HD
ENDBRANCH  17  20
ENDBRANCH   1  12
BRANCH   2  22
ATOM     22  O   UNL     1      60.656  42.995   8.064  1.00  0.00    -0.502 OA
ATOM     23  H   UNL     1      61.501  43.327   8.513  1.00  0.00     0.293 HD
ENDBRANCH   2  22
BRANCH   6  24
ATOM     24  O   UNL     1      57.955  40.794   4.203  1.00  0.00    -0.507 OA
ATOM     25  H   UNL     1      58.374  41.502   3.613  1.00  0.00     0.293 HD
ENDBRANCH   6  24
BRANCH   8  26
ATOM     26  O   UNL     1      59.326  36.180   4.560  1.00  0.00    -0.508 OA
ATOM     27  H   UNL     1      60.123  35.556   4.582  1.00  0.00     0.293 HD
ENDBRANCH   8  26
TORSDOF 6
ENDMDL
MODEL 7
REMARK VINA RESULT:    -5.615     17.868     20.217
REMARK INTER + INTRA:          -6.829
REMARK INTER:                  -6.530
REMARK INTRA:                  -0.299
REMARK UNBOUND:                -0.065
REMARK SMILES O=c1c(O)c(-c2ccc(O)c(O)c2)oc2cc(O)cc(O)c12
REMARK SMILES IDX 5 1 3 2 2 3 1 4 22 5 20 6 19 7 17 8 16 9 15 10 14 11 6 12
REMARK SMILES IDX 7 13 8 14 9 15 13 16 11 17 10 18 12 20 4 22 21 24 18 26
REMARK H PARENT 10 19 12 21 4 23 21 25 18 27
REMARK Flexibility Score: inf
ROOT
ATOM      1  C   UNL     1      47.890  29.607  17.140  1.00  0.00     0.180 A 
ATOM      2  C   UNL     1      49.259  29.286  17.224  1.00  0.00     0.208 A 
ATOM      3  C   UNL     1      49.707  28.510  18.305  1.00  0.00     0.238 A 
ATOM      4  O   UNL     1      50.932  28.224  18.397  1.00  0.00    -0.285 OA
ATOM      5  C   UNL     1      48.782  28.054  19.267  1.00  0.00     0.111 A 
ATOM      6  C   UNL     1      49.153  27.265  20.383  1.00  0.00     0.134 A 
ATOM      7  C   UNL     1      48.171  26.843  21.292  1.00  0.00     0.093 A 
ATOM      8  C   UNL     1      46.832  27.192  21.108  1.00  0.00     0.123 A 
ATOM      9  C   UNL     1      46.460  27.972  20.007  1.00  0.00     0.094 A 
ATOM     10  C   UNL     1      47.423  28.404  19.091  1.00  0.00     0.146 A 
ATOM     11  O   UNL     1      47.045  29.147  18.057  1.00  0.00    -0.452 OA
ENDROOT
BRANCH   1  12
ATOM     12  C   UNL     1      47.344  30.436  16.041  1.00  0.00     0.025 A 
ATOM     13  C   UNL     1      47.062  29.885  14.778  1.00  0.00     0.016 A 
ATOM     14  C   UNL     1      46.570  30.692  13.749  1.00  0.00     0.051 A 
ATOM     15  C   UNL     1      46.367  32.062  13.961  1.00  0.00     0.157 A 
ATOM     16  C   UNL     1      47.158  31.814  16.241  1.00  0.00     0.062 A 
ATOM     17  C   UNL     1      46.664  32.625  15.209  1.00  0.00     0.158 A 
BRANCH  15  18
ATOM     18  O   UNL     1      45.875  32.870  12.938  1.00  0.00    -0.504 OA
ATOM     19  H   UNL     1      46.483  33.486  12.411  1.00  0.00     0.293 HD
ENDBRANCH  15  18
BRANCH  17  20
ATOM     20  O   UNL     1      46.468  33.989  15.416  1.00  0.00    -0.504 OA
ATOM     21  H   UNL     1      46.188  34.605  14.661  1.00  0.00     0.293 HD
ENDBRANCH  17  20
ENDBRANCH   1  12
BRANCH   2  22
ATOM     22  O   UNL     1      50.146  29.708  16.231  1.00  0.00    -0.502 OA
ATOM     23  H   UNL     1      50.133  29.325  15.294  1.00  0.00     0.293 HD
ENDBRANCH   2  22
BRANCH   6  24
ATOM     24  O   UNL     1      50.483  26.899  20.595  1.00  0.00    -0.507 OA
ATOM     25  H   UNL     1      51.250  27.516  20.356  1.00  0.00     0.293 HD
ENDBRANCH   6  24
BRANCH   8  26
ATOM     26  O   UNL     1      45.876  26.760  22.024  1.00  0.00    -0.508 OA
ATOM     27  H   UNL     1      45.511  25.815  22.005  1.00  0.00     0.293 HD
ENDBRANCH   8  26
TORSDOF 6
ENDMDL
MODEL 8
REMARK VINA RESULT:    -5.552      1.359      2.955
REMARK INTER + INTRA:          -6.753
REMARK INTER:                  -6.670
REMARK INTRA:                  -0.083
REMARK UNBOUND:                -0.065
REMARK SMILES O=c1c(O)c(-c2ccc(O)c(O)c2)oc2cc(O)cc(O)c12
REMARK SMILES IDX 5 1 3 2 2 3 1 4 22 5 20 6 19 7 17 8 16 9 15 10 14 11 6 12
REMARK SMILES IDX 7 13 8 14 9 15 13 16 11 17 10 18 12 20 4 22 21 24 18 26
REMARK H PARENT 10 19 12 21 4 23 21 25 18 27
REMARK Flexibility Score: inf
ROOT
ATOM      1  C   UNL     1      62.070  40.902   9.643  1.00  0.00     0.180 A 
ATOM      2  C   UNL     1      61.748  39.532   9.693  1.00  0.00     0.208 A 
ATOM      3  C   UNL     1      60.770  39.034   8.819  1.00  0.00     0.238 A 
ATOM      4  O   UNL     1      60.465  37.810   8.862  1.00  0.00    -0.285 OA
ATOM      5  C   UNL     1      60.148  39.903   7.900  1.00  0.00     0.111 A 
ATOM      6  C   UNL     1      59.156  39.479   6.982  1.00  0.00     0.134 A 
ATOM      7  C   UNL     1      58.590  40.404   6.092  1.00  0.00     0.093 A 
ATOM      8  C   UNL     1      58.997  41.740   6.100  1.00  0.00     0.123 A 
ATOM      9  C   UNL     1      59.976  42.165   7.005  1.00  0.00     0.094 A 
ATOM     10  C   UNL     1      60.550  41.259   7.901  1.00  0.00     0.146 A 
ATOM     11  O   UNL     1      61.474  41.689   8.752  1.00  0.00    -0.452 OA
ENDROOT
BRANCH   1  12
ATOM     12  C   UNL     1      63.078  41.507  10.545  1.00  0.00     0.025 A 
ATOM     13  C   UNL     1      64.231  42.133  10.040  1.00  0.00     0.016 A 
ATOM     14  C   UNL     1      65.179  42.675  10.911  1.00  0.00     0.051 A 
ATOM     15  C   UNL     1      64.997  42.585  12.298  1.00  0.00     0.157 A 
ATOM     16  C   UNL     1      62.911  41.401  11.936  1.00  0.00     0.062 A 
ATOM     17  C   UNL     1      63.862  41.944  12.811  1.00  0.00     0.158 A 
BRANCH  15  18
ATOM     18  O   UNL     1      65.940  43.125  13.171  1.00  0.00    -0.504 OA
ATOM     19  H   UNL     1      66.464  43.959  12.934  1.00  0.00     0.293 HD
ENDBRANCH  15  18
BRANCH  17  20
ATOM     20  O   UNL     1      63.687  41.850  14.190  1.00  0.00    -0.504 OA
ATOM     21  H   UNL     1      64.069  41.077  14.722  1.00  0.00     0.293 HD
ENDBRANCH  17  20
ENDBRANCH   1  12
BRANCH   2  22
ATOM     22  O   UNL     1      62.414  38.682  10.579  1.00  0.00    -0.502 OA
ATOM     23  H   UNL     1      62.096  38.531  11.529  1.00  0.00     0.293 HD
ENDBRANCH   2  22
BRANCH   6  24
ATOM     24  O   UNL     1      58.729  38.150   6.948  1.00  0.00    -0.507 OA
ATOM     25  H   UNL     1      58.975  37.531   6.185  1.00  0.00     0.293 HD
ENDBRANCH   6  24
BRANCH   8  26
ATOM     26  O   UNL     1      58.420  42.640   5.206  1.00  0.00    -0.508 OA
ATOM     27  H   UNL     1      58.450  42.486   4.205  1.00  0.00     0.293 HD
ENDBRANCH   8  26
TORSDOF 6
ENDMDL
MODEL 9
REMARK VINA RESULT:    -5.432     17.661     19.214
REMARK INTER + INTRA:          -6.609
REMARK INTER:                  -6.413
REMARK INTRA:                  -0.195
REMARK UNBOUND:                -0.065
REMARK SMILES O=c1c(O)c(-c2ccc(O)c(O)c2)oc2cc(O)cc(O)c12
REMARK SMILES IDX 5 1 3 2 2 3 1 4 22 5 20 6 19 7 17 8 16 9 15 10 14 11 6 12
REMARK SMILES IDX 7 13 8 14 9 15 13 16 11 17 10 18 12 20 4 22 21 24 18 26
REMARK H PARENT 10 19 12 21 4 23 21 25 18 27
REMARK Flexibility Score: inf
ROOT
ATOM      1  C   UNL     1      47.123  30.505  16.607  1.00  0.00     0.180 A 
ATOM      2  C   UNL     1      46.978  30.119  15.260  1.00  0.00     0.208 A 
ATOM      3  C   UNL     1      46.619  31.090  14.312  1.00  0.00     0.238 A 
ATOM      4  O   UNL     1      46.475  30.755  13.105  1.00  0.00    -0.285 OA
ATOM      5  C   UNL     1      46.432  32.427  14.720  1.00  0.00     0.111 A 
ATOM      6  C   UNL     1      46.074  33.466  13.827  1.00  0.00     0.134 A 
ATOM      7  C   UNL     1      45.915  34.773  14.309  1.00  0.00     0.093 A 
ATOM      8  C   UNL     1      46.108  35.063  15.661  1.00  0.00     0.123 A 
ATOM      9  C   UNL     1      46.461  34.040  16.549  1.00  0.00     0.094 A 
ATOM     10  C   UNL     1      46.622  32.730  16.088  1.00  0.00     0.146 A 
ATOM     11  O   UNL     1      46.954  31.777  16.952  1.00  0.00    -0.452 OA
ENDROOT
BRANCH   1  12
ATOM     12  C   UNL     1      47.481  29.535  17.668  1.00  0.00     0.025 A 
ATOM     13  C   UNL     1      46.574  29.198  18.689  1.00  0.00     0.016 A 
ATOM     14  C   UNL     1      46.943  28.299  19.692  1.00  0.00     0.051 A 
ATOM     15  C   UNL     1      48.227  27.737  19.701  1.00  0.00     0.157 A 
ATOM     16  C   UNL     1      48.773  28.985  17.693  1.00  0.00     0.062 A 
ATOM     17  C   UNL     1      49.144  28.083  18.701  1.00  0.00     0.158 A 
BRANCH  15  18
ATOM     18  O   UNL     1      48.599  26.839  20.700  1.00  0.00    -0.504 OA
ATOM     19  H   UNL     1      48.812  25.871  20.490  1.00  0.00     0.293 HD
ENDBRANCH  15  18
BRANCH  17  20
ATOM     20  O   UNL     1      50.423  27.528  18.714  1.00  0.00    -0.504 OA
ATOM     21  H   UNL     1      51.231  28.049  18.395  1.00  0.00     0.293 HD
ENDBRANCH  17  20
ENDBRANCH   1  12
BRANCH   2  22
ATOM     22  O   UNL     1      47.217  28.798  14.874  1.00  0.00    -0.502 OA
ATOM     23  H   UNL     1      48.143  28.389  14.887  1.00  0.00     0.293 HD
ENDBRANCH   2  22
BRANCH   6  24
ATOM     24  O   UNL     1      45.875  33.209  12.469  1.00  0.00    -0.507 OA
ATOM     25  H   UNL     1      45.901  33.950  11.778  1.00  0.00     0.293 HD
ENDBRANCH   6  24
BRANCH   8  26
ATOM     26  O   UNL     1      45.945  36.370  16.115  1.00  0.00    -0.508 OA
ATOM     27  H   UNL     1      46.040  37.163  15.493  1.00  0.00     0.293 HD
ENDBRANCH   8  26
TORSDOF 6
ENDMDL
