MODEL 1
REMARK VINA RESULT:    -5.075      0.000      0.000
REMARK INTER + INTRA:          -5.224
REMARK INTER:                  -5.224
REMARK INTRA:                   0.000
REMARK UNBOUND:                 0.000
REMARK SMILES CC1(C)[C@@H]2CC[C@@](C)(C2)[C@H]1O
REMARK SMILES IDX 1 1 2 2 4 3 5 4 6 5 7 6 9 7 10 8 8 9 3 10 11 11
REMARK H PARENT 11 12
REMARK Flexibility Score: inf
ROOT
ATOM      1  C   UNL     1     180.430 189.590 199.934  1.00  0.00     0.014 C 
ATOM      2  C   UNL     1     180.688 190.142 201.359  1.00  0.00    -0.006 C 
ATOM      3  C   UNL     1     179.374 190.510 202.131  1.00  0.00    -0.002 C 
ATOM      4  C   UNL     1     178.435 191.377 201.267  1.00  0.00     0.005 C 
ATOM      5  C   UNL     1     179.196 192.709 201.165  1.00  0.00     0.010 C 
ATOM      6  C   UNL     1     180.433 192.467 202.063  1.00  0.00    -0.006 C 
ATOM      7  C   UNL     1     179.854 191.554 203.125  1.00  0.00     0.013 C 
ATOM      8  C   UNL     1     181.419 191.528 201.303  1.00  0.00     0.126 C 
ATOM      9  C   UNL     1     181.047 193.765 202.603  1.00  0.00     0.014 C 
ATOM     10  C   UNL     1     181.468 189.050 202.136  1.00  0.00     0.014 C 
ENDROOT
BRANCH   8  11
ATOM     11  O   UNL     1     182.714 191.502 201.864  1.00  0.00    -0.392 OA
ATOM     12  H   UNL     1     182.751 192.139 202.622  1.00  0.00     0.211 HD
ENDBRANCH   8  11
TORSDOF 1
ENDMDL
MODEL 2
REMARK VINA RESULT:    -4.485     13.248     14.812
REMARK INTER + INTRA:          -4.616
REMARK INTER:                  -4.616
REMARK INTRA:                   0.000
REMARK UNBOUND:                 0.000
REMARK SMILES CC1(C)[C@@H]2CC[C@@](C)(C2)[C@H]1O
REMARK SMILES IDX 1 1 2 2 4 3 5 4 6 5 7 6 9 7 10 8 8 9 3 10 11 11
REMARK H PARENT 11 12
REMARK Flexibility Score: inf
ROOT
ATOM      1  C   UNL     1     187.975 191.113 187.300  1.00  0.00     0.014 C 
ATOM      2  C   UNL     1     186.478 190.725 187.214  1.00  0.00    -0.006 C 
ATOM      3  C   UNL     1     185.508 191.952 187.332  1.00  0.00    -0.002 C 
ATOM      4  C   UNL     1     185.872 192.843 188.538  1.00  0.00     0.005 C 
ATOM      5  C   UNL     1     185.506 191.958 189.741  1.00  0.00     0.010 C 
ATOM      6  C   UNL     1     184.892 190.706 189.071  1.00  0.00    -0.006 C 
ATOM      7  C   UNL     1     184.230 191.316 187.853  1.00  0.00     0.013 C 
ATOM      8  C   UNL     1     186.046 189.862 188.450  1.00  0.00     0.126 C 
ATOM      9  C   UNL     1     183.940 189.936 189.996  1.00  0.00     0.014 C 
ATOM     10  C   UNL     1     186.269 190.018 185.849  1.00  0.00     0.014 C 
ENDROOT
BRANCH   8  11
ATOM     11  O   UNL     1     185.660 188.548 188.109  1.00  0.00    -0.392 OA
ATOM     12  H   UNL     1     185.737 188.433 187.128  1.00  0.00     0.211 HD
ENDBRANCH   8  11
TORSDOF 1
ENDMDL
MODEL 3
REMARK VINA RESULT:    -4.412     11.697     12.967
REMARK INTER + INTRA:          -4.541
REMARK INTER:                  -4.541
REMARK INTRA:                   0.000
REMARK UNBOUND:                 0.000
REMARK SMILES CC1(C)[C@@H]2CC[C@@](C)(C2)[C@H]1O
REMARK SMILES IDX 1 1 2 2 4 3 5 4 6 5 7 6 9 7 10 8 8 9 3 10 11 11
REMARK H PARENT 11 12
REMARK Flexibility Score: inf
ROOT
ATOM      1  C   UNL     1     186.322 189.720 189.832  1.00  0.00     0.014 C 
ATOM      2  C   UNL     1     184.787 189.533 189.939  1.00  0.00    -0.006 C 
ATOM      3  C   UNL     1     184.312 189.097 191.369  1.00  0.00    -0.002 C 
ATOM      4  C   UNL     1     185.142 187.910 191.901  1.00  0.00     0.005 C 
ATOM      5  C   UNL     1     184.706 186.751 190.991  1.00  0.00     0.010 C 
ATOM      6  C   UNL     1     183.612 187.399 190.110  1.00  0.00    -0.006 C 
ATOM      7  C   UNL     1     182.999 188.389 191.080  1.00  0.00     0.013 C 
ATOM      8  C   UNL     1     184.303 188.326 189.064  1.00  0.00     0.126 C 
ATOM      9  C   UNL     1     182.623 186.378 189.531  1.00  0.00     0.014 C 
ATOM     10  C   UNL     1     184.136 190.888 189.558  1.00  0.00     0.014 C 
ENDROOT
BRANCH   8  11
ATOM     11  O   UNL     1     183.453 188.707 188.004  1.00  0.00    -0.392 OA
ATOM     12  H   UNL     1     182.653 188.123 188.004  1.00  0.00     0.211 HD
ENDBRANCH   8  11
TORSDOF 1
ENDMDL
MODEL 4
REMARK VINA RESULT:    -4.399     12.315     14.074
REMARK INTER + INTRA:          -4.527
REMARK INTER:                  -4.527
REMARK INTRA:                   0.000
REMARK UNBOUND:                 0.000
REMARK SMILES CC1(C)[C@@H]2CC[C@@](C)(C2)[C@H]1O
REMARK SMILES IDX 1 1 2 2 4 3 5 4 6 5 7 6 9 7 10 8 8 9 3 10 11 11
REMARK H PARENT 11 12
REMARK Flexibility Score: inf
ROOT
ATOM      1  C   UNL     1     185.389 193.139 189.259  1.00  0.00     0.014 C 
ATOM      2  C   UNL     1     185.448 191.646 189.668  1.00  0.00    -0.006 C 
ATOM      3  C   UNL     1     186.575 190.842 188.929  1.00  0.00    -0.002 C 
ATOM      4  C   UNL     1     186.538 191.090 187.406  1.00  0.00     0.005 C 
ATOM      5  C   UNL     1     185.237 190.394 186.977  1.00  0.00     0.010 C 
ATOM      6  C   UNL     1     184.738 189.754 188.295  1.00  0.00    -0.006 C 
ATOM      7  C   UNL     1     186.050 189.417 188.975  1.00  0.00     0.013 C 
ATOM      8  C   UNL     1     184.160 190.882 189.203  1.00  0.00     0.126 C 
ATOM      9  C   UNL     1     183.810 188.554 188.067  1.00  0.00     0.014 C 
ATOM     10  C   UNL     1     185.688 191.602 191.200  1.00  0.00     0.014 C 
ENDROOT
BRANCH   8  11
ATOM     11  O   UNL     1     183.380 190.395 190.274  1.00  0.00    -0.392 OA
ATOM     12  H   UNL     1     182.933 189.557 189.994  1.00  0.00     0.211 HD
ENDBRANCH   8  11
TORSDOF 1
ENDMDL
MODEL 5
REMARK VINA RESULT:    -4.333     11.666     13.219
REMARK INTER + INTRA:          -4.460
REMARK INTER:                  -4.460
REMARK INTRA:                   0.000
REMARK UNBOUND:                 0.000
REMARK SMILES CC1(C)[C@@H]2CC[C@@](C)(C2)[C@H]1O
REMARK SMILES IDX 1 1 2 2 4 3 5 4 6 5 7 6 9 7 10 8 8 9 3 10 11 11
REMARK H PARENT 11 12
REMARK Flexibility Score: inf
ROOT
ATOM      1  C   UNL     1     184.727 187.043 191.829  1.00  0.00     0.014 C 
ATOM      2  C   UNL     1     183.882 187.623 190.667  1.00  0.00    -0.006 C 
ATOM      3  C   UNL     1     184.252 187.020 189.267  1.00  0.00    -0.002 C 
ATOM      4  C   UNL     1     185.776 187.046 189.027  1.00  0.00     0.005 C 
ATOM      5  C   UNL     1     186.075 188.546 188.881  1.00  0.00     0.010 C 
ATOM      6  C   UNL     1     184.669 189.186 188.963  1.00  0.00    -0.006 C 
ATOM      7  C   UNL     1     183.818 188.117 188.308  1.00  0.00     0.013 C 
ATOM      8  C   UNL     1     184.193 189.144 190.447  1.00  0.00     0.126 C 
ATOM      9  C   UNL     1     184.595 190.563 188.289  1.00  0.00     0.014 C 
ATOM     10  C   UNL     1     182.395 187.325 190.992  1.00  0.00     0.014 C 
ENDROOT
BRANCH   8  11
ATOM     11  O   UNL     1     183.089 189.985 190.707  1.00  0.00    -0.392 OA
ATOM     12  H   UNL     1     183.411 190.915 190.819  1.00  0.00     0.211 HD
ENDBRANCH   8  11
TORSDOF 1
ENDMDL
MODEL 6
REMARK VINA RESULT:    -4.191     11.656     13.204
REMARK INTER + INTRA:          -4.313
REMARK INTER:                  -4.313
REMARK INTRA:                   0.000
REMARK UNBOUND:                 0.000
REMARK SMILES CC1(C)[C@@H]2CC[C@@](C)(C2)[C@H]1O
REMARK SMILES IDX 1 1 2 2 4 3 5 4 6 5 7 6 9 7 10 8 8 9 3 10 11 11
REMARK H PARENT 11 12
REMARK Flexibility Score: inf
ROOT
ATOM      1  C   UNL     1     185.857 188.381 190.096  1.00  0.00     0.014 C 
ATOM      2  C   UNL     1     184.910 189.607 190.058  1.00  0.00    -0.006 C 
ATOM      3  C   UNL     1     184.500 190.032 188.605  1.00  0.00    -0.002 C 
ATOM      4  C   UNL     1     185.732 190.143 187.681  1.00  0.00     0.005 C 
ATOM      5  C   UNL     1     186.469 191.371 188.238  1.00  0.00     0.010 C 
ATOM      6  C   UNL     1     185.517 191.866 189.354  1.00  0.00    -0.006 C 
ATOM      7  C   UNL     1     184.166 191.505 188.772  1.00  0.00     0.013 C 
ATOM      8  C   UNL     1     185.637 190.898 190.570  1.00  0.00     0.126 C 
ATOM      9  C   UNL     1     185.695 193.355 189.679  1.00  0.00     0.014 C 
ATOM     10  C   UNL     1     183.645 189.231 190.873  1.00  0.00     0.014 C 
ENDROOT
BRANCH   8  11
ATOM     11  O   UNL     1     185.083 191.419 191.759  1.00  0.00    -0.392 OA
ATOM     12  H   UNL     1     184.219 190.967 191.938  1.00  0.00     0.211 HD
ENDBRANCH   8  11
TORSDOF 1
ENDMDL
MODEL 7
REMARK VINA RESULT:    -4.175     12.790     14.341
REMARK INTER + INTRA:          -4.297
REMARK INTER:                  -4.297
REMARK INTRA:                   0.000
REMARK UNBOUND:                 0.000
REMARK SMILES CC1(C)[C@@H]2CC[C@@](C)(C2)[C@H]1O
REMARK SMILES IDX 1 1 2 2 4 3 5 4 6 5 7 6 9 7 10 8 8 9 3 10 11 11
REMARK H PARENT 11 12
REMARK Flexibility Score: inf
ROOT
ATOM      1  C   UNL     1     183.872 190.154 190.239  1.00  0.00     0.014 C 
ATOM      2  C   UNL     1     185.298 190.033 189.645  1.00  0.00    -0.006 C 
ATOM      3  C   UNL     1     186.131 191.358 189.753  1.00  0.00    -0.002 C 
ATOM      4  C   UNL     1     185.326 192.573 189.248  1.00  0.00     0.005 C 
ATOM      5  C   UNL     1     185.226 192.314 187.736  1.00  0.00     0.010 C 
ATOM      6  C   UNL     1     186.067 191.029 187.552  1.00  0.00    -0.006 C 
ATOM      7  C   UNL     1     187.129 191.215 188.616  1.00  0.00     0.013 C 
ATOM      8  C   UNL     1     185.246 189.819 188.092  1.00  0.00     0.126 C 
ATOM      9  C   UNL     1     186.613 190.867 186.127  1.00  0.00     0.014 C 
ATOM     10  C   UNL     1     186.017 188.894 190.414  1.00  0.00     0.014 C 
ENDROOT
BRANCH   8  11
ATOM     11  O   UNL     1     185.754 188.568 187.682  1.00  0.00    -0.392 OA
ATOM     12  H   UNL     1     186.349 188.701 186.902  1.00  0.00     0.211 HD
ENDBRANCH   8  11
TORSDOF 1
ENDMDL
MODEL 8
REMARK VINA RESULT:    -4.171     12.557     14.215
REMARK INTER + INTRA:          -4.293
REMARK INTER:                  -4.293
REMARK INTRA:                   0.000
REMARK UNBOUND:                 0.000
REMARK SMILES CC1(C)[C@@H]2CC[C@@](C)(C2)[C@H]1O
REMARK SMILES IDX 1 1 2 2 4 3 5 4 6 5 7 6 9 7 10 8 8 9 3 10 11 11
REMARK H PARENT 11 12
REMARK Flexibility Score: inf
ROOT
ATOM      1  C   UNL     1     185.998 191.838 191.115  1.00  0.00     0.014 C 
ATOM      2  C   UNL     1     185.665 192.066 189.619  1.00  0.00    -0.006 C 
ATOM      3  C   UNL     1     184.222 191.595 189.223  1.00  0.00    -0.002 C 
ATOM      4  C   UNL     1     183.936 190.168 189.734  1.00  0.00     0.005 C 
ATOM      5  C   UNL     1     184.864 189.301 188.869  1.00  0.00     0.010 C 
ATOM      6  C   UNL     1     185.499 190.333 187.906  1.00  0.00    -0.006 C 
ATOM      7  C   UNL     1     184.360 191.318 187.736  1.00  0.00     0.013 C 
ATOM      8  C   UNL     1     186.555 191.162 188.698  1.00  0.00     0.126 C 
ATOM      9  C   UNL     1     186.002 189.706 186.599  1.00  0.00     0.014 C 
ATOM     10  C   UNL     1     185.817 193.586 189.345  1.00  0.00     0.014 C 
ENDROOT
BRANCH   8  11
ATOM     11  O   UNL     1     187.429 191.896 187.868  1.00  0.00    -0.392 OA
ATOM     12  H   UNL     1     187.337 192.861 188.074  1.00  0.00     0.211 HD
ENDBRANCH   8  11
TORSDOF 1
ENDMDL
