MODEL 1
REMARK VINA RESULT:    -5.401      0.000      0.000
REMARK INTER + INTRA:         -11.871
REMARK INTER:                  -9.821
REMARK INTRA:                  -2.051
REMARK UNBOUND:                -2.051
REMARK SMILES CCCCCCCCCCCCCCCC(=O)[O-]
REMARK SMILES IDX 9 1 10 2 11 3 12 4 13 5 14 6 15 7 16 8 17 9 18 10 8 11 7 12
REMARK SMILES IDX 6 13 5 14 4 15 3 16 2 17 1 18
REMARK H PARENT
REMARK Flexibility Score: inf
ROOT
ATOM      1  C   UNL     1      13.317   7.787 -13.015  1.00  0.00     0.000 C 
ENDROOT
BRANCH   1   2
ATOM      2  C   UNL     1      14.198   8.651 -13.935  1.00  0.00     0.000 C 
BRANCH   2   3
ATOM      3  C   UNL     1      14.055   8.277 -15.422  1.00  0.00     0.000 C 
BRANCH   3   4
ATOM      4  C   UNL     1      12.642   7.831 -15.855  1.00  0.00     0.000 C 
BRANCH   4   5
ATOM      5  C   UNL     1      12.019   8.651 -16.999  1.00  0.00     0.000 C 
BRANCH   5   6
ATOM      6  C   UNL     1      10.482   8.654 -16.962  1.00  0.00     0.006 C 
BRANCH   6   7
ATOM      7  C   UNL     1       9.915   7.386 -16.308  1.00  0.00     0.053 C 
BRANCH   7   8
ATOM      8  C   UNL     1       9.023   7.707 -15.149  1.00  0.00     0.041 C 
ATOM      9  O   UNL     1       7.912   7.127 -15.026  1.00  0.00    -0.550 OA
ATOM     10  O   UNL     1       9.431   8.623 -14.188  1.00  0.00    -0.550 OA
ENDBRANCH   7   8
ENDBRANCH   6   7
ENDBRANCH   5   6
ENDBRANCH   4   5
ENDBRANCH   3   4
ENDBRANCH   2   3
ENDBRANCH   1   2
BRANCH   1  11
ATOM     11  C   UNL     1      14.021   6.496 -12.566  1.00  0.00     0.000 C 
BRANCH  11  12
ATOM     12  C   UNL     1      13.141   5.249 -12.740  1.00  0.00    -0.000 C 
BRANCH  12  13
ATOM     13  C   UNL     1      11.806   5.610 -13.411  1.00  0.00    -0.000 C 
BRANCH  13  14
ATOM     14  C   UNL     1      10.592   5.139 -12.594  1.00  0.00    -0.000 C 
BRANCH  14  15
ATOM     15  C   UNL     1      10.055   6.229 -11.650  1.00  0.00    -0.000 C 
BRANCH  15  16
ATOM     16  C   UNL     1      10.396   5.939 -10.174  1.00  0.00    -0.000 C 
BRANCH  16  17
ATOM     17  C   UNL     1      11.637   6.695  -9.669  1.00  0.00    -0.003 C 
ATOM     18  C   UNL     1      12.696   5.774  -9.069  1.00  0.00     0.004 C 
ENDBRANCH  16  17
ENDBRANCH  15  16
ENDBRANCH  14  15
ENDBRANCH  13  14
ENDBRANCH  12  13
ENDBRANCH  11  12
ENDBRANCH   1  11
TORSDOF 14
ENDMDL
MODEL 2
REMARK VINA RESULT:    -5.396      2.429      5.808
REMARK INTER + INTRA:         -11.863
REMARK INTER:                  -9.758
REMARK INTRA:                  -2.104
REMARK UNBOUND:                -2.051
REMARK SMILES CCCCCCCCCCCCCCCC(=O)[O-]
REMARK SMILES IDX 9 1 10 2 11 3 12 4 13 5 14 6 15 7 16 8 17 9 18 10 8 11 7 12
REMARK SMILES IDX 6 13 5 14 4 15 3 16 2 17 1 18
REMARK H PARENT
REMARK Flexibility Score: inf
ROOT
ATOM      1  C   UNL     1      10.409   6.736 -11.944  1.00  0.00     0.000 C 
ENDROOT
BRANCH   1   2
ATOM      2  C   UNL     1      10.400   6.026 -10.579  1.00  0.00     0.000 C 
BRANCH   2   3
ATOM      3  C   UNL     1      11.521   6.516  -9.644  1.00  0.00     0.000 C 
BRANCH   3   4
ATOM      4  C   UNL     1      12.942   6.044 -10.017  1.00  0.00     0.000 C 
BRANCH   4   5
ATOM      5  C   UNL     1      13.877   7.141 -10.556  1.00  0.00     0.000 C 
BRANCH   5   6
ATOM      6  C   UNL     1      14.127   7.023 -12.069  1.00  0.00     0.006 C 
BRANCH   6   7
ATOM      7  C   UNL     1      13.452   8.154 -12.858  1.00  0.00     0.053 C 
BRANCH   7   8
ATOM      8  C   UNL     1      14.455   9.077 -13.478  1.00  0.00     0.041 C 
ATOM      9  O   UNL     1      14.516  10.281 -13.117  1.00  0.00    -0.550 OA
ATOM     10  O   UNL     1      15.342   8.601 -14.435  1.00  0.00    -0.550 OA
ENDBRANCH   7   8
ENDBRANCH   6   7
ENDBRANCH   5   6
ENDBRANCH   4   5
ENDBRANCH   3   4
ENDBRANCH   2   3
ENDBRANCH   1   2
BRANCH   1  11
ATOM     11  C   UNL     1      10.242   5.758 -13.119  1.00  0.00     0.000 C 
BRANCH  11  12
ATOM     12  C   UNL     1      11.369   4.716 -13.189  1.00  0.00    -0.000 C 
BRANCH  12  13
ATOM     13  C   UNL     1      12.173   4.866 -14.490  1.00  0.00    -0.000 C 
BRANCH  13  14
ATOM     14  C   UNL     1      11.547   5.888 -15.453  1.00  0.00    -0.000 C 
BRANCH  14  15
ATOM     15  C   UNL     1      12.572   6.909 -15.979  1.00  0.00    -0.000 C 
BRANCH  15  16
ATOM     16  C   UNL     1      11.907   8.235 -16.402  1.00  0.00    -0.000 C 
BRANCH  16  17
ATOM     17  C   UNL     1      10.373   8.157 -16.477  1.00  0.00    -0.003 C 
ATOM     18  C   UNL     1       9.811   8.682 -17.796  1.00  0.00     0.004 C 
ENDBRANCH  16  17
ENDBRANCH  15  16
ENDBRANCH  14  15
ENDBRANCH  13  14
ENDBRANCH  12  13
ENDBRANCH  11  12
ENDBRANCH   1  11
TORSDOF 14
ENDMDL
MODEL 3
REMARK VINA RESULT:    -5.365      1.554      5.107
REMARK INTER + INTRA:         -11.807
REMARK INTER:                  -9.771
REMARK INTRA:                  -2.035
REMARK UNBOUND:                -2.051
REMARK SMILES CCCCCCCCCCCCCCCC(=O)[O-]
REMARK SMILES IDX 9 1 10 2 11 3 12 4 13 5 14 6 15 7 16 8 17 9 18 10 8 11 7 12
REMARK SMILES IDX 6 13 5 14 4 15 3 16 2 17 1 18
REMARK H PARENT
REMARK Flexibility Score: inf
ROOT
ATOM      1  C   UNL     1      12.899   7.360 -13.075  1.00  0.00     0.000 C 
ENDROOT
BRANCH   1   2
ATOM      2  C   UNL     1      13.680   6.357 -12.207  1.00  0.00     0.000 C 
BRANCH   2   3
ATOM      3  C   UNL     1      12.878   5.876 -10.984  1.00  0.00     0.000 C 
BRANCH   3   4
ATOM      4  C   UNL     1      11.688   6.773 -10.583  1.00  0.00     0.000 C 
BRANCH   4   5
ATOM      5  C   UNL     1      10.412   6.020 -10.165  1.00  0.00     0.000 C 
BRANCH   5   6
ATOM      6  C   UNL     1       9.348   5.986 -11.274  1.00  0.00     0.006 C 
BRANCH   6   7
ATOM      7  C   UNL     1       9.358   7.263 -12.126  1.00  0.00     0.053 C 
BRANCH   7   8
ATOM      8  C   UNL     1       7.973   7.763 -12.401  1.00  0.00     0.041 C 
ATOM      9  O   UNL     1       7.751   8.999 -12.487  1.00  0.00    -0.550 OA
ATOM     10  O   UNL     1       6.933   6.862 -12.592  1.00  0.00    -0.550 OA
ENDBRANCH   7   8
ENDBRANCH   6   7
ENDBRANCH   5   6
ENDBRANCH   4   5
ENDBRANCH   3   4
ENDBRANCH   2   3
ENDBRANCH   1   2
BRANCH   1  11
ATOM     11  C   UNL     1      12.651   6.840 -14.500  1.00  0.00     0.000 C 
BRANCH  11  12
ATOM     12  C   UNL     1      12.182   5.377 -14.525  1.00  0.00    -0.000 C 
BRANCH  12  13
ATOM     13  C   UNL     1      10.670   5.291 -14.785  1.00  0.00    -0.000 C 
BRANCH  13  14
ATOM     14  C   UNL     1      10.257   5.986 -16.092  1.00  0.00    -0.000 C 
BRANCH  14  15
ATOM     15  C   UNL     1       9.127   7.011 -15.886  1.00  0.00    -0.000 C 
BRANCH  15  16
ATOM     16  C   UNL     1       9.644   8.464 -15.934  1.00  0.00    -0.000 C 
BRANCH  16  17
ATOM     17  C   UNL     1      10.228   8.864 -17.299  1.00  0.00    -0.003 C 
ATOM     18  C   UNL     1       9.265   8.618 -18.457  1.00  0.00     0.004 C 
ENDBRANCH  16  17
ENDBRANCH  15  16
ENDBRANCH  14  15
ENDBRANCH  13  14
ENDBRANCH  12  13
ENDBRANCH  11  12
ENDBRANCH   1  11
TORSDOF 14
ENDMDL
MODEL 4
REMARK VINA RESULT:    -5.358      1.974      4.829
REMARK INTER + INTRA:         -11.794
REMARK INTER:                  -9.722
REMARK INTRA:                  -2.072
REMARK UNBOUND:                -2.051
REMARK SMILES CCCCCCCCCCCCCCCC(=O)[O-]
REMARK SMILES IDX 9 1 10 2 11 3 12 4 13 5 14 6 15 7 16 8 17 9 18 10 8 11 7 12
REMARK SMILES IDX 6 13 5 14 4 15 3 16 2 17 1 18
REMARK H PARENT
REMARK Flexibility Score: inf
ROOT
ATOM      1  C   UNL     1      11.566   6.912 -10.181  1.00  0.00     0.000 C 
ENDROOT
BRANCH   1   2
ATOM      2  C   UNL     1      12.905   6.330  -9.693  1.00  0.00     0.000 C 
BRANCH   2   3
ATOM      3  C   UNL     1      14.104   6.804 -10.535  1.00  0.00     0.000 C 
BRANCH   3   4
ATOM      4  C   UNL     1      13.795   7.086 -12.020  1.00  0.00     0.000 C 
BRANCH   4   5
ATOM      5  C   UNL     1      14.713   8.120 -12.695  1.00  0.00     0.000 C 
BRANCH   5   6
ATOM      6  C   UNL     1      14.006   9.459 -12.967  1.00  0.00     0.006 C 
BRANCH   6   7
ATOM      7  C   UNL     1      12.479   9.337 -12.874  1.00  0.00     0.053 C 
BRANCH   7   8
ATOM      8  C   UNL     1      11.866  10.512 -12.176  1.00  0.00     0.041 C 
ATOM      9  O   UNL     1      10.627  10.717 -12.250  1.00  0.00    -0.550 OA
ATOM     10  O   UNL     1      12.660  11.364 -11.418  1.00  0.00    -0.550 OA
ENDBRANCH   7   8
ENDBRANCH   6   7
ENDBRANCH   5   6
ENDBRANCH   4   5
ENDBRANCH   3   4
ENDBRANCH   2   3
ENDBRANCH   1   2
BRANCH   1  11
ATOM     11  C   UNL     1      10.400   5.923 -10.023  1.00  0.00     0.000 C 
BRANCH  11  12
ATOM     12  C   UNL     1       9.517   5.840 -11.278  1.00  0.00    -0.000 C 
BRANCH  12  13
ATOM     13  C   UNL     1      10.327   5.338 -12.484  1.00  0.00    -0.000 C 
BRANCH  13  14
ATOM     14  C   UNL     1      10.340   6.348 -13.644  1.00  0.00    -0.000 C 
BRANCH  14  15
ATOM     15  C   UNL     1      10.764   5.709 -14.978  1.00  0.00    -0.000 C 
BRANCH  15  16
ATOM     16  C   UNL     1      12.185   6.136 -15.402  1.00  0.00    -0.000 C 
BRANCH  16  17
ATOM     17  C   UNL     1      12.228   7.487 -16.136  1.00  0.00    -0.003 C 
ATOM     18  C   UNL     1      13.641   8.047 -16.276  1.00  0.00     0.004 C 
ENDBRANCH  16  17
ENDBRANCH  15  16
ENDBRANCH  14  15
ENDBRANCH  13  14
ENDBRANCH  12  13
ENDBRANCH  11  12
ENDBRANCH   1  11
TORSDOF 14
ENDMDL
MODEL 5
REMARK VINA RESULT:    -5.348      2.648      6.079
REMARK INTER + INTRA:         -11.776
REMARK INTER:                  -9.764
REMARK INTRA:                  -2.012
REMARK UNBOUND:                -2.051
REMARK SMILES CCCCCCCCCCCCCCCC(=O)[O-]
REMARK SMILES IDX 9 1 10 2 11 3 12 4 13 5 14 6 15 7 16 8 17 9 18 10 8 11 7 12
REMARK SMILES IDX 6 13 5 14 4 15 3 16 2 17 1 18
REMARK H PARENT
REMARK Flexibility Score: inf
ROOT
ATOM      1  C   UNL     1       8.142   7.806 -15.423  1.00  0.00     0.000 C 
ENDROOT
BRANCH   1   2
ATOM      2  C   UNL     1       8.203   8.685 -14.161  1.00  0.00     0.000 C 
BRANCH   2   3
ATOM      3  C   UNL     1       8.986   8.025 -13.012  1.00  0.00     0.000 C 
BRANCH   3   4
ATOM      4  C   UNL     1       8.258   6.865 -12.301  1.00  0.00     0.000 C 
BRANCH   4   5
ATOM      5  C   UNL     1       9.138   6.011 -11.371  1.00  0.00     0.000 C 
BRANCH   5   6
ATOM      6  C   UNL     1      10.495   6.667 -11.064  1.00  0.00     0.006 C 
BRANCH   6   7
ATOM      7  C   UNL     1      11.149   6.082  -9.805  1.00  0.00     0.053 C 
BRANCH   7   8
ATOM      8  C   UNL     1      12.625   6.338  -9.772  1.00  0.00     0.041 C 
ATOM      9  O   UNL     1      13.340   5.807  -8.883  1.00  0.00    -0.550 OA
ATOM     10  O   UNL     1      13.214   7.139 -10.741  1.00  0.00    -0.550 OA
ENDBRANCH   7   8
ENDBRANCH   6   7
ENDBRANCH   5   6
ENDBRANCH   4   5
ENDBRANCH   3   4
ENDBRANCH   2   3
ENDBRANCH   1   2
BRANCH   1  11
ATOM     11  C   UNL     1       8.295   8.620 -16.718  1.00  0.00     0.000 C 
BRANCH  11  12
ATOM     12  C   UNL     1       9.578   8.273 -17.489  1.00  0.00    -0.000 C 
BRANCH  12  13
ATOM     13  C   UNL     1      10.757   9.132 -17.003  1.00  0.00    -0.000 C 
BRANCH  13  14
ATOM     14  C   UNL     1      11.991   8.288 -16.646  1.00  0.00    -0.000 C 
BRANCH  14  15
ATOM     15  C   UNL     1      11.811   7.502 -15.335  1.00  0.00    -0.000 C 
BRANCH  15  16
ATOM     16  C   UNL     1      11.782   5.977 -15.571  1.00  0.00    -0.000 C 
BRANCH  16  17
ATOM     17  C   UNL     1      10.651   5.259 -14.815  1.00  0.00    -0.003 C 
ATOM     18  C   UNL     1      11.162   4.206 -13.835  1.00  0.00     0.004 C 
ENDBRANCH  16  17
ENDBRANCH  15  16
ENDBRANCH  14  15
ENDBRANCH  13  14
ENDBRANCH  12  13
ENDBRANCH  11  12
ENDBRANCH   1  11
TORSDOF 14
ENDMDL
MODEL 6
REMARK VINA RESULT:    -5.267      2.654      5.958
REMARK INTER + INTRA:         -11.628
REMARK INTER:                  -9.461
REMARK INTRA:                  -2.167
REMARK UNBOUND:                -2.051
REMARK SMILES CCCCCCCCCCCCCCCC(=O)[O-]
REMARK SMILES IDX 9 1 10 2 11 3 12 4 13 5 14 6 15 7 16 8 17 9 18 10 8 11 7 12
REMARK SMILES IDX 6 13 5 14 4 15 3 16 2 17 1 18
REMARK H PARENT
REMARK Flexibility Score: inf
ROOT
ATOM      1  C   UNL     1      10.813  10.027 -13.207  1.00  0.00     0.000 C 
ENDROOT
BRANCH   1   2
ATOM      2  C   UNL     1       9.423   9.434 -12.916  1.00  0.00     0.000 C 
BRANCH   2   3
ATOM      3  C   UNL     1       9.355   7.918 -13.176  1.00  0.00     0.000 C 
BRANCH   3   4
ATOM      4  C   UNL     1       8.562   7.106 -12.131  1.00  0.00     0.000 C 
BRANCH   4   5
ATOM      5  C   UNL     1       9.310   5.902 -11.531  1.00  0.00     0.000 C 
BRANCH   5   6
ATOM      6  C   UNL     1      10.828   6.132 -11.432  1.00  0.00     0.006 C 
BRANCH   6   7
ATOM      7  C   UNL     1      11.282   6.387  -9.989  1.00  0.00     0.053 C 
BRANCH   7   8
ATOM      8  C   UNL     1      12.769   6.274  -9.843  1.00  0.00     0.041 C 
ATOM      9  O   UNL     1      13.530   6.761 -10.720  1.00  0.00    -0.550 OA
ATOM     10  O   UNL     1      13.314   5.659  -8.723  1.00  0.00    -0.550 OA
ENDBRANCH   7   8
ENDBRANCH   6   7
ENDBRANCH   5   6
ENDBRANCH   4   5
ENDBRANCH   3   4
ENDBRANCH   2   3
ENDBRANCH   1   2
BRANCH   1  11
ATOM     11  C   UNL     1      11.923   9.369 -12.371  1.00  0.00     0.000 C 
BRANCH  11  12
ATOM     12  C   UNL     1      13.332   9.743 -12.856  1.00  0.00    -0.000 C 
BRANCH  12  13
ATOM     13  C   UNL     1      13.696   8.967 -14.131  1.00  0.00    -0.000 C 
BRANCH  13  14
ATOM     14  C   UNL     1      13.069   7.563 -14.164  1.00  0.00    -0.000 C 
BRANCH  14  15
ATOM     15  C   UNL     1      12.378   7.256 -15.505  1.00  0.00    -0.000 C 
BRANCH  15  16
ATOM     16  C   UNL     1      12.792   8.247 -16.612  1.00  0.00    -0.000 C 
BRANCH  16  17
ATOM     17  C   UNL     1      11.601   8.957 -17.279  1.00  0.00    -0.003 C 
ATOM     18  C   UNL     1      10.249   8.475 -16.758  1.00  0.00     0.004 C 
ENDBRANCH  16  17
ENDBRANCH  15  16
ENDBRANCH  14  15
ENDBRANCH  13  14
ENDBRANCH  12  13
ENDBRANCH  11  12
ENDBRANCH   1  11
TORSDOF 14
ENDMDL
MODEL 7
REMARK VINA RESULT:    -5.266      2.797      5.478
REMARK INTER + INTRA:         -11.627
REMARK INTER:                  -9.286
REMARK INTRA:                  -2.342
REMARK UNBOUND:                -2.051
REMARK SMILES CCCCCCCCCCCCCCCC(=O)[O-]
REMARK SMILES IDX 9 1 10 2 11 3 12 4 13 5 14 6 15 7 16 8 17 9 18 10 8 11 7 12
REMARK SMILES IDX 6 13 5 14 4 15 3 16 2 17 1 18
REMARK H PARENT
REMARK Flexibility Score: inf
ROOT
ATOM      1  C   UNL     1      12.089   7.545 -15.225  1.00  0.00     0.000 C 
ENDROOT
BRANCH   1   2
ATOM      2  C   UNL     1      12.206   6.013 -15.310  1.00  0.00     0.000 C 
BRANCH   2   3
ATOM      3  C   UNL     1      10.948   5.289 -14.794  1.00  0.00     0.000 C 
BRANCH   3   4
ATOM      4  C   UNL     1      11.023   4.802 -13.331  1.00  0.00     0.000 C 
BRANCH   4   5
ATOM      5  C   UNL     1      10.161   5.595 -12.332  1.00  0.00     0.000 C 
BRANCH   5   6
ATOM      6  C   UNL     1      10.997   6.303 -11.253  1.00  0.00     0.006 C 
BRANCH   6   7
ATOM      7  C   UNL     1      12.497   6.010 -11.397  1.00  0.00     0.053 C 
BRANCH   7   8
ATOM      8  C   UNL     1      13.254   6.343 -10.148  1.00  0.00     0.041 C 
ATOM      9  O   UNL     1      14.192   7.182 -10.181  1.00  0.00    -0.550 OA
ATOM     10  O   UNL     1      12.904   5.750  -8.943  1.00  0.00    -0.550 OA
ENDBRANCH   7   8
ENDBRANCH   6   7
ENDBRANCH   5   6
ENDBRANCH   4   5
ENDBRANCH   3   4
ENDBRANCH   2   3
ENDBRANCH   1   2
BRANCH   1  11
ATOM     11  C   UNL     1      12.039   8.210 -16.610  1.00  0.00     0.000 C 
BRANCH  11  12
ATOM     12  C   UNL     1      10.739   8.996 -16.846  1.00  0.00    -0.000 C 
BRANCH  12  13
ATOM     13  C   UNL     1       9.527   8.051 -16.875  1.00  0.00    -0.000 C 
BRANCH  13  14
ATOM     14  C   UNL     1       8.359   8.567 -16.018  1.00  0.00    -0.000 C 
BRANCH  14  15
ATOM     15  C   UNL     1       8.212   7.795 -14.694  1.00  0.00    -0.000 C 
BRANCH  15  16
ATOM     16  C   UNL     1       8.262   8.730 -13.468  1.00  0.00    -0.000 C 
BRANCH  16  17
ATOM     17  C   UNL     1       9.678   9.230 -13.134  1.00  0.00    -0.003 C 
ATOM     18  C   UNL     1       9.822  10.744 -13.259  1.00  0.00     0.004 C 
ENDBRANCH  16  17
ENDBRANCH  15  16
ENDBRANCH  14  15
ENDBRANCH  13  14
ENDBRANCH  12  13
ENDBRANCH  11  12
ENDBRANCH   1  11
TORSDOF 14
ENDMDL
MODEL 8
REMARK VINA RESULT:    -5.206      1.264      2.557
REMARK INTER + INTRA:         -11.517
REMARK INTER:                  -9.311
REMARK INTRA:                  -2.206
REMARK UNBOUND:                -2.051
REMARK SMILES CCCCCCCCCCCCCCCC(=O)[O-]
REMARK SMILES IDX 9 1 10 2 11 3 12 4 13 5 14 6 15 7 16 8 17 9 18 10 8 11 7 12
REMARK SMILES IDX 6 13 5 14 4 15 3 16 2 17 1 18
REMARK H PARENT
REMARK Flexibility Score: inf
ROOT
ATOM      1  C   UNL     1      14.440   8.628 -14.571  1.00  0.00     0.000 C 
ENDROOT
BRANCH   1   2
ATOM      2  C   UNL     1      13.688   8.189 -15.840  1.00  0.00     0.000 C 
BRANCH   2   3
ATOM      3  C   UNL     1      12.158   8.225 -15.669  1.00  0.00     0.000 C 
BRANCH   3   4
ATOM      4  C   UNL     1      11.365   8.632 -16.929  1.00  0.00     0.000 C 
BRANCH   4   5
ATOM      5  C   UNL     1       9.898   8.169 -16.958  1.00  0.00     0.000 C 
BRANCH   5   6
ATOM      6  C   UNL     1       9.627   6.985 -16.014  1.00  0.00     0.006 C 
BRANCH   6   7
ATOM      7  C   UNL     1       8.374   7.204 -15.155  1.00  0.00     0.053 C 
BRANCH   7   8
ATOM      8  C   UNL     1       8.413   8.518 -14.436  1.00  0.00     0.041 C 
ATOM      9  O   UNL     1       7.504   9.369 -14.622  1.00  0.00    -0.550 OA
ATOM     10  O   UNL     1       9.436   8.790 -13.537  1.00  0.00    -0.550 OA
ENDBRANCH   7   8
ENDBRANCH   6   7
ENDBRANCH   5   6
ENDBRANCH   4   5
ENDBRANCH   3   4
ENDBRANCH   2   3
ENDBRANCH   1   2
BRANCH   1  11
ATOM     11  C   UNL     1      13.521   9.314 -13.548  1.00  0.00     0.000 C 
BRANCH  11  12
ATOM     12  C   UNL     1      13.495   8.591 -12.192  1.00  0.00    -0.000 C 
BRANCH  12  13
ATOM     13  C   UNL     1      14.311   7.290 -12.251  1.00  0.00    -0.000 C 
BRANCH  13  14
ATOM     14  C   UNL     1      13.480   6.056 -11.864  1.00  0.00    -0.000 C 
BRANCH  14  15
ATOM     15  C   UNL     1      12.718   5.457 -13.060  1.00  0.00    -0.000 C 
BRANCH  15  16
ATOM     16  C   UNL     1      11.199   5.708 -12.966  1.00  0.00    -0.000 C 
BRANCH  16  17
ATOM     17  C   UNL     1      10.702   5.945 -11.530  1.00  0.00    -0.003 C 
ATOM     18  C   UNL     1       9.181   5.914 -11.410  1.00  0.00     0.004 C 
ENDBRANCH  16  17
ENDBRANCH  15  16
ENDBRANCH  14  15
ENDBRANCH  13  14
ENDBRANCH  12  13
ENDBRANCH  11  12
ENDBRANCH   1  11
TORSDOF 14
ENDMDL
MODEL 9
REMARK VINA RESULT:    -5.196      1.604      3.650
REMARK INTER + INTRA:         -11.499
REMARK INTER:                  -9.466
REMARK INTRA:                  -2.033
REMARK UNBOUND:                -2.051
REMARK SMILES CCCCCCCCCCCCCCCC(=O)[O-]
REMARK SMILES IDX 9 1 10 2 11 3 12 4 13 5 14 6 15 7 16 8 17 9 18 10 8 11 7 12
REMARK SMILES IDX 6 13 5 14 4 15 3 16 2 17 1 18
REMARK H PARENT
REMARK Flexibility Score: inf
ROOT
ATOM      1  C   UNL     1      10.166   6.582 -13.004  1.00  0.00     0.000 C 
ENDROOT
BRANCH   1   2
ATOM      2  C   UNL     1      10.656   5.391 -13.847  1.00  0.00     0.000 C 
BRANCH   2   3
ATOM      3  C   UNL     1      10.978   5.782 -15.301  1.00  0.00     0.000 C 
BRANCH   3   4
ATOM      4  C   UNL     1      12.460   6.109 -15.581  1.00  0.00     0.000 C 
BRANCH   4   5
ATOM      5  C   UNL     1      12.718   7.483 -16.225  1.00  0.00     0.000 C 
BRANCH   5   6
ATOM      6  C   UNL     1      11.560   8.471 -16.006  1.00  0.00     0.006 C 
BRANCH   6   7
ATOM      7  C   UNL     1      11.022   9.034 -17.329  1.00  0.00     0.053 C 
BRANCH   7   8
ATOM      8  C   UNL     1       9.587   8.663 -17.551  1.00  0.00     0.041 C 
ATOM      9  O   UNL     1       8.856   8.348 -16.576  1.00  0.00    -0.550 OA
ATOM     10  O   UNL     1       9.050   8.693 -18.831  1.00  0.00    -0.550 OA
ENDBRANCH   7   8
ENDBRANCH   6   7
ENDBRANCH   5   6
ENDBRANCH   4   5
ENDBRANCH   3   4
ENDBRANCH   2   3
ENDBRANCH   1   2
BRANCH   1  11
ATOM     11  C   UNL     1       9.386   6.140 -11.755  1.00  0.00     0.000 C 
BRANCH  11  12
ATOM     12  C   UNL     1      10.285   5.981 -10.519  1.00  0.00    -0.000 C 
BRANCH  12  13
ATOM     13  C   UNL     1      11.481   6.944 -10.585  1.00  0.00    -0.000 C 
BRANCH  13  14
ATOM     14  C   UNL     1      12.780   6.306 -10.066  1.00  0.00    -0.000 C 
BRANCH  14  15
ATOM     15  C   UNL     1      14.031   6.849 -10.779  1.00  0.00    -0.000 C 
BRANCH  15  16
ATOM     16  C   UNL     1      13.866   6.861 -12.313  1.00  0.00    -0.000 C 
BRANCH  16  17
ATOM     17  C   UNL     1      14.562   8.050 -12.996  1.00  0.00    -0.003 C 
ATOM     18  C   UNL     1      13.697   9.307 -13.038  1.00  0.00     0.004 C 
ENDBRANCH  16  17
ENDBRANCH  15  16
ENDBRANCH  14  15
ENDBRANCH  13  14
ENDBRANCH  12  13
ENDBRANCH  11  12
ENDBRANCH   1  11
TORSDOF 14
ENDMDL
