MODEL 1
REMARK VINA RESULT:    -4.195      0.000      0.000
REMARK INTER + INTRA:          -4.564
REMARK INTER:                  -4.563
REMARK INTRA:                  -0.002
REMARK UNBOUND:                -0.002
REMARK SMILES COc1cc2ccc(=O)oc2cc1O
REMARK SMILES IDX 3 1 13 2 12 3 11 4 5 5 4 6 6 7 7 8 8 9 9 10 10 11 2 12 1 13
REMARK SMILES IDX 14 14
REMARK H PARENT 14 15
REMARK Flexibility Score: inf
ROOT
ATOM      1  C   UNL     1      34.993 -32.045   9.139  1.00  0.00     0.161 A 
ATOM      2  C   UNL     1      36.379 -31.798   9.123  1.00  0.00     0.161 A 
ATOM      3  C   UNL     1      36.915 -30.731   9.852  1.00  0.00     0.098 A 
ATOM      4  C   UNL     1      36.081 -29.898  10.602  1.00  0.00     0.142 A 
ATOM      5  C   UNL     1      34.690 -30.136  10.625  1.00  0.00     0.022 A 
ATOM      6  C   UNL     1      34.151 -31.205   9.897  1.00  0.00     0.062 A 
ATOM      7  C   UNL     1      33.882 -29.286  11.386  1.00  0.00     0.019 A 
ATOM      8  C   UNL     1      34.466 -28.236  12.094  1.00  0.00     0.094 A 
ATOM      9  C   UNL     1      35.852 -28.061  12.024  1.00  0.00     0.336 A 
ATOM     10  O   UNL     1      36.399 -27.120  12.656  1.00  0.00    -0.246 OA
ATOM     11  O   UNL     1      36.599 -28.885  11.293  1.00  0.00    -0.423 OA
ENDROOT
BRANCH   1  12
ATOM     12  O   UNL     1      34.490 -33.125   8.396  1.00  0.00    -0.493 OA
ATOM     13  C   UNL     1      34.250 -33.099   6.992  1.00  0.00     0.278 C 
ENDBRANCH   1  12
BRANCH   2  14
ATOM     14  O   UNL     1      37.246 -32.606   8.386  1.00  0.00    -0.504 OA
ATOM     15  H   UNL     1      37.772 -32.253   7.596  1.00  0.00     0.293 HD
ENDBRANCH   2  14
TORSDOF 2
ENDMDL
MODEL 2
REMARK VINA RESULT:    -4.181      1.350      2.547
REMARK INTER + INTRA:          -4.549
REMARK INTER:                  -4.502
REMARK INTRA:                  -0.048
REMARK UNBOUND:                -0.002
REMARK SMILES COc1cc2ccc(=O)oc2cc1O
REMARK SMILES IDX 3 1 13 2 12 3 11 4 5 5 4 6 6 7 7 8 8 9 9 10 10 11 2 12 1 13
REMARK SMILES IDX 14 14
REMARK H PARENT 14 15
REMARK Flexibility Score: inf
ROOT
ATOM      1  C   UNL     1      36.494 -31.822   9.195  1.00  0.00     0.161 A 
ATOM      2  C   UNL     1      35.107 -32.055   9.135  1.00  0.00     0.161 A 
ATOM      3  C   UNL     1      34.220 -31.212   9.813  1.00  0.00     0.098 A 
ATOM      4  C   UNL     1      34.700 -30.131  10.557  1.00  0.00     0.142 A 
ATOM      5  C   UNL     1      36.088 -29.888  10.622  1.00  0.00     0.022 A 
ATOM      6  C   UNL     1      36.980 -30.730   9.944  1.00  0.00     0.062 A 
ATOM      7  C   UNL     1      36.538 -28.797  11.373  1.00  0.00     0.019 A 
ATOM      8  C   UNL     1      35.612 -27.989  12.030  1.00  0.00     0.094 A 
ATOM      9  C   UNL     1      34.251 -28.290  11.920  1.00  0.00     0.336 A 
ATOM     10  O   UNL     1      33.398 -27.572  12.504  1.00  0.00    -0.246 OA
ATOM     11  O   UNL     1      33.848 -29.334  11.198  1.00  0.00    -0.423 OA
ENDROOT
BRANCH   1  12
ATOM     12  O   UNL     1      37.356 -32.688   8.502  1.00  0.00    -0.493 OA
ATOM     13  C   UNL     1      38.623 -33.125   8.984  1.00  0.00     0.278 C 
ENDBRANCH   1  12
BRANCH   2  14
ATOM     14  O   UNL     1      34.587 -33.125   8.405  1.00  0.00    -0.504 OA
ATOM     15  H   UNL     1      34.428 -34.035   8.819  1.00  0.00     0.293 HD
ENDBRANCH   2  14
TORSDOF 2
ENDMDL
MODEL 3
REMARK VINA RESULT:    -3.701      1.496      4.854
REMARK INTER + INTRA:          -4.027
REMARK INTER:                  -3.966
REMARK INTRA:                  -0.060
REMARK UNBOUND:                -0.002
REMARK SMILES COc1cc2ccc(=O)oc2cc1O
REMARK SMILES IDX 3 1 13 2 12 3 11 4 5 5 4 6 6 7 7 8 8 9 9 10 10 11 2 12 1 13
REMARK SMILES IDX 14 14
REMARK H PARENT 14 15
REMARK Flexibility Score: inf
ROOT
ATOM      1  C   UNL     1      34.290 -29.647  11.599  1.00  0.00     0.161 A 
ATOM      2  C   UNL     1      35.507 -29.008  11.290  1.00  0.00     0.161 A 
ATOM      3  C   UNL     1      36.345 -29.528  10.298  1.00  0.00     0.098 A 
ATOM      4  C   UNL     1      35.986 -30.685   9.604  1.00  0.00     0.142 A 
ATOM      5  C   UNL     1      34.769 -31.333   9.905  1.00  0.00     0.022 A 
ATOM      6  C   UNL     1      33.926 -30.815  10.898  1.00  0.00     0.062 A 
ATOM      7  C   UNL     1      34.436 -32.489   9.192  1.00  0.00     0.019 A 
ATOM      8  C   UNL     1      35.307 -32.965   8.213  1.00  0.00     0.094 A 
ATOM      9  C   UNL     1      36.496 -32.271   7.969  1.00  0.00     0.336 A 
ATOM     10  O   UNL     1      37.297 -32.684   7.089  1.00  0.00    -0.246 OA
ATOM     11  O   UNL     1      36.789 -31.173   8.661  1.00  0.00    -0.423 OA
ENDROOT
BRANCH   1  12
ATOM     12  O   UNL     1      33.473 -29.097  12.600  1.00  0.00    -0.493 OA
ATOM     13  C   UNL     1      33.504 -29.483  13.971  1.00  0.00     0.278 C 
ENDBRANCH   1  12
BRANCH   2  14
ATOM     14  O   UNL     1      35.902 -27.850  11.961  1.00  0.00    -0.504 OA
ATOM     15  H   UNL     1      36.574 -27.202  11.569  1.00  0.00     0.293 HD
ENDBRANCH   2  14
TORSDOF 2
ENDMDL
MODEL 4
REMARK VINA RESULT:    -3.593      2.693      5.444
REMARK INTER + INTRA:          -3.910
REMARK INTER:                  -3.853
REMARK INTRA:                  -0.056
REMARK UNBOUND:                -0.002
REMARK SMILES COc1cc2ccc(=O)oc2cc1O
REMARK SMILES IDX 3 1 13 2 12 3 11 4 5 5 4 6 6 7 7 8 8 9 9 10 10 11 2 12 1 13
REMARK SMILES IDX 14 14
REMARK H PARENT 14 15
REMARK Flexibility Score: inf
ROOT
ATOM      1  C   UNL     1      35.617 -32.392   9.969  1.00  0.00     0.161 A 
ATOM      2  C   UNL     1      36.939 -32.037   9.636  1.00  0.00     0.161 A 
ATOM      3  C   UNL     1      37.358 -32.046   8.301  1.00  0.00     0.098 A 
ATOM      4  C   UNL     1      36.471 -32.408   7.284  1.00  0.00     0.142 A 
ATOM      5  C   UNL     1      35.144 -32.764   7.606  1.00  0.00     0.022 A 
ATOM      6  C   UNL     1      34.721 -32.755   8.942  1.00  0.00     0.062 A 
ATOM      7  C   UNL     1      34.279 -33.120   6.566  1.00  0.00     0.019 A 
ATOM      8  C   UNL     1      34.747 -33.113   5.253  1.00  0.00     0.094 A 
ATOM      9  C   UNL     1      36.075 -32.748   5.009  1.00  0.00     0.336 A 
ATOM     10  O   UNL     1      36.518 -32.735   3.830  1.00  0.00    -0.246 OA
ATOM     11  O   UNL     1      36.878 -32.413   6.016  1.00  0.00    -0.423 OA
ENDROOT
BRANCH   1  12
ATOM     12  O   UNL     1      35.231 -32.371  11.318  1.00  0.00    -0.493 OA
ATOM     13  C   UNL     1      34.157 -31.594  11.840  1.00  0.00     0.278 C 
ENDBRANCH   1  12
BRANCH   2  14
ATOM     14  O   UNL     1      37.856 -31.671  10.622  1.00  0.00    -0.504 OA
ATOM     15  H   UNL     1      38.291 -32.351  11.234  1.00  0.00     0.293 HD
ENDBRANCH   2  14
TORSDOF 2
ENDMDL
MODEL 5
REMARK VINA RESULT:    -3.520      2.122      3.569
REMARK INTER + INTRA:          -3.830
REMARK INTER:                  -3.768
REMARK INTRA:                  -0.062
REMARK UNBOUND:                -0.002
REMARK SMILES COc1cc2ccc(=O)oc2cc1O
REMARK SMILES IDX 3 1 13 2 12 3 11 4 5 5 4 6 6 7 7 8 8 9 9 10 10 11 2 12 1 13
REMARK SMILES IDX 14 14
REMARK H PARENT 14 15
REMARK Flexibility Score: inf
ROOT
ATOM      1  C   UNL     1      35.843 -32.383   8.736  1.00  0.00     0.161 A 
ATOM      2  C   UNL     1      35.301 -31.286   9.432  1.00  0.00     0.161 A 
ATOM      3  C   UNL     1      36.096 -30.547  10.314  1.00  0.00     0.098 A 
ATOM      4  C   UNL     1      37.436 -30.888  10.515  1.00  0.00     0.142 A 
ATOM      5  C   UNL     1      37.990 -31.985   9.822  1.00  0.00     0.022 A 
ATOM      6  C   UNL     1      37.196 -32.728   8.937  1.00  0.00     0.062 A 
ATOM      7  C   UNL     1      39.334 -32.302  10.042  1.00  0.00     0.019 A 
ATOM      8  C   UNL     1      40.082 -31.533  10.932  1.00  0.00     0.094 A 
ATOM      9  C   UNL     1      39.466 -30.460  11.584  1.00  0.00     0.336 A 
ATOM     10  O   UNL     1      40.124 -29.752  12.391  1.00  0.00    -0.246 OA
ATOM     11  O   UNL     1      38.185 -30.179  11.356  1.00  0.00    -0.423 OA
ENDROOT
BRANCH   1  12
ATOM     12  O   UNL     1      35.017 -33.103   7.858  1.00  0.00    -0.493 OA
ATOM     13  C   UNL     1      35.167 -33.124   6.441  1.00  0.00     0.278 C 
ENDBRANCH   1  12
BRANCH   2  14
ATOM     14  O   UNL     1      33.967 -30.913   9.261  1.00  0.00    -0.504 OA
ATOM     15  H   UNL     1      33.579 -30.083   9.692  1.00  0.00     0.293 HD
ENDBRANCH   2  14
TORSDOF 2
ENDMDL
MODEL 6
REMARK VINA RESULT:    -3.514      1.254      5.412
REMARK INTER + INTRA:          -3.823
REMARK INTER:                  -3.780
REMARK INTRA:                  -0.043
REMARK UNBOUND:                -0.002
REMARK SMILES COc1cc2ccc(=O)oc2cc1O
REMARK SMILES IDX 3 1 13 2 12 3 11 4 5 5 4 6 6 7 7 8 8 9 9 10 10 11 2 12 1 13
REMARK SMILES IDX 14 14
REMARK H PARENT 14 15
REMARK Flexibility Score: inf
ROOT
ATOM      1  C   UNL     1      35.669 -28.521  11.809  1.00  0.00     0.161 A 
ATOM      2  C   UNL     1      34.279 -28.743  11.790  1.00  0.00     0.161 A 
ATOM      3  C   UNL     1      33.733 -29.739  10.973  1.00  0.00     0.098 A 
ATOM      4  C   UNL     1      34.561 -30.524  10.167  1.00  0.00     0.142 A 
ATOM      5  C   UNL     1      35.956 -30.311  10.178  1.00  0.00     0.022 A 
ATOM      6  C   UNL     1      36.506 -29.314  10.996  1.00  0.00     0.062 A 
ATOM      7  C   UNL     1      36.759 -31.114   9.362  1.00  0.00     0.019 A 
ATOM      8  C   UNL     1      36.165 -32.092   8.566  1.00  0.00     0.094 A 
ATOM      9  C   UNL     1      34.775 -32.247   8.607  1.00  0.00     0.336 A 
ATOM     10  O   UNL     1      34.219 -33.125   7.897  1.00  0.00    -0.246 OA
ATOM     11  O   UNL     1      34.034 -31.470   9.394  1.00  0.00    -0.423 OA
ENDROOT
BRANCH   1  12
ATOM     12  O   UNL     1      36.182 -27.513  12.641  1.00  0.00    -0.493 OA
ATOM     13  C   UNL     1      37.555 -27.134  12.700  1.00  0.00     0.278 C 
ENDBRANCH   1  12
BRANCH   2  14
ATOM     14  O   UNL     1      33.418 -27.979  12.580  1.00  0.00    -0.504 OA
ATOM     15  H   UNL     1      32.965 -27.143  12.232  1.00  0.00     0.293 HD
ENDBRANCH   2  14
TORSDOF 2
ENDMDL
MODEL 7
REMARK VINA RESULT:    -3.355     19.958     21.460
REMARK INTER + INTRA:          -3.651
REMARK INTER:                  -3.586
REMARK INTRA:                  -0.065
REMARK UNBOUND:                -0.002
REMARK SMILES COc1cc2ccc(=O)oc2cc1O
REMARK SMILES IDX 3 1 13 2 12 3 11 4 5 5 4 6 6 7 7 8 8 9 9 10 10 11 2 12 1 13
REMARK SMILES IDX 14 14
REMARK H PARENT 14 15
REMARK Flexibility Score: inf
ROOT
ATOM      1  C   UNL     1      20.634 -14.152   4.224  1.00  0.00     0.161 A 
ATOM      2  C   UNL     1      20.619 -15.559   4.262  1.00  0.00     0.161 A 
ATOM      3  C   UNL     1      21.356 -16.247   5.232  1.00  0.00     0.098 A 
ATOM      4  C   UNL     1      22.114 -15.547   6.173  1.00  0.00     0.142 A 
ATOM      5  C   UNL     1      22.135 -14.136   6.145  1.00  0.00     0.022 A 
ATOM      6  C   UNL     1      21.398 -13.443   5.175  1.00  0.00     0.062 A 
ATOM      7  C   UNL     1      22.903 -13.463   7.101  1.00  0.00     0.019 A 
ATOM      8  C   UNL     1      23.618 -14.196   8.046  1.00  0.00     0.094 A 
ATOM      9  C   UNL     1      23.549 -15.593   8.013  1.00  0.00     0.336 A 
ATOM     10  O   UNL     1      24.188 -16.274   8.857  1.00  0.00    -0.246 OA
ATOM     11  O   UNL     1      22.811 -16.209   7.093  1.00  0.00    -0.423 OA
ENDROOT
BRANCH   1  12
ATOM     12  O   UNL     1      19.883 -13.494   3.237  1.00  0.00    -0.493 OA
ATOM     13  C   UNL     1      20.424 -12.951   2.036  1.00  0.00     0.278 C 
ENDBRANCH   1  12
BRANCH   2  14
ATOM     14  O   UNL     1      19.875 -16.296   3.339  1.00  0.00    -0.504 OA
ATOM     15  H   UNL     1      20.228 -17.146   2.917  1.00  0.00     0.293 HD
ENDBRANCH   2  14
TORSDOF 2
ENDMDL
MODEL 8
REMARK VINA RESULT:    -3.258     20.073     21.838
REMARK INTER + INTRA:          -3.545
REMARK INTER:                  -3.497
REMARK INTRA:                  -0.048
REMARK UNBOUND:                -0.002
REMARK SMILES COc1cc2ccc(=O)oc2cc1O
REMARK SMILES IDX 3 1 13 2 12 3 11 4 5 5 4 6 6 7 7 8 8 9 9 10 10 11 2 12 1 13
REMARK SMILES IDX 14 14
REMARK H PARENT 14 15
REMARK Flexibility Score: inf
ROOT
ATOM      1  C   UNL     1      22.912 -15.036   7.351  1.00  0.00     0.161 A 
ATOM      2  C   UNL     1      23.178 -13.666   7.158  1.00  0.00     0.161 A 
ATOM      3  C   UNL     1      22.593 -12.977   6.090  1.00  0.00     0.098 A 
ATOM      4  C   UNL     1      21.740 -13.639   5.203  1.00  0.00     0.142 A 
ATOM      5  C   UNL     1      21.466 -15.011   5.387  1.00  0.00     0.022 A 
ATOM      6  C   UNL     1      22.050 -15.704   6.456  1.00  0.00     0.062 A 
ATOM      7  C   UNL     1      20.607 -15.645   4.484  1.00  0.00     0.019 A 
ATOM      8  C   UNL     1      20.051 -14.912   3.437  1.00  0.00     0.094 A 
ATOM      9  C   UNL     1      20.368 -13.555   3.317  1.00  0.00     0.336 A 
ATOM     10  O   UNL     1      19.876 -12.875   2.378  1.00  0.00    -0.246 OA
ATOM     11  O   UNL     1      21.188 -12.975   4.190  1.00  0.00    -0.423 OA
ENDROOT
BRANCH   1  12
ATOM     12  O   UNL     1      23.515 -15.696   8.433  1.00  0.00    -0.493 OA
ATOM     13  C   UNL     1      24.046 -17.017   8.380  1.00  0.00     0.278 C 
ENDBRANCH   1  12
BRANCH   2  14
ATOM     14  O   UNL     1      24.025 -12.969   8.021  1.00  0.00    -0.504 OA
ATOM     15  H   UNL     1      24.212 -11.980   7.911  1.00  0.00     0.293 HD
ENDBRANCH   2  14
TORSDOF 2
ENDMDL
MODEL 9
REMARK VINA RESULT:    -3.006     21.262     21.983
REMARK INTER + INTRA:          -3.272
REMARK INTER:                  -3.223
REMARK INTRA:                  -0.048
REMARK UNBOUND:                -0.002
REMARK SMILES COc1cc2ccc(=O)oc2cc1O
REMARK SMILES IDX 3 1 13 2 12 3 11 4 5 5 4 6 6 7 7 8 8 9 9 10 10 11 2 12 1 13
REMARK SMILES IDX 14 14
REMARK H PARENT 14 15
REMARK Flexibility Score: inf
ROOT
ATOM      1  C   UNL     1      20.246 -16.518   2.242  1.00  0.00     0.161 A 
ATOM      2  C   UNL     1      20.618 -15.217   1.853  1.00  0.00     0.161 A 
ATOM      3  C   UNL     1      20.994 -14.273   2.815  1.00  0.00     0.098 A 
ATOM      4  C   UNL     1      21.005 -14.610   4.171  1.00  0.00     0.142 A 
ATOM      5  C   UNL     1      20.635 -15.911   4.572  1.00  0.00     0.022 A 
ATOM      6  C   UNL     1      20.258 -16.860   3.611  1.00  0.00     0.062 A 
ATOM      7  C   UNL     1      20.657 -16.219   5.936  1.00  0.00     0.019 A 
ATOM      8  C   UNL     1      21.039 -15.241   6.853  1.00  0.00     0.094 A 
ATOM      9  C   UNL     1      21.393 -13.973   6.382  1.00  0.00     0.336 A 
ATOM     10  O   UNL     1      21.742 -13.075   7.194  1.00  0.00    -0.246 OA
ATOM     11  O   UNL     1      21.365 -13.705   5.079  1.00  0.00    -0.423 OA
ENDROOT
BRANCH   1  12
ATOM     12  O   UNL     1      19.875 -17.440   1.251  1.00  0.00    -0.493 OA
ATOM     13  C   UNL     1      20.251 -18.814   1.243  1.00  0.00     0.278 C 
ENDBRANCH   1  12
BRANCH   2  14
ATOM     14  O   UNL     1      20.620 -14.840   0.510  1.00  0.00    -0.504 OA
ATOM     15  H   UNL     1      21.432 -14.962  -0.084  1.00  0.00     0.293 HD
ENDBRANCH   2  14
TORSDOF 2
ENDMDL
