MODEL 1
REMARK VINA RESULT:    -6.227      0.000      0.000
REMARK INTER + INTRA:          -7.606
REMARK INTER:                  -7.319
REMARK INTRA:                  -0.287
REMARK UNBOUND:                -0.287
REMARK SMILES O=c1c(O)c(-c2ccc(O)cc2)oc2cc(O)cc(O)c12
REMARK SMILES IDX 5 1 3 2 2 3 1 4 21 5 19 6 18 7 16 8 15 9 14 10 13 11 6 12
REMARK SMILES IDX 7 13 8 14 9 15 12 16 11 17 10 18 4 20 20 22 17 24
REMARK H PARENT 10 19 4 21 20 23 17 25
REMARK Flexibility Score: inf
ROOT
ATOM      1  C   UNL     1       1.781  16.483  26.166  1.00  0.00     0.180 A 
ATOM      2  C   UNL     1       1.242  17.178  25.069  1.00  0.00     0.208 A 
ATOM      3  C   UNL     1       0.414  18.287  25.306  1.00  0.00     0.238 A 
ATOM      4  O   UNL     1      -0.110  18.872  24.323  1.00  0.00    -0.285 OA
ATOM      5  C   UNL     1       0.151  18.699  26.636  1.00  0.00     0.111 A 
ATOM      6  C   UNL     1      -0.640  19.832  26.991  1.00  0.00     0.134 A 
ATOM      7  C   UNL     1      -0.942  20.068  28.338  1.00  0.00     0.093 A 
ATOM      8  C   UNL     1      -0.429  19.252  29.345  1.00  0.00     0.123 A 
ATOM      9  C   UNL     1       0.394  18.175  29.012  1.00  0.00     0.094 A 
ATOM     10  C   UNL     1       0.683  17.892  27.675  1.00  0.00     0.146 A 
ATOM     11  O   UNL     1       1.462  16.852  27.401  1.00  0.00    -0.452 OA
ENDROOT
BRANCH   1  12
ATOM     12  C   UNL     1       2.680  15.319  25.996  1.00  0.00     0.021 A 
ATOM     13  C   UNL     1       2.164  14.019  26.136  1.00  0.00     0.016 A 
ATOM     14  C   UNL     1       3.000  12.907  26.002  1.00  0.00     0.047 A 
ATOM     15  C   UNL     1       4.366  13.080  25.742  1.00  0.00     0.115 A 
ATOM     16  C   UNL     1       4.057  15.485  25.754  1.00  0.00     0.016 A 
ATOM     17  C   UNL     1       4.891  14.371  25.622  1.00  0.00     0.047 A 
BRANCH  15  18
ATOM     18  O   UNL     1       5.209  11.979  25.606  1.00  0.00    -0.508 OA
ATOM     19  H   UNL     1       6.044  12.019  25.034  1.00  0.00     0.293 HD
ENDBRANCH  15  18
ENDBRANCH   1  12
BRANCH   2  20
ATOM     20  O   UNL     1       1.497  16.742  23.766  1.00  0.00    -0.502 OA
ATOM     21  H   UNL     1       1.536  15.760  23.519  1.00  0.00     0.293 HD
ENDBRANCH   2  20
BRANCH   6  22
ATOM     22  O   UNL     1      -1.125  20.765  26.070  1.00  0.00    -0.507 OA
ATOM     23  H   UNL     1      -0.970  20.724  25.074  1.00  0.00     0.293 HD
ENDBRANCH   6  22
BRANCH   8  24
ATOM     24  O   UNL     1      -0.738  19.526  30.676  1.00  0.00    -0.508 OA
ATOM     25  H   UNL     1      -1.513  19.071  31.144  1.00  0.00     0.293 HD
ENDBRANCH   8  24
TORSDOF 5
ENDMDL
MODEL 2
REMARK VINA RESULT:    -6.174      1.011      1.593
REMARK INTER + INTRA:          -7.544
REMARK INTER:                  -7.275
REMARK INTRA:                  -0.269
REMARK UNBOUND:                -0.287
REMARK SMILES O=c1c(O)c(-c2ccc(O)cc2)oc2cc(O)cc(O)c12
REMARK SMILES IDX 5 1 3 2 2 3 1 4 21 5 19 6 18 7 16 8 15 9 14 10 13 11 6 12
REMARK SMILES IDX 7 13 8 14 9 15 12 16 11 17 10 18 4 20 20 22 17 24
REMARK H PARENT 10 19 4 21 20 23 17 25
REMARK Flexibility Score: inf
ROOT
ATOM      1  C   UNL     1       1.434  17.220  26.786  1.00  0.00     0.180 A 
ATOM      2  C   UNL     1       0.906  18.117  25.841  1.00  0.00     0.208 A 
ATOM      3  C   UNL     1       0.179  19.231  26.292  1.00  0.00     0.238 A 
ATOM      4  O   UNL     1      -0.338  20.001  25.441  1.00  0.00    -0.285 OA
ATOM      5  C   UNL     1       0.006  19.444  27.681  1.00  0.00     0.111 A 
ATOM      6  C   UNL     1      -0.677  20.561  28.251  1.00  0.00     0.134 A 
ATOM      7  C   UNL     1      -0.902  20.600  29.632  1.00  0.00     0.093 A 
ATOM      8  C   UNL     1      -0.414  19.600  30.471  1.00  0.00     0.123 A 
ATOM      9  C   UNL     1       0.307  18.534  29.931  1.00  0.00     0.094 A 
ATOM     10  C   UNL     1       0.516  18.447  28.552  1.00  0.00     0.146 A 
ATOM     11  O   UNL     1       1.198  17.411  28.079  1.00  0.00    -0.452 OA
ENDROOT
BRANCH   1  12
ATOM     12  C   UNL     1       2.230  16.037  26.389  1.00  0.00     0.021 A 
ATOM     13  C   UNL     1       3.590  16.191  26.072  1.00  0.00     0.016 A 
ATOM     14  C   UNL     1       4.354  15.091  25.672  1.00  0.00     0.047 A 
ATOM     15  C   UNL     1       3.765  13.825  25.569  1.00  0.00     0.115 A 
ATOM     16  C   UNL     1       1.640  14.765  26.264  1.00  0.00     0.016 A 
ATOM     17  C   UNL     1       2.406  13.666  25.863  1.00  0.00     0.047 A 
BRANCH  15  18
ATOM     18  O   UNL     1       4.516  12.721  25.172  1.00  0.00    -0.508 OA
ATOM     19  H   UNL     1       5.486  12.616  25.444  1.00  0.00     0.293 HD
ENDBRANCH  15  18
ENDBRANCH   1  12
BRANCH   2  20
ATOM     20  O   UNL     1       1.070  17.876  24.474  1.00  0.00    -0.502 OA
ATOM     21  H   UNL     1       1.869  17.375  24.103  1.00  0.00     0.293 HD
ENDBRANCH   2  20
BRANCH   6  22
ATOM     22  O   UNL     1      -1.125  21.660  27.513  1.00  0.00    -0.507 OA
ATOM     23  H   UNL     1      -0.905  21.830  26.543  1.00  0.00     0.293 HD
ENDBRANCH   6  22
BRANCH   8  24
ATOM     24  O   UNL     1      -0.643  19.681  31.843  1.00  0.00    -0.508 OA
ATOM     25  H   UNL     1      -1.152  18.958  32.338  1.00  0.00     0.293 HD
ENDBRANCH   8  24
TORSDOF 5
ENDMDL
MODEL 3
REMARK VINA RESULT:    -5.603      1.926      6.828
REMARK INTER + INTRA:          -6.873
REMARK INTER:                  -6.672
REMARK INTRA:                  -0.202
REMARK UNBOUND:                -0.287
REMARK SMILES O=c1c(O)c(-c2ccc(O)cc2)oc2cc(O)cc(O)c12
REMARK SMILES IDX 5 1 3 2 2 3 1 4 21 5 19 6 18 7 16 8 15 9 14 10 13 11 6 12
REMARK SMILES IDX 7 13 8 14 9 15 12 16 11 17 10 18 4 20 20 22 17 24
REMARK H PARENT 10 19 4 21 20 23 17 25
REMARK Flexibility Score: inf
ROOT
ATOM      1  C   UNL     1       1.033  16.994  26.240  1.00  0.00     0.180 A 
ATOM      2  C   UNL     1       0.255  15.851  26.497  1.00  0.00     0.208 A 
ATOM      3  C   UNL     1       0.871  14.589  26.473  1.00  0.00     0.238 A 
ATOM      4  O   UNL     1       0.161  13.566  26.649  1.00  0.00    -0.285 OA
ATOM      5  C   UNL     1       2.259  14.488  26.209  1.00  0.00     0.111 A 
ATOM      6  C   UNL     1       2.994  13.264  26.200  1.00  0.00     0.134 A 
ATOM      7  C   UNL     1       4.335  13.268  25.798  1.00  0.00     0.093 A 
ATOM      8  C   UNL     1       4.985  14.456  25.468  1.00  0.00     0.123 A 
ATOM      9  C   UNL     1       4.291  15.666  25.531  1.00  0.00     0.094 A 
ATOM     10  C   UNL     1       2.943  15.690  25.893  1.00  0.00     0.146 A 
ATOM     11  O   UNL     1       2.317  16.861  25.931  1.00  0.00    -0.452 OA
ENDROOT
BRANCH   1  12
ATOM     12  C   UNL     1       0.460  18.359  26.271  1.00  0.00     0.021 A 
ATOM     13  C   UNL     1      -0.368  18.787  25.220  1.00  0.00     0.016 A 
ATOM     14  C   UNL     1      -0.900  20.079  25.218  1.00  0.00     0.047 A 
ATOM     15  C   UNL     1      -0.599  20.966  26.259  1.00  0.00     0.115 A 
ATOM     16  C   UNL     1       0.775  19.263  27.304  1.00  0.00     0.016 A 
ATOM     17  C   UNL     1       0.242  20.556  27.298  1.00  0.00     0.047 A 
BRANCH  15  18
ATOM     18  O   UNL     1      -1.124  22.257  26.268  1.00  0.00    -0.508 OA
ATOM     19  H   UNL     1      -2.029  22.457  26.676  1.00  0.00     0.293 HD
ENDBRANCH  15  18
ENDBRANCH   1  12
BRANCH   2  20
ATOM     20  O   UNL     1      -1.117  15.973  26.734  1.00  0.00    -0.502 OA
ATOM     21  H   UNL     1      -1.488  16.470  27.534  1.00  0.00     0.293 HD
ENDBRANCH   2  20
BRANCH   6  22
ATOM     22  O   UNL     1       2.466  12.033  26.601  1.00  0.00    -0.507 OA
ATOM     23  H   UNL     1       2.700  11.560  27.460  1.00  0.00     0.293 HD
ENDBRANCH   6  22
BRANCH   8  24
ATOM     24  O   UNL     1       6.325  14.424  25.087  1.00  0.00    -0.508 OA
ATOM     25  H   UNL     1       6.898  15.260  25.096  1.00  0.00     0.293 HD
ENDBRANCH   8  24
TORSDOF 5
ENDMDL
MODEL 4
REMARK VINA RESULT:    -5.566      1.912      6.857
REMARK INTER + INTRA:          -6.829
REMARK INTER:                  -6.658
REMARK INTRA:                  -0.171
REMARK UNBOUND:                -0.287
REMARK SMILES O=c1c(O)c(-c2ccc(O)cc2)oc2cc(O)cc(O)c12
REMARK SMILES IDX 5 1 3 2 2 3 1 4 21 5 19 6 18 7 16 8 15 9 14 10 13 11 6 12
REMARK SMILES IDX 7 13 8 14 9 15 12 16 11 17 10 18 4 20 20 22 17 24
REMARK H PARENT 10 19 4 21 20 23 17 25
REMARK Flexibility Score: inf
ROOT
ATOM      1  C   UNL     1       1.051  17.000  26.254  1.00  0.00     0.180 A 
ATOM      2  C   UNL     1       0.259  15.869  26.521  1.00  0.00     0.208 A 
ATOM      3  C   UNL     1       0.859  14.600  26.512  1.00  0.00     0.238 A 
ATOM      4  O   UNL     1       0.136  13.587  26.697  1.00  0.00    -0.285 OA
ATOM      5  C   UNL     1       2.247  14.478  26.254  1.00  0.00     0.111 A 
ATOM      6  C   UNL     1       2.967  13.246  26.260  1.00  0.00     0.134 A 
ATOM      7  C   UNL     1       4.309  13.230  25.862  1.00  0.00     0.093 A 
ATOM      8  C   UNL     1       4.975  14.406  25.522  1.00  0.00     0.123 A 
ATOM      9  C   UNL     1       4.295  15.625  25.570  1.00  0.00     0.094 A 
ATOM     10  C   UNL     1       2.946  15.669  25.928  1.00  0.00     0.146 A 
ATOM     11  O   UNL     1       2.334  16.848  25.951  1.00  0.00    -0.452 OA
ENDROOT
BRANCH   1  12
ATOM     12  C   UNL     1       0.495  18.372  26.269  1.00  0.00     0.021 A 
ATOM     13  C   UNL     1       0.834  19.245  27.316  1.00  0.00     0.016 A 
ATOM     14  C   UNL     1       0.302  20.537  27.362  1.00  0.00     0.047 A 
ATOM     15  C   UNL     1      -0.588  20.967  26.371  1.00  0.00     0.115 A 
ATOM     16  C   UNL     1      -0.416  18.804  25.287  1.00  0.00     0.016 A 
ATOM     17  C   UNL     1      -0.948  20.097  25.336  1.00  0.00     0.047 A 
BRANCH  15  18
ATOM     18  O   UNL     1      -1.125  22.252  26.405  1.00  0.00    -0.508 OA
ATOM     19  H   UNL     1      -1.808  22.559  25.723  1.00  0.00     0.293 HD
ENDBRANCH  15  18
ENDBRANCH   1  12
BRANCH   2  20
ATOM     20  O   UNL     1      -1.112  16.010  26.752  1.00  0.00    -0.502 OA
ATOM     21  H   UNL     1      -1.634  15.369  27.338  1.00  0.00     0.293 HD
ENDBRANCH   2  20
BRANCH   6  22
ATOM     22  O   UNL     1       2.423  12.026  26.671  1.00  0.00    -0.507 OA
ATOM     23  H   UNL     1       1.747  11.919  27.413  1.00  0.00     0.293 HD
ENDBRANCH   6  22
BRANCH   8  24
ATOM     24  O   UNL     1       6.315  14.354  25.146  1.00  0.00    -0.508 OA
ATOM     25  H   UNL     1       7.051  14.209  25.827  1.00  0.00     0.293 HD
ENDBRANCH   8  24
TORSDOF 5
ENDMDL
MODEL 5
REMARK VINA RESULT:    -5.030      1.882      6.975
REMARK INTER + INTRA:          -6.199
REMARK INTER:                  -5.918
REMARK INTRA:                  -0.281
REMARK UNBOUND:                -0.287
REMARK SMILES O=c1c(O)c(-c2ccc(O)cc2)oc2cc(O)cc(O)c12
REMARK SMILES IDX 5 1 3 2 2 3 1 4 21 5 19 6 18 7 16 8 15 9 14 10 13 11 6 12
REMARK SMILES IDX 7 13 8 14 9 15 12 16 11 17 10 18 4 20 20 22 17 24
REMARK H PARENT 10 19 4 21 20 23 17 25
REMARK Flexibility Score: inf
ROOT
ATOM      1  C   UNL     1       1.027  15.978  26.082  1.00  0.00     0.180 A 
ATOM      2  C   UNL     1       0.239  14.915  26.558  1.00  0.00     0.208 A 
ATOM      3  C   UNL     1       0.829  13.652  26.727  1.00  0.00     0.238 A 
ATOM      4  O   UNL     1       0.107  12.692  27.101  1.00  0.00    -0.285 OA
ATOM      5  C   UNL     1       2.203  13.471  26.433  1.00  0.00     0.111 A 
ATOM      6  C   UNL     1       2.914  12.246  26.606  1.00  0.00     0.134 A 
ATOM      7  C   UNL     1       4.237  12.147  26.159  1.00  0.00     0.093 A 
ATOM      8  C   UNL     1       4.896  13.245  25.608  1.00  0.00     0.123 A 
ATOM      9  C   UNL     1       4.228  14.465  25.490  1.00  0.00     0.094 A 
ATOM     10  C   UNL     1       2.896  14.585  25.892  1.00  0.00     0.146 A 
ATOM     11  O   UNL     1       2.295  15.761  25.753  1.00  0.00    -0.452 OA
ENDROOT
BRANCH   1  12
ATOM     12  C   UNL     1       0.482  17.342  25.901  1.00  0.00     0.021 A 
ATOM     13  C   UNL     1       0.590  18.275  26.946  1.00  0.00     0.016 A 
ATOM     14  C   UNL     1       0.061  19.561  26.805  1.00  0.00     0.047 A 
ATOM     15  C   UNL     1      -0.595  19.927  25.623  1.00  0.00     0.115 A 
ATOM     16  C   UNL     1      -0.196  17.711  24.724  1.00  0.00     0.016 A 
ATOM     17  C   UNL     1      -0.725  18.998  24.586  1.00  0.00     0.047 A 
BRANCH  15  18
ATOM     18  O   UNL     1      -1.125  21.206  25.470  1.00  0.00    -0.508 OA
ATOM     19  H   UNL     1      -0.532  22.007  25.285  1.00  0.00     0.293 HD
ENDBRANCH  15  18
ENDBRANCH   1  12
BRANCH   2  20
ATOM     20  O   UNL     1      -1.120  15.110  26.821  1.00  0.00    -0.502 OA
ATOM     21  H   UNL     1      -1.595  14.655  27.591  1.00  0.00     0.293 HD
ENDBRANCH   2  20
BRANCH   6  22
ATOM     22  O   UNL     1       2.379  11.115  27.229  1.00  0.00    -0.507 OA
ATOM     23  H   UNL     1       1.980  11.104  28.156  1.00  0.00     0.293 HD
ENDBRANCH   6  22
BRANCH   8  24
ATOM     24  O   UNL     1       6.218  13.115  25.190  1.00  0.00    -0.508 OA
ATOM     25  H   UNL     1       6.767  12.292  25.414  1.00  0.00     0.293 HD
ENDBRANCH   8  24
TORSDOF 5
ENDMDL
MODEL 6
REMARK VINA RESULT:    -4.778      1.767      6.676
REMARK INTER + INTRA:          -5.903
REMARK INTER:                  -5.618
REMARK INTRA:                  -0.285
REMARK UNBOUND:                -0.287
REMARK SMILES O=c1c(O)c(-c2ccc(O)cc2)oc2cc(O)cc(O)c12
REMARK SMILES IDX 5 1 3 2 2 3 1 4 21 5 19 6 18 7 16 8 15 9 14 10 13 11 6 12
REMARK SMILES IDX 7 13 8 14 9 15 12 16 11 17 10 18 4 20 20 22 17 24
REMARK H PARENT 10 19 4 21 20 23 17 25
REMARK Flexibility Score: inf
ROOT
ATOM      1  C   UNL     1       1.879  16.297  26.318  1.00  0.00     0.180 A 
ATOM      2  C   UNL     1       3.174  16.245  25.772  1.00  0.00     0.208 A 
ATOM      3  C   UNL     1       3.858  15.018  25.759  1.00  0.00     0.238 A 
ATOM      4  O   UNL     1       5.037  14.988  25.319  1.00  0.00    -0.285 OA
ATOM      5  C   UNL     1       3.233  13.857  26.275  1.00  0.00     0.111 A 
ATOM      6  C   UNL     1       3.817  12.555  26.275  1.00  0.00     0.134 A 
ATOM      7  C   UNL     1       3.162  11.505  26.931  1.00  0.00     0.093 A 
ATOM      8  C   UNL     1       1.917  11.693  27.528  1.00  0.00     0.123 A 
ATOM      9  C   UNL     1       1.309  12.949  27.482  1.00  0.00     0.094 A 
ATOM     10  C   UNL     1       1.954  14.025  26.867  1.00  0.00     0.146 A 
ATOM     11  O   UNL     1       1.346  15.206  26.854  1.00  0.00    -0.452 OA
ENDROOT
BRANCH   1  12
ATOM     12  C   UNL     1       1.086  17.547  26.346  1.00  0.00     0.021 A 
ATOM     13  C   UNL     1       0.229  17.848  25.274  1.00  0.00     0.016 A 
ATOM     14  C   UNL     1      -0.510  19.034  25.269  1.00  0.00     0.047 A 
ATOM     15  C   UNL     1      -0.391  19.942  26.329  1.00  0.00     0.115 A 
ATOM     16  C   UNL     1       1.216  18.474  27.397  1.00  0.00     0.016 A 
ATOM     17  C   UNL     1       0.476  19.660  27.389  1.00  0.00     0.047 A 
BRANCH  15  18
ATOM     18  O   UNL     1      -1.123  21.127  26.336  1.00  0.00    -0.508 OA
ATOM     19  H   UNL     1      -1.950  21.242  25.761  1.00  0.00     0.293 HD
ENDBRANCH  15  18
ENDBRANCH   1  12
BRANCH   2  20
ATOM     20  O   UNL     1       3.780  17.407  25.288  1.00  0.00    -0.502 OA
ATOM     21  H   UNL     1       4.200  17.458  24.367  1.00  0.00     0.293 HD
ENDBRANCH   2  20
BRANCH   6  22
ATOM     22  O   UNL     1       5.014  12.237  25.628  1.00  0.00    -0.507 OA
ATOM     23  H   UNL     1       5.866  11.964  26.096  1.00  0.00     0.293 HD
ENDBRANCH   6  22
BRANCH   8  24
ATOM     24  O   UNL     1       1.287  10.622  28.157  1.00  0.00    -0.508 OA
ATOM     25  H   UNL     1       0.497  10.149  27.735  1.00  0.00     0.293 HD
ENDBRANCH   8  24
TORSDOF 5
ENDMDL
MODEL 7
REMARK VINA RESULT:    -4.653      1.881      2.072
REMARK INTER + INTRA:          -5.755
REMARK INTER:                  -5.588
REMARK INTRA:                  -0.167
REMARK UNBOUND:                -0.287
REMARK SMILES O=c1c(O)c(-c2ccc(O)cc2)oc2cc(O)cc(O)c12
REMARK SMILES IDX 5 1 3 2 2 3 1 4 21 5 19 6 18 7 16 8 15 9 14 10 13 11 6 12
REMARK SMILES IDX 7 13 8 14 9 15 12 16 11 17 10 18 4 20 20 22 17 24
REMARK H PARENT 10 19 4 21 20 23 17 25
REMARK Flexibility Score: inf
ROOT
ATOM      1  C   UNL     1       1.931  15.429  26.108  1.00  0.00     0.180 A 
ATOM      2  C   UNL     1       0.689  15.476  25.451  1.00  0.00     0.208 A 
ATOM      3  C   UNL     1       0.011  16.703  25.364  1.00  0.00     0.238 A 
ATOM      4  O   UNL     1      -1.125  16.728  24.823  1.00  0.00    -0.285 OA
ATOM      5  C   UNL     1       0.591  17.869  25.918  1.00  0.00     0.111 A 
ATOM      6  C   UNL     1       0.011  19.172  25.852  1.00  0.00     0.134 A 
ATOM      7  C   UNL     1       0.608  20.229  26.549  1.00  0.00     0.093 A 
ATOM      8  C   UNL     1       1.797  20.047  27.254  1.00  0.00     0.123 A 
ATOM      9  C   UNL     1       2.404  18.790  27.277  1.00  0.00     0.094 A 
ATOM     10  C   UNL     1       1.812  17.707  26.621  1.00  0.00     0.146 A 
ATOM     11  O   UNL     1       2.417  16.526  26.676  1.00  0.00    -0.452 OA
ENDROOT
BRANCH   1  12
ATOM     12  C   UNL     1       2.716  14.179  26.220  1.00  0.00     0.021 A 
ATOM     13  C   UNL     1       2.261  13.149  27.061  1.00  0.00     0.016 A 
ATOM     14  C   UNL     1       2.999  11.970  27.200  1.00  0.00     0.047 A 
ATOM     15  C   UNL     1       4.208  11.811  26.512  1.00  0.00     0.115 A 
ATOM     16  C   UNL     1       3.942  14.020  25.548  1.00  0.00     0.016 A 
ATOM     17  C   UNL     1       4.678  12.839  25.689  1.00  0.00     0.047 A 
BRANCH  15  18
ATOM     18  O   UNL     1       4.952  10.640  26.641  1.00  0.00    -0.508 OA
ATOM     19  H   UNL     1       5.329  10.160  25.832  1.00  0.00     0.293 HD
ENDBRANCH  15  18
ENDBRANCH   1  12
BRANCH   2  20
ATOM     20  O   UNL     1       0.125  14.308  24.930  1.00  0.00    -0.502 OA
ATOM     21  H   UNL     1      -0.147  14.223  23.958  1.00  0.00     0.293 HD
ENDBRANCH   2  20
BRANCH   6  22
ATOM     22  O   UNL     1      -1.125  19.483  25.099  1.00  0.00    -0.507 OA
ATOM     23  H   UNL     1      -1.895  18.853  24.932  1.00  0.00     0.293 HD
ENDBRANCH   6  22
BRANCH   8  24
ATOM     24  O   UNL     1       2.371  21.126  27.923  1.00  0.00    -0.508 OA
ATOM     25  H   UNL     1       3.036  20.989  28.676  1.00  0.00     0.293 HD
ENDBRANCH   8  24
TORSDOF 5
ENDMDL
MODEL 8
REMARK VINA RESULT:    -4.009      1.538      6.473
REMARK INTER + INTRA:          -4.999
REMARK INTER:                  -5.486
REMARK INTRA:                   0.487
REMARK UNBOUND:                -0.287
REMARK SMILES O=c1c(O)c(-c2ccc(O)cc2)oc2cc(O)cc(O)c12
REMARK SMILES IDX 5 1 3 2 2 3 1 4 21 5 19 6 18 7 16 8 15 9 14 10 13 11 6 12
REMARK SMILES IDX 7 13 8 14 9 15 12 16 11 17 10 18 4 20 20 22 17 24
REMARK H PARENT 10 19 4 21 20 23 17 25
REMARK Flexibility Score: inf
ROOT
ATOM      1  C   UNL     1       0.457  17.965  27.825  1.00  0.00     0.180 A 
ATOM      2  C   UNL     1       0.428  18.481  26.517  1.00  0.00     0.208 A 
ATOM      3  C   UNL     1       0.823  17.657  25.451  1.00  0.00     0.238 A 
ATOM      4  O   UNL     1       0.847  18.141  24.290  1.00  0.00    -0.285 OA
ATOM      5  C   UNL     1       1.226  16.323  25.704  1.00  0.00     0.111 A 
ATOM      6  C   UNL     1       1.608  15.388  24.695  1.00  0.00     0.134 A 
ATOM      7  C   UNL     1       2.114  14.138  25.070  1.00  0.00     0.093 A 
ATOM      8  C   UNL     1       2.191  13.763  26.411  1.00  0.00     0.123 A 
ATOM      9  C   UNL     1       1.764  14.649  27.402  1.00  0.00     0.094 A 
ATOM     10  C   UNL     1       1.289  15.917  27.062  1.00  0.00     0.146 A 
ATOM     11  O   UNL     1       0.903  16.733  28.036  1.00  0.00    -0.452 OA
ENDROOT
BRANCH   1  12
ATOM     12  C   UNL     1       0.034  18.765  28.997  1.00  0.00     0.021 A 
ATOM     13  C   UNL     1      -0.729  19.929  28.801  1.00  0.00     0.016 A 
ATOM     14  C   UNL     1      -1.120  20.711  29.892  1.00  0.00     0.047 A 
ATOM     15  C   UNL     1      -0.740  20.348  31.190  1.00  0.00     0.115 A 
ATOM     16  C   UNL     1       0.428  18.418  30.303  1.00  0.00     0.016 A 
ATOM     17  C   UNL     1       0.036  19.203  31.391  1.00  0.00     0.047 A 
BRANCH  15  18
ATOM     18  O   UNL     1      -1.124  21.120  32.285  1.00  0.00    -0.508 OA
ATOM     19  H   UNL     1      -0.561  21.162  33.126  1.00  0.00     0.293 HD
ENDBRANCH  15  18
ENDBRANCH   1  12
BRANCH   2  20
ATOM     20  O   UNL     1       0.047  19.807  26.293  1.00  0.00    -0.502 OA
ATOM     21  H   UNL     1      -0.889  20.063  26.003  1.00  0.00     0.293 HD
ENDBRANCH   2  20
BRANCH   6  22
ATOM     22  O   UNL     1       1.484  15.625  23.323  1.00  0.00    -0.507 OA
ATOM     23  H   UNL     1       0.613  15.618  22.815  1.00  0.00     0.293 HD
ENDBRANCH   6  22
BRANCH   8  24
ATOM     24  O   UNL     1       2.685  12.505  26.746  1.00  0.00    -0.508 OA
ATOM     25  H   UNL     1       3.386  12.386  27.469  1.00  0.00     0.293 HD
ENDBRANCH   8  24
TORSDOF 5
ENDMDL
MODEL 9
REMARK VINA RESULT:    -3.842      2.222      6.678
REMARK INTER + INTRA:          -4.803
REMARK INTER:                  -4.546
REMARK INTRA:                  -0.257
REMARK UNBOUND:                -0.287
REMARK SMILES O=c1c(O)c(-c2ccc(O)cc2)oc2cc(O)cc(O)c12
REMARK SMILES IDX 5 1 3 2 2 3 1 4 21 5 19 6 18 7 16 8 15 9 14 10 13 11 6 12
REMARK SMILES IDX 7 13 8 14 9 15 12 16 11 17 10 18 4 20 20 22 17 24
REMARK H PARENT 10 19 4 21 20 23 17 25
REMARK Flexibility Score: inf
ROOT
ATOM      1  C   UNL     1       0.826  18.261  27.087  1.00  0.00     0.180 A 
ATOM      2  C   UNL     1       2.150  18.091  26.644  1.00  0.00     0.208 A 
ATOM      3  C   UNL     1       2.575  16.815  26.242  1.00  0.00     0.238 A 
ATOM      4  O   UNL     1       3.776  16.657  25.899  1.00  0.00    -0.285 OA
ATOM      5  C   UNL     1       1.667  15.728  26.271  1.00  0.00     0.111 A 
ATOM      6  C   UNL     1       1.978  14.401  25.847  1.00  0.00     0.134 A 
ATOM      7  C   UNL     1       1.043  13.378  26.043  1.00  0.00     0.093 A 
ATOM      8  C   UNL     1      -0.213  13.643  26.585  1.00  0.00     0.123 A 
ATOM      9  C   UNL     1      -0.550  14.949  26.947  1.00  0.00     0.094 A 
ATOM     10  C   UNL     1       0.375  15.985  26.798  1.00  0.00     0.146 A 
ATOM     11  O   UNL     1       0.019  17.211  27.165  1.00  0.00    -0.452 OA
ENDROOT
BRANCH   1  12
ATOM     12  C   UNL     1       0.299  19.580  27.504  1.00  0.00     0.021 A 
ATOM     13  C   UNL     1      -0.076  20.517  26.527  1.00  0.00     0.016 A 
ATOM     14  C   UNL     1      -0.554  21.777  26.899  1.00  0.00     0.047 A 
ATOM     15  C   UNL     1      -0.649  22.122  28.253  1.00  0.00     0.115 A 
ATOM     16  C   UNL     1       0.220  19.941  28.863  1.00  0.00     0.016 A 
ATOM     17  C   UNL     1      -0.258  21.203  29.232  1.00  0.00     0.047 A 
BRANCH  15  18
ATOM     18  O   UNL     1      -1.125  23.374  28.636  1.00  0.00    -0.508 OA
ATOM     19  H   UNL     1      -2.099  23.629  28.519  1.00  0.00     0.293 HD
ENDBRANCH  15  18
ENDBRANCH   1  12
BRANCH   2  20
ATOM     20  O   UNL     1       3.036  19.173  26.645  1.00  0.00    -0.502 OA
ATOM     21  H   UNL     1       3.571  19.437  27.464  1.00  0.00     0.293 HD
ENDBRANCH   2  20
BRANCH   6  22
ATOM     22  O   UNL     1       3.170  14.045  25.210  1.00  0.00    -0.507 OA
ATOM     23  H   UNL     1       3.817  13.349  25.549  1.00  0.00     0.293 HD
ENDBRANCH   6  22
BRANCH   8  24
ATOM     24  O   UNL     1      -1.125  12.603  26.750  1.00  0.00    -0.508 OA
ATOM     25  H   UNL     1      -1.009  11.716  26.273  1.00  0.00     0.293 HD
ENDBRANCH   8  24
TORSDOF 5
ENDMDL
