MODEL 1
REMARK VINA RESULT:    -4.643      0.000      0.000
REMARK INTER + INTRA:          -4.914
REMARK INTER:                  -4.914
REMARK INTRA:                   0.000
REMARK UNBOUND:                 0.000
REMARK SMILES O=c1ccc2cc(O)c(O)cc2o1
REMARK SMILES IDX 4 1 3 2 2 3 1 4 13 5 12 6 11 7 9 8 7 9 6 10 5 11 8 12 10 14
REMARK H PARENT 8 13 10 15
REMARK Flexibility Score: inf
ROOT
ATOM      1  C   UNL     1       5.930  42.768  36.560  1.00  0.00     0.019 A 
ATOM      2  C   UNL     1       5.818  41.468  36.069  1.00  0.00     0.094 A 
ATOM      3  C   UNL     1       5.498  40.434  36.955  1.00  0.00     0.336 A 
ATOM      4  O   UNL     1       5.392  39.254  36.532  1.00  0.00    -0.246 OA
ATOM      5  O   UNL     1       5.303  40.691  38.247  1.00  0.00    -0.423 OA
ATOM      6  C   UNL     1       5.400  41.917  38.756  1.00  0.00     0.142 A 
ATOM      7  C   UNL     1       5.184  42.126  40.122  1.00  0.00     0.098 A 
ATOM      8  C   UNL     1       5.285  43.412  40.665  1.00  0.00     0.161 A 
ATOM      9  C   UNL     1       5.604  44.503  39.834  1.00  0.00     0.158 A 
ATOM     10  C   UNL     1       5.821  44.297  38.463  1.00  0.00     0.062 A 
ATOM     11  C   UNL     1       5.720  43.009  37.922  1.00  0.00     0.022 A 
ENDROOT
BRANCH   9  12
ATOM     12  O   UNL     1       5.704  45.783  40.374  1.00  0.00    -0.504 OA
ATOM     13  H   UNL     1       6.328  45.987  41.147  1.00  0.00     0.293 HD
ENDBRANCH   9  12
BRANCH   8  14
ATOM     14  O   UNL     1       5.064  43.588  42.031  1.00  0.00    -0.504 OA
ATOM     15  H   UNL     1       5.800  43.465  42.715  1.00  0.00     0.293 HD
ENDBRANCH   8  14
TORSDOF 2
ENDMDL
MODEL 2
REMARK VINA RESULT:    -4.403     11.929     12.801
REMARK INTER + INTRA:          -4.660
REMARK INTER:                  -4.660
REMARK INTRA:                   0.000
REMARK UNBOUND:                 0.000
REMARK SMILES O=c1ccc2cc(O)c(O)cc2o1
REMARK SMILES IDX 4 1 3 2 2 3 1 4 13 5 12 6 11 7 9 8 7 9 6 10 5 11 8 12 10 14
REMARK H PARENT 8 13 10 15
REMARK Flexibility Score: inf
ROOT
ATOM      1  C   UNL     1      10.738  33.394  44.130  1.00  0.00     0.019 A 
ATOM      2  C   UNL     1       9.402  32.997  44.138  1.00  0.00     0.094 A 
ATOM      3  C   UNL     1       8.912  32.245  43.065  1.00  0.00     0.336 A 
ATOM      4  O   UNL     1       7.709  31.878  43.053  1.00  0.00    -0.246 OA
ATOM      5  O   UNL     1       9.712  31.915  42.054  1.00  0.00    -0.423 OA
ATOM      6  C   UNL     1      10.993  32.274  42.007  1.00  0.00     0.142 A 
ATOM      7  C   UNL     1      11.785  31.897  40.918  1.00  0.00     0.098 A 
ATOM      8  C   UNL     1      13.133  32.271  40.861  1.00  0.00     0.161 A 
ATOM      9  C   UNL     1      13.697  33.028  41.905  1.00  0.00     0.158 A 
ATOM     10  C   UNL     1      12.905  33.408  43.000  1.00  0.00     0.062 A 
ATOM     11  C   UNL     1      11.556  33.033  43.054  1.00  0.00     0.022 A 
ENDROOT
BRANCH   9  12
ATOM     12  O   UNL     1      15.038  33.400  41.850  1.00  0.00    -0.504 OA
ATOM     13  H   UNL     1      15.772  32.798  42.208  1.00  0.00     0.293 HD
ENDBRANCH   9  12
BRANCH   8  14
ATOM     14  O   UNL     1      13.897  31.880  39.761  1.00  0.00    -0.504 OA
ATOM     15  H   UNL     1      13.976  32.453  38.931  1.00  0.00     0.293 HD
ENDBRANCH   8  14
TORSDOF 2
ENDMDL
MODEL 3
REMARK VINA RESULT:    -3.954      1.403      4.985
REMARK INTER + INTRA:          -4.185
REMARK INTER:                  -4.185
REMARK INTRA:                   0.000
REMARK UNBOUND:                 0.000
REMARK SMILES O=c1ccc2cc(O)c(O)cc2o1
REMARK SMILES IDX 4 1 3 2 2 3 1 4 13 5 12 6 11 7 9 8 7 9 6 10 5 11 8 12 10 14
REMARK H PARENT 8 13 10 15
REMARK Flexibility Score: inf
ROOT
ATOM      1  C   UNL     1       4.922  43.129  40.936  1.00  0.00     0.019 A 
ATOM      2  C   UNL     1       4.875  44.519  41.039  1.00  0.00     0.094 A 
ATOM      3  C   UNL     1       5.056  45.291  39.887  1.00  0.00     0.336 A 
ATOM      4  O   UNL     1       5.018  46.547  39.959  1.00  0.00    -0.246 OA
ATOM      5  O   UNL     1       5.270  44.705  38.711  1.00  0.00    -0.423 OA
ATOM      6  C   UNL     1       5.322  43.384  38.568  1.00  0.00     0.142 A 
ATOM      7  C   UNL     1       5.549  42.825  37.306  1.00  0.00     0.098 A 
ATOM      8  C   UNL     1       5.606  41.435  37.148  1.00  0.00     0.161 A 
ATOM      9  C   UNL     1       5.433  40.593  38.262  1.00  0.00     0.158 A 
ATOM     10  C   UNL     1       5.204  41.150  39.530  1.00  0.00     0.062 A 
ATOM     11  C   UNL     1       5.148  42.541  39.686  1.00  0.00     0.022 A 
ENDROOT
BRANCH   9  12
ATOM     12  O   UNL     1       5.489  39.210  38.105  1.00  0.00    -0.504 OA
ATOM     13  H   UNL     1       4.650  38.656  37.969  1.00  0.00     0.293 HD
ENDBRANCH   9  12
BRANCH   8  14
ATOM     14  O   UNL     1       5.834  40.909  35.877  1.00  0.00    -0.504 OA
ATOM     15  H   UNL     1       5.177  41.032  35.117  1.00  0.00     0.293 HD
ENDBRANCH   8  14
TORSDOF 2
ENDMDL
MODEL 4
REMARK VINA RESULT:    -3.521     18.011     18.896
REMARK INTER + INTRA:          -3.727
REMARK INTER:                  -3.727
REMARK INTRA:                   0.000
REMARK UNBOUND:                 0.000
REMARK SMILES O=c1ccc2cc(O)c(O)cc2o1
REMARK SMILES IDX 4 1 3 2 2 3 1 4 13 5 12 6 11 7 9 8 7 9 6 10 5 11 8 12 10 14
REMARK H PARENT 8 13 10 15
REMARK Flexibility Score: inf
ROOT
ATOM      1  C   UNL     1      23.239  34.859  42.436  1.00  0.00     0.019 A 
ATOM      2  C   UNL     1      23.956  35.939  42.948  1.00  0.00     0.094 A 
ATOM      3  C   UNL     1      23.922  37.160  42.266  1.00  0.00     0.336 A 
ATOM      4  O   UNL     1      24.563  38.147  42.711  1.00  0.00    -0.246 OA
ATOM      5  O   UNL     1      23.215  37.285  41.145  1.00  0.00    -0.423 OA
ATOM      6  C   UNL     1      22.517  36.280  40.622  1.00  0.00     0.142 A 
ATOM      7  C   UNL     1      21.793  36.471  39.441  1.00  0.00     0.098 A 
ATOM      8  C   UNL     1      21.057  35.418  38.885  1.00  0.00     0.161 A 
ATOM      9  C   UNL     1      21.043  34.160  39.515  1.00  0.00     0.158 A 
ATOM     10  C   UNL     1      21.769  33.964  40.701  1.00  0.00     0.062 A 
ATOM     11  C   UNL     1      22.505  35.019  41.256  1.00  0.00     0.022 A 
ENDROOT
BRANCH   9  12
ATOM     12  O   UNL     1      20.311  33.112  38.962  1.00  0.00    -0.504 OA
ATOM     13  H   UNL     1      20.461  32.804  38.008  1.00  0.00     0.293 HD
ENDBRANCH   9  12
BRANCH   8  14
ATOM     14  O   UNL     1      20.345  35.640  37.706  1.00  0.00    -0.504 OA
ATOM     15  H   UNL     1      19.359  35.425  37.624  1.00  0.00     0.293 HD
ENDBRANCH   8  14
TORSDOF 2
ENDMDL
MODEL 5
REMARK VINA RESULT:    -3.491     18.041     18.815
REMARK INTER + INTRA:          -3.695
REMARK INTER:                  -3.695
REMARK INTRA:                   0.000
REMARK UNBOUND:                 0.000
REMARK SMILES O=c1ccc2cc(O)c(O)cc2o1
REMARK SMILES IDX 4 1 3 2 2 3 1 4 13 5 12 6 11 7 9 8 7 9 6 10 5 11 8 12 10 14
REMARK H PARENT 8 13 10 15
REMARK Flexibility Score: inf
ROOT
ATOM      1  C   UNL     1      23.201  37.063  41.497  1.00  0.00     0.019 A 
ATOM      2  C   UNL     1      23.856  36.648  42.656  1.00  0.00     0.094 A 
ATOM      3  C   UNL     1      23.744  35.313  43.057  1.00  0.00     0.336 A 
ATOM      4  O   UNL     1      24.327  34.918  44.100  1.00  0.00    -0.246 OA
ATOM      5  O   UNL     1      23.023  34.453  42.340  1.00  0.00    -0.423 OA
ATOM      6  C   UNL     1      22.383  34.807  41.229  1.00  0.00     0.142 A 
ATOM      7  C   UNL     1      21.640  33.860  40.517  1.00  0.00     0.098 A 
ATOM      8  C   UNL     1      20.964  34.225  39.348  1.00  0.00     0.161 A 
ATOM      9  C   UNL     1      21.030  35.552  38.882  1.00  0.00     0.158 A 
ATOM     10  C   UNL     1      21.775  36.506  39.593  1.00  0.00     0.062 A 
ATOM     11  C   UNL     1      22.451  36.138  40.764  1.00  0.00     0.022 A 
ENDROOT
BRANCH   9  12
ATOM     12  O   UNL     1      20.357  35.916  37.718  1.00  0.00    -0.504 OA
ATOM     13  H   UNL     1      19.393  35.647  37.555  1.00  0.00     0.293 HD
ENDBRANCH   9  12
BRANCH   8  14
ATOM     14  O   UNL     1      20.231  33.257  38.660  1.00  0.00    -0.504 OA
ATOM     15  H   UNL     1      19.224  33.309  38.569  1.00  0.00     0.293 HD
ENDBRANCH   8  14
TORSDOF 2
ENDMDL
MODEL 6
REMARK VINA RESULT:    -3.426     17.832     18.248
REMARK INTER + INTRA:          -3.626
REMARK INTER:                  -3.626
REMARK INTRA:                   0.000
REMARK UNBOUND:                 0.000
REMARK SMILES O=c1ccc2cc(O)c(O)cc2o1
REMARK SMILES IDX 4 1 3 2 2 3 1 4 13 5 12 6 11 7 9 8 7 9 6 10 5 11 8 12 10 14
REMARK H PARENT 8 13 10 15
REMARK Flexibility Score: inf
ROOT
ATOM      1  C   UNL     1      21.318  35.601  38.526  1.00  0.00     0.019 A 
ATOM      2  C   UNL     1      20.841  34.400  38.005  1.00  0.00     0.094 A 
ATOM      3  C   UNL     1      20.918  33.243  38.788  1.00  0.00     0.336 A 
ATOM      4  O   UNL     1      20.493  32.148  38.336  1.00  0.00    -0.246 OA
ATOM      5  O   UNL     1      21.439  33.292  40.012  1.00  0.00    -0.423 OA
ATOM      6  C   UNL     1      21.905  34.417  40.547  1.00  0.00     0.142 A 
ATOM      7  C   UNL     1      22.441  34.408  41.839  1.00  0.00     0.098 A 
ATOM      8  C   UNL     1      22.934  35.588  42.408  1.00  0.00     0.161 A 
ATOM      9  C   UNL     1      22.890  36.792  41.680  1.00  0.00     0.158 A 
ATOM     10  C   UNL     1      22.353  36.806  40.384  1.00  0.00     0.062 A 
ATOM     11  C   UNL     1      21.860  35.624  39.816  1.00  0.00     0.022 A 
ENDROOT
BRANCH   9  12
ATOM     12  O   UNL     1      23.380  37.967  42.246  1.00  0.00    -0.504 OA
ATOM     13  H   UNL     1      23.081  38.280  43.164  1.00  0.00     0.293 HD
ENDBRANCH   9  12
BRANCH   8  14
ATOM     14  O   UNL     1      23.463  35.546  43.698  1.00  0.00    -0.504 OA
ATOM     15  H   UNL     1      23.929  36.343  44.115  1.00  0.00     0.293 HD
ENDBRANCH   8  14
TORSDOF 2
ENDMDL
