MODEL 1
REMARK VINA RESULT:    -3.616      0.000      0.000
REMARK INTER + INTRA:          -9.161
REMARK INTER:                  -6.998
REMARK INTRA:                  -2.163
REMARK UNBOUND:                -2.163
REMARK SMILES CCCCCCCCCCCCCCCCCC(=O)[O-]
REMARK SMILES IDX 10 1 11 2 12 3 13 4 14 5 15 6 16 7 17 8 18 9 19 10 20 11
REMARK SMILES IDX 9 12 8 13 7 14 6 15 5 16 4 17 3 18 2 19 1 20
REMARK H PARENT
REMARK Flexibility Score: inf
ROOT
ATOM      1  C   UNL     1     -95.726 149.668 235.830  1.00  0.00     0.000 C 
ENDROOT
BRANCH   1   2
ATOM      2  C   UNL     1     -94.942 148.340 235.764  1.00  0.00     0.000 C 
BRANCH   2   3
ATOM      3  C   UNL     1     -94.219 147.987 237.074  1.00  0.00     0.000 C 
BRANCH   3   4
ATOM      4  C   UNL     1     -94.211 149.146 238.084  1.00  0.00     0.000 C 
BRANCH   4   5
ATOM      5  C   UNL     1     -94.892 148.777 239.412  1.00  0.00     0.000 C 
BRANCH   5   6
ATOM      6  C   UNL     1     -95.723 149.933 239.990  1.00  0.00     0.000 C 
BRANCH   6   7
ATOM      7  C   UNL     1     -97.203 149.538 240.107  1.00  0.00     0.006 C 
BRANCH   7   8
ATOM      8  C   UNL     1     -98.013 150.558 240.919  1.00  0.00     0.053 C 
BRANCH   8   9
ATOM      9  C   UNL     1     -98.277 150.076 242.312  1.00  0.00     0.041 C 
ATOM     10  O   UNL     1     -97.981 148.897 242.640  1.00  0.00    -0.550 OA
ATOM     11  O   UNL     1     -98.820 150.938 243.257  1.00  0.00    -0.550 OA
ENDBRANCH   8   9
ENDBRANCH   7   8
ENDBRANCH   6   7
ENDBRANCH   5   6
ENDBRANCH   4   5
ENDBRANCH   3   4
ENDBRANCH   2   3
ENDBRANCH   1   2
BRANCH   1  12
ATOM     12  C   UNL     1     -97.189 149.504 235.388  1.00  0.00     0.000 C 
BRANCH  12  13
ATOM     13  C   UNL     1     -98.108 149.290 236.598  1.00  0.00    -0.000 C 
BRANCH  13  14
ATOM     14  C   UNL     1     -98.893 150.557 236.984  1.00  0.00    -0.000 C 
BRANCH  14  15
ATOM     15  C   UNL     1     -99.508 151.328 235.800  1.00  0.00    -0.000 C 
BRANCH  15  16
ATOM     16  C   UNL     1     -99.601 152.856 235.990  1.00  0.00    -0.000 C 
BRANCH  16  17
ATOM     17  C   UNL     1     -98.721 153.683 235.037  1.00  0.00    -0.000 C 
BRANCH  17  18
ATOM     18  C   UNL     1     -98.047 152.829 233.953  1.00  0.00    -0.000 C 
BRANCH  18  19
ATOM     19  C   UNL     1     -96.520 152.905 234.065  1.00  0.00    -0.003 C 
ATOM     20  C   UNL     1     -95.846 152.096 232.960  1.00  0.00     0.004 C 
ENDBRANCH  18  19
ENDBRANCH  17  18
ENDBRANCH  16  17
ENDBRANCH  15  16
ENDBRANCH  14  15
ENDBRANCH  13  14
ENDBRANCH  12  13
ENDBRANCH   1  12
TORSDOF 16
ENDMDL
MODEL 2
REMARK VINA RESULT:    -3.608      2.275      4.831
REMARK INTER + INTRA:          -9.146
REMARK INTER:                  -6.587
REMARK INTRA:                  -2.558
REMARK UNBOUND:                -2.163
REMARK SMILES CCCCCCCCCCCCCCCCCC(=O)[O-]
REMARK SMILES IDX 10 1 11 2 12 3 13 4 14 5 15 6 16 7 17 8 18 9 19 10 20 11
REMARK SMILES IDX 9 12 8 13 7 14 6 15 5 16 4 17 3 18 2 19 1 20
REMARK H PARENT
REMARK Flexibility Score: inf
ROOT
ATOM      1  C   UNL     1     -96.698 148.847 240.694  1.00  0.00     0.000 C 
ENDROOT
BRANCH   1   2
ATOM      2  C   UNL     1     -96.728 150.359 240.379  1.00  0.00     0.000 C 
BRANCH   2   3
ATOM      3  C   UNL     1     -98.145 150.914 240.162  1.00  0.00     0.000 C 
BRANCH   3   4
ATOM      4  C   UNL     1     -99.235 149.840 240.302  1.00  0.00     0.000 C 
BRANCH   4   5
ATOM      5  C   UNL     1    -100.201 150.126 241.462  1.00  0.00     0.000 C 
BRANCH   5   6
ATOM      6  C   UNL     1    -100.105 149.079 242.582  1.00  0.00     0.000 C 
BRANCH   6   7
ATOM      7  C   UNL     1     -99.095 149.514 243.654  1.00  0.00     0.006 C 
BRANCH   7   8
ATOM      8  C   UNL     1     -98.803 151.020 243.601  1.00  0.00     0.053 C 
BRANCH   8   9
ATOM      9  C   UNL     1     -99.286 151.724 244.832  1.00  0.00     0.041 C 
ATOM     10  O   UNL     1    -100.520 151.891 245.022  1.00  0.00    -0.550 OA
ATOM     11  O   UNL     1     -98.376 152.165 245.785  1.00  0.00    -0.550 OA
ENDBRANCH   8   9
ENDBRANCH   7   8
ENDBRANCH   6   7
ENDBRANCH   5   6
ENDBRANCH   4   5
ENDBRANCH   3   4
ENDBRANCH   2   3
ENDBRANCH   1   2
BRANCH   1  12
ATOM     12  C   UNL     1     -95.408 148.175 240.198  1.00  0.00     0.000 C 
BRANCH  12  13
ATOM     13  C   UNL     1     -94.507 149.184 239.472  1.00  0.00    -0.000 C 
BRANCH  13  14
ATOM     14  C   UNL     1     -94.225 148.790 238.011  1.00  0.00    -0.000 C 
BRANCH  14  15
ATOM     15  C   UNL     1     -95.213 149.367 236.978  1.00  0.00    -0.000 C 
BRANCH  15  16
ATOM     16  C   UNL     1     -96.364 148.422 236.573  1.00  0.00    -0.000 C 
BRANCH  16  17
ATOM     17  C   UNL     1     -97.766 148.887 237.004  1.00  0.00    -0.000 C 
BRANCH  17  18
ATOM     18  C   UNL     1     -98.122 150.284 236.474  1.00  0.00    -0.000 C 
BRANCH  18  19
ATOM     19  C   UNL     1     -99.608 150.589 236.686  1.00  0.00    -0.003 C 
ATOM     20  C   UNL     1     -99.821 152.051 237.070  1.00  0.00     0.004 C 
ENDBRANCH  18  19
ENDBRANCH  17  18
ENDBRANCH  16  17
ENDBRANCH  15  16
ENDBRANCH  14  15
ENDBRANCH  13  14
ENDBRANCH  12  13
ENDBRANCH   1  12
TORSDOF 16
ENDMDL
MODEL 3
REMARK VINA RESULT:    -3.556      3.173      5.880
REMARK INTER + INTRA:          -9.045
REMARK INTER:                  -6.439
REMARK INTRA:                  -2.606
REMARK UNBOUND:                -2.163
REMARK SMILES CCCCCCCCCCCCCCCCCC(=O)[O-]
REMARK SMILES IDX 10 1 11 2 12 3 13 4 14 5 15 6 16 7 17 8 18 9 19 10 20 11
REMARK SMILES IDX 9 12 8 13 7 14 6 15 5 16 4 17 3 18 2 19 1 20
REMARK H PARENT
REMARK Flexibility Score: inf
ROOT
ATOM      1  C   UNL     1     -94.808 148.835 238.867  1.00  0.00     0.000 C 
ENDROOT
BRANCH   1   2
ATOM      2  C   UNL     1     -95.009 149.455 237.467  1.00  0.00     0.000 C 
BRANCH   2   3
ATOM      3  C   UNL     1     -94.882 148.439 236.320  1.00  0.00     0.000 C 
BRANCH   3   4
ATOM      4  C   UNL     1     -95.388 148.988 234.977  1.00  0.00     0.000 C 
BRANCH   4   5
ATOM      5  C   UNL     1     -95.824 150.459 235.066  1.00  0.00     0.000 C 
BRANCH   5   6
ATOM      6  C   UNL     1     -96.151 151.062 233.692  1.00  0.00     0.000 C 
BRANCH   6   7
ATOM      7  C   UNL     1     -96.482 152.557 233.814  1.00  0.00     0.006 C 
BRANCH   7   8
ATOM      8  C   UNL     1     -97.971 152.801 234.094  1.00  0.00     0.053 C 
BRANCH   8   9
ATOM      9  C   UNL     1     -98.219 154.181 234.622  1.00  0.00     0.041 C 
ATOM     10  O   UNL     1     -97.262 154.992 234.746  1.00  0.00    -0.550 OA
ATOM     11  O   UNL     1     -99.509 154.584 234.945  1.00  0.00    -0.550 OA
ENDBRANCH   8   9
ENDBRANCH   7   8
ENDBRANCH   6   7
ENDBRANCH   5   6
ENDBRANCH   4   5
ENDBRANCH   3   4
ENDBRANCH   2   3
ENDBRANCH   1   2
BRANCH   1  12
ATOM     12  C   UNL     1     -95.374 149.725 239.985  1.00  0.00     0.000 C 
BRANCH  12  13
ATOM     13  C   UNL     1     -96.516 149.016 240.726  1.00  0.00    -0.000 C 
BRANCH  13  14
ATOM     14  C   UNL     1     -97.673 149.965 241.089  1.00  0.00    -0.000 C 
BRANCH  14  15
ATOM     15  C   UNL     1     -98.044 150.987 239.996  1.00  0.00    -0.000 C 
BRANCH  15  16
ATOM     16  C   UNL     1     -99.102 150.508 238.982  1.00  0.00    -0.000 C 
BRANCH  16  17
ATOM     17  C   UNL     1     -98.593 150.351 237.538  1.00  0.00    -0.000 C 
BRANCH  17  18
ATOM     18  C   UNL     1     -98.971 149.000 236.915  1.00  0.00    -0.000 C 
BRANCH  18  19
ATOM     19  C   UNL     1     -99.069 147.909 237.987  1.00  0.00    -0.003 C 
ATOM     20  C   UNL     1     -97.862 146.977 237.935  1.00  0.00     0.004 C 
ENDBRANCH  18  19
ENDBRANCH  17  18
ENDBRANCH  16  17
ENDBRANCH  15  16
ENDBRANCH  14  15
ENDBRANCH  13  14
ENDBRANCH  12  13
ENDBRANCH   1  12
TORSDOF 16
ENDMDL
MODEL 4
REMARK VINA RESULT:    -3.527      3.347      6.055
REMARK INTER + INTRA:          -8.989
REMARK INTER:                  -6.344
REMARK INTRA:                  -2.645
REMARK UNBOUND:                -2.163
REMARK SMILES CCCCCCCCCCCCCCCCCC(=O)[O-]
REMARK SMILES IDX 10 1 11 2 12 3 13 4 14 5 15 6 16 7 17 8 18 9 19 10 20 11
REMARK SMILES IDX 9 12 8 13 7 14 6 15 5 16 4 17 3 18 2 19 1 20
REMARK H PARENT
REMARK Flexibility Score: inf
ROOT
ATOM      1  C   UNL     1     -94.245 149.160 238.244  1.00  0.00     0.000 C 
ENDROOT
BRANCH   1   2
ATOM      2  C   UNL     1     -93.705 147.793 237.771  1.00  0.00     0.000 C 
BRANCH   2   3
ATOM      3  C   UNL     1     -94.217 147.376 236.382  1.00  0.00     0.000 C 
BRANCH   3   4
ATOM      4  C   UNL     1     -95.511 148.101 235.981  1.00  0.00     0.000 C 
BRANCH   4   5
ATOM      5  C   UNL     1     -95.327 149.002 234.749  1.00  0.00     0.000 C 
BRANCH   5   6
ATOM      6  C   UNL     1     -95.863 150.424 234.972  1.00  0.00     0.000 C 
BRANCH   6   7
ATOM      7  C   UNL     1     -97.185 150.635 234.219  1.00  0.00     0.006 C 
BRANCH   7   8
ATOM      8  C   UNL     1     -98.114 151.621 234.940  1.00  0.00     0.053 C 
BRANCH   8   9
ATOM      9  C   UNL     1     -98.086 152.978 234.304  1.00  0.00     0.041 C 
ATOM     10  O   UNL     1     -99.108 153.421 233.716  1.00  0.00    -0.550 OA
ATOM     11  O   UNL     1     -96.945 153.764 234.389  1.00  0.00    -0.550 OA
ENDBRANCH   8   9
ENDBRANCH   7   8
ENDBRANCH   6   7
ENDBRANCH   5   6
ENDBRANCH   4   5
ENDBRANCH   3   4
ENDBRANCH   2   3
ENDBRANCH   1   2
BRANCH   1  12
ATOM     12  C   UNL     1     -94.738 149.120 239.698  1.00  0.00     0.000 C 
BRANCH  12  13
ATOM     13  C   UNL     1     -95.126 147.692 240.107  1.00  0.00    -0.000 C 
BRANCH  13  14
ATOM     14  C   UNL     1     -96.648 147.498 240.233  1.00  0.00    -0.000 C 
BRANCH  14  15
ATOM     15  C   UNL     1     -97.364 147.102 238.926  1.00  0.00    -0.000 C 
BRANCH  15  16
ATOM     16  C   UNL     1     -98.454 148.085 238.452  1.00  0.00    -0.000 C 
BRANCH  16  17
ATOM     17  C   UNL     1     -97.982 149.539 238.272  1.00  0.00    -0.000 C 
BRANCH  17  18
ATOM     18  C   UNL     1     -98.742 150.528 239.166  1.00  0.00    -0.000 C 
BRANCH  18  19
ATOM     19  C   UNL     1     -97.873 150.985 240.343  1.00  0.00    -0.003 C 
ATOM     20  C   UNL     1     -98.340 150.352 241.651  1.00  0.00     0.004 C 
ENDBRANCH  18  19
ENDBRANCH  17  18
ENDBRANCH  16  17
ENDBRANCH  15  16
ENDBRANCH  14  15
ENDBRANCH  13  14
ENDBRANCH  12  13
ENDBRANCH   1  12
TORSDOF 16
ENDMDL
MODEL 5
REMARK VINA RESULT:    -3.525      3.619      6.832
REMARK INTER + INTRA:          -8.985
REMARK INTER:                  -7.152
REMARK INTRA:                  -1.834
REMARK UNBOUND:                -2.163
REMARK SMILES CCCCCCCCCCCCCCCCCC(=O)[O-]
REMARK SMILES IDX 10 1 11 2 12 3 13 4 14 5 15 6 16 7 17 8 18 9 19 10 20 11
REMARK SMILES IDX 9 12 8 13 7 14 6 15 5 16 4 17 3 18 2 19 1 20
REMARK H PARENT
REMARK Flexibility Score: inf
ROOT
ATOM      1  C   UNL     1     -97.072 149.916 235.756  1.00  0.00     0.000 C 
ENDROOT
BRANCH   1   2
ATOM      2  C   UNL     1     -97.047 149.372 234.310  1.00  0.00     0.000 C 
BRANCH   2   3
ATOM      3  C   UNL     1     -95.938 149.988 233.441  1.00  0.00     0.000 C 
BRANCH   3   4
ATOM      4  C   UNL     1     -95.678 151.468 233.763  1.00  0.00     0.000 C 
BRANCH   4   5
ATOM      5  C   UNL     1     -96.124 152.407 232.631  1.00  0.00     0.000 C 
BRANCH   5   6
ATOM      6  C   UNL     1     -97.486 153.060 232.909  1.00  0.00     0.000 C 
BRANCH   6   7
ATOM      7  C   UNL     1     -97.655 153.360 234.406  1.00  0.00     0.006 C 
BRANCH   7   8
ATOM      8  C   UNL     1     -97.484 154.852 234.723  1.00  0.00     0.053 C 
BRANCH   8   9
ATOM      9  C   UNL     1     -98.600 155.673 234.152  1.00  0.00     0.041 C 
ATOM     10  O   UNL     1     -99.781 155.503 234.555  1.00  0.00    -0.550 OA
ATOM     11  O   UNL     1     -98.331 156.647 233.199  1.00  0.00    -0.550 OA
ENDBRANCH   8   9
ENDBRANCH   7   8
ENDBRANCH   6   7
ENDBRANCH   5   6
ENDBRANCH   4   5
ENDBRANCH   3   4
ENDBRANCH   2   3
ENDBRANCH   1   2
BRANCH   1  12
ATOM     12  C   UNL     1     -96.407 148.952 236.752  1.00  0.00     0.000 C 
BRANCH  12  13
ATOM     13  C   UNL     1     -95.085 149.529 237.276  1.00  0.00    -0.000 C 
BRANCH  13  14
ATOM     14  C   UNL     1     -94.653 148.911 238.618  1.00  0.00    -0.000 C 
BRANCH  14  15
ATOM     15  C   UNL     1     -95.230 149.603 239.869  1.00  0.00    -0.000 C 
BRANCH  15  16
ATOM     16  C   UNL     1     -96.372 148.840 240.572  1.00  0.00    -0.000 C 
BRANCH  16  17
ATOM     17  C   UNL     1     -97.471 149.731 241.177  1.00  0.00    -0.000 C 
BRANCH  17  18
ATOM     18  C   UNL     1     -97.893 150.875 240.245  1.00  0.00    -0.000 C 
BRANCH  18  19
ATOM     19  C   UNL     1     -99.277 150.608 239.641  1.00  0.00    -0.003 C 
ATOM     20  C   UNL     1     -99.434 151.307 238.294  1.00  0.00     0.004 C 
ENDBRANCH  18  19
ENDBRANCH  17  18
ENDBRANCH  16  17
ENDBRANCH  15  16
ENDBRANCH  14  15
ENDBRANCH  13  14
ENDBRANCH  12  13
ENDBRANCH   1  12
TORSDOF 16
ENDMDL
MODEL 6
REMARK VINA RESULT:    -3.525      2.222      6.212
REMARK INTER + INTRA:          -8.985
REMARK INTER:                  -6.758
REMARK INTRA:                  -2.227
REMARK UNBOUND:                -2.163
REMARK SMILES CCCCCCCCCCCCCCCCCC(=O)[O-]
REMARK SMILES IDX 10 1 11 2 12 3 13 4 14 5 15 6 16 7 17 8 18 9 19 10 20 11
REMARK SMILES IDX 9 12 8 13 7 14 6 15 5 16 4 17 3 18 2 19 1 20
REMARK H PARENT
REMARK Flexibility Score: inf
ROOT
ATOM      1  C   UNL     1     -97.597 149.309 235.208  1.00  0.00     0.000 C 
ENDROOT
BRANCH   1   2
ATOM      2  C   UNL     1     -96.590 149.334 234.037  1.00  0.00     0.000 C 
BRANCH   2   3
ATOM      3  C   UNL     1     -96.777 150.532 233.091  1.00  0.00     0.000 C 
BRANCH   3   4
ATOM      4  C   UNL     1     -95.739 151.642 233.320  1.00  0.00     0.000 C 
BRANCH   4   5
ATOM      5  C   UNL     1     -96.277 152.782 234.200  1.00  0.00     0.000 C 
BRANCH   5   6
ATOM      6  C   UNL     1     -97.566 153.401 233.640  1.00  0.00     0.000 C 
BRANCH   6   7
ATOM      7  C   UNL     1     -98.546 153.746 234.772  1.00  0.00     0.006 C 
BRANCH   7   8
ATOM      8  C   UNL     1     -99.298 152.511 235.287  1.00  0.00     0.053 C 
BRANCH   8   9
ATOM      9  C   UNL     1     -99.868 152.737 236.654  1.00  0.00     0.041 C 
ATOM     10  O   UNL     1    -100.782 153.587 236.825  1.00  0.00    -0.550 OA
ATOM     11  O   UNL     1     -99.415 151.986 237.731  1.00  0.00    -0.550 OA
ENDBRANCH   8   9
ENDBRANCH   7   8
ENDBRANCH   6   7
ENDBRANCH   5   6
ENDBRANCH   4   5
ENDBRANCH   3   4
ENDBRANCH   2   3
ENDBRANCH   1   2
BRANCH   1  12
ATOM     12  C   UNL     1     -96.929 149.618 236.557  1.00  0.00     0.000 C 
BRANCH  12  13
ATOM     13  C   UNL     1     -95.399 149.574 236.435  1.00  0.00    -0.000 C 
BRANCH  13  14
ATOM     14  C   UNL     1     -94.769 148.417 237.232  1.00  0.00    -0.000 C 
BRANCH  14  15
ATOM     15  C   UNL     1     -93.875 148.850 238.411  1.00  0.00    -0.000 C 
BRANCH  15  16
ATOM     16  C   UNL     1     -94.631 149.263 239.690  1.00  0.00    -0.000 C 
BRANCH  16  17
ATOM     17  C   UNL     1     -95.503 148.159 240.314  1.00  0.00    -0.000 C 
BRANCH  17  18
ATOM     18  C   UNL     1     -96.935 148.625 240.613  1.00  0.00    -0.000 C 
BRANCH  18  19
ATOM     19  C   UNL     1     -97.109 150.111 240.278  1.00  0.00    -0.003 C 
ATOM     20  C   UNL     1     -98.336 150.692 240.975  1.00  0.00     0.004 C 
ENDBRANCH  18  19
ENDBRANCH  17  18
ENDBRANCH  16  17
ENDBRANCH  15  16
ENDBRANCH  14  15
ENDBRANCH  13  14
ENDBRANCH  12  13
ENDBRANCH   1  12
TORSDOF 16
ENDMDL
MODEL 7
REMARK VINA RESULT:    -3.524      3.277      6.005
REMARK INTER + INTRA:          -8.983
REMARK INTER:                  -6.919
REMARK INTRA:                  -2.064
REMARK UNBOUND:                -2.163
REMARK SMILES CCCCCCCCCCCCCCCCCC(=O)[O-]
REMARK SMILES IDX 10 1 11 2 12 3 13 4 14 5 15 6 16 7 17 8 18 9 19 10 20 11
REMARK SMILES IDX 9 12 8 13 7 14 6 15 5 16 4 17 3 18 2 19 1 20
REMARK H PARENT
REMARK Flexibility Score: inf
ROOT
ATOM      1  C   UNL     1     -95.074 149.493 237.389  1.00  0.00     0.000 C 
ENDROOT
BRANCH   1   2
ATOM      2  C   UNL     1     -95.168 148.780 236.023  1.00  0.00     0.000 C 
BRANCH   2   3
ATOM      3  C   UNL     1     -96.207 149.401 235.075  1.00  0.00     0.000 C 
BRANCH   3   4
ATOM      4  C   UNL     1     -95.639 149.699 233.678  1.00  0.00     0.000 C 
BRANCH   4   5
ATOM      5  C   UNL     1     -95.340 151.192 233.468  1.00  0.00     0.000 C 
BRANCH   5   6
ATOM      6  C   UNL     1     -96.115 152.092 234.442  1.00  0.00     0.000 C 
BRANCH   6   7
ATOM      7  C   UNL     1     -96.920 153.157 233.682  1.00  0.00     0.006 C 
BRANCH   7   8
ATOM      8  C   UNL     1     -97.383 154.298 234.598  1.00  0.00     0.053 C 
BRANCH   8   9
ATOM      9  C   UNL     1     -98.841 154.595 234.422  1.00  0.00     0.041 C 
ATOM     10  O   UNL     1     -99.645 153.670 234.131  1.00  0.00    -0.550 OA
ATOM     11  O   UNL     1     -99.317 155.886 234.611  1.00  0.00    -0.550 OA
ENDBRANCH   8   9
ENDBRANCH   7   8
ENDBRANCH   6   7
ENDBRANCH   5   6
ENDBRANCH   4   5
ENDBRANCH   3   4
ENDBRANCH   2   3
ENDBRANCH   1   2
BRANCH   1  12
ATOM     12  C   UNL     1     -94.384 148.626 238.453  1.00  0.00     0.000 C 
BRANCH  12  13
ATOM     13  C   UNL     1     -95.061 148.791 239.821  1.00  0.00    -0.000 C 
BRANCH  13  14
ATOM     14  C   UNL     1     -95.728 150.168 239.995  1.00  0.00    -0.000 C 
BRANCH  14  15
ATOM     15  C   UNL     1     -97.073 150.149 240.748  1.00  0.00    -0.000 C 
BRANCH  15  16
ATOM     16  C   UNL     1     -98.224 149.427 240.017  1.00  0.00    -0.000 C 
BRANCH  16  17
ATOM     17  C   UNL     1     -99.008 150.300 239.021  1.00  0.00    -0.000 C 
BRANCH  17  18
ATOM     18  C   UNL     1     -98.750 149.915 237.558  1.00  0.00    -0.000 C 
BRANCH  18  19
ATOM     19  C   UNL     1     -99.144 151.055 236.612  1.00  0.00    -0.003 C 
ATOM     20  C   UNL     1     -99.806 152.199 237.376  1.00  0.00     0.004 C 
ENDBRANCH  18  19
ENDBRANCH  17  18
ENDBRANCH  16  17
ENDBRANCH  15  16
ENDBRANCH  14  15
ENDBRANCH  13  14
ENDBRANCH  12  13
ENDBRANCH   1  12
TORSDOF 16
ENDMDL
MODEL 8
REMARK VINA RESULT:    -3.503      3.338      6.354
REMARK INTER + INTRA:          -8.943
REMARK INTER:                  -6.142
REMARK INTRA:                  -2.801
REMARK UNBOUND:                -2.163
REMARK SMILES CCCCCCCCCCCCCCCCCC(=O)[O-]
REMARK SMILES IDX 10 1 11 2 12 3 13 4 14 5 15 6 16 7 17 8 18 9 19 10 20 11
REMARK SMILES IDX 9 12 8 13 7 14 6 15 5 16 4 17 3 18 2 19 1 20
REMARK H PARENT
REMARK Flexibility Score: inf
ROOT
ATOM      1  C   UNL     1     -96.189 150.302 240.331  1.00  0.00     0.000 C 
ENDROOT
BRANCH   1   2
ATOM      2  C   UNL     1     -97.285 149.411 240.955  1.00  0.00     0.000 C 
BRANCH   2   3
ATOM      3  C   UNL     1     -98.691 149.682 240.395  1.00  0.00     0.000 C 
BRANCH   3   4
ATOM      4  C   UNL     1     -98.762 150.967 239.555  1.00  0.00     0.000 C 
BRANCH   4   5
ATOM      5  C   UNL     1     -99.895 150.934 238.518  1.00  0.00     0.000 C 
BRANCH   5   6
ATOM      6  C   UNL     1     -99.754 152.033 237.454  1.00  0.00     0.000 C 
BRANCH   6   7
ATOM      7  C   UNL     1     -99.658 151.425 236.046  1.00  0.00     0.006 C 
BRANCH   7   8
ATOM      8  C   UNL     1     -99.151 152.437 235.010  1.00  0.00     0.053 C 
BRANCH   8   9
ATOM      9  C   UNL     1    -100.075 153.609 234.879  1.00  0.00     0.041 C 
ATOM     10  O   UNL     1     -99.640 154.779 235.049  1.00  0.00    -0.550 OA
ATOM     11  O   UNL     1    -101.407 153.412 234.538  1.00  0.00    -0.550 OA
ENDBRANCH   8   9
ENDBRANCH   7   8
ENDBRANCH   6   7
ENDBRANCH   5   6
ENDBRANCH   4   5
ENDBRANCH   3   4
ENDBRANCH   2   3
ENDBRANCH   1   2
BRANCH   1  12
ATOM     12  C   UNL     1     -94.913 149.511 240.001  1.00  0.00     0.000 C 
BRANCH  12  13
ATOM     13  C   UNL     1     -95.155 148.001 240.127  1.00  0.00    -0.000 C 
BRANCH  13  14
ATOM     14  C   UNL     1     -94.464 147.190 239.016  1.00  0.00    -0.000 C 
BRANCH  14  15
ATOM     15  C   UNL     1     -93.787 148.035 237.919  1.00  0.00    -0.000 C 
BRANCH  15  16
ATOM     16  C   UNL     1     -94.590 148.174 236.609  1.00  0.00    -0.000 C 
BRANCH  16  17
ATOM     17  C   UNL     1     -95.368 149.493 236.463  1.00  0.00    -0.000 C 
BRANCH  17  18
ATOM     18  C   UNL     1     -96.853 149.354 236.829  1.00  0.00    -0.000 C 
BRANCH  18  19
ATOM     19  C   UNL     1     -97.350 147.928 236.570  1.00  0.00    -0.003 C 
ATOM     20  C   UNL     1     -98.099 147.378 237.782  1.00  0.00     0.004 C 
ENDBRANCH  18  19
ENDBRANCH  17  18
ENDBRANCH  16  17
ENDBRANCH  15  16
ENDBRANCH  14  15
ENDBRANCH  13  14
ENDBRANCH  12  13
ENDBRANCH   1  12
TORSDOF 16
ENDMDL
MODEL 9
REMARK VINA RESULT:    -3.498      2.635      5.203
REMARK INTER + INTRA:          -8.933
REMARK INTER:                  -6.220
REMARK INTRA:                  -2.713
REMARK UNBOUND:                -2.163
REMARK SMILES CCCCCCCCCCCCCCCCCC(=O)[O-]
REMARK SMILES IDX 10 1 11 2 12 3 13 4 14 5 15 6 16 7 17 8 18 9 19 10 20 11
REMARK SMILES IDX 9 12 8 13 7 14 6 15 5 16 4 17 3 18 2 19 1 20
REMARK H PARENT
REMARK Flexibility Score: inf
ROOT
ATOM      1  C   UNL     1     -96.709 150.265 240.425  1.00  0.00     0.000 C 
ENDROOT
BRANCH   1   2
ATOM      2  C   UNL     1     -98.098 150.793 240.005  1.00  0.00     0.000 C 
BRANCH   2   3
ATOM      3  C   UNL     1     -99.182 149.704 239.958  1.00  0.00     0.000 C 
BRANCH   3   4
ATOM      4  C   UNL     1    -100.572 150.226 240.357  1.00  0.00     0.000 C 
BRANCH   4   5
ATOM      5  C   UNL     1    -100.769 150.279 241.880  1.00  0.00     0.000 C 
BRANCH   5   6
ATOM      6  C   UNL     1    -100.139 149.076 242.599  1.00  0.00     0.000 C 
BRANCH   6   7
ATOM      7  C   UNL     1     -99.221 149.539 243.741  1.00  0.00     0.006 C 
BRANCH   7   8
ATOM      8  C   UNL     1     -98.811 151.011 243.597  1.00  0.00     0.053 C 
BRANCH   8   9
ATOM      9  C   UNL     1     -99.129 151.800 244.830  1.00  0.00     0.041 C 
ATOM     10  O   UNL     1     -98.219 152.073 245.658  1.00  0.00    -0.550 OA
ATOM     11  O   UNL     1    -100.421 152.260 245.050  1.00  0.00    -0.550 OA
ENDBRANCH   8   9
ENDBRANCH   7   8
ENDBRANCH   6   7
ENDBRANCH   5   6
ENDBRANCH   4   5
ENDBRANCH   3   4
ENDBRANCH   2   3
ENDBRANCH   1   2
BRANCH   1  12
ATOM     12  C   UNL     1     -96.676 148.732 240.528  1.00  0.00     0.000 C 
BRANCH  12  13
ATOM     13  C   UNL     1     -95.240 148.204 240.402  1.00  0.00    -0.000 C 
BRANCH  13  14
ATOM     14  C   UNL     1     -94.855 147.858 238.952  1.00  0.00    -0.000 C 
BRANCH  14  15
ATOM     15  C   UNL     1     -94.219 149.012 238.153  1.00  0.00    -0.000 C 
BRANCH  15  16
ATOM     16  C   UNL     1     -95.037 149.500 236.940  1.00  0.00    -0.000 C 
BRANCH  16  17
ATOM     17  C   UNL     1     -96.380 148.778 236.731  1.00  0.00    -0.000 C 
BRANCH  17  18
ATOM     18  C   UNL     1     -97.552 149.746 236.518  1.00  0.00    -0.000 C 
BRANCH  18  19
ATOM     19  C   UNL     1     -98.869 148.982 236.339  1.00  0.00    -0.003 C 
ATOM     20  C   UNL     1     -98.793 147.596 236.975  1.00  0.00     0.004 C 
ENDBRANCH  18  19
ENDBRANCH  17  18
ENDBRANCH  16  17
ENDBRANCH  15  16
ENDBRANCH  14  15
ENDBRANCH  13  14
ENDBRANCH  12  13
ENDBRANCH   1  12
TORSDOF 16
ENDMDL
