MODEL 1
REMARK VINA RESULT:    -4.164      0.000      0.000
REMARK INTER + INTRA:          -9.528
REMARK INTER:                  -8.058
REMARK INTRA:                  -1.470
REMARK UNBOUND:                -1.470
REMARK SMILES CCCCCCCCCCCCCCCCCC(=O)[O-]
REMARK SMILES IDX 10 1 11 2 12 3 13 4 14 5 15 6 16 7 17 8 18 9 19 10 20 11
REMARK SMILES IDX 9 12 8 13 7 14 6 15 5 16 4 17 3 18 2 19 1 20
REMARK H PARENT
REMARK Flexibility Score: inf
ROOT
ATOM      1  C   UNL     1       4.796 -36.372  21.740  1.00  0.00     0.000 C 
ENDROOT
BRANCH   1   2
ATOM      2  C   UNL     1       5.314 -35.583  22.954  1.00  0.00     0.000 C 
BRANCH   2   3
ATOM      3  C   UNL     1       6.124 -36.453  23.933  1.00  0.00     0.000 C 
BRANCH   3   4
ATOM      4  C   UNL     1       5.475 -36.665  25.313  1.00  0.00     0.000 C 
BRANCH   4   5
ATOM      5  C   UNL     1       4.581 -37.917  25.372  1.00  0.00     0.000 C 
BRANCH   5   6
ATOM      6  C   UNL     1       5.407 -39.220  25.390  1.00  0.00     0.000 C 
BRANCH   6   7
ATOM      7  C   UNL     1       4.950 -40.254  24.346  1.00  0.00     0.006 C 
BRANCH   7   8
ATOM      8  C   UNL     1       4.686 -39.637  22.969  1.00  0.00     0.053 C 
BRANCH   8   9
ATOM      9  C   UNL     1       5.422 -40.395  21.908  1.00  0.00     0.041 C 
ATOM     10  O   UNL     1       5.772 -41.588  22.108  1.00  0.00    -0.550 OA
ATOM     11  O   UNL     1       5.772 -39.766  20.720  1.00  0.00    -0.550 OA
ENDBRANCH   8   9
ENDBRANCH   7   8
ENDBRANCH   6   7
ENDBRANCH   5   6
ENDBRANCH   4   5
ENDBRANCH   3   4
ENDBRANCH   2   3
ENDBRANCH   1   2
BRANCH   1  12
ATOM     12  C   UNL     1       5.471 -35.955  20.419  1.00  0.00     0.000 C 
BRANCH  12  13
ATOM     13  C   UNL     1       4.638 -36.209  19.150  1.00  0.00    -0.000 C 
BRANCH  13  14
ATOM     14  C   UNL     1       3.555 -37.284  19.349  1.00  0.00    -0.000 C 
BRANCH  14  15
ATOM     15  C   UNL     1       3.211 -38.021  18.046  1.00  0.00    -0.000 C 
BRANCH  15  16
ATOM     16  C   UNL     1       1.741 -37.829  17.632  1.00  0.00    -0.000 C 
BRANCH  16  17
ATOM     17  C   UNL     1       1.588 -37.460  16.147  1.00  0.00    -0.000 C 
BRANCH  17  18
ATOM     18  C   UNL     1       2.847 -36.790  15.572  1.00  0.00    -0.000 C 
BRANCH  18  19
ATOM     19  C   UNL     1       3.341 -37.469  14.285  1.00  0.00    -0.003 C 
ATOM     20  C   UNL     1       3.761 -38.924  14.506  1.00  0.00     0.004 C 
ENDBRANCH  18  19
ENDBRANCH  17  18
ENDBRANCH  16  17
ENDBRANCH  15  16
ENDBRANCH  14  15
ENDBRANCH  13  14
ENDBRANCH  12  13
ENDBRANCH   1  12
TORSDOF 16
ENDMDL
MODEL 2
REMARK VINA RESULT:    -4.128      1.136      2.036
REMARK INTER + INTRA:          -9.460
REMARK INTER:                  -8.441
REMARK INTRA:                  -1.019
REMARK UNBOUND:                -1.470
REMARK SMILES CCCCCCCCCCCCCCCCCC(=O)[O-]
REMARK SMILES IDX 10 1 11 2 12 3 13 4 14 5 15 6 16 7 17 8 18 9 19 10 20 11
REMARK SMILES IDX 9 12 8 13 7 14 6 15 5 16 4 17 3 18 2 19 1 20
REMARK H PARENT
REMARK Flexibility Score: inf
ROOT
ATOM      1  C   UNL     1       5.286 -37.695  20.613  1.00  0.00     0.000 C 
ENDROOT
BRANCH   1   2
ATOM      2  C   UNL     1       5.764 -36.237  20.514  1.00  0.00     0.000 C 
BRANCH   2   3
ATOM      3  C   UNL     1       6.119 -35.628  21.883  1.00  0.00     0.000 C 
BRANCH   3   4
ATOM      4  C   UNL     1       5.097 -35.894  23.003  1.00  0.00     0.000 C 
BRANCH   4   5
ATOM      5  C   UNL     1       5.740 -35.967  24.400  1.00  0.00     0.000 C 
BRANCH   5   6
ATOM      6  C   UNL     1       5.757 -37.405  24.957  1.00  0.00     0.000 C 
BRANCH   6   7
ATOM      7  C   UNL     1       4.995 -38.415  24.082  1.00  0.00     0.006 C 
BRANCH   7   8
ATOM      8  C   UNL     1       5.078 -39.850  24.614  1.00  0.00     0.053 C 
BRANCH   8   9
ATOM      9  C   UNL     1       5.409 -40.799  23.505  1.00  0.00     0.041 C 
ATOM     10  O   UNL     1       5.240 -40.456  22.304  1.00  0.00    -0.550 OA
ATOM     11  O   UNL     1       5.850 -42.084  23.797  1.00  0.00    -0.550 OA
ENDBRANCH   8   9
ENDBRANCH   7   8
ENDBRANCH   6   7
ENDBRANCH   5   6
ENDBRANCH   4   5
ENDBRANCH   3   4
ENDBRANCH   2   3
ENDBRANCH   1   2
BRANCH   1  12
ATOM     12  C   UNL     1       4.337 -38.096  19.468  1.00  0.00     0.000 C 
BRANCH  12  13
ATOM     13  C   UNL     1       2.836 -37.971  19.789  1.00  0.00    -0.000 C 
BRANCH  13  14
ATOM     14  C   UNL     1       1.940 -38.165  18.554  1.00  0.00    -0.000 C 
BRANCH  14  15
ATOM     15  C   UNL     1       2.745 -38.240  17.247  1.00  0.00    -0.000 C 
BRANCH  15  16
ATOM     16  C   UNL     1       2.910 -36.864  16.578  1.00  0.00    -0.000 C 
BRANCH  16  17
ATOM     17  C   UNL     1       1.932 -36.653  15.410  1.00  0.00    -0.000 C 
BRANCH  17  18
ATOM     18  C   UNL     1       2.278 -37.518  14.186  1.00  0.00    -0.000 C 
BRANCH  18  19
ATOM     19  C   UNL     1       3.793 -37.686  13.992  1.00  0.00    -0.003 C 
ATOM     20  C   UNL     1       4.229 -39.152  13.965  1.00  0.00     0.004 C 
ENDBRANCH  18  19
ENDBRANCH  17  18
ENDBRANCH  16  17
ENDBRANCH  15  16
ENDBRANCH  14  15
ENDBRANCH  13  14
ENDBRANCH  12  13
ENDBRANCH   1  12
TORSDOF 16
ENDMDL
MODEL 3
REMARK VINA RESULT:    -4.045      2.456      7.173
REMARK INTER + INTRA:          -9.298
REMARK INTER:                  -8.190
REMARK INTRA:                  -1.108
REMARK UNBOUND:                -1.470
REMARK SMILES CCCCCCCCCCCCCCCCCC(=O)[O-]
REMARK SMILES IDX 10 1 11 2 12 3 13 4 14 5 15 6 16 7 17 8 18 9 19 10 20 11
REMARK SMILES IDX 9 12 8 13 7 14 6 15 5 16 4 17 3 18 2 19 1 20
REMARK H PARENT
REMARK Flexibility Score: inf
ROOT
ATOM      1  C   UNL     1       4.677 -35.976  21.647  1.00  0.00     0.000 C 
ENDROOT
BRANCH   1   2
ATOM      2  C   UNL     1       4.771 -36.256  20.137  1.00  0.00     0.000 C 
BRANCH   2   3
ATOM      3  C   UNL     1       4.976 -37.748  19.816  1.00  0.00     0.000 C 
BRANCH   3   4
ATOM      4  C   UNL     1       4.002 -38.334  18.777  1.00  0.00     0.000 C 
BRANCH   4   5
ATOM      5  C   UNL     1       2.549 -37.868  18.984  1.00  0.00     0.000 C 
BRANCH   5   6
ATOM      6  C   UNL     1       1.770 -37.786  17.655  1.00  0.00     0.000 C 
BRANCH   6   7
ATOM      7  C   UNL     1       2.515 -37.016  16.550  1.00  0.00     0.006 C 
BRANCH   7   8
ATOM      8  C   UNL     1       2.222 -37.554  15.145  1.00  0.00     0.053 C 
BRANCH   8   9
ATOM      9  C   UNL     1       3.477 -38.069  14.513  1.00  0.00     0.041 C 
ATOM     10  O   UNL     1       4.234 -37.288  13.877  1.00  0.00    -0.550 OA
ATOM     11  O   UNL     1       3.782 -39.423  14.574  1.00  0.00    -0.550 OA
ENDBRANCH   8   9
ENDBRANCH   7   8
ENDBRANCH   6   7
ENDBRANCH   5   6
ENDBRANCH   4   5
ENDBRANCH   3   4
ENDBRANCH   2   3
ENDBRANCH   1   2
BRANCH   1  12
ATOM     12  C   UNL     1       6.045 -35.679  22.290  1.00  0.00     0.000 C 
BRANCH  12  13
ATOM     13  C   UNL     1       5.985 -34.971  23.655  1.00  0.00    -0.000 C 
BRANCH  13  14
ATOM     14  C   UNL     1       5.818 -35.948  24.831  1.00  0.00    -0.000 C 
BRANCH  14  15
ATOM     15  C   UNL     1       5.814 -37.417  24.381  1.00  0.00    -0.000 C 
BRANCH  15  16
ATOM     16  C   UNL     1       4.879 -38.291  25.235  1.00  0.00    -0.000 C 
BRANCH  16  17
ATOM     17  C   UNL     1       4.831 -39.751  24.755  1.00  0.00    -0.000 C 
BRANCH  17  18
ATOM     18  C   UNL     1       4.441 -39.873  23.273  1.00  0.00    -0.000 C 
BRANCH  18  19
ATOM     19  C   UNL     1       5.646 -40.175  22.369  1.00  0.00    -0.003 C 
ATOM     20  C   UNL     1       5.870 -41.674  22.159  1.00  0.00     0.004 C 
ENDBRANCH  18  19
ENDBRANCH  17  18
ENDBRANCH  16  17
ENDBRANCH  15  16
ENDBRANCH  14  15
ENDBRANCH  13  14
ENDBRANCH  12  13
ENDBRANCH   1  12
TORSDOF 16
ENDMDL
MODEL 4
REMARK VINA RESULT:    -3.825      2.587      6.899
REMARK INTER + INTRA:          -8.873
REMARK INTER:                  -7.683
REMARK INTRA:                  -1.189
REMARK UNBOUND:                -1.470
REMARK SMILES CCCCCCCCCCCCCCCCCC(=O)[O-]
REMARK SMILES IDX 10 1 11 2 12 3 13 4 14 5 15 6 16 7 17 8 18 9 19 10 20 11
REMARK SMILES IDX 9 12 8 13 7 14 6 15 5 16 4 17 3 18 2 19 1 20
REMARK H PARENT
REMARK Flexibility Score: inf
ROOT
ATOM      1  C   UNL     1       5.060 -35.755  22.481  1.00  0.00     0.000 C 
ENDROOT
BRANCH   1   2
ATOM      2  C   UNL     1       5.755 -36.608  21.406  1.00  0.00     0.000 C 
BRANCH   2   3
ATOM      3  C   UNL     1       5.639 -36.003  19.994  1.00  0.00     0.000 C 
BRANCH   3   4
ATOM      4  C   UNL     1       4.283 -36.220  19.298  1.00  0.00     0.000 C 
BRANCH   4   5
ATOM      5  C   UNL     1       3.878 -37.703  19.217  1.00  0.00     0.000 C 
BRANCH   5   6
ATOM      6  C   UNL     1       2.644 -37.920  18.316  1.00  0.00     0.000 C 
BRANCH   6   7
ATOM      7  C   UNL     1       2.812 -37.357  16.894  1.00  0.00     0.006 C 
BRANCH   7   8
ATOM      8  C   UNL     1       2.559 -38.404  15.803  1.00  0.00     0.053 C 
BRANCH   8   9
ATOM      9  C   UNL     1       3.436 -38.145  14.618  1.00  0.00     0.041 C 
ATOM     10  O   UNL     1       4.074 -39.090  14.083  1.00  0.00    -0.550 OA
ATOM     11  O   UNL     1       3.595 -36.851  14.141  1.00  0.00    -0.550 OA
ENDBRANCH   8   9
ENDBRANCH   7   8
ENDBRANCH   6   7
ENDBRANCH   5   6
ENDBRANCH   4   5
ENDBRANCH   3   4
ENDBRANCH   2   3
ENDBRANCH   1   2
BRANCH   1  12
ATOM     12  C   UNL     1       6.002 -35.359  23.634  1.00  0.00     0.000 C 
BRANCH  12  13
ATOM     13  C   UNL     1       5.907 -36.245  24.890  1.00  0.00    -0.000 C 
BRANCH  13  14
ATOM     14  C   UNL     1       4.663 -37.150  24.893  1.00  0.00    -0.000 C 
BRANCH  14  15
ATOM     15  C   UNL     1       4.969 -38.571  25.392  1.00  0.00    -0.000 C 
BRANCH  15  16
ATOM     16  C   UNL     1       5.405 -39.512  24.255  1.00  0.00    -0.000 C 
BRANCH  16  17
ATOM     17  C   UNL     1       4.342 -39.640  23.151  1.00  0.00    -0.000 C 
BRANCH  17  18
ATOM     18  C   UNL     1       4.929 -40.146  21.823  1.00  0.00    -0.000 C 
BRANCH  18  19
ATOM     19  C   UNL     1       6.121 -41.094  22.028  1.00  0.00    -0.003 C 
ATOM     20  C   UNL     1       5.770 -42.311  22.886  1.00  0.00     0.004 C 
ENDBRANCH  18  19
ENDBRANCH  17  18
ENDBRANCH  16  17
ENDBRANCH  15  16
ENDBRANCH  14  15
ENDBRANCH  13  14
ENDBRANCH  12  13
ENDBRANCH   1  12
TORSDOF 16
ENDMDL
MODEL 5
REMARK VINA RESULT:    -3.060      2.601      7.424
REMARK INTER + INTRA:          -7.393
REMARK INTER:                  -6.351
REMARK INTRA:                  -1.042
REMARK UNBOUND:                -1.470
REMARK SMILES CCCCCCCCCCCCCCCCCC(=O)[O-]
REMARK SMILES IDX 10 1 11 2 12 3 13 4 14 5 15 6 16 7 17 8 18 9 19 10 20 11
REMARK SMILES IDX 9 12 8 13 7 14 6 15 5 16 4 17 3 18 2 19 1 20
REMARK H PARENT
REMARK Flexibility Score: inf
ROOT
ATOM      1  C   UNL     1       4.121 -38.323  20.609  1.00  0.00     0.000 C 
ENDROOT
BRANCH   1   2
ATOM      2  C   UNL     1       4.243 -36.795  20.483  1.00  0.00     0.000 C 
BRANCH   2   3
ATOM      3  C   UNL     1       5.635 -36.342  20.006  1.00  0.00     0.000 C 
BRANCH   3   4
ATOM      4  C   UNL     1       5.664 -35.650  18.630  1.00  0.00     0.000 C 
BRANCH   4   5
ATOM      5  C   UNL     1       4.265 -35.252  18.127  1.00  0.00     0.000 C 
BRANCH   5   6
ATOM      6  C   UNL     1       3.785 -36.154  16.970  1.00  0.00     0.000 C 
BRANCH   6   7
ATOM      7  C   UNL     1       2.969 -37.372  17.436  1.00  0.00     0.006 C 
BRANCH   7   8
ATOM      8  C   UNL     1       2.481 -38.244  16.274  1.00  0.00     0.053 C 
BRANCH   8   9
ATOM      9  C   UNL     1       3.091 -37.786  14.986  1.00  0.00     0.041 C 
ATOM     10  O   UNL     1       2.683 -36.731  14.430  1.00  0.00    -0.550 OA
ATOM     11  O   UNL     1       4.070 -38.554  14.368  1.00  0.00    -0.550 OA
ENDBRANCH   8   9
ENDBRANCH   7   8
ENDBRANCH   6   7
ENDBRANCH   5   6
ENDBRANCH   4   5
ENDBRANCH   3   4
ENDBRANCH   2   3
ENDBRANCH   1   2
BRANCH   1  12
ATOM     12  C   UNL     1       5.386 -38.980  21.194  1.00  0.00     0.000 C 
BRANCH  12  13
ATOM     13  C   UNL     1       5.127 -40.127  22.187  1.00  0.00    -0.000 C 
BRANCH  13  14
ATOM     14  C   UNL     1       4.227 -39.710  23.364  1.00  0.00    -0.000 C 
BRANCH  14  15
ATOM     15  C   UNL     1       4.924 -39.870  24.724  1.00  0.00    -0.000 C 
BRANCH  15  16
ATOM     16  C   UNL     1       4.947 -38.560  25.531  1.00  0.00    -0.000 C 
BRANCH  16  17
ATOM     17  C   UNL     1       6.077 -37.615  25.094  1.00  0.00    -0.000 C 
BRANCH  17  18
ATOM     18  C   UNL     1       5.582 -36.181  24.837  1.00  0.00    -0.000 C 
BRANCH  18  19
ATOM     19  C   UNL     1       6.118 -35.600  23.519  1.00  0.00    -0.003 C 
ATOM     20  C   UNL     1       5.700 -34.145  23.300  1.00  0.00     0.004 C 
ENDBRANCH  18  19
ENDBRANCH  17  18
ENDBRANCH  16  17
ENDBRANCH  15  16
ENDBRANCH  14  15
ENDBRANCH  13  14
ENDBRANCH  12  13
ENDBRANCH   1  12
TORSDOF 16
ENDMDL
MODEL 6
REMARK VINA RESULT:    -2.937      1.277      2.750
REMARK INTER + INTRA:          -7.155
REMARK INTER:                  -6.396
REMARK INTRA:                  -0.759
REMARK UNBOUND:                -1.470
REMARK SMILES CCCCCCCCCCCCCCCCCC(=O)[O-]
REMARK SMILES IDX 10 1 11 2 12 3 13 4 14 5 15 6 16 7 17 8 18 9 19 10 20 11
REMARK SMILES IDX 9 12 8 13 7 14 6 15 5 16 4 17 3 18 2 19 1 20
REMARK H PARENT
REMARK Flexibility Score: inf
ROOT
ATOM      1  C   UNL     1       4.998 -38.099  19.855  1.00  0.00     0.000 C 
ENDROOT
BRANCH   1   2
ATOM      2  C   UNL     1       5.737 -36.753  19.954  1.00  0.00     0.000 C 
BRANCH   2   3
ATOM      3  C   UNL     1       4.785 -35.561  20.160  1.00  0.00     0.000 C 
BRANCH   3   4
ATOM      4  C   UNL     1       3.890 -35.646  21.410  1.00  0.00     0.000 C 
BRANCH   4   5
ATOM      5  C   UNL     1       4.639 -35.306  22.712  1.00  0.00     0.000 C 
BRANCH   5   6
ATOM      6  C   UNL     1       6.042 -35.947  22.759  1.00  0.00     0.000 C 
BRANCH   6   7
ATOM      7  C   UNL     1       6.108 -37.225  23.614  1.00  0.00     0.006 C 
BRANCH   7   8
ATOM      8  C   UNL     1       4.775 -37.981  23.663  1.00  0.00     0.053 C 
BRANCH   8   9
ATOM      9  C   UNL     1       5.014 -39.458  23.684  1.00  0.00     0.041 C 
ATOM     10  O   UNL     1       5.064 -40.077  24.781  1.00  0.00    -0.550 OA
ATOM     11  O   UNL     1       5.239 -40.144  22.497  1.00  0.00    -0.550 OA
ENDBRANCH   8   9
ENDBRANCH   7   8
ENDBRANCH   6   7
ENDBRANCH   5   6
ENDBRANCH   4   5
ENDBRANCH   3   4
ENDBRANCH   2   3
ENDBRANCH   1   2
BRANCH   1  12
ATOM     12  C   UNL     1       3.766 -38.041  18.932  1.00  0.00     0.000 C 
BRANCH  12  13
ATOM     13  C   UNL     1       2.412 -38.253  19.634  1.00  0.00    -0.000 C 
BRANCH  13  14
ATOM     14  C   UNL     1       1.222 -38.240  18.660  1.00  0.00    -0.000 C 
BRANCH  14  15
ATOM     15  C   UNL     1       1.665 -38.268  17.188  1.00  0.00    -0.000 C 
BRANCH  15  16
ATOM     16  C   UNL     1       1.208 -37.019  16.413  1.00  0.00    -0.000 C 
BRANCH  16  17
ATOM     17  C   UNL     1       1.835 -36.931  15.012  1.00  0.00    -0.000 C 
BRANCH  17  18
ATOM     18  C   UNL     1       3.367 -37.066  15.040  1.00  0.00    -0.000 C 
BRANCH  18  19
ATOM     19  C   UNL     1       3.905 -37.913  13.876  1.00  0.00    -0.003 C 
ATOM     20  C   UNL     1       4.078 -39.387  14.245  1.00  0.00     0.004 C 
ENDBRANCH  18  19
ENDBRANCH  17  18
ENDBRANCH  16  17
ENDBRANCH  15  16
ENDBRANCH  14  15
ENDBRANCH  13  14
ENDBRANCH  12  13
ENDBRANCH   1  12
TORSDOF 16
ENDMDL
MODEL 7
REMARK VINA RESULT:    -2.852      2.293      3.614
REMARK INTER + INTRA:          -6.989
REMARK INTER:                  -5.621
REMARK INTRA:                  -1.368
REMARK UNBOUND:                -1.470
REMARK SMILES CCCCCCCCCCCCCCCCCC(=O)[O-]
REMARK SMILES IDX 10 1 11 2 12 3 13 4 14 5 15 6 16 7 17 8 18 9 19 10 20 11
REMARK SMILES IDX 9 12 8 13 7 14 6 15 5 16 4 17 3 18 2 19 1 20
REMARK H PARENT
REMARK Flexibility Score: inf
ROOT
ATOM      1  C   UNL     1       4.264 -36.910  20.466  1.00  0.00     0.000 C 
ENDROOT
BRANCH   1   2
ATOM      2  C   UNL     1       4.080 -38.435  20.395  1.00  0.00     0.000 C 
BRANCH   2   3
ATOM      3  C   UNL     1       5.400 -39.208  20.577  1.00  0.00     0.000 C 
BRANCH   3   4
ATOM      4  C   UNL     1       5.499 -40.041  21.868  1.00  0.00     0.000 C 
BRANCH   4   5
ATOM      5  C   UNL     1       4.359 -39.751  22.861  1.00  0.00     0.000 C 
BRANCH   5   6
ATOM      6  C   UNL     1       4.859 -39.703  24.320  1.00  0.00     0.000 C 
BRANCH   6   7
ATOM      7  C   UNL     1       5.123 -38.277  24.835  1.00  0.00     0.006 C 
BRANCH   7   8
ATOM      8  C   UNL     1       5.522 -37.303  23.721  1.00  0.00     0.053 C 
BRANCH   8   9
ATOM      9  C   UNL     1       5.703 -35.924  24.273  1.00  0.00     0.041 C 
ATOM     10  O   UNL     1       6.125 -35.761  25.449  1.00  0.00    -0.550 OA
ATOM     11  O   UNL     1       5.350 -34.818  23.510  1.00  0.00    -0.550 OA
ENDBRANCH   8   9
ENDBRANCH   7   8
ENDBRANCH   6   7
ENDBRANCH   5   6
ENDBRANCH   4   5
ENDBRANCH   3   4
ENDBRANCH   2   3
ENDBRANCH   1   2
BRANCH   1  12
ATOM     12  C   UNL     1       5.728 -36.472  20.263  1.00  0.00     0.000 C 
BRANCH  12  13
ATOM     13  C   UNL     1       5.969 -35.535  19.066  1.00  0.00    -0.000 C 
BRANCH  13  14
ATOM     14  C   UNL     1       4.669 -35.123  18.355  1.00  0.00    -0.000 C 
BRANCH  14  15
ATOM     15  C   UNL     1       4.314 -36.056  17.187  1.00  0.00    -0.000 C 
BRANCH  15  16
ATOM     16  C   UNL     1       2.858 -35.884  16.718  1.00  0.00    -0.000 C 
BRANCH  16  17
ATOM     17  C   UNL     1       2.363 -37.071  15.876  1.00  0.00    -0.000 C 
BRANCH  17  18
ATOM     18  C   UNL     1       1.315 -37.921  16.613  1.00  0.00    -0.000 C 
BRANCH  18  19
ATOM     19  C   UNL     1       1.779 -38.342  18.017  1.00  0.00    -0.003 C 
ATOM     20  C   UNL     1       0.652 -38.302  19.050  1.00  0.00     0.004 C 
ENDBRANCH  18  19
ENDBRANCH  17  18
ENDBRANCH  16  17
ENDBRANCH  15  16
ENDBRANCH  14  15
ENDBRANCH  13  14
ENDBRANCH  12  13
ENDBRANCH   1  12
TORSDOF 16
ENDMDL
