MODEL 1
REMARK VINA RESULT:    -4.042      0.000      0.000
REMARK INTER + INTRA:          -8.946
REMARK INTER:                  -7.351
REMARK INTRA:                  -1.595
REMARK UNBOUND:                -1.595
REMARK SMILES CCCCCCCCCCCCCCCC(=O)[O-]
REMARK SMILES IDX 9 1 10 2 11 3 12 4 13 5 14 6 15 7 16 8 17 9 18 10 8 11 7 12
REMARK SMILES IDX 6 13 5 14 4 15 3 16 2 17 1 18
REMARK H PARENT
REMARK Flexibility Score: inf
ROOT
ATOM      1  C   UNL     1     -14.071   6.029  29.196  1.00  0.00     0.000 C 
ENDROOT
BRANCH   1   2
ATOM      2  C   UNL     1     -15.010   7.210  29.504  1.00  0.00     0.000 C 
BRANCH   2   3
ATOM      3  C   UNL     1     -16.112   6.851  30.516  1.00  0.00     0.000 C 
BRANCH   3   4
ATOM      4  C   UNL     1     -16.377   5.338  30.589  1.00  0.00     0.000 C 
BRANCH   4   5
ATOM      5  C   UNL     1     -16.748   4.869  32.003  1.00  0.00     0.000 C 
BRANCH   5   6
ATOM      6  C   UNL     1     -16.447   3.372  32.180  1.00  0.00     0.006 C 
BRANCH   6   7
ATOM      7  C   UNL     1     -15.758   3.071  33.517  1.00  0.00     0.053 C 
BRANCH   7   8
ATOM      8  C   UNL     1     -16.111   1.709  34.031  1.00  0.00     0.041 C 
ATOM      9  O   UNL     1     -16.649   0.863  33.268  1.00  0.00    -0.550 OA
ATOM     10  O   UNL     1     -15.814   1.361  35.344  1.00  0.00    -0.550 OA
ENDBRANCH   7   8
ENDBRANCH   6   7
ENDBRANCH   5   6
ENDBRANCH   4   5
ENDBRANCH   3   4
ENDBRANCH   2   3
ENDBRANCH   1   2
BRANCH   1  11
ATOM     11  C   UNL     1     -12.572   6.316  29.395  1.00  0.00     0.000 C 
BRANCH  11  12
ATOM     12  C   UNL     1     -11.939   5.465  30.506  1.00  0.00    -0.000 C 
BRANCH  12  13
ATOM     13  C   UNL     1     -12.889   4.338  30.942  1.00  0.00    -0.000 C 
BRANCH  13  14
ATOM     14  C   UNL     1     -12.137   3.072  31.383  1.00  0.00    -0.000 C 
BRANCH  14  15
ATOM     15  C   UNL     1     -10.847   2.838  30.576  1.00  0.00    -0.000 C 
BRANCH  15  16
ATOM     16  C   UNL     1      -9.642   2.525  31.487  1.00  0.00    -0.000 C 
BRANCH  16  17
ATOM     17  C   UNL     1      -9.048   3.768  32.171  1.00  0.00    -0.003 C 
ATOM     18  C   UNL     1      -8.365   4.722  31.194  1.00  0.00     0.004 C 
ENDBRANCH  16  17
ENDBRANCH  15  16
ENDBRANCH  14  15
ENDBRANCH  13  14
ENDBRANCH  12  13
ENDBRANCH  11  12
ENDBRANCH   1  11
TORSDOF 14
ENDMDL
MODEL 2
REMARK VINA RESULT:    -4.007      4.301      6.547
REMARK INTER + INTRA:          -8.882
REMARK INTER:                  -7.248
REMARK INTRA:                  -1.634
REMARK UNBOUND:                -1.595
REMARK SMILES CCCCCCCCCCCCCCCC(=O)[O-]
REMARK SMILES IDX 9 1 10 2 11 3 12 4 13 5 14 6 15 7 16 8 17 9 18 10 8 11 7 12
REMARK SMILES IDX 6 13 5 14 4 15 3 16 2 17 1 18
REMARK H PARENT
REMARK Flexibility Score: inf
ROOT
ATOM      1  C   UNL     1     -16.168   4.086  32.280  1.00  0.00     0.000 C 
ENDROOT
BRANCH   1   2
ATOM      2  C   UNL     1     -16.944   4.085  30.950  1.00  0.00     0.000 C 
BRANCH   2   3
ATOM      3  C   UNL     1     -16.446   5.155  29.964  1.00  0.00     0.000 C 
BRANCH   3   4
ATOM      4  C   UNL     1     -16.276   6.534  30.624  1.00  0.00     0.000 C 
BRANCH   4   5
ATOM      5  C   UNL     1     -15.475   7.512  29.754  1.00  0.00     0.000 C 
BRANCH   5   6
ATOM      6  C   UNL     1     -14.086   6.941  29.425  1.00  0.00     0.006 C 
BRANCH   6   7
ATOM      7  C   UNL     1     -13.265   7.884  28.536  1.00  0.00     0.053 C 
BRANCH   7   8
ATOM      8  C   UNL     1     -13.205   7.402  27.119  1.00  0.00     0.041 C 
ATOM      9  O   UNL     1     -13.812   8.029  26.211  1.00  0.00    -0.550 OA
ATOM     10  O   UNL     1     -12.449   6.282  26.795  1.00  0.00    -0.550 OA
ENDBRANCH   7   8
ENDBRANCH   6   7
ENDBRANCH   5   6
ENDBRANCH   4   5
ENDBRANCH   3   4
ENDBRANCH   2   3
ENDBRANCH   1   2
BRANCH   1  11
ATOM     11  C   UNL     1     -16.892   3.413  33.460  1.00  0.00     0.000 C 
BRANCH  11  12
ATOM     12  C   UNL     1     -15.930   2.736  34.448  1.00  0.00    -0.000 C 
BRANCH  12  13
ATOM     13  C   UNL     1     -16.325   1.270  34.681  1.00  0.00    -0.000 C 
BRANCH  13  14
ATOM     14  C   UNL     1     -17.111   0.676  33.501  1.00  0.00    -0.000 C 
BRANCH  14  15
ATOM     15  C   UNL     1     -16.211  -0.092  32.517  1.00  0.00    -0.000 C 
BRANCH  15  16
ATOM     16  C   UNL     1     -16.323   0.455  31.078  1.00  0.00    -0.000 C 
BRANCH  16  17
ATOM     17  C   UNL     1     -14.964   0.638  30.382  1.00  0.00    -0.003 C 
ATOM     18  C   UNL     1     -13.934   1.351  31.256  1.00  0.00     0.004 C 
ENDBRANCH  16  17
ENDBRANCH  15  16
ENDBRANCH  14  15
ENDBRANCH  13  14
ENDBRANCH  12  13
ENDBRANCH  11  12
ENDBRANCH   1  11
TORSDOF 14
ENDMDL
MODEL 3
REMARK VINA RESULT:    -4.007      3.095      6.246
REMARK INTER + INTRA:          -8.880
REMARK INTER:                  -7.983
REMARK INTRA:                  -0.897
REMARK UNBOUND:                -1.595
REMARK SMILES CCCCCCCCCCCCCCCC(=O)[O-]
REMARK SMILES IDX 9 1 10 2 11 3 12 4 13 5 14 6 15 7 16 8 17 9 18 10 8 11 7 12
REMARK SMILES IDX 6 13 5 14 4 15 3 16 2 17 1 18
REMARK H PARENT
REMARK Flexibility Score: inf
ROOT
ATOM      1  C   UNL     1     -15.038   6.968  29.836  1.00  0.00     0.000 C 
ENDROOT
BRANCH   1   2
ATOM      2  C   UNL     1     -14.841   8.313  29.112  1.00  0.00     0.000 C 
BRANCH   2   3
ATOM      3  C   UNL     1     -13.524   8.382  28.322  1.00  0.00     0.000 C 
BRANCH   3   4
ATOM      4  C   UNL     1     -12.533   7.278  28.727  1.00  0.00     0.000 C 
BRANCH   4   5
ATOM      5  C   UNL     1     -11.072   7.668  28.465  1.00  0.00     0.000 C 
BRANCH   5   6
ATOM      6  C   UNL     1     -10.257   7.647  29.769  1.00  0.00     0.006 C 
BRANCH   6   7
ATOM      7  C   UNL     1      -9.277   6.468  29.823  1.00  0.00     0.053 C 
BRANCH   7   8
ATOM      8  C   UNL     1      -9.667   5.467  30.868  1.00  0.00     0.041 C 
ATOM      9  O   UNL     1      -8.790   4.748  31.415  1.00  0.00    -0.550 OA
ATOM     10  O   UNL     1     -10.994   5.354  31.264  1.00  0.00    -0.550 OA
ENDBRANCH   7   8
ENDBRANCH   6   7
ENDBRANCH   5   6
ENDBRANCH   4   5
ENDBRANCH   3   4
ENDBRANCH   2   3
ENDBRANCH   1   2
BRANCH   1  11
ATOM     11  C   UNL     1     -16.391   6.802  30.552  1.00  0.00     0.000 C 
BRANCH  11  12
ATOM     12  C   UNL     1     -16.408   5.624  31.538  1.00  0.00    -0.000 C 
BRANCH  12  13
ATOM     13  C   UNL     1     -15.241   4.662  31.265  1.00  0.00    -0.000 C 
BRANCH  13  14
ATOM     14  C   UNL     1     -14.803   3.896  32.523  1.00  0.00    -0.000 C 
BRANCH  14  15
ATOM     15  C   UNL     1     -15.111   2.390  32.436  1.00  0.00    -0.000 C 
BRANCH  15  16
ATOM     16  C   UNL     1     -16.564   2.070  32.844  1.00  0.00    -0.000 C 
BRANCH  16  17
ATOM     17  C   UNL     1     -16.676   0.936  33.877  1.00  0.00    -0.003 C 
ATOM     18  C   UNL     1     -15.963   1.248  35.191  1.00  0.00     0.004 C 
ENDBRANCH  16  17
ENDBRANCH  15  16
ENDBRANCH  14  15
ENDBRANCH  13  14
ENDBRANCH  12  13
ENDBRANCH  11  12
ENDBRANCH   1  11
TORSDOF 14
ENDMDL
MODEL 4
REMARK VINA RESULT:    -3.899      2.907      5.879
REMARK INTER + INTRA:          -8.686
REMARK INTER:                  -7.136
REMARK INTRA:                  -1.549
REMARK UNBOUND:                -1.595
REMARK SMILES CCCCCCCCCCCCCCCC(=O)[O-]
REMARK SMILES IDX 9 1 10 2 11 3 12 4 13 5 14 6 15 7 16 8 17 9 18 10 8 11 7 12
REMARK SMILES IDX 6 13 5 14 4 15 3 16 2 17 1 18
REMARK H PARENT
REMARK Flexibility Score: inf
ROOT
ATOM      1  C   UNL     1     -14.283   6.824  28.733  1.00  0.00     0.000 C 
ENDROOT
BRANCH   1   2
ATOM      2  C   UNL     1     -12.854   6.592  29.261  1.00  0.00     0.000 C 
BRANCH   2   3
ATOM      3  C   UNL     1     -12.567   5.116  29.584  1.00  0.00     0.000 C 
BRANCH   3   4
ATOM      4  C   UNL     1     -11.802   4.939  30.906  1.00  0.00     0.000 C 
BRANCH   4   5
ATOM      5  C   UNL     1     -10.571   5.851  31.005  1.00  0.00     0.000 C 
BRANCH   5   6
ATOM      6  C   UNL     1      -9.280   5.021  31.089  1.00  0.00     0.006 C 
BRANCH   6   7
ATOM      7  C   UNL     1      -9.411   3.839  32.058  1.00  0.00     0.053 C 
BRANCH   7   8
ATOM      8  C   UNL     1      -8.897   2.566  31.456  1.00  0.00     0.041 C 
ATOM      9  O   UNL     1      -7.704   2.489  31.060  1.00  0.00    -0.550 OA
ATOM     10  O   UNL     1      -9.725   1.454  31.366  1.00  0.00    -0.550 OA
ENDBRANCH   7   8
ENDBRANCH   6   7
ENDBRANCH   5   6
ENDBRANCH   4   5
ENDBRANCH   3   4
ENDBRANCH   2   3
ENDBRANCH   1   2
BRANCH   1  11
ATOM     11  C   UNL     1     -15.246   7.495  29.728  1.00  0.00     0.000 C 
BRANCH  11  12
ATOM     12  C   UNL     1     -16.036   6.484  30.574  1.00  0.00    -0.000 C 
BRANCH  12  13
ATOM     13  C   UNL     1     -16.315   5.201  29.777  1.00  0.00    -0.000 C 
BRANCH  13  14
ATOM     14  C   UNL     1     -15.950   3.930  30.560  1.00  0.00    -0.000 C 
BRANCH  14  15
ATOM     15  C   UNL     1     -15.362   4.238  31.949  1.00  0.00    -0.000 C 
BRANCH  15  16
ATOM     16  C   UNL     1     -14.868   2.965  32.667  1.00  0.00    -0.000 C 
BRANCH  16  17
ATOM     17  C   UNL     1     -16.006   2.055  33.158  1.00  0.00    -0.003 C 
ATOM     18  C   UNL     1     -15.984   1.829  34.669  1.00  0.00     0.004 C 
ENDBRANCH  16  17
ENDBRANCH  15  16
ENDBRANCH  14  15
ENDBRANCH  13  14
ENDBRANCH  12  13
ENDBRANCH  11  12
ENDBRANCH   1  11
TORSDOF 14
ENDMDL
MODEL 5
REMARK VINA RESULT:    -3.894      2.100      3.667
REMARK INTER + INTRA:          -8.675
REMARK INTER:                  -7.776
REMARK INTRA:                  -0.898
REMARK UNBOUND:                -1.595
REMARK SMILES CCCCCCCCCCCCCCCC(=O)[O-]
REMARK SMILES IDX 9 1 10 2 11 3 12 4 13 5 14 6 15 7 16 8 17 9 18 10 8 11 7 12
REMARK SMILES IDX 6 13 5 14 4 15 3 16 2 17 1 18
REMARK H PARENT
REMARK Flexibility Score: inf
ROOT
ATOM      1  C   UNL     1     -12.232   5.336  30.288  1.00  0.00     0.000 C 
ENDROOT
BRANCH   1   2
ATOM      2  C   UNL     1     -11.946   6.375  29.188  1.00  0.00     0.000 C 
BRANCH   2   3
ATOM      3  C   UNL     1     -13.211   7.106  28.709  1.00  0.00     0.000 C 
BRANCH   3   4
ATOM      4  C   UNL     1     -14.504   6.392  29.139  1.00  0.00     0.000 C 
BRANCH   4   5
ATOM      5  C   UNL     1     -15.447   7.306  29.935  1.00  0.00     0.000 C 
BRANCH   5   6
ATOM      6  C   UNL     1     -16.358   6.480  30.859  1.00  0.00     0.006 C 
BRANCH   6   7
ATOM      7  C   UNL     1     -16.347   4.987  30.502  1.00  0.00     0.053 C 
BRANCH   7   8
ATOM      8  C   UNL     1     -16.021   4.134  31.690  1.00  0.00     0.041 C 
ATOM      9  O   UNL     1     -14.926   4.280  32.295  1.00  0.00    -0.550 OA
ATOM     10  O   UNL     1     -16.943   3.202  32.152  1.00  0.00    -0.550 OA
ENDBRANCH   7   8
ENDBRANCH   6   7
ENDBRANCH   5   6
ENDBRANCH   4   5
ENDBRANCH   3   4
ENDBRANCH   2   3
ENDBRANCH   1   2
BRANCH   1  11
ATOM     11  C   UNL     1     -11.067   5.073  31.259  1.00  0.00     0.000 C 
BRANCH  11  12
ATOM     12  C   UNL     1     -10.637   3.599  31.297  1.00  0.00    -0.000 C 
BRANCH  12  13
ATOM     13  C   UNL     1      -9.249   3.449  31.938  1.00  0.00    -0.000 C 
BRANCH  13  14
ATOM     14  C   UNL     1      -8.314   4.622  31.599  1.00  0.00    -0.000 C 
BRANCH  14  15
ATOM     15  C   UNL     1      -6.826   4.239  31.696  1.00  0.00    -0.000 C 
BRANCH  15  16
ATOM     16  C   UNL     1      -5.938   5.448  32.058  1.00  0.00    -0.000 C 
BRANCH  16  17
ATOM     17  C   UNL     1      -5.453   5.439  33.517  1.00  0.00    -0.003 C 
ATOM     18  C   UNL     1      -4.518   6.601  33.846  1.00  0.00     0.004 C 
ENDBRANCH  16  17
ENDBRANCH  15  16
ENDBRANCH  14  15
ENDBRANCH  13  14
ENDBRANCH  12  13
ENDBRANCH  11  12
ENDBRANCH   1  11
TORSDOF 14
ENDMDL
MODEL 6
REMARK VINA RESULT:    -3.853      2.728      5.688
REMARK INTER + INTRA:          -8.602
REMARK INTER:                  -7.196
REMARK INTRA:                  -1.406
REMARK UNBOUND:                -1.595
REMARK SMILES CCCCCCCCCCCCCCCC(=O)[O-]
REMARK SMILES IDX 9 1 10 2 11 3 12 4 13 5 14 6 15 7 16 8 17 9 18 10 8 11 7 12
REMARK SMILES IDX 6 13 5 14 4 15 3 16 2 17 1 18
REMARK H PARENT
REMARK Flexibility Score: inf
ROOT
ATOM      1  C   UNL     1     -12.772   8.975  28.662  1.00  0.00     0.000 C 
ENDROOT
BRANCH   1   2
ATOM      2  C   UNL     1     -11.759   7.864  28.329  1.00  0.00     0.000 C 
BRANCH   2   3
ATOM      3  C   UNL     1     -10.507   7.906  29.221  1.00  0.00     0.000 C 
BRANCH   3   4
ATOM      4  C   UNL     1     -10.118   6.520  29.761  1.00  0.00     0.000 C 
BRANCH   4   5
ATOM      5  C   UNL     1     -11.038   6.048  30.897  1.00  0.00     0.000 C 
BRANCH   5   6
ATOM      6  C   UNL     1     -11.862   4.825  30.461  1.00  0.00     0.006 C 
BRANCH   6   7
ATOM      7  C   UNL     1     -11.596   3.600  31.345  1.00  0.00     0.053 C 
BRANCH   7   8
ATOM      8  C   UNL     1     -10.833   2.539  30.612  1.00  0.00     0.041 C 
ATOM      9  O   UNL     1     -10.701   2.603  29.362  1.00  0.00    -0.550 OA
ATOM     10  O   UNL     1     -10.236   1.499  31.315  1.00  0.00    -0.550 OA
ENDBRANCH   7   8
ENDBRANCH   6   7
ENDBRANCH   5   6
ENDBRANCH   4   5
ENDBRANCH   3   4
ENDBRANCH   2   3
ENDBRANCH   1   2
BRANCH   1  11
ATOM     11  C   UNL     1     -14.250   8.551  28.606  1.00  0.00     0.000 C 
BRANCH  11  12
ATOM     12  C   UNL     1     -14.481   7.110  29.086  1.00  0.00    -0.000 C 
BRANCH  12  13
ATOM     13  C   UNL     1     -15.610   7.052  30.126  1.00  0.00    -0.000 C 
BRANCH  13  14
ATOM     14  C   UNL     1     -16.273   5.667  30.200  1.00  0.00    -0.000 C 
BRANCH  14  15
ATOM     15  C   UNL     1     -16.413   5.155  31.645  1.00  0.00    -0.000 C 
BRANCH  15  16
ATOM     16  C   UNL     1     -15.214   4.283  32.072  1.00  0.00    -0.000 C 
BRANCH  16  17
ATOM     17  C   UNL     1     -15.582   3.180  33.078  1.00  0.00    -0.003 C 
ATOM     18  C   UNL     1     -17.042   3.238  33.524  1.00  0.00     0.004 C 
ENDBRANCH  16  17
ENDBRANCH  15  16
ENDBRANCH  14  15
ENDBRANCH  13  14
ENDBRANCH  12  13
ENDBRANCH  11  12
ENDBRANCH   1  11
TORSDOF 14
ENDMDL
MODEL 7
REMARK VINA RESULT:    -3.853      1.472      2.889
REMARK INTER + INTRA:          -8.601
REMARK INTER:                  -6.742
REMARK INTRA:                  -1.860
REMARK UNBOUND:                -1.595
REMARK SMILES CCCCCCCCCCCCCCCC(=O)[O-]
REMARK SMILES IDX 9 1 10 2 11 3 12 4 13 5 14 6 15 7 16 8 17 9 18 10 8 11 7 12
REMARK SMILES IDX 6 13 5 14 4 15 3 16 2 17 1 18
REMARK H PARENT
REMARK Flexibility Score: inf
ROOT
ATOM      1  C   UNL     1     -15.136   8.486  29.370  1.00  0.00     0.000 C 
ENDROOT
BRANCH   1   2
ATOM      2  C   UNL     1     -15.617   7.233  30.126  1.00  0.00     0.000 C 
BRANCH   2   3
ATOM      3  C   UNL     1     -15.213   5.922  29.432  1.00  0.00     0.000 C 
BRANCH   3   4
ATOM      4  C   UNL     1     -15.885   4.689  30.061  1.00  0.00     0.000 C 
BRANCH   4   5
ATOM      5  C   UNL     1     -16.181   4.875  31.556  1.00  0.00     0.000 C 
BRANCH   5   6
ATOM      6  C   UNL     1     -15.352   3.896  32.404  1.00  0.00     0.006 C 
BRANCH   6   7
ATOM      7  C   UNL     1     -16.203   3.175  33.458  1.00  0.00     0.053 C 
BRANCH   7   8
ATOM      8  C   UNL     1     -16.446   1.742  33.093  1.00  0.00     0.041 C 
ATOM      9  O   UNL     1     -16.072   0.820  33.865  1.00  0.00    -0.550 OA
ATOM     10  O   UNL     1     -17.117   1.426  31.918  1.00  0.00    -0.550 OA
ENDBRANCH   7   8
ENDBRANCH   6   7
ENDBRANCH   5   6
ENDBRANCH   4   5
ENDBRANCH   3   4
ENDBRANCH   2   3
ENDBRANCH   1   2
BRANCH   1  11
ATOM     11  C   UNL     1     -14.061   8.230  28.298  1.00  0.00     0.000 C 
BRANCH  11  12
ATOM     12  C   UNL     1     -12.741   8.963  28.583  1.00  0.00    -0.000 C 
BRANCH  12  13
ATOM     13  C   UNL     1     -11.548   8.000  28.495  1.00  0.00    -0.000 C 
BRANCH  13  14
ATOM     14  C   UNL     1     -11.900   6.690  27.770  1.00  0.00    -0.000 C 
BRANCH  14  15
ATOM     15  C   UNL     1     -11.605   5.444  28.624  1.00  0.00    -0.000 C 
BRANCH  15  16
ATOM     16  C   UNL     1     -11.482   5.783  30.124  1.00  0.00    -0.000 C 
BRANCH  16  17
ATOM     17  C   UNL     1     -12.076   4.706  31.048  1.00  0.00    -0.003 C 
ATOM     18  C   UNL     1     -11.474   3.321  30.819  1.00  0.00     0.004 C 
ENDBRANCH  16  17
ENDBRANCH  15  16
ENDBRANCH  14  15
ENDBRANCH  13  14
ENDBRANCH  12  13
ENDBRANCH  11  12
ENDBRANCH   1  11
TORSDOF 14
ENDMDL
MODEL 8
REMARK VINA RESULT:    -3.776     19.967     22.620
REMARK INTER + INTRA:          -8.460
REMARK INTER:                  -6.875
REMARK INTRA:                  -1.585
REMARK UNBOUND:                -1.595
REMARK SMILES CCCCCCCCCCCCCCCC(=O)[O-]
REMARK SMILES IDX 9 1 10 2 11 3 12 4 13 5 14 6 15 7 16 8 17 9 18 10 8 11 7 12
REMARK SMILES IDX 6 13 5 14 4 15 3 16 2 17 1 18
REMARK H PARENT
REMARK Flexibility Score: inf
ROOT
ATOM      1  C   UNL     1       1.722  -8.930  21.253  1.00  0.00     0.000 C 
ENDROOT
BRANCH   1   2
ATOM      2  C   UNL     1       1.563  -7.572  21.962  1.00  0.00     0.000 C 
BRANCH   2   3
ATOM      3  C   UNL     1       2.369  -6.447  21.292  1.00  0.00     0.000 C 
BRANCH   3   4
ATOM      4  C   UNL     1       1.769  -5.055  21.552  1.00  0.00     0.000 C 
BRANCH   4   5
ATOM      5  C   UNL     1       0.435  -4.839  20.824  1.00  0.00     0.000 C 
BRANCH   5   6
ATOM      6  C   UNL     1       0.614  -3.898  19.622  1.00  0.00     0.006 C 
BRANCH   6   7
ATOM      7  C   UNL     1       1.322  -2.592  20.006  1.00  0.00     0.053 C 
BRANCH   7   8
ATOM      8  C   UNL     1       0.804  -1.426  19.220  1.00  0.00     0.041 C 
ATOM      9  O   UNL     1       1.607  -0.623  18.675  1.00  0.00    -0.550 OA
ATOM     10  O   UNL     1      -0.564  -1.247  19.060  1.00  0.00    -0.550 OA
ENDBRANCH   7   8
ENDBRANCH   6   7
ENDBRANCH   5   6
ENDBRANCH   4   5
ENDBRANCH   3   4
ENDBRANCH   2   3
ENDBRANCH   1   2
BRANCH   1  11
ATOM     11  C   UNL     1       3.104  -9.179  20.621  1.00  0.00     0.000 C 
BRANCH  11  12
ATOM     12  C   UNL     1       3.029  -9.964  19.303  1.00  0.00    -0.000 C 
BRANCH  12  13
ATOM     13  C   UNL     1       1.569 -10.221  18.900  1.00  0.00    -0.000 C 
BRANCH  13  14
ATOM     14  C   UNL     1       1.375 -10.251  17.375  1.00  0.00    -0.000 C 
BRANCH  14  15
ATOM     15  C   UNL     1       0.692  -8.979  16.840  1.00  0.00    -0.000 C 
BRANCH  15  16
ATOM     16  C   UNL     1       0.838  -7.790  17.812  1.00  0.00    -0.000 C 
BRANCH  16  17
ATOM     17  C   UNL     1      -0.507  -7.224  18.297  1.00  0.00    -0.003 C 
ATOM     18  C   UNL     1      -1.661  -7.513  17.338  1.00  0.00     0.004 C 
ENDBRANCH  16  17
ENDBRANCH  15  16
ENDBRANCH  14  15
ENDBRANCH  13  14
ENDBRANCH  12  13
ENDBRANCH  11  12
ENDBRANCH   1  11
TORSDOF 14
ENDMDL
MODEL 9
REMARK VINA RESULT:    -3.725      2.555      5.349
REMARK INTER + INTRA:          -8.369
REMARK INTER:                  -6.466
REMARK INTRA:                  -1.903
REMARK UNBOUND:                -1.595
REMARK SMILES CCCCCCCCCCCCCCCC(=O)[O-]
REMARK SMILES IDX 9 1 10 2 11 3 12 4 13 5 14 6 15 7 16 8 17 9 18 10 8 11 7 12
REMARK SMILES IDX 6 13 5 14 4 15 3 16 2 17 1 18
REMARK H PARENT
REMARK Flexibility Score: inf
ROOT
ATOM      1  C   UNL     1     -11.820   4.196  31.276  1.00  0.00     0.000 C 
ENDROOT
BRANCH   1   2
ATOM      2  C   UNL     1     -10.712   5.198  30.900  1.00  0.00     0.000 C 
BRANCH   2   3
ATOM      3  C   UNL     1     -11.089   6.089  29.705  1.00  0.00     0.000 C 
BRANCH   3   4
ATOM      4  C   UNL     1     -11.791   5.306  28.582  1.00  0.00     0.000 C 
BRANCH   4   5
ATOM      5  C   UNL     1     -13.105   5.962  28.134  1.00  0.00     0.000 C 
BRANCH   5   6
ATOM      6  C   UNL     1     -13.863   6.545  29.337  1.00  0.00     0.006 C 
BRANCH   6   7
ATOM      7  C   UNL     1     -15.057   5.674  29.750  1.00  0.00     0.053 C 
BRANCH   7   8
ATOM      8  C   UNL     1     -16.027   6.429  30.606  1.00  0.00     0.041 C 
ATOM      9  O   UNL     1     -16.252   7.648  30.385  1.00  0.00    -0.550 OA
ATOM     10  O   UNL     1     -16.711   5.776  31.625  1.00  0.00    -0.550 OA
ENDBRANCH   7   8
ENDBRANCH   6   7
ENDBRANCH   5   6
ENDBRANCH   4   5
ENDBRANCH   3   4
ENDBRANCH   2   3
ENDBRANCH   1   2
BRANCH   1  11
ATOM     11  C   UNL     1     -11.401   2.715  31.244  1.00  0.00     0.000 C 
BRANCH  11  12
ATOM     12  C   UNL     1     -12.087   1.920  30.124  1.00  0.00    -0.000 C 
BRANCH  12  13
ATOM     13  C   UNL     1     -13.614   2.076  30.196  1.00  0.00    -0.000 C 
BRANCH  13  14
ATOM     14  C   UNL     1     -14.303   0.852  30.822  1.00  0.00    -0.000 C 
BRANCH  14  15
ATOM     15  C   UNL     1     -15.244   1.231  31.980  1.00  0.00    -0.000 C 
BRANCH  15  16
ATOM     16  C   UNL     1     -15.080   2.705  32.403  1.00  0.00    -0.000 C 
BRANCH  16  17
ATOM     17  C   UNL     1     -15.674   3.017  33.787  1.00  0.00    -0.003 C 
ATOM     18  C   UNL     1     -16.096   1.766  34.555  1.00  0.00     0.004 C 
ENDBRANCH  16  17
ENDBRANCH  15  16
ENDBRANCH  14  15
ENDBRANCH  13  14
ENDBRANCH  12  13
ENDBRANCH  11  12
ENDBRANCH   1  11
TORSDOF 14
ENDMDL
