MODEL 1
REMARK VINA RESULT:    -4.416      0.000      0.000
REMARK INTER + INTRA:         -10.213
REMARK INTER:                  -8.029
REMARK INTRA:                  -2.183
REMARK UNBOUND:                -2.183
REMARK SMILES CCCCCCCCCCCCCCCC(=O)[O-]
REMARK SMILES IDX 9 1 10 2 11 3 12 4 13 5 14 6 15 7 16 8 17 9 18 10 8 11 7 12
REMARK SMILES IDX 6 13 5 14 4 15 3 16 2 17 1 18
REMARK H PARENT
REMARK Flexibility Score: inf
ROOT
ATOM      1  C   UNL     1       1.980  51.746  -0.232  1.00  0.00     0.000 C 
ENDROOT
BRANCH   1   2
ATOM      2  C   UNL     1       2.511  50.633   0.684  1.00  0.00     0.000 C 
BRANCH   2   3
ATOM      3  C   UNL     1       3.731  51.070   1.513  1.00  0.00     0.000 C 
BRANCH   3   4
ATOM      4  C   UNL     1       4.826  51.816   0.724  1.00  0.00     0.000 C 
BRANCH   4   5
ATOM      5  C   UNL     1       5.523  52.955   1.490  1.00  0.00     0.000 C 
BRANCH   5   6
ATOM      6  C   UNL     1       4.765  54.289   1.394  1.00  0.00     0.006 C 
BRANCH   6   7
ATOM      7  C   UNL     1       4.215  54.543  -0.016  1.00  0.00     0.053 C 
BRANCH   7   8
ATOM      8  C   UNL     1       3.150  55.598  -0.018  1.00  0.00     0.041 C 
ATOM      9  O   UNL     1       1.991  55.327  -0.428  1.00  0.00    -0.550 OA
ATOM     10  O   UNL     1       3.447  56.888   0.403  1.00  0.00    -0.550 OA
ENDBRANCH   7   8
ENDBRANCH   6   7
ENDBRANCH   5   6
ENDBRANCH   4   5
ENDBRANCH   3   4
ENDBRANCH   2   3
ENDBRANCH   1   2
BRANCH   1  11
ATOM     11  C   UNL     1       1.961  51.288  -1.697  1.00  0.00     0.000 C 
BRANCH  11  12
ATOM     12  C   UNL     1       2.860  52.149  -2.598  1.00  0.00    -0.000 C 
BRANCH  12  13
ATOM     13  C   UNL     1       3.463  51.352  -3.768  1.00  0.00    -0.000 C 
BRANCH  13  14
ATOM     14  C   UNL     1       4.920  51.742  -4.064  1.00  0.00    -0.000 C 
BRANCH  14  15
ATOM     15  C   UNL     1       5.575  52.500  -2.896  1.00  0.00    -0.000 C 
BRANCH  15  16
ATOM     16  C   UNL     1       6.819  51.780  -2.350  1.00  0.00    -0.000 C 
BRANCH  16  17
ATOM     17  C   UNL     1       7.752  52.717  -1.568  1.00  0.00    -0.003 C 
ATOM     18  C   UNL     1       7.635  54.153  -2.072  1.00  0.00     0.004 C 
ENDBRANCH  16  17
ENDBRANCH  15  16
ENDBRANCH  14  15
ENDBRANCH  13  14
ENDBRANCH  12  13
ENDBRANCH  11  12
ENDBRANCH   1  11
TORSDOF 14
ENDMDL
MODEL 2
REMARK VINA RESULT:    -4.318      0.979      1.658
REMARK INTER + INTRA:         -10.036
REMARK INTER:                  -8.362
REMARK INTRA:                  -1.674
REMARK UNBOUND:                -2.183
REMARK SMILES CCCCCCCCCCCCCCCC(=O)[O-]
REMARK SMILES IDX 9 1 10 2 11 3 12 4 13 5 14 6 15 7 16 8 17 9 18 10 8 11 7 12
REMARK SMILES IDX 6 13 5 14 4 15 3 16 2 17 1 18
REMARK H PARENT
REMARK Flexibility Score: inf
ROOT
ATOM      1  C   UNL     1       2.275  50.688  -1.495  1.00  0.00     0.000 C 
ENDROOT
BRANCH   1   2
ATOM      2  C   UNL     1       1.876  51.145  -0.085  1.00  0.00     0.000 C 
BRANCH   2   3
ATOM      3  C   UNL     1       2.522  50.297   1.025  1.00  0.00     0.000 C 
BRANCH   3   4
ATOM      4  C   UNL     1       3.710  50.962   1.750  1.00  0.00     0.000 C 
BRANCH   4   5
ATOM      5  C   UNL     1       4.433  52.060   0.950  1.00  0.00     0.000 C 
BRANCH   5   6
ATOM      6  C   UNL     1       3.982  53.477   1.340  1.00  0.00     0.006 C 
BRANCH   6   7
ATOM      7  C   UNL     1       3.912  54.417   0.130  1.00  0.00     0.053 C 
BRANCH   7   8
ATOM      8  C   UNL     1       4.502  55.762   0.432  1.00  0.00     0.041 C 
ATOM      9  O   UNL     1       5.729  55.871   0.695  1.00  0.00    -0.550 OA
ATOM     10  O   UNL     1       3.690  56.889   0.456  1.00  0.00    -0.550 OA
ENDBRANCH   7   8
ENDBRANCH   6   7
ENDBRANCH   5   6
ENDBRANCH   4   5
ENDBRANCH   3   4
ENDBRANCH   2   3
ENDBRANCH   1   2
BRANCH   1  11
ATOM     11  C   UNL     1       2.621  51.891  -2.385  1.00  0.00     0.000 C 
BRANCH  11  12
ATOM     12  C   UNL     1       2.956  51.483  -3.827  1.00  0.00    -0.000 C 
BRANCH  12  13
ATOM     13  C   UNL     1       4.472  51.388  -4.078  1.00  0.00    -0.000 C 
BRANCH  13  14
ATOM     14  C   UNL     1       5.258  52.519  -3.397  1.00  0.00    -0.000 C 
BRANCH  14  15
ATOM     15  C   UNL     1       6.410  51.991  -2.523  1.00  0.00    -0.000 C 
BRANCH  15  16
ATOM     16  C   UNL     1       6.972  53.065  -1.577  1.00  0.00    -0.000 C 
BRANCH  16  17
ATOM     17  C   UNL     1       7.982  52.497  -0.568  1.00  0.00    -0.003 C 
ATOM     18  C   UNL     1       9.069  51.691  -1.273  1.00  0.00     0.004 C 
ENDBRANCH  16  17
ENDBRANCH  15  16
ENDBRANCH  14  15
ENDBRANCH  13  14
ENDBRANCH  12  13
ENDBRANCH  11  12
ENDBRANCH   1  11
TORSDOF 14
ENDMDL
MODEL 3
REMARK VINA RESULT:    -4.268      2.578      4.932
REMARK INTER + INTRA:          -9.943
REMARK INTER:                  -7.768
REMARK INTRA:                  -2.176
REMARK UNBOUND:                -2.183
REMARK SMILES CCCCCCCCCCCCCCCC(=O)[O-]
REMARK SMILES IDX 9 1 10 2 11 3 12 4 13 5 14 6 15 7 16 8 17 9 18 10 8 11 7 12
REMARK SMILES IDX 6 13 5 14 4 15 3 16 2 17 1 18
REMARK H PARENT
REMARK Flexibility Score: inf
ROOT
ATOM      1  C   UNL     1       5.504  53.199   1.492  1.00  0.00     0.000 C 
ENDROOT
BRANCH   1   2
ATOM      2  C   UNL     1       4.339  54.200   1.501  1.00  0.00     0.000 C 
BRANCH   2   3
ATOM      3  C   UNL     1       4.070  54.818   0.118  1.00  0.00     0.000 C 
BRANCH   3   4
ATOM      4  C   UNL     1       5.319  55.025  -0.762  1.00  0.00     0.000 C 
BRANCH   4   5
ATOM      5  C   UNL     1       5.333  54.225  -2.077  1.00  0.00     0.000 C 
BRANCH   5   6
ATOM      6  C   UNL     1       6.745  53.771  -2.483  1.00  0.00     0.006 C 
BRANCH   6   7
ATOM      7  C   UNL     1       7.044  52.336  -2.030  1.00  0.00     0.053 C 
BRANCH   7   8
ATOM      8  C   UNL     1       8.325  52.250  -1.256  1.00  0.00     0.041 C 
ATOM      9  O   UNL     1       9.212  51.421  -1.589  1.00  0.00    -0.550 OA
ATOM     10  O   UNL     1       8.524  53.063  -0.147  1.00  0.00    -0.550 OA
ENDBRANCH   7   8
ENDBRANCH   6   7
ENDBRANCH   5   6
ENDBRANCH   4   5
ENDBRANCH   3   4
ENDBRANCH   2   3
ENDBRANCH   1   2
BRANCH   1  11
ATOM     11  C   UNL     1       5.053  51.836   0.947  1.00  0.00     0.000 C 
BRANCH  11  12
ATOM     12  C   UNL     1       3.723  51.367   1.557  1.00  0.00    -0.000 C 
BRANCH  12  13
ATOM     13  C   UNL     1       2.786  50.729   0.515  1.00  0.00    -0.000 C 
BRANCH  13  14
ATOM     14  C   UNL     1       1.904  51.764  -0.202  1.00  0.00    -0.000 C 
BRANCH  14  15
ATOM     15  C   UNL     1       2.360  52.026  -1.648  1.00  0.00    -0.000 C 
BRANCH  15  16
ATOM     16  C   UNL     1       2.117  50.819  -2.570  1.00  0.00    -0.000 C 
BRANCH  16  17
ATOM     17  C   UNL     1       2.494  51.104  -4.032  1.00  0.00    -0.003 C 
ATOM     18  C   UNL     1       3.976  51.445  -4.159  1.00  0.00     0.004 C 
ENDBRANCH  16  17
ENDBRANCH  15  16
ENDBRANCH  14  15
ENDBRANCH  13  14
ENDBRANCH  12  13
ENDBRANCH  11  12
ENDBRANCH   1  11
TORSDOF 14
ENDMDL
MODEL 4
REMARK VINA RESULT:    -4.246      3.339      5.421
REMARK INTER + INTRA:          -9.905
REMARK INTER:                  -7.943
REMARK INTRA:                  -1.962
REMARK UNBOUND:                -2.183
REMARK SMILES CCCCCCCCCCCCCCCC(=O)[O-]
REMARK SMILES IDX 9 1 10 2 11 3 12 4 13 5 14 6 15 7 16 8 17 9 18 10 8 11 7 12
REMARK SMILES IDX 6 13 5 14 4 15 3 16 2 17 1 18
REMARK H PARENT
REMARK Flexibility Score: inf
ROOT
ATOM      1  C   UNL     1       3.645  52.788  -2.003  1.00  0.00     0.000 C 
ENDROOT
BRANCH   1   2
ATOM      2  C   UNL     1       4.091  51.904  -3.176  1.00  0.00     0.000 C 
BRANCH   2   3
ATOM      3  C   UNL     1       5.616  51.914  -3.388  1.00  0.00     0.000 C 
BRANCH   3   4
ATOM      4  C   UNL     1       6.423  52.650  -2.300  1.00  0.00     0.000 C 
BRANCH   4   5
ATOM      5  C   UNL     1       7.694  51.922  -1.824  1.00  0.00     0.000 C 
BRANCH   5   6
ATOM      6  C   UNL     1       8.468  52.713  -0.755  1.00  0.00     0.006 C 
BRANCH   6   7
ATOM      7  C   UNL     1       9.645  53.495  -1.353  1.00  0.00     0.053 C 
BRANCH   7   8
ATOM      8  C   UNL     1      10.947  52.781  -1.156  1.00  0.00     0.041 C 
ATOM      9  O   UNL     1      11.881  52.926  -1.989  1.00  0.00    -0.550 OA
ATOM     10  O   UNL     1      11.118  51.930  -0.072  1.00  0.00    -0.550 OA
ENDBRANCH   7   8
ENDBRANCH   6   7
ENDBRANCH   5   6
ENDBRANCH   4   5
ENDBRANCH   3   4
ENDBRANCH   2   3
ENDBRANCH   1   2
BRANCH   1  11
ATOM     11  C   UNL     1       2.157  52.572  -1.688  1.00  0.00     0.000 C 
BRANCH  11  12
ATOM     12  C   UNL     1       1.925  52.056  -0.259  1.00  0.00    -0.000 C 
BRANCH  12  13
ATOM     13  C   UNL     1       2.958  50.996   0.162  1.00  0.00    -0.000 C 
BRANCH  13  14
ATOM     14  C   UNL     1       3.766  51.414   1.401  1.00  0.00    -0.000 C 
BRANCH  14  15
ATOM     15  C   UNL     1       5.211  51.814   1.053  1.00  0.00    -0.000 C 
BRANCH  15  16
ATOM     16  C   UNL     1       5.537  53.260   1.463  1.00  0.00    -0.000 C 
BRANCH  16  17
ATOM     17  C   UNL     1       4.286  54.148   1.551  1.00  0.00    -0.003 C 
ATOM     18  C   UNL     1       4.394  55.342   0.607  1.00  0.00     0.004 C 
ENDBRANCH  16  17
ENDBRANCH  15  16
ENDBRANCH  14  15
ENDBRANCH  13  14
ENDBRANCH  12  13
ENDBRANCH  11  12
ENDBRANCH   1  11
TORSDOF 14
ENDMDL
MODEL 5
REMARK VINA RESULT:    -4.241      3.267      4.443
REMARK INTER + INTRA:          -9.894
REMARK INTER:                  -8.407
REMARK INTRA:                  -1.487
REMARK UNBOUND:                -2.183
REMARK SMILES CCCCCCCCCCCCCCCC(=O)[O-]
REMARK SMILES IDX 9 1 10 2 11 3 12 4 13 5 14 6 15 7 16 8 17 9 18 10 8 11 7 12
REMARK SMILES IDX 6 13 5 14 4 15 3 16 2 17 1 18
REMARK H PARENT
REMARK Flexibility Score: inf
ROOT
ATOM      1  C   UNL     1       3.027  50.719   1.352  1.00  0.00     0.000 C 
ENDROOT
BRANCH   1   2
ATOM      2  C   UNL     1       3.800  52.030   1.142  1.00  0.00     0.000 C 
BRANCH   2   3
ATOM      3  C   UNL     1       5.319  51.866   1.328  1.00  0.00     0.000 C 
BRANCH   3   4
ATOM      4  C   UNL     1       6.184  52.916   0.603  1.00  0.00     0.000 C 
BRANCH   4   5
ATOM      5  C   UNL     1       7.686  52.586   0.528  1.00  0.00     0.000 C 
BRANCH   5   6
ATOM      6  C   UNL     1       8.174  52.356  -0.912  1.00  0.00     0.006 C 
BRANCH   6   7
ATOM      7  C   UNL     1       9.529  51.636  -0.956  1.00  0.00     0.053 C 
BRANCH   7   8
ATOM      8  C   UNL     1      10.657  52.586  -1.221  1.00  0.00     0.041 C 
ATOM      9  O   UNL     1      10.454  53.829  -1.213  1.00  0.00    -0.550 OA
ATOM     10  O   UNL     1      11.926  52.098  -1.508  1.00  0.00    -0.550 OA
ENDBRANCH   7   8
ENDBRANCH   6   7
ENDBRANCH   5   6
ENDBRANCH   4   5
ENDBRANCH   3   4
ENDBRANCH   2   3
ENDBRANCH   1   2
BRANCH   1  11
ATOM     11  C   UNL     1       1.931  50.552   0.288  1.00  0.00     0.000 C 
BRANCH  11  12
ATOM     12  C   UNL     1       2.086  51.539  -0.879  1.00  0.00    -0.000 C 
BRANCH  12  13
ATOM     13  C   UNL     1       2.219  50.829  -2.239  1.00  0.00    -0.000 C 
BRANCH  13  14
ATOM     14  C   UNL     1       3.186  51.549  -3.192  1.00  0.00    -0.000 C 
BRANCH  14  15
ATOM     15  C   UNL     1       4.517  51.917  -2.512  1.00  0.00    -0.000 C 
BRANCH  15  16
ATOM     16  C   UNL     1       5.664  52.094  -3.520  1.00  0.00    -0.000 C 
BRANCH  16  17
ATOM     17  C   UNL     1       5.606  53.442  -4.255  1.00  0.00    -0.003 C 
ATOM     18  C   UNL     1       6.656  54.408  -3.712  1.00  0.00     0.004 C 
ENDBRANCH  16  17
ENDBRANCH  15  16
ENDBRANCH  14  15
ENDBRANCH  13  14
ENDBRANCH  12  13
ENDBRANCH  11  12
ENDBRANCH   1  11
TORSDOF 14
ENDMDL
MODEL 6
REMARK VINA RESULT:    -4.230      2.684      4.492
REMARK INTER + INTRA:          -9.875
REMARK INTER:                  -8.378
REMARK INTRA:                  -1.497
REMARK UNBOUND:                -2.183
REMARK SMILES CCCCCCCCCCCCCCCC(=O)[O-]
REMARK SMILES IDX 9 1 10 2 11 3 12 4 13 5 14 6 15 7 16 8 17 9 18 10 8 11 7 12
REMARK SMILES IDX 6 13 5 14 4 15 3 16 2 17 1 18
REMARK H PARENT
REMARK Flexibility Score: inf
ROOT
ATOM      1  C   UNL     1       4.023  52.442   1.491  1.00  0.00     0.000 C 
ENDROOT
BRANCH   1   2
ATOM      2  C   UNL     1       3.376  51.055   1.358  1.00  0.00     0.000 C 
BRANCH   2   3
ATOM      3  C   UNL     1       2.198  51.036   0.368  1.00  0.00     0.000 C 
BRANCH   3   4
ATOM      4  C   UNL     1       1.875  52.392  -0.293  1.00  0.00     0.000 C 
BRANCH   4   5
ATOM      5  C   UNL     1       2.307  52.522  -1.764  1.00  0.00     0.000 C 
BRANCH   5   6
ATOM      6  C   UNL     1       2.628  51.165  -2.413  1.00  0.00     0.006 C 
BRANCH   6   7
ATOM      7  C   UNL     1       2.552  51.222  -3.945  1.00  0.00     0.053 C 
BRANCH   7   8
ATOM      8  C   UNL     1       3.879  51.551  -4.558  1.00  0.00     0.041 C 
ATOM      9  O   UNL     1       4.946  51.205  -3.984  1.00  0.00    -0.550 OA
ATOM     10  O   UNL     1       3.939  52.267  -5.747  1.00  0.00    -0.550 OA
ENDBRANCH   7   8
ENDBRANCH   6   7
ENDBRANCH   5   6
ENDBRANCH   4   5
ENDBRANCH   3   4
ENDBRANCH   2   3
ENDBRANCH   1   2
BRANCH   1  11
ATOM     11  C   UNL     1       5.500  52.400   1.075  1.00  0.00     0.000 C 
BRANCH  11  12
ATOM     12  C   UNL     1       5.685  52.114  -0.423  1.00  0.00    -0.000 C 
BRANCH  12  13
ATOM     13  C   UNL     1       6.324  53.294  -1.177  1.00  0.00    -0.000 C 
BRANCH  13  14
ATOM     14  C   UNL     1       7.709  52.954  -1.748  1.00  0.00    -0.000 C 
BRANCH  14  15
ATOM     15  C   UNL     1       8.845  53.249  -0.752  1.00  0.00    -0.000 C 
BRANCH  15  16
ATOM     16  C   UNL     1       9.556  51.972  -0.274  1.00  0.00    -0.000 C 
BRANCH  16  17
ATOM     17  C   UNL     1      11.087  52.092  -0.323  1.00  0.00    -0.003 C 
ATOM     18  C   UNL     1      11.552  52.624  -1.676  1.00  0.00     0.004 C 
ENDBRANCH  16  17
ENDBRANCH  15  16
ENDBRANCH  14  15
ENDBRANCH  13  14
ENDBRANCH  12  13
ENDBRANCH  11  12
ENDBRANCH   1  11
TORSDOF 14
ENDMDL
MODEL 7
REMARK VINA RESULT:    -4.228      3.119      5.357
REMARK INTER + INTRA:          -9.872
REMARK INTER:                  -8.527
REMARK INTRA:                  -1.344
REMARK UNBOUND:                -2.183
REMARK SMILES CCCCCCCCCCCCCCCC(=O)[O-]
REMARK SMILES IDX 9 1 10 2 11 3 12 4 13 5 14 6 15 7 16 8 17 9 18 10 8 11 7 12
REMARK SMILES IDX 6 13 5 14 4 15 3 16 2 17 1 18
REMARK H PARENT
REMARK Flexibility Score: inf
ROOT
ATOM      1  C   UNL     1       5.437  51.860   1.375  1.00  0.00     0.000 C 
ENDROOT
BRANCH   1   2
ATOM      2  C   UNL     1       6.113  52.820   0.385  1.00  0.00     0.000 C 
BRANCH   2   3
ATOM      3  C   UNL     1       7.638  52.628   0.311  1.00  0.00     0.000 C 
BRANCH   3   4
ATOM      4  C   UNL     1       8.197  52.366  -1.102  1.00  0.00     0.000 C 
BRANCH   4   5
ATOM      5  C   UNL     1       9.412  51.423  -1.161  1.00  0.00     0.000 C 
BRANCH   5   6
ATOM      6  C   UNL     1      10.683  52.050  -0.563  1.00  0.00     0.006 C 
BRANCH   6   7
ATOM      7  C   UNL     1      10.975  53.438  -1.149  1.00  0.00     0.053 C 
BRANCH   7   8
ATOM      8  C   UNL     1      10.976  54.500  -0.092  1.00  0.00     0.041 C 
ATOM      9  O   UNL     1      11.247  54.205   1.102  1.00  0.00    -0.550 OA
ATOM     10  O   UNL     1      10.648  55.809  -0.420  1.00  0.00    -0.550 OA
ENDBRANCH   7   8
ENDBRANCH   6   7
ENDBRANCH   5   6
ENDBRANCH   4   5
ENDBRANCH   3   4
ENDBRANCH   2   3
ENDBRANCH   1   2
BRANCH   1  11
ATOM     11  C   UNL     1       3.912  52.035   1.353  1.00  0.00     0.000 C 
BRANCH  11  12
ATOM     12  C   UNL     1       3.162  50.705   1.526  1.00  0.00    -0.000 C 
BRANCH  12  13
ATOM     13  C   UNL     1       2.292  50.353   0.306  1.00  0.00    -0.000 C 
BRANCH  13  14
ATOM     14  C   UNL     1       2.343  51.430  -0.790  1.00  0.00    -0.000 C 
BRANCH  14  15
ATOM     15  C   UNL     1       1.961  50.879  -2.175  1.00  0.00    -0.000 C 
BRANCH  15  16
ATOM     16  C   UNL     1       3.011  51.207  -3.249  1.00  0.00    -0.000 C 
BRANCH  16  17
ATOM     17  C   UNL     1       4.146  52.096  -2.718  1.00  0.00    -0.003 C 
ATOM     18  C   UNL     1       5.441  51.851  -3.488  1.00  0.00     0.004 C 
ENDBRANCH  16  17
ENDBRANCH  15  16
ENDBRANCH  14  15
ENDBRANCH  13  14
ENDBRANCH  12  13
ENDBRANCH  11  12
ENDBRANCH   1  11
TORSDOF 14
ENDMDL
MODEL 8
REMARK VINA RESULT:    -4.210      2.273      4.575
REMARK INTER + INTRA:          -9.839
REMARK INTER:                  -7.347
REMARK INTRA:                  -2.492
REMARK UNBOUND:                -2.183
REMARK SMILES CCCCCCCCCCCCCCCC(=O)[O-]
REMARK SMILES IDX 9 1 10 2 11 3 12 4 13 5 14 6 15 7 16 8 17 9 18 10 8 11 7 12
REMARK SMILES IDX 6 13 5 14 4 15 3 16 2 17 1 18
REMARK H PARENT
REMARK Flexibility Score: inf
ROOT
ATOM      1  C   UNL     1       2.945  54.701  -0.023  1.00  0.00     0.000 C 
ENDROOT
BRANCH   1   2
ATOM      2  C   UNL     1       4.300  55.209  -0.538  1.00  0.00     0.000 C 
BRANCH   2   3
ATOM      3  C   UNL     1       4.517  54.923  -2.035  1.00  0.00     0.000 C 
BRANCH   3   4
ATOM      4  C   UNL     1       5.860  54.252  -2.385  1.00  0.00     0.000 C 
BRANCH   4   5
ATOM      5  C   UNL     1       5.834  53.348  -3.630  1.00  0.00     0.000 C 
BRANCH   5   6
ATOM      6  C   UNL     1       5.354  51.920  -3.320  1.00  0.00     0.006 C 
BRANCH   6   7
ATOM      7  C   UNL     1       4.454  51.358  -4.428  1.00  0.00     0.053 C 
BRANCH   7   8
ATOM      8  C   UNL     1       3.003  51.617  -4.154  1.00  0.00     0.041 C 
ATOM      9  O   UNL     1       2.266  50.693  -3.720  1.00  0.00    -0.550 OA
ATOM     10  O   UNL     1       2.460  52.870  -4.408  1.00  0.00    -0.550 OA
ENDBRANCH   7   8
ENDBRANCH   6   7
ENDBRANCH   5   6
ENDBRANCH   4   5
ENDBRANCH   3   4
ENDBRANCH   2   3
ENDBRANCH   1   2
BRANCH   1  11
ATOM     11  C   UNL     1       2.311  53.721  -1.021  1.00  0.00     0.000 C 
BRANCH  11  12
ATOM     12  C   UNL     1       1.912  52.388  -0.369  1.00  0.00    -0.000 C 
BRANCH  12  13
ATOM     13  C   UNL     1       3.077  51.384  -0.316  1.00  0.00    -0.000 C 
BRANCH  13  14
ATOM     14  C   UNL     1       3.495  51.035   1.121  1.00  0.00    -0.000 C 
BRANCH  14  15
ATOM     15  C   UNL     1       4.781  51.762   1.553  1.00  0.00    -0.000 C 
BRANCH  15  16
ATOM     16  C   UNL     1       5.679  52.129   0.360  1.00  0.00    -0.000 C 
BRANCH  16  17
ATOM     17  C   UNL     1       7.052  52.664   0.794  1.00  0.00    -0.003 C 
ATOM     18  C   UNL     1       6.917  53.642   1.958  1.00  0.00     0.004 C 
ENDBRANCH  16  17
ENDBRANCH  15  16
ENDBRANCH  14  15
ENDBRANCH  13  14
ENDBRANCH  12  13
ENDBRANCH  11  12
ENDBRANCH   1  11
TORSDOF 14
ENDMDL
MODEL 9
REMARK VINA RESULT:    -4.186      3.153      5.407
REMARK INTER + INTRA:          -9.795
REMARK INTER:                  -7.823
REMARK INTRA:                  -1.972
REMARK UNBOUND:                -2.183
REMARK SMILES CCCCCCCCCCCCCCCC(=O)[O-]
REMARK SMILES IDX 9 1 10 2 11 3 12 4 13 5 14 6 15 7 16 8 17 9 18 10 8 11 7 12
REMARK SMILES IDX 6 13 5 14 4 15 3 16 2 17 1 18
REMARK H PARENT
REMARK Flexibility Score: inf
ROOT
ATOM      1  C   UNL     1       3.235  51.704  -1.897  1.00  0.00     0.000 C 
ENDROOT
BRANCH   1   2
ATOM      2  C   UNL     1       3.462  51.855  -3.409  1.00  0.00     0.000 C 
BRANCH   2   3
ATOM      3  C   UNL     1       4.950  51.797  -3.800  1.00  0.00     0.000 C 
BRANCH   3   4
ATOM      4  C   UNL     1       5.901  52.587  -2.879  1.00  0.00     0.000 C 
BRANCH   4   5
ATOM      5  C   UNL     1       6.991  51.747  -2.190  1.00  0.00     0.000 C 
BRANCH   5   6
ATOM      6  C   UNL     1       8.166  52.599  -1.680  1.00  0.00     0.006 C 
BRANCH   6   7
ATOM      7  C   UNL     1       9.373  51.740  -1.278  1.00  0.00     0.053 C 
BRANCH   7   8
ATOM      8  C   UNL     1      10.630  52.552  -1.187  1.00  0.00     0.041 C 
ATOM      9  O   UNL     1      11.753  51.981  -1.179  1.00  0.00    -0.550 OA
ATOM     10  O   UNL     1      10.559  53.935  -1.078  1.00  0.00    -0.550 OA
ENDBRANCH   7   8
ENDBRANCH   6   7
ENDBRANCH   5   6
ENDBRANCH   4   5
ENDBRANCH   3   4
ENDBRANCH   2   3
ENDBRANCH   1   2
BRANCH   1  11
ATOM     11  C   UNL     1       1.875  52.286  -1.486  1.00  0.00     0.000 C 
BRANCH  11  12
ATOM     12  C   UNL     1       2.000  53.383  -0.418  1.00  0.00    -0.000 C 
BRANCH  12  13
ATOM     13  C   UNL     1       3.202  54.313  -0.663  1.00  0.00    -0.000 C 
BRANCH  13  14
ATOM     14  C   UNL     1       3.589  55.123   0.585  1.00  0.00    -0.000 C 
BRANCH  14  15
ATOM     15  C   UNL     1       4.472  54.321   1.557  1.00  0.00    -0.000 C 
BRANCH  15  16
ATOM     16  C   UNL     1       5.533  53.478   0.830  1.00  0.00    -0.000 C 
BRANCH  16  17
ATOM     17  C   UNL     1       5.699  52.078   1.440  1.00  0.00    -0.003 C 
ATOM     18  C   UNL     1       4.355  51.361   1.541  1.00  0.00     0.004 C 
ENDBRANCH  16  17
ENDBRANCH  15  16
ENDBRANCH  14  15
ENDBRANCH  13  14
ENDBRANCH  12  13
ENDBRANCH  11  12
ENDBRANCH   1  11
TORSDOF 14
ENDMDL
