MODEL 1
REMARK VINA RESULT:    -5.194      0.000      0.000
REMARK INTER + INTRA:          -6.389
REMARK INTER:                  -6.105
REMARK INTRA:                  -0.284
REMARK UNBOUND:                -0.284
REMARK SMILES O=C([O-])C=Cc1ccc(O)c(O)c1
REMARK SMILES IDX 6 1 13 2 7 3 11 4 8 5 9 6 5 7 4 8 2 9 1 10 3 11 12 12 10 14
REMARK H PARENT 12 13 10 15
REMARK Flexibility Score: inf
ROOT
ATOM      1  C   UNL     1       9.246  -6.801  -8.249  1.00  0.00    -0.022 A 
ATOM      2  C   UNL     1      10.047  -5.962  -7.458  1.00  0.00     0.058 A 
ATOM      3  C   UNL     1       7.899  -6.979  -7.914  1.00  0.00     0.012 A 
ATOM      4  C   UNL     1       9.528  -5.345  -6.313  1.00  0.00     0.157 A 
ATOM      5  C   UNL     1       7.372  -6.370  -6.774  1.00  0.00     0.051 A 
ATOM      6  C   UNL     1       8.173  -5.557  -5.962  1.00  0.00     0.157 A 
ENDROOT
BRANCH   1   7
ATOM      7  C   UNL     1       9.770  -7.414  -9.488  1.00  0.00     0.010 C 
ATOM      8  C   UNL     1       9.695  -6.873 -10.714  1.00  0.00     0.025 C 
BRANCH   8   9
ATOM      9  C   UNL     1       9.251  -5.500 -11.018  1.00  0.00     0.064 C 
ATOM     10  O   UNL     1      10.108  -4.583 -11.118  1.00  0.00    -0.545 OA
ATOM     11  O   UNL     1       7.903  -5.179 -11.125  1.00  0.00    -0.545 OA
ENDBRANCH   8   9
ENDBRANCH   1   7
BRANCH   4  12
ATOM     12  O   UNL     1      10.382  -4.533  -5.565  1.00  0.00    -0.504 OA
ATOM     13  H   UNL     1      11.252  -4.157  -5.913  1.00  0.00     0.293 HD
ENDBRANCH   4  12
BRANCH   6  14
ATOM     14  O   UNL     1       7.587  -4.985  -4.831  1.00  0.00    -0.504 OA
ATOM     15  H   UNL     1       7.140  -5.516  -4.098  1.00  0.00     0.293 HD
ENDBRANCH   6  14
TORSDOF 4
ENDMDL
MODEL 2
REMARK VINA RESULT:    -5.072      1.963      2.590
REMARK INTER + INTRA:          -6.246
REMARK INTER:                  -5.986
REMARK INTRA:                  -0.260
REMARK UNBOUND:                -0.284
REMARK SMILES O=C([O-])C=Cc1ccc(O)c(O)c1
REMARK SMILES IDX 6 1 13 2 7 3 11 4 8 5 9 6 5 7 4 8 2 9 1 10 3 11 12 12 10 14
REMARK H PARENT 12 13 10 15
REMARK Flexibility Score: inf
ROOT
ATOM      1  C   UNL     1       8.343  -7.597  -9.235  1.00  0.00    -0.022 A 
ATOM      2  C   UNL     1       7.761  -6.369  -8.881  1.00  0.00     0.058 A 
ATOM      3  C   UNL     1       9.534  -7.994  -8.617  1.00  0.00     0.012 A 
ATOM      4  C   UNL     1       8.384  -5.519  -7.958  1.00  0.00     0.157 A 
ATOM      5  C   UNL     1      10.164  -7.154  -7.698  1.00  0.00     0.051 A 
ATOM      6  C   UNL     1       9.606  -5.914  -7.363  1.00  0.00     0.157 A 
ENDROOT
BRANCH   1   7
ATOM      7  C   UNL     1       7.667  -8.524 -10.167  1.00  0.00     0.010 C 
ATOM      8  C   UNL     1       7.613  -8.382 -11.500  1.00  0.00     0.025 C 
BRANCH   8   9
ATOM      9  C   UNL     1       8.370  -7.391 -12.287  1.00  0.00     0.064 C 
ATOM     10  O   UNL     1       9.548  -7.657 -12.643  1.00  0.00    -0.545 OA
ATOM     11  O   UNL     1       7.840  -6.141 -12.584  1.00  0.00    -0.545 OA
ENDBRANCH   8   9
ENDBRANCH   1   7
BRANCH   4  12
ATOM     12  O   UNL     1       7.757  -4.308  -7.660  1.00  0.00    -0.504 OA
ATOM     13  H   UNL     1       7.810  -3.851  -6.760  1.00  0.00     0.293 HD
ENDBRANCH   4  12
BRANCH   6  14
ATOM     14  O   UNL     1      10.291  -5.117  -6.443  1.00  0.00    -0.504 OA
ATOM     15  H   UNL     1       9.928  -4.254  -6.065  1.00  0.00     0.293 HD
ENDBRANCH   6  14
TORSDOF 4
ENDMDL
MODEL 3
REMARK VINA RESULT:    -4.999      1.941      2.424
REMARK INTER + INTRA:          -6.161
REMARK INTER:                  -5.892
REMARK INTRA:                  -0.269
REMARK UNBOUND:                -0.284
REMARK SMILES O=C([O-])C=Cc1ccc(O)c(O)c1
REMARK SMILES IDX 6 1 13 2 7 3 11 4 8 5 9 6 5 7 4 8 2 9 1 10 3 11 12 12 10 14
REMARK H PARENT 12 13 10 15
REMARK Flexibility Score: inf
ROOT
ATOM      1  C   UNL     1       8.204  -7.466  -9.120  1.00  0.00    -0.022 A 
ATOM      2  C   UNL     1       9.503  -7.780  -8.690  1.00  0.00     0.058 A 
ATOM      3  C   UNL     1       7.587  -6.303  -8.645  1.00  0.00     0.012 A 
ATOM      4  C   UNL     1      10.165  -6.974  -7.756  1.00  0.00     0.157 A 
ATOM      5  C   UNL     1       8.237  -5.493  -7.712  1.00  0.00     0.051 A 
ATOM      6  C   UNL     1       9.521  -5.817  -7.254  1.00  0.00     0.157 A 
ENDROOT
BRANCH   1   7
ATOM      7  C   UNL     1       7.518  -8.281 -10.145  1.00  0.00     0.010 C 
ATOM      8  C   UNL     1       7.539  -8.046 -11.465  1.00  0.00     0.025 C 
BRANCH   8   9
ATOM      9  C   UNL     1       8.395  -7.055 -12.145  1.00  0.00     0.064 C 
ATOM     10  O   UNL     1       7.866  -6.043 -12.673  1.00  0.00    -0.545 OA
ATOM     11  O   UNL     1       9.765  -7.250 -12.279  1.00  0.00    -0.545 OA
ENDBRANCH   8   9
ENDBRANCH   1   7
BRANCH   4  12
ATOM     12  O   UNL     1      11.450  -7.351  -7.362  1.00  0.00    -0.504 OA
ATOM     13  H   UNL     1      12.049  -7.961  -7.899  1.00  0.00     0.293 HD
ENDBRANCH   4  12
BRANCH   6  14
ATOM     14  O   UNL     1      10.112  -4.970  -6.315  1.00  0.00    -0.504 OA
ATOM     15  H   UNL     1       9.610  -4.534  -5.555  1.00  0.00     0.293 HD
ENDBRANCH   6  14
TORSDOF 4
ENDMDL
MODEL 4
REMARK VINA RESULT:    -4.857      1.997      2.510
REMARK INTER + INTRA:          -5.993
REMARK INTER:                  -5.706
REMARK INTRA:                  -0.288
REMARK UNBOUND:                -0.284
REMARK SMILES O=C([O-])C=Cc1ccc(O)c(O)c1
REMARK SMILES IDX 6 1 13 2 7 3 11 4 8 5 9 6 5 7 4 8 2 9 1 10 3 11 12 12 10 14
REMARK H PARENT 12 13 10 15
REMARK Flexibility Score: inf
ROOT
ATOM      1  C   UNL     1       7.951  -6.726  -7.445  1.00  0.00    -0.022 A 
ATOM      2  C   UNL     1       8.070  -5.600  -6.614  1.00  0.00     0.058 A 
ATOM      3  C   UNL     1       7.622  -7.963  -6.880  1.00  0.00     0.012 A 
ATOM      4  C   UNL     1       7.915  -5.712  -5.226  1.00  0.00     0.157 A 
ATOM      5  C   UNL     1       7.468  -8.087  -5.498  1.00  0.00     0.051 A 
ATOM      6  C   UNL     1       7.616  -6.975  -4.659  1.00  0.00     0.157 A 
ENDROOT
BRANCH   1   7
ATOM      7  C   UNL     1       8.059  -6.608  -8.914  1.00  0.00     0.010 C 
ATOM      8  C   UNL     1       9.202  -6.663  -9.615  1.00  0.00     0.025 C 
BRANCH   8   9
ATOM      9  C   UNL     1      10.522  -7.037  -9.073  1.00  0.00     0.064 C 
ATOM     10  O   UNL     1      11.381  -6.140  -8.870  1.00  0.00    -0.545 OA
ATOM     11  O   UNL     1      10.865  -8.365  -8.849  1.00  0.00    -0.545 OA
ENDBRANCH   8   9
ENDBRANCH   1   7
BRANCH   4  12
ATOM     12  O   UNL     1       8.058  -4.556  -4.458  1.00  0.00    -0.504 OA
ATOM     13  H   UNL     1       7.625  -4.420  -3.556  1.00  0.00     0.293 HD
ENDBRANCH   4  12
BRANCH   6  14
ATOM     14  O   UNL     1       7.457  -7.168  -3.285  1.00  0.00    -0.504 OA
ATOM     15  H   UNL     1       6.966  -7.951  -2.879  1.00  0.00     0.293 HD
ENDBRANCH   6  14
TORSDOF 4
ENDMDL
MODEL 5
REMARK VINA RESULT:    -4.728      2.055      2.830
REMARK INTER + INTRA:          -5.842
REMARK INTER:                  -5.596
REMARK INTRA:                  -0.246
REMARK UNBOUND:                -0.284
REMARK SMILES O=C([O-])C=Cc1ccc(O)c(O)c1
REMARK SMILES IDX 6 1 13 2 7 3 11 4 8 5 9 6 5 7 4 8 2 9 1 10 3 11 12 12 10 14
REMARK H PARENT 12 13 10 15
REMARK Flexibility Score: inf
ROOT
ATOM      1  C   UNL     1       9.179  -5.578  -9.607  1.00  0.00    -0.022 A 
ATOM      2  C   UNL     1       7.879  -5.078  -9.434  1.00  0.00     0.058 A 
ATOM      3  C   UNL     1       9.905  -6.001  -8.488  1.00  0.00     0.012 A 
ATOM      4  C   UNL     1       7.322  -4.950  -8.155  1.00  0.00     0.157 A 
ATOM      5  C   UNL     1       9.362  -5.876  -7.208  1.00  0.00     0.051 A 
ATOM      6  C   UNL     1       8.077  -5.349  -7.025  1.00  0.00     0.157 A 
ENDROOT
BRANCH   1   7
ATOM      7  C   UNL     1       9.754  -5.766 -10.956  1.00  0.00     0.010 C 
ATOM      8  C   UNL     1       9.536  -6.824 -11.752  1.00  0.00     0.025 C 
BRANCH   8   9
ATOM      9  C   UNL     1       8.545  -7.889 -11.508  1.00  0.00     0.064 C 
ATOM     10  O   UNL     1       7.434  -7.843 -12.097  1.00  0.00    -0.545 OA
ATOM     11  O   UNL     1       8.782  -8.905 -10.589  1.00  0.00    -0.545 OA
ENDBRANCH   8   9
ENDBRANCH   1   7
BRANCH   4  12
ATOM     12  O   UNL     1       6.030  -4.434  -8.054  1.00  0.00    -0.504 OA
ATOM     13  H   UNL     1       5.304  -4.837  -7.478  1.00  0.00     0.293 HD
ENDBRANCH   4  12
BRANCH   6  14
ATOM     14  O   UNL     1       7.595  -5.243  -5.719  1.00  0.00    -0.504 OA
ATOM     15  H   UNL     1       7.528  -4.372  -5.212  1.00  0.00     0.293 HD
ENDBRANCH   6  14
TORSDOF 4
ENDMDL
MODEL 6
REMARK VINA RESULT:    -4.687      1.783      1.974
REMARK INTER + INTRA:          -5.793
REMARK INTER:                  -5.534
REMARK INTRA:                  -0.260
REMARK UNBOUND:                -0.284
REMARK SMILES O=C([O-])C=Cc1ccc(O)c(O)c1
REMARK SMILES IDX 6 1 13 2 7 3 11 4 8 5 9 6 5 7 4 8 2 9 1 10 3 11 12 12 10 14
REMARK H PARENT 12 13 10 15
REMARK Flexibility Score: inf
ROOT
ATOM      1  C   UNL     1       9.964  -7.837  -8.644  1.00  0.00    -0.022 A 
ATOM      2  C   UNL     1      10.503  -6.866  -7.784  1.00  0.00     0.058 A 
ATOM      3  C   UNL     1       8.594  -7.815  -8.928  1.00  0.00     0.012 A 
ATOM      4  C   UNL     1       9.681  -5.913  -7.170  1.00  0.00     0.157 A 
ATOM      5  C   UNL     1       7.764  -6.871  -8.320  1.00  0.00     0.051 A 
ATOM      6  C   UNL     1       8.290  -5.919  -7.437  1.00  0.00     0.157 A 
ENDROOT
BRANCH   1   7
ATOM      7  C   UNL     1      10.832  -8.812  -9.337  1.00  0.00     0.010 C 
ATOM      8  C   UNL     1      11.244  -8.717 -10.610  1.00  0.00     0.025 C 
BRANCH   8   9
ATOM      9  C   UNL     1      11.066  -7.540 -11.482  1.00  0.00     0.064 C 
ATOM     10  O   UNL     1      11.934  -6.628 -11.471  1.00  0.00    -0.545 OA
ATOM     11  O   UNL     1       9.926  -7.380 -12.262  1.00  0.00    -0.545 OA
ENDBRANCH   8   9
ENDBRANCH   1   7
BRANCH   4  12
ATOM     12  O   UNL     1      10.280  -4.985  -6.317  1.00  0.00    -0.504 OA
ATOM     13  H   UNL     1       9.909  -4.064  -6.135  1.00  0.00     0.293 HD
ENDBRANCH   4  12
BRANCH   6  14
ATOM     14  O   UNL     1       7.405  -5.009  -6.856  1.00  0.00    -0.504 OA
ATOM     15  H   UNL     1       7.457  -4.010  -6.988  1.00  0.00     0.293 HD
ENDBRANCH   6  14
TORSDOF 4
ENDMDL
MODEL 7
REMARK VINA RESULT:    -4.652      1.727      2.137
REMARK INTER + INTRA:          -5.752
REMARK INTER:                  -5.471
REMARK INTRA:                  -0.281
REMARK UNBOUND:                -0.284
REMARK SMILES O=C([O-])C=Cc1ccc(O)c(O)c1
REMARK SMILES IDX 6 1 13 2 7 3 11 4 8 5 9 6 5 7 4 8 2 9 1 10 3 11 12 12 10 14
REMARK H PARENT 12 13 10 15
REMARK Flexibility Score: inf
ROOT
ATOM      1  C   UNL     1      10.368  -6.837  -8.140  1.00  0.00    -0.022 A 
ATOM      2  C   UNL     1       9.615  -5.872  -7.451  1.00  0.00     0.058 A 
ATOM      3  C   UNL     1       9.913  -8.160  -8.179  1.00  0.00     0.012 A 
ATOM      4  C   UNL     1       8.448  -6.227  -6.764  1.00  0.00     0.157 A 
ATOM      5  C   UNL     1       8.752  -8.526  -7.496  1.00  0.00     0.051 A 
ATOM      6  C   UNL     1       8.013  -7.575  -6.781  1.00  0.00     0.157 A 
ENDROOT
BRANCH   1   7
ATOM      7  C   UNL     1      11.571  -6.463  -8.912  1.00  0.00     0.010 C 
ATOM      8  C   UNL     1      11.587  -6.131 -10.212  1.00  0.00     0.025 C 
BRANCH   8   9
ATOM      9  C   UNL     1      10.396  -5.897 -11.051  1.00  0.00     0.064 C 
ATOM     10  O   UNL     1       9.999  -6.807 -11.825  1.00  0.00    -0.545 OA
ATOM     11  O   UNL     1       9.744  -4.670 -11.060  1.00  0.00    -0.545 OA
ENDBRANCH   8   9
ENDBRANCH   1   7
BRANCH   4  12
ATOM     12  O   UNL     1       7.755  -5.221  -6.090  1.00  0.00    -0.504 OA
ATOM     13  H   UNL     1       8.199  -4.430  -5.645  1.00  0.00     0.293 HD
ENDBRANCH   4  12
BRANCH   6  14
ATOM     14  O   UNL     1       6.867  -8.007  -6.112  1.00  0.00    -0.504 OA
ATOM     15  H   UNL     1       6.104  -8.497  -6.558  1.00  0.00     0.293 HD
ENDBRANCH   6  14
TORSDOF 4
ENDMDL
MODEL 8
REMARK VINA RESULT:    -4.594     11.666     12.884
REMARK INTER + INTRA:          -5.684
REMARK INTER:                  -5.423
REMARK INTRA:                  -0.261
REMARK UNBOUND:                -0.284
REMARK SMILES O=C([O-])C=Cc1ccc(O)c(O)c1
REMARK SMILES IDX 6 1 13 2 7 3 11 4 8 5 9 6 5 7 4 8 2 9 1 10 3 11 12 12 10 14
REMARK H PARENT 12 13 10 15
REMARK Flexibility Score: inf
ROOT
ATOM      1  C   UNL     1      21.469  -2.164  -7.624  1.00  0.00    -0.022 A 
ATOM      2  C   UNL     1      21.110  -2.527  -6.316  1.00  0.00     0.058 A 
ATOM      3  C   UNL     1      20.469  -1.998  -8.588  1.00  0.00     0.012 A 
ATOM      4  C   UNL     1      19.773  -2.773  -5.980  1.00  0.00     0.157 A 
ATOM      5  C   UNL     1      19.133  -2.243  -8.265  1.00  0.00     0.051 A 
ATOM      6  C   UNL     1      18.770  -2.636  -6.970  1.00  0.00     0.157 A 
ENDROOT
BRANCH   1   7
ATOM      7  C   UNL     1      22.871  -1.851  -7.974  1.00  0.00     0.010 C 
ATOM      8  C   UNL     1      23.839  -2.755  -8.186  1.00  0.00     0.025 C 
BRANCH   8   9
ATOM      9  C   UNL     1      23.641  -4.212  -8.294  1.00  0.00     0.064 C 
ATOM     10  O   UNL     1      24.022  -4.957  -7.354  1.00  0.00    -0.545 OA
ATOM     11  O   UNL     1      23.109  -4.790  -9.441  1.00  0.00    -0.545 OA
ENDBRANCH   8   9
ENDBRANCH   1   7
BRANCH   4  12
ATOM     12  O   UNL     1      19.487  -3.142  -4.665  1.00  0.00    -0.504 OA
ATOM     13  H   UNL     1      18.997  -3.987  -4.409  1.00  0.00     0.293 HD
ENDBRANCH   4  12
BRANCH   6  14
ATOM     14  O   UNL     1      17.418  -2.874  -6.715  1.00  0.00    -0.504 OA
ATOM     15  H   UNL     1      16.993  -3.789  -6.738  1.00  0.00     0.293 HD
ENDBRANCH   6  14
TORSDOF 4
ENDMDL
MODEL 9
REMARK VINA RESULT:    -4.506     21.504     22.738
REMARK INTER + INTRA:          -5.581
REMARK INTER:                  -5.361
REMARK INTRA:                  -0.219
REMARK UNBOUND:                -0.284
REMARK SMILES O=C([O-])C=Cc1ccc(O)c(O)c1
REMARK SMILES IDX 6 1 13 2 7 3 11 4 8 5 9 6 5 7 4 8 2 9 1 10 3 11 12 12 10 14
REMARK H PARENT 12 13 10 15
REMARK Flexibility Score: inf
ROOT
ATOM      1  C   UNL     1      24.351   8.118 -18.503  1.00  0.00    -0.022 A 
ATOM      2  C   UNL     1      22.953   8.101 -18.635  1.00  0.00     0.058 A 
ATOM      3  C   UNL     1      25.104   7.078 -19.058  1.00  0.00     0.012 A 
ATOM      4  C   UNL     1      22.305   7.033 -19.269  1.00  0.00     0.157 A 
ATOM      5  C   UNL     1      24.469   6.008 -19.690  1.00  0.00     0.051 A 
ATOM      6  C   UNL     1      23.073   5.968 -19.798  1.00  0.00     0.157 A 
ENDROOT
BRANCH   1   7
ATOM      7  C   UNL     1      25.047   9.266 -17.883  1.00  0.00     0.010 C 
ATOM      8  C   UNL     1      25.016   9.580 -16.579  1.00  0.00     0.025 C 
BRANCH   8   9
ATOM      9  C   UNL     1      24.447   8.740 -15.509  1.00  0.00     0.064 C 
ATOM     10  O   UNL     1      25.125   7.785 -15.048  1.00  0.00    -0.545 OA
ATOM     11  O   UNL     1      23.150   8.933 -15.047  1.00  0.00    -0.545 OA
ENDBRANCH   8   9
ENDBRANCH   1   7
BRANCH   4  12
ATOM     12  O   UNL     1      20.912   7.073 -19.356  1.00  0.00    -0.504 OA
ATOM     13  H   UNL     1      20.379   6.628 -20.089  1.00  0.00     0.293 HD
ENDBRANCH   4  12
BRANCH   6  14
ATOM     14  O   UNL     1      22.499   4.865 -20.434  1.00  0.00    -0.504 OA
ATOM     15  H   UNL     1      22.142   4.057 -19.947  1.00  0.00     0.293 HD
ENDBRANCH   6  14
TORSDOF 4
ENDMDL
