MODEL 1
REMARK VINA RESULT:    -3.937      0.000      0.000
REMARK INTER + INTRA:         -15.487
REMARK INTER:                 -10.383
REMARK INTRA:                  -5.104
REMARK UNBOUND:                -5.104
REMARK SMILES CCCCCCCCCCCCCCCCCCCCCCCCCCCCCC(=O)[O-]
REMARK SMILES IDX 16 1 17 2 18 3 19 4 20 5 21 6 22 7 23 8 24 9 25 10 26 11
REMARK SMILES IDX 27 12 28 13 29 14 30 15 31 16 32 17 15 18 14 19 13 20 12 21
REMARK SMILES IDX 11 22 10 23 9 24 8 25 7 26 6 27 5 28 4 29 3 30 2 31 1 32
REMARK H PARENT
REMARK Flexibility Score: inf
ROOT
ATOM      1  C   UNL     1      62.207 -12.004  14.885  1.00  0.00     0.000 C 
ENDROOT
BRANCH   1   2
ATOM      2  C   UNL     1      62.034 -11.649  16.376  1.00  0.00     0.000 C 
BRANCH   2   3
ATOM      3  C   UNL     1      63.186 -12.104  17.297  1.00  0.00     0.000 C 
BRANCH   3   4
ATOM      4  C   UNL     1      64.199 -11.005  17.665  1.00  0.00     0.000 C 
BRANCH   4   5
ATOM      5  C   UNL     1      65.295 -11.496  18.620  1.00  0.00     0.000 C 
BRANCH   5   6
ATOM      6  C   UNL     1      65.341 -13.032  18.655  1.00  0.00     0.000 C 
BRANCH   6   7
ATOM      7  C   UNL     1      65.140 -13.598  20.076  1.00  0.00     0.000 C 
BRANCH   7   8
ATOM      8  C   UNL     1      64.195 -12.758  20.953  1.00  0.00     0.000 C 
BRANCH   8   9
ATOM      9  C   UNL     1      64.825 -12.350  22.294  1.00  0.00     0.000 C 
BRANCH   9  10
ATOM     10  C   UNL     1      64.607 -10.857  22.618  1.00  0.00     0.000 C 
BRANCH  10  11
ATOM     11  C   UNL     1      64.301 -10.588  24.102  1.00  0.00     0.000 C 
BRANCH  11  12
ATOM     12  C   UNL     1      62.877 -10.056  24.334  1.00  0.00     0.000 C 
BRANCH  12  13
ATOM     13  C   UNL     1      61.847 -11.182  24.524  1.00  0.00     0.006 C 
BRANCH  13  14
ATOM     14  C   UNL     1      62.377 -12.327  25.398  1.00  0.00     0.053 C 
BRANCH  14  15
ATOM     15  C   UNL     1      61.905 -13.646  24.874  1.00  0.00     0.041 C 
ATOM     16  O   UNL     1      62.703 -14.407  24.263  1.00  0.00    -0.550 OA
ATOM     17  O   UNL     1      60.597 -14.057  25.097  1.00  0.00    -0.550 OA
ENDBRANCH  14  15
ENDBRANCH  13  14
ENDBRANCH  12  13
ENDBRANCH  11  12
ENDBRANCH  10  11
ENDBRANCH   9  10
ENDBRANCH   8   9
ENDBRANCH   7   8
ENDBRANCH   6   7
ENDBRANCH   5   6
ENDBRANCH   4   5
ENDBRANCH   3   4
ENDBRANCH   2   3
ENDBRANCH   1   2
BRANCH   1  18
ATOM     18  C   UNL     1      63.067 -11.013  14.074  1.00  0.00     0.000 C 
BRANCH  18  19
ATOM     19  C   UNL     1      64.578 -11.300  14.096  1.00  0.00     0.000 C 
BRANCH  19  20
ATOM     20  C   UNL     1      64.910 -12.767  13.782  1.00  0.00     0.000 C 
BRANCH  20  21
ATOM     21  C   UNL     1      66.049 -13.274  14.680  1.00  0.00     0.000 C 
BRANCH  21  22
ATOM     22  C   UNL     1      65.781 -14.680  15.240  1.00  0.00     0.000 C 
BRANCH  22  23
ATOM     23  C   UNL     1      64.281 -15.012  15.292  1.00  0.00     0.000 C 
BRANCH  23  24
ATOM     24  C   UNL     1      63.967 -16.418  14.755  1.00  0.00    -0.000 C 
BRANCH  24  25
ATOM     25  C   UNL     1      64.337 -17.528  15.751  1.00  0.00    -0.000 C 
BRANCH  25  26
ATOM     26  C   UNL     1      63.261 -17.676  16.835  1.00  0.00    -0.000 C 
BRANCH  26  27
ATOM     27  C   UNL     1      63.688 -16.979  18.135  1.00  0.00    -0.000 C 
BRANCH  27  28
ATOM     28  C   UNL     1      62.798 -15.775  18.490  1.00  0.00    -0.000 C 
BRANCH  28  29
ATOM     29  C   UNL     1      61.297 -15.976  18.216  1.00  0.00    -0.000 C 
BRANCH  29  30
ATOM     30  C   UNL     1      60.745 -15.001  17.162  1.00  0.00    -0.000 C 
BRANCH  30  31
ATOM     31  C   UNL     1      60.087 -15.725  15.977  1.00  0.00    -0.003 C 
ATOM     32  C   UNL     1      60.490 -15.134  14.627  1.00  0.00     0.004 C 
ENDBRANCH  30  31
ENDBRANCH  29  30
ENDBRANCH  28  29
ENDBRANCH  27  28
ENDBRANCH  26  27
ENDBRANCH  25  26
ENDBRANCH  24  25
ENDBRANCH  23  24
ENDBRANCH  22  23
ENDBRANCH  21  22
ENDBRANCH  20  21
ENDBRANCH  19  20
ENDBRANCH  18  19
ENDBRANCH   1  18
TORSDOF 28
ENDMDL
MODEL 2
REMARK VINA RESULT:    -3.919     10.024     15.571
REMARK INTER + INTRA:         -15.437
REMARK INTER:                 -11.825
REMARK INTRA:                  -3.611
REMARK UNBOUND:                -5.104
REMARK SMILES CCCCCCCCCCCCCCCCCCCCCCCCCCCCCC(=O)[O-]
REMARK SMILES IDX 16 1 17 2 18 3 19 4 20 5 21 6 22 7 23 8 24 9 25 10 26 11
REMARK SMILES IDX 27 12 28 13 29 14 30 15 31 16 32 17 15 18 14 19 13 20 12 21
REMARK SMILES IDX 11 22 10 23 9 24 8 25 7 26 6 27 5 28 4 29 3 30 2 31 1 32
REMARK H PARENT
REMARK Flexibility Score: inf
ROOT
ATOM      1  C   UNL     1      61.580  -3.322  28.982  1.00  0.00     0.000 C 
ENDROOT
BRANCH   1   2
ATOM      2  C   UNL     1      60.991  -2.188  29.846  1.00  0.00     0.000 C 
BRANCH   2   3
ATOM      3  C   UNL     1      59.463  -2.249  30.057  1.00  0.00     0.000 C 
BRANCH   3   4
ATOM      4  C   UNL     1      59.010  -2.290  31.528  1.00  0.00     0.000 C 
BRANCH   4   5
ATOM      5  C   UNL     1      58.141  -3.513  31.853  1.00  0.00     0.000 C 
BRANCH   5   6
ATOM      6  C   UNL     1      57.676  -4.211  30.566  1.00  0.00     0.000 C 
BRANCH   6   7
ATOM      7  C   UNL     1      56.140  -4.314  30.471  1.00  0.00     0.000 C 
BRANCH   7   8
ATOM      8  C   UNL     1      55.429  -4.301  31.835  1.00  0.00     0.000 C 
BRANCH   8   9
ATOM      9  C   UNL     1      54.331  -3.230  31.930  1.00  0.00     0.000 C 
BRANCH   9  10
ATOM     10  C   UNL     1      54.801  -1.856  31.406  1.00  0.00     0.000 C 
BRANCH  10  11
ATOM     11  C   UNL     1      53.883  -1.264  30.322  1.00  0.00     0.000 C 
BRANCH  11  12
ATOM     12  C   UNL     1      54.364  -1.573  28.894  1.00  0.00     0.000 C 
BRANCH  12  13
ATOM     13  C   UNL     1      55.245  -0.457  28.311  1.00  0.00     0.006 C 
BRANCH  13  14
ATOM     14  C   UNL     1      56.689  -0.512  28.827  1.00  0.00     0.053 C 
BRANCH  14  15
ATOM     15  C   UNL     1      57.102   0.821  29.368  1.00  0.00     0.041 C 
ATOM     16  O   UNL     1      57.105   1.835  28.620  1.00  0.00    -0.550 OA
ATOM     17  O   UNL     1      57.444   0.954  30.708  1.00  0.00    -0.550 OA
ENDBRANCH  14  15
ENDBRANCH  13  14
ENDBRANCH  12  13
ENDBRANCH  11  12
ENDBRANCH  10  11
ENDBRANCH   9  10
ENDBRANCH   8   9
ENDBRANCH   7   8
ENDBRANCH   6   7
ENDBRANCH   5   6
ENDBRANCH   4   5
ENDBRANCH   3   4
ENDBRANCH   2   3
ENDBRANCH   1   2
BRANCH   1  18
ATOM     18  C   UNL     1      61.410  -3.139  27.460  1.00  0.00     0.000 C 
BRANCH  18  19
ATOM     19  C   UNL     1      62.618  -3.582  26.617  1.00  0.00     0.000 C 
BRANCH  19  20
ATOM     20  C   UNL     1      63.344  -2.404  25.950  1.00  0.00     0.000 C 
BRANCH  20  21
ATOM     21  C   UNL     1      64.591  -2.005  26.753  1.00  0.00     0.000 C 
BRANCH  21  22
ATOM     22  C   UNL     1      65.315  -3.216  27.365  1.00  0.00     0.000 C 
BRANCH  22  23
ATOM     23  C   UNL     1      65.531  -3.063  28.879  1.00  0.00     0.000 C 
BRANCH  23  24
ATOM     24  C   UNL     1      65.084  -4.303  29.670  1.00  0.00    -0.000 C 
BRANCH  24  25
ATOM     25  C   UNL     1      65.213  -5.601  28.857  1.00  0.00    -0.000 C 
BRANCH  25  26
ATOM     26  C   UNL     1      64.418  -6.740  29.508  1.00  0.00    -0.000 C 
BRANCH  26  27
ATOM     27  C   UNL     1      63.249  -7.177  28.613  1.00  0.00    -0.000 C 
BRANCH  27  28
ATOM     28  C   UNL     1      63.632  -7.265  27.125  1.00  0.00    -0.000 C 
BRANCH  28  29
ATOM     29  C   UNL     1      62.974  -8.424  26.355  1.00  0.00    -0.000 C 
BRANCH  29  30
ATOM     30  C   UNL     1      63.967  -9.189  25.463  1.00  0.00    -0.000 C 
BRANCH  30  31
ATOM     31  C   UNL     1      63.268  -9.955  24.328  1.00  0.00    -0.003 C 
ATOM     32  C   UNL     1      61.787 -10.203  24.610  1.00  0.00     0.004 C 
ENDBRANCH  30  31
ENDBRANCH  29  30
ENDBRANCH  28  29
ENDBRANCH  27  28
ENDBRANCH  26  27
ENDBRANCH  25  26
ENDBRANCH  24  25
ENDBRANCH  23  24
ENDBRANCH  22  23
ENDBRANCH  21  22
ENDBRANCH  20  21
ENDBRANCH  19  20
ENDBRANCH  18  19
ENDBRANCH   1  18
TORSDOF 28
ENDMDL
MODEL 3
REMARK VINA RESULT:    -3.740      8.943     15.663
REMARK INTER + INTRA:         -14.966
REMARK INTER:                 -11.187
REMARK INTRA:                  -3.778
REMARK UNBOUND:                -5.104
REMARK SMILES CCCCCCCCCCCCCCCCCCCCCCCCCCCCCC(=O)[O-]
REMARK SMILES IDX 16 1 17 2 18 3 19 4 20 5 21 6 22 7 23 8 24 9 25 10 26 11
REMARK SMILES IDX 27 12 28 13 29 14 30 15 31 16 32 17 15 18 14 19 13 20 12 21
REMARK SMILES IDX 11 22 10 23 9 24 8 25 7 26 6 27 5 28 4 29 3 30 2 31 1 32
REMARK H PARENT
REMARK Flexibility Score: inf
ROOT
ATOM      1  C   UNL     1      61.948  -3.264  27.229  1.00  0.00     0.000 C 
ENDROOT
BRANCH   1   2
ATOM      2  C   UNL     1      62.860  -2.853  26.056  1.00  0.00     0.000 C 
BRANCH   2   3
ATOM      3  C   UNL     1      64.243  -2.301  26.462  1.00  0.00     0.000 C 
BRANCH   3   4
ATOM      4  C   UNL     1      65.141  -3.292  27.225  1.00  0.00     0.000 C 
BRANCH   4   5
ATOM      5  C   UNL     1      65.371  -2.888  28.688  1.00  0.00     0.000 C 
BRANCH   5   6
ATOM      6  C   UNL     1      65.164  -4.088  29.625  1.00  0.00     0.000 C 
BRANCH   6   7
ATOM      7  C   UNL     1      65.666  -5.411  29.012  1.00  0.00     0.000 C 
BRANCH   7   8
ATOM      8  C   UNL     1      64.660  -6.570  29.121  1.00  0.00     0.000 C 
BRANCH   8   9
ATOM      9  C   UNL     1      63.356  -6.308  28.351  1.00  0.00     0.000 C 
BRANCH   9  10
ATOM     10  C   UNL     1      63.497  -6.587  26.840  1.00  0.00     0.000 C 
BRANCH  10  11
ATOM     11  C   UNL     1      63.989  -8.010  26.521  1.00  0.00     0.000 C 
BRANCH  11  12
ATOM     12  C   UNL     1      62.840  -8.997  26.259  1.00  0.00     0.000 C 
BRANCH  12  13
ATOM     13  C   UNL     1      62.814  -9.507  24.809  1.00  0.00     0.006 C 
BRANCH  13  14
ATOM     14  C   UNL     1      61.808 -10.647  24.600  1.00  0.00     0.053 C 
BRANCH  14  15
ATOM     15  C   UNL     1      62.509 -11.969  24.587  1.00  0.00     0.041 C 
ATOM     16  O   UNL     1      63.357 -12.226  23.691  1.00  0.00    -0.550 OA
ATOM     17  O   UNL     1      62.260 -12.900  25.587  1.00  0.00    -0.550 OA
ENDBRANCH  14  15
ENDBRANCH  13  14
ENDBRANCH  12  13
ENDBRANCH  11  12
ENDBRANCH  10  11
ENDBRANCH   9  10
ENDBRANCH   8   9
ENDBRANCH   7   8
ENDBRANCH   6   7
ENDBRANCH   5   6
ENDBRANCH   4   5
ENDBRANCH   3   4
ENDBRANCH   2   3
ENDBRANCH   1   2
BRANCH   1  18
ATOM     18  C   UNL     1      61.318  -2.092  28.009  1.00  0.00     0.000 C 
BRANCH  18  19
ATOM     19  C   UNL     1      61.902  -1.861  29.413  1.00  0.00     0.000 C 
BRANCH  19  20
ATOM     20  C   UNL     1      61.767  -3.091  30.324  1.00  0.00     0.000 C 
BRANCH  20  21
ATOM     21  C   UNL     1      61.417  -2.672  31.760  1.00  0.00     0.000 C 
BRANCH  21  22
ATOM     22  C   UNL     1      59.911  -2.434  31.957  1.00  0.00     0.000 C 
BRANCH  22  23
ATOM     23  C   UNL     1      59.053  -3.462  31.201  1.00  0.00     0.000 C 
BRANCH  23  24
ATOM     24  C   UNL     1      57.767  -3.831  31.956  1.00  0.00    -0.000 C 
BRANCH  24  25
ATOM     25  C   UNL     1      56.607  -4.185  31.013  1.00  0.00    -0.000 C 
BRANCH  25  26
ATOM     26  C   UNL     1      55.272  -4.215  31.768  1.00  0.00    -0.000 C 
BRANCH  26  27
ATOM     27  C   UNL     1      54.533  -2.875  31.635  1.00  0.00    -0.000 C 
BRANCH  27  28
ATOM     28  C   UNL     1      55.190  -1.926  30.616  1.00  0.00    -0.000 C 
BRANCH  28  29
ATOM     29  C   UNL     1      55.584  -0.548  31.176  1.00  0.00    -0.000 C 
BRANCH  29  30
ATOM     30  C   UNL     1      57.093  -0.267  31.068  1.00  0.00    -0.000 C 
BRANCH  30  31
ATOM     31  C   UNL     1      57.590  -0.272  29.615  1.00  0.00    -0.003 C 
ATOM     32  C   UNL     1      56.823   0.707  28.727  1.00  0.00     0.004 C 
ENDBRANCH  30  31
ENDBRANCH  29  30
ENDBRANCH  28  29
ENDBRANCH  27  28
ENDBRANCH  26  27
ENDBRANCH  25  26
ENDBRANCH  24  25
ENDBRANCH  23  24
ENDBRANCH  22  23
ENDBRANCH  21  22
ENDBRANCH  20  21
ENDBRANCH  19  20
ENDBRANCH  18  19
ENDBRANCH   1  18
TORSDOF 28
ENDMDL
MODEL 4
REMARK VINA RESULT:    -3.739      8.516     13.607
REMARK INTER + INTRA:         -14.962
REMARK INTER:                 -10.749
REMARK INTRA:                  -4.213
REMARK UNBOUND:                -5.104
REMARK SMILES CCCCCCCCCCCCCCCCCCCCCCCCCCCCCC(=O)[O-]
REMARK SMILES IDX 16 1 17 2 18 3 19 4 20 5 21 6 22 7 23 8 24 9 25 10 26 11
REMARK SMILES IDX 27 12 28 13 29 14 30 15 31 16 32 17 15 18 14 19 13 20 12 21
REMARK SMILES IDX 11 22 10 23 9 24 8 25 7 26 6 27 5 28 4 29 3 30 2 31 1 32
REMARK H PARENT
REMARK Flexibility Score: inf
ROOT
ATOM      1  C   UNL     1      63.128  -3.831  25.617  1.00  0.00     0.000 C 
ENDROOT
BRANCH   1   2
ATOM      2  C   UNL     1      63.253  -2.471  26.335  1.00  0.00     0.000 C 
BRANCH   2   3
ATOM      3  C   UNL     1      64.681  -2.094  26.781  1.00  0.00     0.000 C 
BRANCH   3   4
ATOM      4  C   UNL     1      64.829  -1.759  28.276  1.00  0.00     0.000 C 
BRANCH   4   5
ATOM      5  C   UNL     1      63.484  -1.694  29.012  1.00  0.00     0.000 C 
BRANCH   5   6
ATOM      6  C   UNL     1      63.591  -2.334  30.405  1.00  0.00     0.000 C 
BRANCH   6   7
ATOM      7  C   UNL     1      62.224  -2.787  30.955  1.00  0.00     0.000 C 
BRANCH   7   8
ATOM      8  C   UNL     1      61.091  -2.751  29.915  1.00  0.00     0.000 C 
BRANCH   8   9
ATOM      9  C   UNL     1      59.943  -1.808  30.310  1.00  0.00     0.000 C 
BRANCH   9  10
ATOM     10  C   UNL     1      59.625  -0.773  29.210  1.00  0.00     0.000 C 
BRANCH  10  11
ATOM     11  C   UNL     1      58.345   0.038  29.481  1.00  0.00     0.000 C 
BRANCH  11  12
ATOM     12  C   UNL     1      57.865  -0.068  30.938  1.00  0.00     0.000 C 
BRANCH  12  13
ATOM     13  C   UNL     1      56.338  -0.199  31.051  1.00  0.00     0.006 C 
BRANCH  13  14
ATOM     14  C   UNL     1      55.863  -1.657  30.989  1.00  0.00     0.053 C 
BRANCH  14  15
ATOM     15  C   UNL     1      55.063  -1.895  29.747  1.00  0.00     0.041 C 
ATOM     16  O   UNL     1      53.930  -1.360  29.612  1.00  0.00    -0.550 OA
ATOM     17  O   UNL     1      55.585  -2.671  28.720  1.00  0.00    -0.550 OA
ENDBRANCH  14  15
ENDBRANCH  13  14
ENDBRANCH  12  13
ENDBRANCH  11  12
ENDBRANCH  10  11
ENDBRANCH   9  10
ENDBRANCH   8   9
ENDBRANCH   7   8
ENDBRANCH   6   7
ENDBRANCH   5   6
ENDBRANCH   4   5
ENDBRANCH   3   4
ENDBRANCH   2   3
ENDBRANCH   1   2
BRANCH   1  18
ATOM     18  C   UNL     1      63.520  -5.056  26.468  1.00  0.00     0.000 C 
BRANCH  18  19
ATOM     19  C   UNL     1      62.891  -5.099  27.871  1.00  0.00     0.000 C 
BRANCH  19  20
ATOM     20  C   UNL     1      63.793  -5.786  28.908  1.00  0.00     0.000 C 
BRANCH  20  21
ATOM     21  C   UNL     1      65.220  -5.953  28.365  1.00  0.00     0.000 C 
BRANCH  21  22
ATOM     22  C   UNL     1      65.638  -7.427  28.241  1.00  0.00     0.000 C 
BRANCH  22  23
ATOM     23  C   UNL     1      64.584  -8.384  28.821  1.00  0.00     0.000 C 
BRANCH  23  24
ATOM     24  C   UNL     1      64.097  -9.422  27.796  1.00  0.00    -0.000 C 
BRANCH  24  25
ATOM     25  C   UNL     1      63.608  -8.778  26.490  1.00  0.00    -0.000 C 
BRANCH  25  26
ATOM     26  C   UNL     1      64.467  -9.224  25.300  1.00  0.00    -0.000 C 
BRANCH  26  27
ATOM     27  C   UNL     1      63.606  -9.895  24.220  1.00  0.00    -0.000 C 
BRANCH  27  28
ATOM     28  C   UNL     1      62.114  -9.959  24.595  1.00  0.00    -0.000 C 
BRANCH  28  29
ATOM     29  C   UNL     1      61.527 -11.379  24.672  1.00  0.00    -0.000 C 
BRANCH  29  30
ATOM     30  C   UNL     1      62.605 -12.466  24.828  1.00  0.00    -0.000 C 
BRANCH  30  31
ATOM     31  C   UNL     1      62.990 -12.706  26.295  1.00  0.00    -0.003 C 
ATOM     32  C   UNL     1      64.489 -12.941  26.479  1.00  0.00     0.004 C 
ENDBRANCH  30  31
ENDBRANCH  29  30
ENDBRANCH  28  29
ENDBRANCH  27  28
ENDBRANCH  26  27
ENDBRANCH  25  26
ENDBRANCH  24  25
ENDBRANCH  23  24
ENDBRANCH  22  23
ENDBRANCH  21  22
ENDBRANCH  20  21
ENDBRANCH  19  20
ENDBRANCH  18  19
ENDBRANCH   1  18
TORSDOF 28
ENDMDL
MODEL 5
REMARK VINA RESULT:    -3.728      1.527      6.636
REMARK INTER + INTRA:         -14.936
REMARK INTER:                  -9.640
REMARK INTRA:                  -5.296
REMARK UNBOUND:                -5.104
REMARK SMILES CCCCCCCCCCCCCCCCCCCCCCCCCCCCCC(=O)[O-]
REMARK SMILES IDX 16 1 17 2 18 3 19 4 20 5 21 6 22 7 23 8 24 9 25 10 26 11
REMARK SMILES IDX 27 12 28 13 29 14 30 15 31 16 32 17 15 18 14 19 13 20 12 21
REMARK SMILES IDX 11 22 10 23 9 24 8 25 7 26 6 27 5 28 4 29 3 30 2 31 1 32
REMARK H PARENT
REMARK Flexibility Score: inf
ROOT
ATOM      1  C   UNL     1      62.435 -12.476  13.854  1.00  0.00     0.000 C 
ENDROOT
BRANCH   1   2
ATOM      2  C   UNL     1      62.165 -11.378  14.902  1.00  0.00     0.000 C 
BRANCH   2   3
ATOM      3  C   UNL     1      61.296 -11.813  16.100  1.00  0.00     0.000 C 
BRANCH   3   4
ATOM      4  C   UNL     1      61.669 -13.174  16.715  1.00  0.00     0.000 C 
BRANCH   4   5
ATOM      5  C   UNL     1      60.470 -14.125  16.838  1.00  0.00     0.000 C 
BRANCH   5   6
ATOM      6  C   UNL     1      60.184 -14.819  15.497  1.00  0.00     0.000 C 
BRANCH   6   7
ATOM      7  C   UNL     1      60.187 -16.356  15.614  1.00  0.00     0.000 C 
BRANCH   7   8
ATOM      8  C   UNL     1      61.224 -17.048  14.713  1.00  0.00     0.000 C 
BRANCH   8   9
ATOM      9  C   UNL     1      62.362 -16.111  14.279  1.00  0.00     0.000 C 
BRANCH   9  10
ATOM     10  C   UNL     1      63.703 -16.455  14.960  1.00  0.00     0.000 C 
BRANCH  10  11
ATOM     11  C   UNL     1      63.750 -16.081  16.451  1.00  0.00     0.000 C 
BRANCH  11  12
ATOM     12  C   UNL     1      63.850 -17.306  17.375  1.00  0.00     0.000 C 
BRANCH  12  13
ATOM     13  C   UNL     1      62.622 -17.465  18.286  1.00  0.00     0.006 C 
BRANCH  13  14
ATOM     14  C   UNL     1      62.209 -16.147  18.956  1.00  0.00     0.053 C 
BRANCH  14  15
ATOM     15  C   UNL     1      61.985 -16.353  20.421  1.00  0.00     0.041 C 
ATOM     16  O   UNL     1      60.836 -16.637  20.853  1.00  0.00    -0.550 OA
ATOM     17  O   UNL     1      63.053 -16.276  21.307  1.00  0.00    -0.550 OA
ENDBRANCH  14  15
ENDBRANCH  13  14
ENDBRANCH  12  13
ENDBRANCH  11  12
ENDBRANCH  10  11
ENDBRANCH   9  10
ENDBRANCH   8   9
ENDBRANCH   7   8
ENDBRANCH   6   7
ENDBRANCH   5   6
ENDBRANCH   4   5
ENDBRANCH   3   4
ENDBRANCH   2   3
ENDBRANCH   1   2
BRANCH   1  18
ATOM     18  C   UNL     1      63.924 -12.802  13.617  1.00  0.00     0.000 C 
BRANCH  18  19
ATOM     19  C   UNL     1      64.910 -11.766  14.184  1.00  0.00     0.000 C 
BRANCH  19  20
ATOM     20  C   UNL     1      65.621 -12.255  15.456  1.00  0.00     0.000 C 
BRANCH  20  21
ATOM     21  C   UNL     1      65.434 -11.252  16.605  1.00  0.00     0.000 C 
BRANCH  21  22
ATOM     22  C   UNL     1      65.762 -11.858  17.979  1.00  0.00     0.000 C 
BRANCH  22  23
ATOM     23  C   UNL     1      65.661 -13.392  17.980  1.00  0.00     0.000 C 
BRANCH  23  24
ATOM     24  C   UNL     1      65.087 -13.948  19.294  1.00  0.00    -0.000 C 
BRANCH  24  25
ATOM     25  C   UNL     1      63.983 -13.055  19.880  1.00  0.00    -0.000 C 
BRANCH  25  26
ATOM     26  C   UNL     1      64.221 -12.794  21.373  1.00  0.00    -0.000 C 
BRANCH  26  27
ATOM     27  C   UNL     1      64.687 -11.350  21.613  1.00  0.00    -0.000 C 
BRANCH  27  28
ATOM     28  C   UNL     1      65.190 -11.112  23.047  1.00  0.00    -0.000 C 
BRANCH  28  29
ATOM     29  C   UNL     1      64.402 -10.057  23.843  1.00  0.00    -0.000 C 
BRANCH  29  30
ATOM     30  C   UNL     1      62.971 -10.508  24.183  1.00  0.00    -0.000 C 
BRANCH  30  31
ATOM     31  C   UNL     1      62.942 -11.635  25.228  1.00  0.00    -0.003 C 
ATOM     32  C   UNL     1      61.818 -12.639  24.980  1.00  0.00     0.004 C 
ENDBRANCH  30  31
ENDBRANCH  29  30
ENDBRANCH  28  29
ENDBRANCH  27  28
ENDBRANCH  26  27
ENDBRANCH  25  26
ENDBRANCH  24  25
ENDBRANCH  23  24
ENDBRANCH  22  23
ENDBRANCH  21  22
ENDBRANCH  20  21
ENDBRANCH  19  20
ENDBRANCH  18  19
ENDBRANCH   1  18
TORSDOF 28
ENDMDL
MODEL 6
REMARK VINA RESULT:    -3.665      1.652      4.652
REMARK INTER + INTRA:         -14.769
REMARK INTER:                  -9.412
REMARK INTRA:                  -5.357
REMARK UNBOUND:                -5.104
REMARK SMILES CCCCCCCCCCCCCCCCCCCCCCCCCCCCCC(=O)[O-]
REMARK SMILES IDX 16 1 17 2 18 3 19 4 20 5 21 6 22 7 23 8 24 9 25 10 26 11
REMARK SMILES IDX 27 12 28 13 29 14 30 15 31 16 32 17 15 18 14 19 13 20 12 21
REMARK SMILES IDX 11 22 10 23 9 24 8 25 7 26 6 27 5 28 4 29 3 30 2 31 1 32
REMARK H PARENT
REMARK Flexibility Score: inf
ROOT
ATOM      1  C   UNL     1      63.964 -16.633  17.187  1.00  0.00     0.000 C 
ENDROOT
BRANCH   1   2
ATOM      2  C   UNL     1      62.783 -15.655  17.354  1.00  0.00     0.000 C 
BRANCH   2   3
ATOM      3  C   UNL     1      61.463 -16.297  17.831  1.00  0.00     0.000 C 
BRANCH   3   4
ATOM      4  C   UNL     1      61.580 -17.760  18.294  1.00  0.00     0.000 C 
BRANCH   4   5
ATOM      5  C   UNL     1      61.437 -17.920  19.815  1.00  0.00     0.000 C 
BRANCH   5   6
ATOM      6  C   UNL     1      61.260 -16.553  20.494  1.00  0.00     0.000 C 
BRANCH   6   7
ATOM      7  C   UNL     1      62.362 -16.262  21.533  1.00  0.00     0.000 C 
BRANCH   7   8
ATOM      8  C   UNL     1      63.655 -15.688  20.927  1.00  0.00     0.000 C 
BRANCH   8   9
ATOM      9  C   UNL     1      63.510 -14.225  20.479  1.00  0.00     0.000 C 
BRANCH   9  10
ATOM     10  C   UNL     1      64.862 -13.480  20.448  1.00  0.00     0.000 C 
BRANCH  10  11
ATOM     11  C   UNL     1      65.241 -12.839  21.794  1.00  0.00     0.000 C 
BRANCH  11  12
ATOM     12  C   UNL     1      64.021 -12.337  22.585  1.00  0.00     0.000 C 
BRANCH  12  13
ATOM     13  C   UNL     1      64.231 -10.932  23.171  1.00  0.00     0.006 C 
BRANCH  13  14
ATOM     14  C   UNL     1      63.049 -10.468  24.033  1.00  0.00     0.053 C 
BRANCH  14  15
ATOM     15  C   UNL     1      62.660 -11.536  25.006  1.00  0.00     0.041 C 
ATOM     16  O   UNL     1      61.550 -12.122  24.893  1.00  0.00    -0.550 OA
ATOM     17  O   UNL     1      63.539 -11.916  26.012  1.00  0.00    -0.550 OA
ENDBRANCH  14  15
ENDBRANCH  13  14
ENDBRANCH  12  13
ENDBRANCH  11  12
ENDBRANCH  10  11
ENDBRANCH   9  10
ENDBRANCH   8   9
ENDBRANCH   7   8
ENDBRANCH   6   7
ENDBRANCH   5   6
ENDBRANCH   4   5
ENDBRANCH   3   4
ENDBRANCH   2   3
ENDBRANCH   1   2
BRANCH   1  18
ATOM     18  C   UNL     1      64.935 -16.294  16.038  1.00  0.00     0.000 C 
BRANCH  18  19
ATOM     19  C   UNL     1      64.969 -17.324  14.895  1.00  0.00     0.000 C 
BRANCH  19  20
ATOM     20  C   UNL     1      63.605 -17.987  14.649  1.00  0.00     0.000 C 
BRANCH  20  21
ATOM     21  C   UNL     1      62.840 -17.264  13.531  1.00  0.00     0.000 C 
BRANCH  21  22
ATOM     22  C   UNL     1      61.552 -16.591  14.033  1.00  0.00     0.000 C 
BRANCH  22  23
ATOM     23  C   UNL     1      61.708 -15.069  14.180  1.00  0.00     0.000 C 
BRANCH  23  24
ATOM     24  C   UNL     1      62.929 -14.522  13.423  1.00  0.00    -0.000 C 
BRANCH  24  25
ATOM     25  C   UNL     1      62.786 -13.035  13.064  1.00  0.00    -0.000 C 
BRANCH  25  26
ATOM     26  C   UNL     1      64.095 -12.278  13.321  1.00  0.00    -0.000 C 
BRANCH  26  27
ATOM     27  C   UNL     1      65.021 -13.077  14.250  1.00  0.00    -0.000 C 
BRANCH  27  28
ATOM     28  C   UNL     1      65.474 -12.273  15.482  1.00  0.00    -0.000 C 
BRANCH  28  29
ATOM     29  C   UNL     1      64.743 -12.626  16.789  1.00  0.00    -0.000 C 
BRANCH  29  30
ATOM     30  C   UNL     1      63.536 -11.713  17.066  1.00  0.00    -0.000 C 
BRANCH  30  31
ATOM     31  C   UNL     1      62.197 -12.392  16.739  1.00  0.00    -0.003 C 
ATOM     32  C   UNL     1      61.238 -11.471  15.986  1.00  0.00     0.004 C 
ENDBRANCH  30  31
ENDBRANCH  29  30
ENDBRANCH  28  29
ENDBRANCH  27  28
ENDBRANCH  26  27
ENDBRANCH  25  26
ENDBRANCH  24  25
ENDBRANCH  23  24
ENDBRANCH  22  23
ENDBRANCH  21  22
ENDBRANCH  20  21
ENDBRANCH  19  20
ENDBRANCH  18  19
ENDBRANCH   1  18
TORSDOF 28
ENDMDL
MODEL 7
REMARK VINA RESULT:    -3.655      1.848      3.324
REMARK INTER + INTRA:         -14.742
REMARK INTER:                  -9.933
REMARK INTRA:                  -4.809
REMARK UNBOUND:                -5.104
REMARK SMILES CCCCCCCCCCCCCCCCCCCCCCCCCCCCCC(=O)[O-]
REMARK SMILES IDX 16 1 17 2 18 3 19 4 20 5 21 6 22 7 23 8 24 9 25 10 26 11
REMARK SMILES IDX 27 12 28 13 29 14 30 15 31 16 32 17 15 18 14 19 13 20 12 21
REMARK SMILES IDX 11 22 10 23 9 24 8 25 7 26 6 27 5 28 4 29 3 30 2 31 1 32
REMARK H PARENT
REMARK Flexibility Score: inf
ROOT
ATOM      1  C   UNL     1      63.176 -11.388  17.249  1.00  0.00     0.000 C 
ENDROOT
BRANCH   1   2
ATOM      2  C   UNL     1      64.517 -10.800  17.735  1.00  0.00     0.000 C 
BRANCH   2   3
ATOM      3  C   UNL     1      65.335 -11.718  18.667  1.00  0.00     0.000 C 
BRANCH   3   4
ATOM      4  C   UNL     1      65.285 -11.342  20.159  1.00  0.00     0.000 C 
BRANCH   4   5
ATOM      5  C   UNL     1      65.514 -12.544  21.087  1.00  0.00     0.000 C 
BRANCH   5   6
ATOM      6  C   UNL     1      64.175 -13.159  21.524  1.00  0.00     0.000 C 
BRANCH   6   7
ATOM      7  C   UNL     1      64.358 -14.461  22.331  1.00  0.00     0.000 C 
BRANCH   7   8
ATOM      8  C   UNL     1      63.148 -15.410  22.265  1.00  0.00     0.000 C 
BRANCH   8   9
ATOM      9  C   UNL     1      62.697 -15.905  23.649  1.00  0.00     0.000 C 
BRANCH   9  10
ATOM     10  C   UNL     1      63.362 -15.121  24.801  1.00  0.00     0.000 C 
BRANCH  10  11
ATOM     11  C   UNL     1      62.368 -14.292  25.633  1.00  0.00     0.000 C 
BRANCH  11  12
ATOM     12  C   UNL     1      63.032 -13.106  26.354  1.00  0.00     0.000 C 
BRANCH  12  13
ATOM     13  C   UNL     1      63.391 -11.957  25.398  1.00  0.00     0.006 C 
BRANCH  13  14
ATOM     14  C   UNL     1      62.281 -11.665  24.380  1.00  0.00     0.053 C 
BRANCH  14  15
ATOM     15  C   UNL     1      61.663 -10.329  24.648  1.00  0.00     0.041 C 
ATOM     16  O   UNL     1      60.460 -10.114  24.341  1.00  0.00    -0.550 OA
ATOM     17  O   UNL     1      62.401  -9.334  25.276  1.00  0.00    -0.550 OA
ENDBRANCH  14  15
ENDBRANCH  13  14
ENDBRANCH  12  13
ENDBRANCH  11  12
ENDBRANCH  10  11
ENDBRANCH   9  10
ENDBRANCH   8   9
ENDBRANCH   7   8
ENDBRANCH   6   7
ENDBRANCH   5   6
ENDBRANCH   4   5
ENDBRANCH   3   4
ENDBRANCH   2   3
ENDBRANCH   1   2
BRANCH   1  18
ATOM     18  C   UNL     1      63.138 -11.784  15.759  1.00  0.00     0.000 C 
BRANCH  18  19
ATOM     19  C   UNL     1      64.486 -11.673  15.026  1.00  0.00     0.000 C 
BRANCH  19  20
ATOM     20  C   UNL     1      65.013 -13.032  14.540  1.00  0.00     0.000 C 
BRANCH  20  21
ATOM     21  C   UNL     1      64.134 -14.178  15.063  1.00  0.00     0.000 C 
BRANCH  21  22
ATOM     22  C   UNL     1      64.881 -15.098  16.043  1.00  0.00     0.000 C 
BRANCH  22  23
ATOM     23  C   UNL     1      63.933 -15.774  17.047  1.00  0.00     0.000 C 
BRANCH  23  24
ATOM     24  C   UNL     1      63.613 -14.879  18.255  1.00  0.00    -0.000 C 
BRANCH  24  25
ATOM     25  C   UNL     1      62.103 -14.704  18.478  1.00  0.00    -0.000 C 
BRANCH  25  26
ATOM     26  C   UNL     1      61.298 -15.424  17.388  1.00  0.00    -0.000 C 
BRANCH  26  27
ATOM     27  C   UNL     1      60.524 -14.420  16.520  1.00  0.00    -0.000 C 
BRANCH  27  28
ATOM     28  C   UNL     1      60.442 -14.841  15.043  1.00  0.00    -0.000 C 
BRANCH  28  29
ATOM     29  C   UNL     1      59.706 -16.169  14.789  1.00  0.00    -0.000 C 
BRANCH  29  30
ATOM     30  C   UNL     1      60.623 -17.260  14.209  1.00  0.00    -0.000 C 
BRANCH  30  31
ATOM     31  C   UNL     1      62.018 -16.727  13.849  1.00  0.00    -0.003 C 
ATOM     32  C   UNL     1      62.690 -17.536  12.741  1.00  0.00     0.004 C 
ENDBRANCH  30  31
ENDBRANCH  29  30
ENDBRANCH  28  29
ENDBRANCH  27  28
ENDBRANCH  26  27
ENDBRANCH  25  26
ENDBRANCH  24  25
ENDBRANCH  23  24
ENDBRANCH  22  23
ENDBRANCH  21  22
ENDBRANCH  20  21
ENDBRANCH  19  20
ENDBRANCH  18  19
ENDBRANCH   1  18
TORSDOF 28
ENDMDL
MODEL 8
REMARK VINA RESULT:    -3.627      1.970      3.821
REMARK INTER + INTRA:         -14.668
REMARK INTER:                  -9.733
REMARK INTRA:                  -4.934
REMARK UNBOUND:                -5.104
REMARK SMILES CCCCCCCCCCCCCCCCCCCCCCCCCCCCCC(=O)[O-]
REMARK SMILES IDX 16 1 17 2 18 3 19 4 20 5 21 6 22 7 23 8 24 9 25 10 26 11
REMARK SMILES IDX 27 12 28 13 29 14 30 15 31 16 32 17 15 18 14 19 13 20 12 21
REMARK SMILES IDX 11 22 10 23 9 24 8 25 7 26 6 27 5 28 4 29 3 30 2 31 1 32
REMARK H PARENT
REMARK Flexibility Score: inf
ROOT
ATOM      1  C   UNL     1      65.458 -12.455  14.891  1.00  0.00     0.000 C 
ENDROOT
BRANCH   1   2
ATOM      2  C   UNL     1      65.436 -12.727  16.409  1.00  0.00     0.000 C 
BRANCH   2   3
ATOM      3  C   UNL     1      64.931 -11.557  17.279  1.00  0.00     0.000 C 
BRANCH   3   4
ATOM      4  C   UNL     1      64.246 -11.970  18.594  1.00  0.00     0.000 C 
BRANCH   4   5
ATOM      5  C   UNL     1      64.467 -13.448  18.945  1.00  0.00     0.000 C 
BRANCH   5   6
ATOM      6  C   UNL     1      63.207 -14.052  19.585  1.00  0.00     0.000 C 
BRANCH   6   7
ATOM      7  C   UNL     1      63.164 -15.590  19.469  1.00  0.00     0.000 C 
BRANCH   7   8
ATOM      8  C   UNL     1      62.892 -16.308  20.803  1.00  0.00     0.000 C 
BRANCH   8   9
ATOM      9  C   UNL     1      63.856 -15.882  21.922  1.00  0.00     0.000 C 
BRANCH   9  10
ATOM     10  C   UNL     1      63.126 -15.590  23.250  1.00  0.00     0.000 C 
BRANCH  10  11
ATOM     11  C   UNL     1      63.671 -14.358  23.993  1.00  0.00     0.000 C 
BRANCH  11  12
ATOM     12  C   UNL     1      64.261 -13.299  23.047  1.00  0.00     0.000 C 
BRANCH  12  13
ATOM     13  C   UNL     1      63.501 -11.964  23.102  1.00  0.00     0.006 C 
BRANCH  13  14
ATOM     14  C   UNL     1      62.655 -11.817  24.374  1.00  0.00     0.053 C 
BRANCH  14  15
ATOM     15  C   UNL     1      62.348 -10.376  24.635  1.00  0.00     0.041 C 
ATOM     16  O   UNL     1      61.157  -9.967  24.602  1.00  0.00    -0.550 OA
ATOM     17  O   UNL     1      63.371  -9.494  24.959  1.00  0.00    -0.550 OA
ENDBRANCH  14  15
ENDBRANCH  13  14
ENDBRANCH  12  13
ENDBRANCH  11  12
ENDBRANCH  10  11
ENDBRANCH   9  10
ENDBRANCH   8   9
ENDBRANCH   7   8
ENDBRANCH   6   7
ENDBRANCH   5   6
ENDBRANCH   4   5
ENDBRANCH   3   4
ENDBRANCH   2   3
ENDBRANCH   1   2
BRANCH   1  18
ATOM     18  C   UNL     1      64.657 -13.458  14.036  1.00  0.00     0.000 C 
BRANCH  18  19
ATOM     19  C   UNL     1      63.415 -12.870  13.344  1.00  0.00     0.000 C 
BRANCH  19  20
ATOM     20  C   UNL     1      63.135 -11.416  13.755  1.00  0.00     0.000 C 
BRANCH  20  21
ATOM     21  C   UNL     1      62.143 -11.360  14.926  1.00  0.00     0.000 C 
BRANCH  21  22
ATOM     22  C   UNL     1      61.238 -12.601  14.995  1.00  0.00     0.000 C 
BRANCH  22  23
ATOM     23  C   UNL     1      61.345 -13.327  16.346  1.00  0.00     0.000 C 
BRANCH  23  24
ATOM     24  C   UNL     1      61.749 -14.802  16.195  1.00  0.00    -0.000 C 
BRANCH  24  25
ATOM     25  C   UNL     1      60.562 -15.762  16.370  1.00  0.00    -0.000 C 
BRANCH  25  26
ATOM     26  C   UNL     1      60.060 -16.270  15.012  1.00  0.00    -0.000 C 
BRANCH  26  27
ATOM     27  C   UNL     1      60.603 -17.675  14.713  1.00  0.00    -0.000 C 
BRANCH  27  28
ATOM     28  C   UNL     1      61.358 -17.755  13.374  1.00  0.00    -0.000 C 
BRANCH  28  29
ATOM     29  C   UNL     1      62.675 -16.959  13.325  1.00  0.00    -0.000 C 
BRANCH  29  30
ATOM     30  C   UNL     1      63.869 -17.742  13.896  1.00  0.00    -0.000 C 
BRANCH  30  31
ATOM     31  C   UNL     1      64.420 -17.118  15.188  1.00  0.00    -0.003 C 
ATOM     32  C   UNL     1      63.875 -17.792  16.447  1.00  0.00     0.004 C 
ENDBRANCH  30  31
ENDBRANCH  29  30
ENDBRANCH  28  29
ENDBRANCH  27  28
ENDBRANCH  26  27
ENDBRANCH  25  26
ENDBRANCH  24  25
ENDBRANCH  23  24
ENDBRANCH  22  23
ENDBRANCH  21  22
ENDBRANCH  20  21
ENDBRANCH  19  20
ENDBRANCH  18  19
ENDBRANCH   1  18
TORSDOF 28
ENDMDL
MODEL 9
REMARK VINA RESULT:    -3.586      3.317      7.949
REMARK INTER + INTRA:         -14.559
REMARK INTER:                  -9.715
REMARK INTRA:                  -4.844
REMARK UNBOUND:                -5.104
REMARK SMILES CCCCCCCCCCCCCCCCCCCCCCCCCCCCCC(=O)[O-]
REMARK SMILES IDX 16 1 17 2 18 3 19 4 20 5 21 6 22 7 23 8 24 9 25 10 26 11
REMARK SMILES IDX 27 12 28 13 29 14 30 15 31 16 32 17 15 18 14 19 13 20 12 21
REMARK SMILES IDX 11 22 10 23 9 24 8 25 7 26 6 27 5 28 4 29 3 30 2 31 1 32
REMARK H PARENT
REMARK Flexibility Score: inf
ROOT
ATOM      1  C   UNL     1      64.621 -11.690  18.695  1.00  0.00     0.000 C 
ENDROOT
BRANCH   1   2
ATOM      2  C   UNL     1      65.075 -10.603  17.700  1.00  0.00     0.000 C 
BRANCH   2   3
ATOM      3  C   UNL     1      65.799 -11.126  16.441  1.00  0.00     0.000 C 
BRANCH   3   4
ATOM      4  C   UNL     1      66.000 -12.651  16.392  1.00  0.00     0.000 C 
BRANCH   4   5
ATOM      5  C   UNL     1      65.729 -13.247  15.003  1.00  0.00     0.000 C 
BRANCH   5   6
ATOM      6  C   UNL     1      65.049 -12.215  14.090  1.00  0.00     0.000 C 
BRANCH   6   7
ATOM      7  C   UNL     1      63.925 -12.833  13.233  1.00  0.00     0.000 C 
BRANCH   7   8
ATOM      8  C   UNL     1      62.510 -12.401  13.656  1.00  0.00     0.000 C 
BRANCH   8   9
ATOM      9  C   UNL     1      62.514 -11.271  14.699  1.00  0.00     0.000 C 
BRANCH   9  10
ATOM     10  C   UNL     1      61.947 -11.724  16.061  1.00  0.00     0.000 C 
BRANCH  10  11
ATOM     11  C   UNL     1      61.568 -13.215  16.105  1.00  0.00     0.000 C 
BRANCH  11  12
ATOM     12  C   UNL     1      62.572 -14.067  16.898  1.00  0.00     0.000 C 
BRANCH  12  13
ATOM     13  C   UNL     1      62.553 -15.547  16.483  1.00  0.00     0.006 C 
BRANCH  13  14
ATOM     14  C   UNL     1      62.033 -15.754  15.054  1.00  0.00     0.053 C 
BRANCH  14  15
ATOM     15  C   UNL     1      63.110 -16.317  14.181  1.00  0.00     0.041 C 
ATOM     16  O   UNL     1      64.275 -16.470  14.634  1.00  0.00    -0.550 OA
ATOM     17  O   UNL     1      62.818 -16.713  12.882  1.00  0.00    -0.550 OA
ENDBRANCH  14  15
ENDBRANCH  13  14
ENDBRANCH  12  13
ENDBRANCH  11  12
ENDBRANCH  10  11
ENDBRANCH   9  10
ENDBRANCH   8   9
ENDBRANCH   7   8
ENDBRANCH   6   7
ENDBRANCH   5   6
ENDBRANCH   4   5
ENDBRANCH   3   4
ENDBRANCH   2   3
ENDBRANCH   1   2
BRANCH   1  18
ATOM     18  C   UNL     1      64.985 -11.420  20.169  1.00  0.00     0.000 C 
BRANCH  18  19
ATOM     19  C   UNL     1      64.334 -12.377  21.182  1.00  0.00     0.000 C 
BRANCH  19  20
ATOM     20  C   UNL     1      63.848 -13.685  20.539  1.00  0.00     0.000 C 
BRANCH  20  21
ATOM     21  C   UNL     1      63.844 -14.829  21.565  1.00  0.00     0.000 C 
BRANCH  21  22
ATOM     22  C   UNL     1      64.950 -14.682  22.622  1.00  0.00     0.000 C 
BRANCH  22  23
ATOM     23  C   UNL     1      65.004 -15.882  23.582  1.00  0.00     0.000 C 
BRANCH  23  24
ATOM     24  C   UNL     1      64.107 -17.045  23.127  1.00  0.00    -0.000 C 
BRANCH  24  25
ATOM     25  C   UNL     1      63.358 -17.705  24.295  1.00  0.00    -0.000 C 
BRANCH  25  26
ATOM     26  C   UNL     1      61.981 -17.060  24.501  1.00  0.00    -0.000 C 
BRANCH  26  27
ATOM     27  C   UNL     1      61.933 -16.272  25.819  1.00  0.00    -0.000 C 
BRANCH  27  28
ATOM     28  C   UNL     1      61.280 -14.887  25.666  1.00  0.00    -0.000 C 
BRANCH  28  29
ATOM     29  C   UNL     1      61.939 -13.972  24.619  1.00  0.00    -0.000 C 
BRANCH  29  30
ATOM     30  C   UNL     1      62.536 -12.694  25.232  1.00  0.00    -0.000 C 
BRANCH  30  31
ATOM     31  C   UNL     1      61.953 -11.415  24.610  1.00  0.00    -0.003 C 
ATOM     32  C   UNL     1      63.031 -10.403  24.225  1.00  0.00     0.004 C 
ENDBRANCH  30  31
ENDBRANCH  29  30
ENDBRANCH  28  29
ENDBRANCH  27  28
ENDBRANCH  26  27
ENDBRANCH  25  26
ENDBRANCH  24  25
ENDBRANCH  23  24
ENDBRANCH  22  23
ENDBRANCH  21  22
ENDBRANCH  20  21
ENDBRANCH  19  20
ENDBRANCH  18  19
ENDBRANCH   1  18
TORSDOF 28
ENDMDL
