MODEL 1
REMARK VINA RESULT:    12.987      0.000      0.000
REMARK INTER + INTRA:          27.546
REMARK INTER:                  28.171
REMARK INTRA:                  -0.625
REMARK UNBOUND:                -0.625
REMARK SMILES CCCCCCCCCCCCCCCCCCCCCC(=O)[O-]
REMARK SMILES IDX 12 1 11 2 10 3 9 4 8 5 7 6 6 7 5 8 4 9 3 10 2 11 1 12 13 13
REMARK SMILES IDX 14 14 15 15 16 16 17 17 18 18 19 19 20 20 21 21 22 22 23 23
REMARK SMILES IDX 24 24
REMARK H PARENT
REMARK Flexibility Score: inf
ROOT
ATOM      1  C   UNL     1     -27.900  19.381 -13.047  1.00  0.00     0.000 C 
ENDROOT
BRANCH   1   2
ATOM      2  C   UNL     1     -28.709  18.709 -11.917  1.00  0.00     0.000 C 
BRANCH   2   3
ATOM      3  C   UNL     1     -29.033  17.226 -12.180  1.00  0.00     0.000 C 
BRANCH   3   4
ATOM      4  C   UNL     1     -29.731  16.491 -11.022  1.00  0.00    -0.000 C 
BRANCH   4   5
ATOM      5  C   UNL     1     -31.165  16.964 -10.716  1.00  0.00    -0.000 C 
BRANCH   5   6
ATOM      6  C   UNL     1     -31.222  18.425 -10.235  1.00  0.00    -0.000 C 
BRANCH   6   7
ATOM      7  C   UNL     1     -32.583  19.082 -10.523  1.00  0.00    -0.000 C 
BRANCH   7   8
ATOM      8  C   UNL     1     -32.691  20.497  -9.934  1.00  0.00    -0.000 C 
BRANCH   8   9
ATOM      9  C   UNL     1     -31.795  21.477 -10.700  1.00  0.00    -0.000 C 
BRANCH   9  10
ATOM     10  C   UNL     1     -31.254  22.574  -9.770  1.00  0.00    -0.000 C 
BRANCH  10  11
ATOM     11  C   UNL     1     -31.955  23.924  -9.980  1.00  0.00    -0.003 C 
ATOM     12  C   UNL     1     -33.477  23.821  -9.883  1.00  0.00     0.004 C 
ENDBRANCH  10  11
ENDBRANCH   9  10
ENDBRANCH   8   9
ENDBRANCH   7   8
ENDBRANCH   6   7
ENDBRANCH   5   6
ENDBRANCH   4   5
ENDBRANCH   3   4
ENDBRANCH   2   3
ENDBRANCH   1   2
BRANCH   1  13
ATOM     13  C   UNL     1     -28.148  20.895 -13.133  1.00  0.00     0.000 C 
BRANCH  13  14
ATOM     14  C   UNL     1     -26.825  21.670 -13.090  1.00  0.00     0.000 C 
BRANCH  14  15
ATOM     15  C   UNL     1     -27.019  23.056 -12.456  1.00  0.00     0.000 C 
BRANCH  15  16
ATOM     16  C   UNL     1     -25.736  23.902 -12.500  1.00  0.00     0.000 C 
BRANCH  16  17
ATOM     17  C   UNL     1     -25.025  23.957 -11.135  1.00  0.00     0.000 C 
BRANCH  17  18
ATOM     18  C   UNL     1     -24.959  22.581 -10.453  1.00  0.00     0.000 C 
BRANCH  18  19
ATOM     19  C   UNL     1     -25.504  22.614  -9.014  1.00  0.00     0.000 C 
BRANCH  19  20
ATOM     20  C   UNL     1     -24.972  21.455  -8.152  1.00  0.00     0.006 C 
BRANCH  20  21
ATOM     21  C   UNL     1     -23.460  21.515  -7.884  1.00  0.00     0.053 C 
BRANCH  21  22
ATOM     22  C   UNL     1     -23.153  22.027  -6.509  1.00  0.00     0.041 C 
ATOM     23  O   UNL     1     -23.969  21.845  -5.568  1.00  0.00    -0.550 OA
ATOM     24  O   UNL     1     -21.974  22.724  -6.273  1.00  0.00    -0.550 OA
ENDBRANCH  21  22
ENDBRANCH  20  21
ENDBRANCH  19  20
ENDBRANCH  18  19
ENDBRANCH  17  18
ENDBRANCH  16  17
ENDBRANCH  15  16
ENDBRANCH  14  15
ENDBRANCH  13  14
ENDBRANCH   1  13
TORSDOF 20
ENDMDL
MODEL 2
REMARK VINA RESULT:    13.043      2.919      8.170
REMARK INTER + INTRA:          27.668
REMARK INTER:                  29.064
REMARK INTRA:                  -1.396
REMARK UNBOUND:                -0.625
REMARK SMILES CCCCCCCCCCCCCCCCCCCCCC(=O)[O-]
REMARK SMILES IDX 12 1 11 2 10 3 9 4 8 5 7 6 6 7 5 8 4 9 3 10 2 11 1 12 13 13
REMARK SMILES IDX 14 14 15 15 16 16 17 17 18 18 19 19 20 20 21 21 22 22 23 23
REMARK SMILES IDX 24 24
REMARK H PARENT
REMARK Flexibility Score: inf
ROOT
ATOM      1  C   UNL     1     -27.577  20.196 -13.412  1.00  0.00     0.000 C 
ENDROOT
BRANCH   1   2
ATOM      2  C   UNL     1     -27.513  21.647 -12.889  1.00  0.00     0.000 C 
BRANCH   2   3
ATOM      3  C   UNL     1     -26.085  22.137 -12.586  1.00  0.00     0.000 C 
BRANCH   3   4
ATOM      4  C   UNL     1     -25.968  23.626 -12.209  1.00  0.00    -0.000 C 
BRANCH   4   5
ATOM      5  C   UNL     1     -25.229  23.910 -10.888  1.00  0.00    -0.000 C 
BRANCH   5   6
ATOM      6  C   UNL     1     -25.519  22.858  -9.803  1.00  0.00    -0.000 C 
BRANCH   6   7
ATOM      7  C   UNL     1     -24.301  22.597  -8.900  1.00  0.00    -0.000 C 
BRANCH   7   8
ATOM      8  C   UNL     1     -24.496  21.381  -7.981  1.00  0.00    -0.000 C 
BRANCH   8   9
ATOM      9  C   UNL     1     -24.213  21.750  -6.521  1.00  0.00    -0.000 C 
BRANCH   9  10
ATOM     10  C   UNL     1     -22.773  21.387  -6.128  1.00  0.00    -0.000 C 
BRANCH  10  11
ATOM     11  C   UNL     1     -21.802  22.564  -6.292  1.00  0.00    -0.003 C 
ATOM     12  C   UNL     1     -22.344  23.865  -5.700  1.00  0.00     0.004 C 
ENDBRANCH  10  11
ENDBRANCH   9  10
ENDBRANCH   8   9
ENDBRANCH   7   8
ENDBRANCH   6   7
ENDBRANCH   5   6
ENDBRANCH   4   5
ENDBRANCH   3   4
ENDBRANCH   2   3
ENDBRANCH   1   2
BRANCH   1  13
ATOM     13  C   UNL     1     -28.511  19.306 -12.578  1.00  0.00     0.000 C 
BRANCH  13  14
ATOM     14  C   UNL     1     -28.482  17.858 -13.081  1.00  0.00     0.000 C 
BRANCH  14  15
ATOM     15  C   UNL     1     -29.151  16.911 -12.073  1.00  0.00     0.000 C 
BRANCH  15  16
ATOM     16  C   UNL     1     -29.721  17.660 -10.858  1.00  0.00     0.000 C 
BRANCH  16  17
ATOM     17  C   UNL     1     -31.135  17.178 -10.485  1.00  0.00     0.000 C 
BRANCH  17  18
ATOM     18  C   UNL     1     -32.028  18.320  -9.974  1.00  0.00     0.000 C 
BRANCH  18  19
ATOM     19  C   UNL     1     -32.011  19.541 -10.912  1.00  0.00     0.000 C 
BRANCH  19  20
ATOM     20  C   UNL     1     -32.513  20.823 -10.225  1.00  0.00     0.006 C 
BRANCH  20  21
ATOM     21  C   UNL     1     -31.934  22.119 -10.813  1.00  0.00     0.053 C 
BRANCH  21  22
ATOM     22  C   UNL     1     -32.276  23.317  -9.980  1.00  0.00     0.041 C 
ATOM     23  O   UNL     1     -33.379  23.903 -10.135  1.00  0.00    -0.550 OA
ATOM     24  O   UNL     1     -31.366  23.797  -9.045  1.00  0.00    -0.550 OA
ENDBRANCH  21  22
ENDBRANCH  20  21
ENDBRANCH  19  20
ENDBRANCH  18  19
ENDBRANCH  17  18
ENDBRANCH  16  17
ENDBRANCH  15  16
ENDBRANCH  14  15
ENDBRANCH  13  14
ENDBRANCH   1  13
TORSDOF 20
ENDMDL
MODEL 3
REMARK VINA RESULT:    13.364      3.189      7.969
REMARK INTER + INTRA:          28.363
REMARK INTER:                  30.188
REMARK INTRA:                  -1.825
REMARK UNBOUND:                -0.625
REMARK SMILES CCCCCCCCCCCCCCCCCCCCCC(=O)[O-]
REMARK SMILES IDX 12 1 11 2 10 3 9 4 8 5 7 6 6 7 5 8 4 9 3 10 2 11 1 12 13 13
REMARK SMILES IDX 14 14 15 15 16 16 17 17 18 18 19 19 20 20 21 21 22 22 23 23
REMARK SMILES IDX 24 24
REMARK H PARENT
REMARK Flexibility Score: inf
ROOT
ATOM      1  C   UNL     1     -28.266  21.580 -12.041  1.00  0.00     0.000 C 
ENDROOT
BRANCH   1   2
ATOM      2  C   UNL     1     -27.343  22.232 -13.092  1.00  0.00     0.000 C 
BRANCH   2   3
ATOM      3  C   UNL     1     -25.897  22.442 -12.606  1.00  0.00     0.000 C 
BRANCH   3   4
ATOM      4  C   UNL     1     -25.638  23.766 -11.865  1.00  0.00    -0.000 C 
BRANCH   4   5
ATOM      5  C   UNL     1     -25.533  23.648 -10.332  1.00  0.00    -0.000 C 
BRANCH   5   6
ATOM      6  C   UNL     1     -25.552  22.189  -9.843  1.00  0.00    -0.000 C 
BRANCH   6   7
ATOM      7  C   UNL     1     -26.129  22.054  -8.424  1.00  0.00    -0.000 C 
BRANCH   7   8
ATOM      8  C   UNL     1     -25.480  20.912  -7.627  1.00  0.00    -0.000 C 
BRANCH   8   9
ATOM      9  C   UNL     1     -23.962  21.101  -7.539  1.00  0.00    -0.000 C 
BRANCH   9  10
ATOM     10  C   UNL     1     -23.581  21.957  -6.321  1.00  0.00    -0.000 C 
BRANCH  10  11
ATOM     11  C   UNL     1     -22.282  22.746  -6.536  1.00  0.00    -0.003 C 
ATOM     12  C   UNL     1     -22.123  23.903  -5.551  1.00  0.00     0.004 C 
ENDBRANCH  10  11
ENDBRANCH   9  10
ENDBRANCH   8   9
ENDBRANCH   7   8
ENDBRANCH   6   7
ENDBRANCH   5   6
ENDBRANCH   4   5
ENDBRANCH   3   4
ENDBRANCH   2   3
ENDBRANCH   1   2
BRANCH   1  13
ATOM     13  C   UNL     1     -29.438  22.487 -11.637  1.00  0.00     0.000 C 
BRANCH  13  14
ATOM     14  C   UNL     1     -30.067  22.016 -10.320  1.00  0.00     0.000 C 
BRANCH  14  15
ATOM     15  C   UNL     1     -31.575  22.309 -10.294  1.00  0.00     0.000 C 
BRANCH  15  16
ATOM     16  C   UNL     1     -32.420  21.028 -10.379  1.00  0.00     0.000 C 
BRANCH  16  17
ATOM     17  C   UNL     1     -31.551  19.760 -10.475  1.00  0.00     0.000 C 
BRANCH  17  18
ATOM     18  C   UNL     1     -32.373  18.472 -10.314  1.00  0.00     0.000 C 
BRANCH  18  19
ATOM     19  C   UNL     1     -31.489  17.210 -10.310  1.00  0.00     0.000 C 
BRANCH  19  20
ATOM     20  C   UNL     1     -30.010  17.522 -10.602  1.00  0.00     0.006 C 
BRANCH  20  21
ATOM     21  C   UNL     1     -29.308  16.470 -11.474  1.00  0.00     0.053 C 
BRANCH  21  22
ATOM     22  C   UNL     1     -28.906  17.024 -12.807  1.00  0.00     0.041 C 
ATOM     23  O   UNL     1     -28.567  18.232 -12.916  1.00  0.00    -0.550 OA
ATOM     24  O   UNL     1     -28.925  16.211 -13.934  1.00  0.00    -0.550 OA
ENDBRANCH  21  22
ENDBRANCH  20  21
ENDBRANCH  19  20
ENDBRANCH  18  19
ENDBRANCH  17  18
ENDBRANCH  16  17
ENDBRANCH  15  16
ENDBRANCH  14  15
ENDBRANCH  13  14
ENDBRANCH   1  13
TORSDOF 20
ENDMDL
MODEL 4
REMARK VINA RESULT:    13.577      2.930      7.805
REMARK INTER + INTRA:          28.825
REMARK INTER:                  29.284
REMARK INTRA:                  -0.459
REMARK UNBOUND:                -0.625
REMARK SMILES CCCCCCCCCCCCCCCCCCCCCC(=O)[O-]
REMARK SMILES IDX 12 1 11 2 10 3 9 4 8 5 7 6 6 7 5 8 4 9 3 10 2 11 1 12 13 13
REMARK SMILES IDX 14 14 15 15 16 16 17 17 18 18 19 19 20 20 21 21 22 22 23 23
REMARK SMILES IDX 24 24
REMARK H PARENT
REMARK Flexibility Score: inf
ROOT
ATOM      1  C   UNL     1     -28.541  18.937 -12.351  1.00  0.00     0.000 C 
ENDROOT
BRANCH   1   2
ATOM      2  C   UNL     1     -28.245  20.452 -12.335  1.00  0.00     0.000 C 
BRANCH   2   3
ATOM      3  C   UNL     1     -27.296  20.912 -13.458  1.00  0.00     0.000 C 
BRANCH   3   4
ATOM      4  C   UNL     1     -26.730  22.335 -13.297  1.00  0.00    -0.000 C 
BRANCH   4   5
ATOM      5  C   UNL     1     -26.692  22.865 -11.851  1.00  0.00    -0.000 C 
BRANCH   5   6
ATOM      6  C   UNL     1     -25.289  22.789 -11.224  1.00  0.00    -0.000 C 
BRANCH   6   7
ATOM      7  C   UNL     1     -25.322  22.937  -9.693  1.00  0.00    -0.000 C 
BRANCH   7   8
ATOM      8  C   UNL     1     -26.242  21.907  -9.020  1.00  0.00    -0.000 C 
BRANCH   8   9
ATOM      9  C   UNL     1     -25.522  21.209  -7.861  1.00  0.00    -0.000 C 
BRANCH   9  10
ATOM     10  C   UNL     1     -24.042  21.615  -7.804  1.00  0.00    -0.000 C 
BRANCH  10  11
ATOM     11  C   UNL     1     -23.587  21.989  -6.386  1.00  0.00    -0.003 C 
ATOM     12  C   UNL     1     -22.165  22.548  -6.350  1.00  0.00     0.004 C 
ENDBRANCH  10  11
ENDBRANCH   9  10
ENDBRANCH   8   9
ENDBRANCH   7   8
ENDBRANCH   6   7
ENDBRANCH   5   6
ENDBRANCH   4   5
ENDBRANCH   3   4
ENDBRANCH   2   3
ENDBRANCH   1   2
BRANCH   1  13
ATOM     13  C   UNL     1     -29.301  18.469 -11.100  1.00  0.00     0.000 C 
BRANCH  13  14
ATOM     14  C   UNL     1     -29.230  16.944 -10.954  1.00  0.00     0.000 C 
BRANCH  14  15
ATOM     15  C   UNL     1     -30.628  16.315 -11.058  1.00  0.00     0.000 C 
BRANCH  15  16
ATOM     16  C   UNL     1     -31.664  17.048 -10.191  1.00  0.00     0.000 C 
BRANCH  16  17
ATOM     17  C   UNL     1     -31.876  18.505 -10.642  1.00  0.00     0.000 C 
BRANCH  17  18
ATOM     18  C   UNL     1     -32.779  19.292  -9.679  1.00  0.00     0.000 C 
BRANCH  18  19
ATOM     19  C   UNL     1     -32.645  20.815  -9.862  1.00  0.00     0.000 C 
BRANCH  19  20
ATOM     20  C   UNL     1     -31.494  21.198 -10.810  1.00  0.00     0.006 C 
BRANCH  20  21
ATOM     21  C   UNL     1     -31.098  22.681 -10.748  1.00  0.00     0.053 C 
BRANCH  21  22
ATOM     22  C   UNL     1     -32.095  23.498  -9.983  1.00  0.00     0.041 C 
ATOM     23  O   UNL     1     -31.759  24.069  -8.913  1.00  0.00    -0.550 OA
ATOM     24  O   UNL     1     -33.402  23.611 -10.443  1.00  0.00    -0.550 OA
ENDBRANCH  21  22
ENDBRANCH  20  21
ENDBRANCH  19  20
ENDBRANCH  18  19
ENDBRANCH  17  18
ENDBRANCH  16  17
ENDBRANCH  15  16
ENDBRANCH  14  15
ENDBRANCH  13  14
ENDBRANCH   1  13
TORSDOF 20
ENDMDL
MODEL 5
REMARK VINA RESULT:    13.819      1.147      3.956
REMARK INTER + INTRA:          29.352
REMARK INTER:                  31.336
REMARK INTRA:                  -1.984
REMARK UNBOUND:                -0.625
REMARK SMILES CCCCCCCCCCCCCCCCCCCCCC(=O)[O-]
REMARK SMILES IDX 12 1 11 2 10 3 9 4 8 5 7 6 6 7 5 8 4 9 3 10 2 11 1 12 13 13
REMARK SMILES IDX 14 14 15 15 16 16 17 17 18 18 19 19 20 20 21 21 22 22 23 23
REMARK SMILES IDX 24 24
REMARK H PARENT
REMARK Flexibility Score: inf
ROOT
ATOM      1  C   UNL     1     -29.103  21.354 -11.015  1.00  0.00     0.000 C 
ENDROOT
BRANCH   1   2
ATOM      2  C   UNL     1     -30.118  22.452 -11.396  1.00  0.00     0.000 C 
BRANCH   2   3
ATOM      3  C   UNL     1     -31.154  22.751 -10.296  1.00  0.00     0.000 C 
BRANCH   3   4
ATOM      4  C   UNL     1     -32.479  21.976 -10.414  1.00  0.00    -0.000 C 
BRANCH   4   5
ATOM      5  C   UNL     1     -32.501  20.608  -9.707  1.00  0.00    -0.000 C 
BRANCH   5   6
ATOM      6  C   UNL     1     -32.258  19.433 -10.671  1.00  0.00    -0.000 C 
BRANCH   6   7
ATOM      7  C   UNL     1     -31.201  18.449 -10.141  1.00  0.00    -0.000 C 
BRANCH   7   8
ATOM      8  C   UNL     1     -31.352  17.041 -10.737  1.00  0.00    -0.000 C 
BRANCH   8   9
ATOM      9  C   UNL     1     -29.987  16.357 -10.872  1.00  0.00    -0.000 C 
BRANCH   9  10
ATOM     10  C   UNL     1     -28.909  17.357 -11.317  1.00  0.00    -0.000 C 
BRANCH  10  11
ATOM     11  C   UNL     1     -28.900  17.578 -12.836  1.00  0.00    -0.003 C 
ATOM     12  C   UNL     1     -28.977  16.271 -13.624  1.00  0.00     0.004 C 
ENDBRANCH  10  11
ENDBRANCH   9  10
ENDBRANCH   8   9
ENDBRANCH   7   8
ENDBRANCH   6   7
ENDBRANCH   5   6
ENDBRANCH   4   5
ENDBRANCH   3   4
ENDBRANCH   2   3
ENDBRANCH   1   2
BRANCH   1  13
ATOM     13  C   UNL     1     -27.981  21.197 -12.052  1.00  0.00     0.000 C 
BRANCH  13  14
ATOM     14  C   UNL     1     -27.495  22.566 -12.545  1.00  0.00     0.000 C 
BRANCH  14  15
ATOM     15  C   UNL     1     -25.985  22.730 -12.315  1.00  0.00     0.000 C 
BRANCH  15  16
ATOM     16  C   UNL     1     -25.660  23.928 -11.409  1.00  0.00     0.000 C 
BRANCH  16  17
ATOM     17  C   UNL     1     -25.111  23.492 -10.038  1.00  0.00     0.000 C 
BRANCH  17  18
ATOM     18  C   UNL     1     -25.415  22.018  -9.727  1.00  0.00     0.000 C 
BRANCH  18  19
ATOM     19  C   UNL     1     -25.396  21.722  -8.216  1.00  0.00     0.000 C 
BRANCH  19  20
ATOM     20  C   UNL     1     -23.977  21.467  -7.679  1.00  0.00     0.006 C 
BRANCH  20  21
ATOM     21  C   UNL     1     -23.714  22.067  -6.289  1.00  0.00     0.053 C 
BRANCH  21  22
ATOM     22  C   UNL     1     -22.336  22.643  -6.176  1.00  0.00     0.041 C 
ATOM     23  O   UNL     1     -21.356  22.050  -6.699  1.00  0.00    -0.550 OA
ATOM     24  O   UNL     1     -22.130  23.826  -5.476  1.00  0.00    -0.550 OA
ENDBRANCH  21  22
ENDBRANCH  20  21
ENDBRANCH  19  20
ENDBRANCH  18  19
ENDBRANCH  17  18
ENDBRANCH  16  17
ENDBRANCH  15  16
ENDBRANCH  14  15
ENDBRANCH  13  14
ENDBRANCH   1  13
TORSDOF 20
ENDMDL
MODEL 6
REMARK VINA RESULT:    14.347      3.282      8.017
REMARK INTER + INTRA:          30.497
REMARK INTER:                  32.095
REMARK INTRA:                  -1.597
REMARK UNBOUND:                -0.625
REMARK SMILES CCCCCCCCCCCCCCCCCCCCCC(=O)[O-]
REMARK SMILES IDX 12 1 11 2 10 3 9 4 8 5 7 6 6 7 5 8 4 9 3 10 2 11 1 12 13 13
REMARK SMILES IDX 14 14 15 15 16 16 17 17 18 18 19 19 20 20 21 21 22 22 23 23
REMARK SMILES IDX 24 24
REMARK H PARENT
REMARK Flexibility Score: inf
ROOT
ATOM      1  C   UNL     1     -29.806  21.717 -10.111  1.00  0.00     0.000 C 
ENDROOT
BRANCH   1   2
ATOM      2  C   UNL     1     -28.978  21.128 -11.273  1.00  0.00     0.000 C 
BRANCH   2   3
ATOM      3  C   UNL     1     -28.576  22.164 -12.339  1.00  0.00     0.000 C 
BRANCH   3   4
ATOM      4  C   UNL     1     -27.312  21.818 -13.147  1.00  0.00    -0.000 C 
BRANCH   4   5
ATOM      5  C   UNL     1     -25.980  22.182 -12.465  1.00  0.00    -0.000 C 
BRANCH   5   6
ATOM      6  C   UNL     1     -25.952  23.630 -11.943  1.00  0.00    -0.000 C 
BRANCH   6   7
ATOM      7  C   UNL     1     -25.104  23.776 -10.668  1.00  0.00    -0.000 C 
BRANCH   7   8
ATOM      8  C   UNL     1     -24.984  22.460  -9.884  1.00  0.00    -0.000 C 
BRANCH   8   9
ATOM      9  C   UNL     1     -24.037  22.621  -8.689  1.00  0.00    -0.000 C 
BRANCH   9  10
ATOM     10  C   UNL     1     -24.379  21.622  -7.574  1.00  0.00    -0.000 C 
BRANCH  10  11
ATOM     11  C   UNL     1     -23.250  21.480  -6.542  1.00  0.00    -0.003 C 
ATOM     12  C   UNL     1     -22.468  22.777  -6.340  1.00  0.00     0.004 C 
ENDBRANCH  10  11
ENDBRANCH   9  10
ENDBRANCH   8   9
ENDBRANCH   7   8
ENDBRANCH   6   7
ENDBRANCH   5   6
ENDBRANCH   4   5
ENDBRANCH   3   4
ENDBRANCH   2   3
ENDBRANCH   1   2
BRANCH   1  13
ATOM     13  C   UNL     1     -30.852  22.736 -10.585  1.00  0.00     0.000 C 
BRANCH  13  14
ATOM     14  C   UNL     1     -32.265  22.143 -10.520  1.00  0.00     0.000 C 
BRANCH  14  15
ATOM     15  C   UNL     1     -32.255  20.768  -9.836  1.00  0.00     0.000 C 
BRANCH  15  16
ATOM     16  C   UNL     1     -32.646  19.634 -10.797  1.00  0.00     0.000 C 
BRANCH  16  17
ATOM     17  C   UNL     1     -32.744  18.272 -10.085  1.00  0.00     0.000 C 
BRANCH  17  18
ATOM     18  C   UNL     1     -31.555  17.354 -10.408  1.00  0.00     0.000 C 
BRANCH  18  19
ATOM     19  C   UNL     1     -30.216  18.114 -10.423  1.00  0.00     0.000 C 
BRANCH  19  20
ATOM     20  C   UNL     1     -29.024  17.207 -10.780  1.00  0.00     0.006 C 
BRANCH  20  21
ATOM     21  C   UNL     1     -29.335  16.156 -11.857  1.00  0.00     0.053 C 
BRANCH  21  22
ATOM     22  C   UNL     1     -28.953  16.625 -13.227  1.00  0.00     0.041 C 
ATOM     23  O   UNL     1     -28.949  15.820 -14.195  1.00  0.00    -0.550 OA
ATOM     24  O   UNL     1     -28.581  17.949 -13.432  1.00  0.00    -0.550 OA
ENDBRANCH  21  22
ENDBRANCH  20  21
ENDBRANCH  19  20
ENDBRANCH  18  19
ENDBRANCH  17  18
ENDBRANCH  16  17
ENDBRANCH  15  16
ENDBRANCH  14  15
ENDBRANCH  13  14
ENDBRANCH   1  13
TORSDOF 20
ENDMDL
MODEL 7
REMARK VINA RESULT:    14.965      7.138      9.312
REMARK INTER + INTRA:          31.836
REMARK INTER:                  32.613
REMARK INTRA:                  -0.778
REMARK UNBOUND:                -0.625
REMARK SMILES CCCCCCCCCCCCCCCCCCCCCC(=O)[O-]
REMARK SMILES IDX 12 1 11 2 10 3 9 4 8 5 7 6 6 7 5 8 4 9 3 10 2 11 1 12 13 13
REMARK SMILES IDX 14 14 15 15 16 16 17 17 18 18 19 19 20 20 21 21 22 22 23 23
REMARK SMILES IDX 24 24
REMARK H PARENT
REMARK Flexibility Score: inf
ROOT
ATOM      1  C   UNL     1     -28.736  17.069 -13.090  1.00  0.00     0.000 C 
ENDROOT
BRANCH   1   2
ATOM      2  C   UNL     1     -29.019  17.201 -11.578  1.00  0.00     0.000 C 
BRANCH   2   3
ATOM      3  C   UNL     1     -30.085  16.220 -11.057  1.00  0.00     0.000 C 
BRANCH   3   4
ATOM      4  C   UNL     1     -31.338  16.875 -10.447  1.00  0.00    -0.000 C 
BRANCH   4   5
ATOM      5  C   UNL     1     -31.273  18.408 -10.309  1.00  0.00    -0.000 C 
BRANCH   5   6
ATOM      6  C   UNL     1     -32.653  19.045 -10.065  1.00  0.00    -0.000 C 
BRANCH   6   7
ATOM      7  C   UNL     1     -32.731  20.491 -10.584  1.00  0.00    -0.000 C 
BRANCH   7   8
ATOM      8  C   UNL     1     -31.373  21.208 -10.540  1.00  0.00    -0.000 C 
BRANCH   8   9
ATOM      9  C   UNL     1     -31.385  22.338  -9.504  1.00  0.00    -0.000 C 
BRANCH   9  10
ATOM     10  C   UNL     1     -31.566  23.706 -10.179  1.00  0.00    -0.000 C 
BRANCH  10  11
ATOM     11  C   UNL     1     -33.040  24.123 -10.279  1.00  0.00    -0.003 C 
ATOM     12  C   UNL     1     -33.925  23.421  -9.250  1.00  0.00     0.004 C 
ENDBRANCH  10  11
ENDBRANCH   9  10
ENDBRANCH   8   9
ENDBRANCH   7   8
ENDBRANCH   6   7
ENDBRANCH   5   6
ENDBRANCH   4   5
ENDBRANCH   3   4
ENDBRANCH   2   3
ENDBRANCH   1   2
BRANCH   1  13
ATOM     13  C   UNL     1     -29.003  15.654 -13.622  1.00  0.00     0.000 C 
BRANCH  13  14
ATOM     14  C   UNL     1     -28.104  15.340 -14.824  1.00  0.00     0.000 C 
BRANCH  14  15
ATOM     15  C   UNL     1     -27.707  13.856 -14.844  1.00  0.00     0.000 C 
BRANCH  15  16
ATOM     16  C   UNL     1     -26.483  13.591 -15.735  1.00  0.00     0.000 C 
BRANCH  16  17
ATOM     17  C   UNL     1     -25.315  12.964 -14.952  1.00  0.00     0.000 C 
BRANCH  17  18
ATOM     18  C   UNL     1     -24.290  12.282 -15.873  1.00  0.00     0.000 C 
BRANCH  18  19
ATOM     19  C   UNL     1     -23.781  10.949 -15.296  1.00  0.00     0.000 C 
BRANCH  19  20
ATOM     20  C   UNL     1     -22.319  10.657 -15.680  1.00  0.00     0.006 C 
BRANCH  20  21
ATOM     21  C   UNL     1     -22.156   9.553 -16.735  1.00  0.00     0.053 C 
BRANCH  21  22
ATOM     22  C   UNL     1     -23.217   9.623 -17.791  1.00  0.00     0.041 C 
ATOM     23  O   UNL     1     -23.199  10.546 -18.647  1.00  0.00    -0.550 OA
ATOM     24  O   UNL     1     -24.237   8.680 -17.817  1.00  0.00    -0.550 OA
ENDBRANCH  21  22
ENDBRANCH  20  21
ENDBRANCH  19  20
ENDBRANCH  18  19
ENDBRANCH  17  18
ENDBRANCH  16  17
ENDBRANCH  15  16
ENDBRANCH  14  15
ENDBRANCH  13  14
ENDBRANCH   1  13
TORSDOF 20
ENDMDL
MODEL 8
REMARK VINA RESULT:    15.224      1.941      4.884
REMARK INTER + INTRA:          32.399
REMARK INTER:                  31.877
REMARK INTRA:                   0.522
REMARK UNBOUND:                -0.625
REMARK SMILES CCCCCCCCCCCCCCCCCCCCCC(=O)[O-]
REMARK SMILES IDX 12 1 11 2 10 3 9 4 8 5 7 6 6 7 5 8 4 9 3 10 2 11 1 12 13 13
REMARK SMILES IDX 14 14 15 15 16 16 17 17 18 18 19 19 20 20 21 21 22 22 23 23
REMARK SMILES IDX 24 24
REMARK H PARENT
REMARK Flexibility Score: inf
ROOT
ATOM      1  C   UNL     1     -32.200  24.090  -9.550  1.00  0.00     0.000 C 
ENDROOT
BRANCH   1   2
ATOM      2  C   UNL     1     -33.258  23.080 -10.044  1.00  0.00     0.000 C 
BRANCH   2   3
ATOM      3  C   UNL     1     -32.661  21.841 -10.736  1.00  0.00     0.000 C 
BRANCH   3   4
ATOM      4  C   UNL     1     -32.391  20.639  -9.812  1.00  0.00    -0.000 C 
BRANCH   4   5
ATOM      5  C   UNL     1     -32.844  19.274 -10.365  1.00  0.00    -0.000 C 
BRANCH   5   6
ATOM      6  C   UNL     1     -31.709  18.235 -10.395  1.00  0.00    -0.000 C 
BRANCH   6   7
ATOM      7  C   UNL     1     -30.329  18.881 -10.601  1.00  0.00    -0.000 C 
BRANCH   7   8
ATOM      8  C   UNL     1     -29.203  17.844 -10.728  1.00  0.00    -0.000 C 
BRANCH   8   9
ATOM      9  C   UNL     1     -29.773  16.421 -10.754  1.00  0.00    -0.000 C 
BRANCH   9  10
ATOM     10  C   UNL     1     -29.383  15.693 -12.050  1.00  0.00    -0.000 C 
BRANCH  10  11
ATOM     11  C   UNL     1     -28.965  16.660 -13.167  1.00  0.00    -0.003 C 
ATOM     12  C   UNL     1     -28.793  15.964 -14.517  1.00  0.00     0.004 C 
ENDBRANCH  10  11
ENDBRANCH   9  10
ENDBRANCH   8   9
ENDBRANCH   7   8
ENDBRANCH   6   7
ENDBRANCH   5   6
ENDBRANCH   4   5
ENDBRANCH   3   4
ENDBRANCH   2   3
ENDBRANCH   1   2
BRANCH   1  13
ATOM     13  C   UNL     1     -30.819  23.858 -10.183  1.00  0.00     0.000 C 
BRANCH  13  14
ATOM     14  C   UNL     1     -30.222  22.522  -9.724  1.00  0.00     0.000 C 
BRANCH  14  15
ATOM     15  C   UNL     1     -29.238  21.971 -10.767  1.00  0.00     0.000 C 
BRANCH  15  16
ATOM     16  C   UNL     1     -28.129  21.118 -10.129  1.00  0.00     0.000 C 
BRANCH  16  17
ATOM     17  C   UNL     1     -27.084  21.976  -9.392  1.00  0.00     0.000 C 
BRANCH  17  18
ATOM     18  C   UNL     1     -26.907  21.553  -7.925  1.00  0.00     0.000 C 
BRANCH  18  19
ATOM     19  C   UNL     1     -25.623  20.733  -7.703  1.00  0.00     0.000 C 
BRANCH  19  20
ATOM     20  C   UNL     1     -24.357  21.607  -7.682  1.00  0.00     0.006 C 
BRANCH  20  21
ATOM     21  C   UNL     1     -23.784  21.849  -6.276  1.00  0.00     0.053 C 
BRANCH  21  22
ATOM     22  C   UNL     1     -22.451  22.531  -6.322  1.00  0.00     0.041 C 
ATOM     23  O   UNL     1     -21.517  22.052  -7.018  1.00  0.00    -0.550 OA
ATOM     24  O   UNL     1     -22.234  23.686  -5.581  1.00  0.00    -0.550 OA
ENDBRANCH  21  22
ENDBRANCH  20  21
ENDBRANCH  19  20
ENDBRANCH  18  19
ENDBRANCH  17  18
ENDBRANCH  16  17
ENDBRANCH  15  16
ENDBRANCH  14  15
ENDBRANCH  13  14
ENDBRANCH   1  13
TORSDOF 20
ENDMDL
MODEL 9
REMARK VINA RESULT:    15.609      4.558      8.119
REMARK INTER + INTRA:          33.233
REMARK INTER:                  33.969
REMARK INTRA:                  -0.735
REMARK UNBOUND:                -0.625
REMARK SMILES CCCCCCCCCCCCCCCCCCCCCC(=O)[O-]
REMARK SMILES IDX 12 1 11 2 10 3 9 4 8 5 7 6 6 7 5 8 4 9 3 10 2 11 1 12 13 13
REMARK SMILES IDX 14 14 15 15 16 16 17 17 18 18 19 19 20 20 21 21 22 22 23 23
REMARK SMILES IDX 24 24
REMARK H PARENT
REMARK Flexibility Score: inf
ROOT
ATOM      1  C   UNL     1     -31.542  18.247  -9.947  1.00  0.00     0.000 C 
ENDROOT
BRANCH   1   2
ATOM      2  C   UNL     1     -32.678  19.073 -10.587  1.00  0.00     0.000 C 
BRANCH   2   3
ATOM      3  C   UNL     1     -32.337  20.563 -10.771  1.00  0.00     0.000 C 
BRANCH   3   4
ATOM      4  C   UNL     1     -32.655  21.464  -9.563  1.00  0.00    -0.000 C 
BRANCH   4   5
ATOM      5  C   UNL     1     -32.814  22.961  -9.887  1.00  0.00    -0.000 C 
BRANCH   5   6
ATOM      6  C   UNL     1     -31.475  23.648 -10.210  1.00  0.00    -0.000 C 
BRANCH   6   7
ATOM      7  C   UNL     1     -30.279  22.689 -10.080  1.00  0.00    -0.000 C 
BRANCH   7   8
ATOM      8  C   UNL     1     -29.958  21.962 -11.395  1.00  0.00    -0.000 C 
BRANCH   8   9
ATOM      9  C   UNL     1     -28.647  21.176 -11.278  1.00  0.00    -0.000 C 
BRANCH   9  10
ATOM     10  C   UNL     1     -27.845  21.239 -12.586  1.00  0.00    -0.000 C 
BRANCH  10  11
ATOM     11  C   UNL     1     -26.954  22.486 -12.672  1.00  0.00    -0.003 C 
ATOM     12  C   UNL     1     -25.920  22.553 -11.548  1.00  0.00     0.004 C 
ENDBRANCH  10  11
ENDBRANCH   9  10
ENDBRANCH   8   9
ENDBRANCH   7   8
ENDBRANCH   6   7
ENDBRANCH   5   6
ENDBRANCH   4   5
ENDBRANCH   3   4
ENDBRANCH   2   3
ENDBRANCH   1   2
BRANCH   1  13
ATOM     13  C   UNL     1     -31.544  16.781 -10.406  1.00  0.00     0.000 C 
BRANCH  13  14
ATOM     14  C   UNL     1     -30.123  16.309 -10.740  1.00  0.00     0.000 C 
BRANCH  14  15
ATOM     15  C   UNL     1     -29.238  17.487 -11.174  1.00  0.00     0.000 C 
BRANCH  15  16
ATOM     16  C   UNL     1     -28.856  17.415 -12.661  1.00  0.00     0.000 C 
BRANCH  16  17
ATOM     17  C   UNL     1     -28.847  15.969 -13.191  1.00  0.00     0.000 C 
BRANCH  17  18
ATOM     18  C   UNL     1     -29.207  15.889 -14.683  1.00  0.00     0.000 C 
BRANCH  18  19
ATOM     19  C   UNL     1     -29.142  17.263 -15.375  1.00  0.00     0.000 C 
BRANCH  19  20
ATOM     20  C   UNL     1     -30.300  17.483 -16.365  1.00  0.00     0.006 C 
BRANCH  20  21
ATOM     21  C   UNL     1     -29.883  18.163 -17.679  1.00  0.00     0.053 C 
BRANCH  21  22
ATOM     22  C   UNL     1     -30.273  19.609 -17.712  1.00  0.00     0.041 C 
ATOM     23  O   UNL     1     -31.471  19.947 -17.520  1.00  0.00    -0.550 OA
ATOM     24  O   UNL     1     -29.317  20.582 -17.975  1.00  0.00    -0.550 OA
ENDBRANCH  21  22
ENDBRANCH  20  21
ENDBRANCH  19  20
ENDBRANCH  18  19
ENDBRANCH  17  18
ENDBRANCH  16  17
ENDBRANCH  15  16
ENDBRANCH  14  15
ENDBRANCH  13  14
ENDBRANCH   1  13
TORSDOF 20
ENDMDL
