MODEL 1
REMARK VINA RESULT:    -5.087      0.000      0.000
REMARK INTER + INTRA:         -15.555
REMARK INTER:                 -11.628
REMARK INTRA:                  -3.927
REMARK UNBOUND:                -3.927
REMARK SMILES CCCCCCCCCCCCCCCCCCCCCCCC(=O)[O-]
REMARK SMILES IDX 13 1 14 2 15 3 16 4 17 5 18 6 19 7 20 8 21 9 22 10 23 11
REMARK SMILES IDX 24 12 25 13 26 14 12 15 11 16 10 17 9 18 8 19 7 20 6 21 5 22
REMARK SMILES IDX 4 23 3 24 2 25 1 26
REMARK H PARENT
REMARK Flexibility Score: inf
ROOT
ATOM      1  C   UNL     1      10.164  18.375  32.104  1.00  0.00     0.000 C 
ENDROOT
BRANCH   1   2
ATOM      2  C   UNL     1      10.362  17.318  33.206  1.00  0.00     0.000 C 
BRANCH   2   3
ATOM      3  C   UNL     1       9.136  17.186  34.125  1.00  0.00     0.000 C 
BRANCH   3   4
ATOM      4  C   UNL     1       8.157  18.362  33.983  1.00  0.00     0.000 C 
BRANCH   4   5
ATOM      5  C   UNL     1       8.212  19.272  35.216  1.00  0.00     0.000 C 
BRANCH   5   6
ATOM      6  C   UNL     1       8.691  18.498  36.453  1.00  0.00     0.000 C 
BRANCH   6   7
ATOM      7  C   UNL     1       9.946  19.116  37.098  1.00  0.00     0.000 C 
BRANCH   7   8
ATOM      8  C   UNL     1      11.275  18.446  36.706  1.00  0.00     0.000 C 
BRANCH   8   9
ATOM      9  C   UNL     1      12.459  19.424  36.699  1.00  0.00     0.000 C 
BRANCH   9  10
ATOM     10  C   UNL     1      13.754  18.714  36.278  1.00  0.00     0.006 C 
BRANCH  10  11
ATOM     11  C   UNL     1      13.485  17.360  35.610  1.00  0.00     0.053 C 
BRANCH  11  12
ATOM     12  C   UNL     1      14.353  16.279  36.180  1.00  0.00     0.041 C 
ATOM     13  O   UNL     1      13.832  15.254  36.694  1.00  0.00    -0.550 OA
ATOM     14  O   UNL     1      15.735  16.416  36.166  1.00  0.00    -0.550 OA
ENDBRANCH  11  12
ENDBRANCH  10  11
ENDBRANCH   9  10
ENDBRANCH   8   9
ENDBRANCH   7   8
ENDBRANCH   6   7
ENDBRANCH   5   6
ENDBRANCH   4   5
ENDBRANCH   3   4
ENDBRANCH   2   3
ENDBRANCH   1   2
BRANCH   1  15
ATOM     15  C   UNL     1       9.932  17.748  30.720  1.00  0.00     0.000 C 
BRANCH  15  16
ATOM     16  C   UNL     1       9.121  18.665  29.786  1.00  0.00     0.000 C 
BRANCH  16  17
ATOM     17  C   UNL     1       8.303  19.718  30.554  1.00  0.00     0.000 C 
BRANCH  17  18
ATOM     18  C   UNL     1       7.994  20.964  29.704  1.00  0.00    -0.000 C 
BRANCH  18  19
ATOM     19  C   UNL     1       8.027  22.261  30.530  1.00  0.00    -0.000 C 
BRANCH  19  20
ATOM     20  C   UNL     1       8.706  22.077  31.896  1.00  0.00    -0.000 C 
BRANCH  20  21
ATOM     21  C   UNL     1      10.089  22.748  31.915  1.00  0.00    -0.000 C 
BRANCH  21  22
ATOM     22  C   UNL     1      11.158  21.900  32.627  1.00  0.00    -0.000 C 
BRANCH  22  23
ATOM     23  C   UNL     1      10.789  21.456  34.054  1.00  0.00    -0.000 C 
BRANCH  23  24
ATOM     24  C   UNL     1      11.157  22.504  35.120  1.00  0.00    -0.000 C 
BRANCH  24  25
ATOM     25  C   UNL     1       9.944  23.327  35.577  1.00  0.00    -0.003 C 
ATOM     26  C   UNL     1       9.137  22.630  36.673  1.00  0.00     0.004 C 
ENDBRANCH  24  25
ENDBRANCH  23  24
ENDBRANCH  22  23
ENDBRANCH  21  22
ENDBRANCH  20  21
ENDBRANCH  19  20
ENDBRANCH  18  19
ENDBRANCH  17  18
ENDBRANCH  16  17
ENDBRANCH  15  16
ENDBRANCH   1  15
TORSDOF 22
ENDMDL
MODEL 2
REMARK VINA RESULT:    -5.050      1.670      4.199
REMARK INTER + INTRA:         -15.472
REMARK INTER:                 -11.524
REMARK INTRA:                  -3.948
REMARK UNBOUND:                -3.927
REMARK SMILES CCCCCCCCCCCCCCCCCCCCCCCC(=O)[O-]
REMARK SMILES IDX 13 1 14 2 15 3 16 4 17 5 18 6 19 7 20 8 21 9 22 10 23 11
REMARK SMILES IDX 24 12 25 13 26 14 12 15 11 16 10 17 9 18 8 19 7 20 6 21 5 22
REMARK SMILES IDX 4 23 3 24 2 25 1 26
REMARK H PARENT
REMARK Flexibility Score: inf
ROOT
ATOM      1  C   UNL     1       8.631  20.536  37.235  1.00  0.00     0.000 C 
ENDROOT
BRANCH   1   2
ATOM      2  C   UNL     1       8.095  19.124  36.942  1.00  0.00     0.000 C 
BRANCH   2   3
ATOM      3  C   UNL     1       8.130  18.777  35.444  1.00  0.00     0.000 C 
BRANCH   3   4
ATOM      4  C   UNL     1       8.557  17.325  35.179  1.00  0.00     0.000 C 
BRANCH   4   5
ATOM      5  C   UNL     1       9.796  16.959  36.004  1.00  0.00     0.000 C 
BRANCH   5   6
ATOM      6  C   UNL     1      11.081  17.447  35.317  1.00  0.00     0.000 C 
BRANCH   6   7
ATOM      7  C   UNL     1      11.920  18.380  36.209  1.00  0.00     0.000 C 
BRANCH   7   8
ATOM      8  C   UNL     1      11.889  18.045  37.711  1.00  0.00     0.000 C 
BRANCH   8   9
ATOM      9  C   UNL     1      13.290  17.864  38.313  1.00  0.00     0.000 C 
BRANCH   9  10
ATOM     10  C   UNL     1      13.820  16.446  38.053  1.00  0.00     0.006 C 
BRANCH  10  11
ATOM     11  C   UNL     1      15.302  16.441  37.660  1.00  0.00     0.053 C 
BRANCH  11  12
ATOM     12  C   UNL     1      15.601  17.473  36.615  1.00  0.00     0.041 C 
ATOM     13  O   UNL     1      16.124  18.571  36.940  1.00  0.00    -0.550 OA
ATOM     14  O   UNL     1      15.279  17.230  35.285  1.00  0.00    -0.550 OA
ENDBRANCH  11  12
ENDBRANCH  10  11
ENDBRANCH   9  10
ENDBRANCH   8   9
ENDBRANCH   7   8
ENDBRANCH   6   7
ENDBRANCH   5   6
ENDBRANCH   4   5
ENDBRANCH   3   4
ENDBRANCH   2   3
ENDBRANCH   1   2
BRANCH   1  15
ATOM     15  C   UNL     1       9.448  21.111  36.066  1.00  0.00     0.000 C 
BRANCH  15  16
ATOM     16  C   UNL     1       9.216  22.621  35.872  1.00  0.00     0.000 C 
BRANCH  16  17
ATOM     17  C   UNL     1       8.776  22.975  34.441  1.00  0.00     0.000 C 
BRANCH  17  18
ATOM     18  C   UNL     1       9.590  24.136  33.840  1.00  0.00    -0.000 C 
BRANCH  18  19
ATOM     19  C   UNL     1      11.106  23.891  33.912  1.00  0.00    -0.000 C 
BRANCH  19  20
ATOM     20  C   UNL     1      11.591  22.869  32.872  1.00  0.00    -0.000 C 
BRANCH  20  21
ATOM     21  C   UNL     1      11.998  21.550  33.548  1.00  0.00    -0.000 C 
BRANCH  21  22
ATOM     22  C   UNL     1      11.330  20.318  32.911  1.00  0.00    -0.000 C 
BRANCH  22  23
ATOM     23  C   UNL     1      10.067  20.621  32.084  1.00  0.00    -0.000 C 
BRANCH  23  24
ATOM     24  C   UNL     1       9.086  19.435  32.036  1.00  0.00    -0.000 C 
BRANCH  24  25
ATOM     25  C   UNL     1       9.788  18.104  31.730  1.00  0.00    -0.003 C 
ATOM     26  C   UNL     1       9.877  17.814  30.232  1.00  0.00     0.004 C 
ENDBRANCH  24  25
ENDBRANCH  23  24
ENDBRANCH  22  23
ENDBRANCH  21  22
ENDBRANCH  20  21
ENDBRANCH  19  20
ENDBRANCH  18  19
ENDBRANCH  17  18
ENDBRANCH  16  17
ENDBRANCH  15  16
ENDBRANCH   1  15
TORSDOF 22
ENDMDL
MODEL 3
REMARK VINA RESULT:    -4.994      2.464      4.554
REMARK INTER + INTRA:         -15.345
REMARK INTER:                 -11.276
REMARK INTRA:                  -4.068
REMARK UNBOUND:                -3.927
REMARK SMILES CCCCCCCCCCCCCCCCCCCCCCCC(=O)[O-]
REMARK SMILES IDX 13 1 14 2 15 3 16 4 17 5 18 6 19 7 20 8 21 9 22 10 23 11
REMARK SMILES IDX 24 12 25 13 26 14 12 15 11 16 10 17 9 18 8 19 7 20 6 21 5 22
REMARK SMILES IDX 4 23 3 24 2 25 1 26
REMARK H PARENT
REMARK Flexibility Score: inf
ROOT
ATOM      1  C   UNL     1       8.513  20.025  31.047  1.00  0.00     0.000 C 
ENDROOT
BRANCH   1   2
ATOM      2  C   UNL     1       9.029  18.869  30.172  1.00  0.00     0.000 C 
BRANCH   2   3
ATOM      3  C   UNL     1       9.735  17.776  30.993  1.00  0.00     0.000 C 
BRANCH   3   4
ATOM      4  C   UNL     1      10.071  18.230  32.422  1.00  0.00     0.000 C 
BRANCH   4   5
ATOM      5  C   UNL     1      10.155  17.029  33.372  1.00  0.00     0.000 C 
BRANCH   5   6
ATOM      6  C   UNL     1       9.047  17.086  34.435  1.00  0.00     0.000 C 
BRANCH   6   7
ATOM      7  C   UNL     1       8.197  18.368  34.346  1.00  0.00     0.000 C 
BRANCH   7   8
ATOM      8  C   UNL     1       7.899  19.044  35.697  1.00  0.00     0.000 C 
BRANCH   8   9
ATOM      9  C   UNL     1       8.643  18.388  36.870  1.00  0.00     0.000 C 
BRANCH   9  10
ATOM     10  C   UNL     1       8.709  19.337  38.077  1.00  0.00     0.006 C 
BRANCH  10  11
ATOM     11  C   UNL     1       8.909  20.799  37.657  1.00  0.00     0.053 C 
BRANCH  11  12
ATOM     12  C   UNL     1       9.834  21.521  38.589  1.00  0.00     0.041 C 
ATOM     13  O   UNL     1       9.738  21.352  39.833  1.00  0.00    -0.550 OA
ATOM     14  O   UNL     1      10.784  22.400  38.085  1.00  0.00    -0.550 OA
ENDBRANCH  11  12
ENDBRANCH  10  11
ENDBRANCH   9  10
ENDBRANCH   8   9
ENDBRANCH   7   8
ENDBRANCH   6   7
ENDBRANCH   5   6
ENDBRANCH   4   5
ENDBRANCH   3   4
ENDBRANCH   2   3
ENDBRANCH   1   2
BRANCH   1  15
ATOM     15  C   UNL     1       7.934  21.181  30.215  1.00  0.00     0.000 C 
BRANCH  15  16
ATOM     16  C   UNL     1       7.928  22.515  30.985  1.00  0.00     0.000 C 
BRANCH  16  17
ATOM     17  C   UNL     1       9.345  23.007  31.329  1.00  0.00     0.000 C 
BRANCH  17  18
ATOM     18  C   UNL     1       9.342  24.156  32.353  1.00  0.00    -0.000 C 
BRANCH  18  19
ATOM     19  C   UNL     1      10.021  23.765  33.677  1.00  0.00    -0.000 C 
BRANCH  19  20
ATOM     20  C   UNL     1       9.379  22.531  34.330  1.00  0.00    -0.000 C 
BRANCH  20  21
ATOM     21  C   UNL     1      10.358  21.347  34.345  1.00  0.00    -0.000 C 
BRANCH  21  22
ATOM     22  C   UNL     1      11.770  21.741  34.816  1.00  0.00    -0.000 C 
BRANCH  22  23
ATOM     23  C   UNL     1      12.554  20.619  35.521  1.00  0.00    -0.000 C 
BRANCH  23  24
ATOM     24  C   UNL     1      11.739  19.322  35.669  1.00  0.00    -0.000 C 
BRANCH  24  25
ATOM     25  C   UNL     1      12.455  18.274  36.534  1.00  0.00    -0.003 C 
ATOM     26  C   UNL     1      13.164  17.207  35.701  1.00  0.00     0.004 C 
ENDBRANCH  24  25
ENDBRANCH  23  24
ENDBRANCH  22  23
ENDBRANCH  21  22
ENDBRANCH  20  21
ENDBRANCH  19  20
ENDBRANCH  18  19
ENDBRANCH  17  18
ENDBRANCH  16  17
ENDBRANCH  15  16
ENDBRANCH   1  15
TORSDOF 22
ENDMDL
MODEL 4
REMARK VINA RESULT:    -4.986      1.464      3.097
REMARK INTER + INTRA:         -15.326
REMARK INTER:                 -11.501
REMARK INTRA:                  -3.824
REMARK UNBOUND:                -3.927
REMARK SMILES CCCCCCCCCCCCCCCCCCCCCCCC(=O)[O-]
REMARK SMILES IDX 13 1 14 2 15 3 16 4 17 5 18 6 19 7 20 8 21 9 22 10 23 11
REMARK SMILES IDX 24 12 25 13 26 14 12 15 11 16 10 17 9 18 8 19 7 20 6 21 5 22
REMARK SMILES IDX 4 23 3 24 2 25 1 26
REMARK H PARENT
REMARK Flexibility Score: inf
ROOT
ATOM      1  C   UNL     1       8.622  19.252  30.767  1.00  0.00     0.000 C 
ENDROOT
BRANCH   1   2
ATOM      2  C   UNL     1      10.035  19.229  31.376  1.00  0.00     0.000 C 
BRANCH   2   3
ATOM      3  C   UNL     1      10.027  18.876  32.873  1.00  0.00     0.000 C 
BRANCH   3   4
ATOM      4  C   UNL     1       8.782  18.079  33.290  1.00  0.00     0.000 C 
BRANCH   4   5
ATOM      5  C   UNL     1       8.011  18.807  34.398  1.00  0.00     0.000 C 
BRANCH   5   6
ATOM      6  C   UNL     1       7.988  17.979  35.691  1.00  0.00     0.000 C 
BRANCH   6   7
ATOM      7  C   UNL     1       8.997  16.816  35.676  1.00  0.00     0.000 C 
BRANCH   7   8
ATOM      8  C   UNL     1      10.149  16.942  36.690  1.00  0.00     0.000 C 
BRANCH   8   9
ATOM      9  C   UNL     1      11.330  17.764  36.154  1.00  0.00     0.000 C 
BRANCH   9  10
ATOM     10  C   UNL     1      12.644  17.340  36.827  1.00  0.00     0.006 C 
BRANCH  10  11
ATOM     11  C   UNL     1      13.158  15.994  36.302  1.00  0.00     0.053 C 
BRANCH  11  12
ATOM     12  C   UNL     1      14.520  15.673  36.839  1.00  0.00     0.041 C 
ATOM     13  O   UNL     1      15.494  16.430  36.586  1.00  0.00    -0.550 OA
ATOM     14  O   UNL     1      14.718  14.526  37.596  1.00  0.00    -0.550 OA
ENDBRANCH  11  12
ENDBRANCH  10  11
ENDBRANCH   9  10
ENDBRANCH   8   9
ENDBRANCH   7   8
ENDBRANCH   6   7
ENDBRANCH   5   6
ENDBRANCH   4   5
ENDBRANCH   3   4
ENDBRANCH   2   3
ENDBRANCH   1   2
BRANCH   1  15
ATOM     15  C   UNL     1       8.259  20.621  30.170  1.00  0.00     0.000 C 
BRANCH  15  16
ATOM     16  C   UNL     1       8.008  21.688  31.251  1.00  0.00     0.000 C 
BRANCH  16  17
ATOM     17  C   UNL     1       9.170  22.689  31.378  1.00  0.00     0.000 C 
BRANCH  17  18
ATOM     18  C   UNL     1       9.759  22.738  32.799  1.00  0.00    -0.000 C 
BRANCH  18  19
ATOM     19  C   UNL     1       8.821  23.431  33.801  1.00  0.00    -0.000 C 
BRANCH  19  20
ATOM     20  C   UNL     1       9.006  22.919  35.238  1.00  0.00    -0.000 C 
BRANCH  20  21
ATOM     21  C   UNL     1      10.020  21.765  35.282  1.00  0.00    -0.000 C 
BRANCH  21  22
ATOM     22  C   UNL     1      10.157  21.139  36.681  1.00  0.00    -0.000 C 
BRANCH  22  23
ATOM     23  C   UNL     1       8.834  20.977  37.451  1.00  0.00    -0.000 C 
BRANCH  23  24
ATOM     24  C   UNL     1       8.954  20.022  38.653  1.00  0.00    -0.000 C 
BRANCH  24  25
ATOM     25  C   UNL     1      10.235  20.260  39.466  1.00  0.00    -0.003 C 
ATOM     26  C   UNL     1      10.969  18.963  39.803  1.00  0.00     0.004 C 
ENDBRANCH  24  25
ENDBRANCH  23  24
ENDBRANCH  22  23
ENDBRANCH  21  22
ENDBRANCH  20  21
ENDBRANCH  19  20
ENDBRANCH  18  19
ENDBRANCH  17  18
ENDBRANCH  16  17
ENDBRANCH  15  16
ENDBRANCH   1  15
TORSDOF 22
ENDMDL
MODEL 5
REMARK VINA RESULT:    -4.959      2.604      5.934
REMARK INTER + INTRA:         -15.263
REMARK INTER:                 -11.365
REMARK INTRA:                  -3.899
REMARK UNBOUND:                -3.927
REMARK SMILES CCCCCCCCCCCCCCCCCCCCCCCC(=O)[O-]
REMARK SMILES IDX 13 1 14 2 15 3 16 4 17 5 18 6 19 7 20 8 21 9 22 10 23 11
REMARK SMILES IDX 24 12 25 13 26 14 12 15 11 16 10 17 9 18 8 19 7 20 6 21 5 22
REMARK SMILES IDX 4 23 3 24 2 25 1 26
REMARK H PARENT
REMARK Flexibility Score: inf
ROOT
ATOM      1  C   UNL     1      10.127  18.128  32.118  1.00  0.00     0.000 C 
ENDROOT
BRANCH   1   2
ATOM      2  C   UNL     1      10.008  17.668  30.654  1.00  0.00     0.000 C 
BRANCH   2   3
ATOM      3  C   UNL     1       9.083  18.573  29.824  1.00  0.00     0.000 C 
BRANCH   3   4
ATOM      4  C   UNL     1       8.428  19.683  30.661  1.00  0.00     0.000 C 
BRANCH   4   5
ATOM      5  C   UNL     1       7.906  20.811  29.763  1.00  0.00     0.000 C 
BRANCH   5   6
ATOM      6  C   UNL     1       8.005  22.171  30.471  1.00  0.00     0.000 C 
BRANCH   6   7
ATOM      7  C   UNL     1       8.673  22.079  31.855  1.00  0.00     0.000 C 
BRANCH   7   8
ATOM      8  C   UNL     1      10.075  22.709  31.943  1.00  0.00     0.000 C 
BRANCH   8   9
ATOM      9  C   UNL     1      11.146  21.720  32.424  1.00  0.00     0.000 C 
BRANCH   9  10
ATOM     10  C   UNL     1      12.194  22.427  33.296  1.00  0.00     0.006 C 
BRANCH  10  11
ATOM     11  C   UNL     1      11.743  23.829  33.726  1.00  0.00     0.053 C 
BRANCH  11  12
ATOM     12  C   UNL     1      11.425  23.883  35.190  1.00  0.00     0.041 C 
ATOM     13  O   UNL     1      12.350  24.023  36.033  1.00  0.00    -0.550 OA
ATOM     14  O   UNL     1      10.112  23.754  35.623  1.00  0.00    -0.550 OA
ENDBRANCH  11  12
ENDBRANCH  10  11
ENDBRANCH   9  10
ENDBRANCH   8   9
ENDBRANCH   7   8
ENDBRANCH   6   7
ENDBRANCH   5   6
ENDBRANCH   4   5
ENDBRANCH   3   4
ENDBRANCH   2   3
ENDBRANCH   1   2
BRANCH   1  15
ATOM     15  C   UNL     1      10.087  16.954  33.110  1.00  0.00     0.000 C 
BRANCH  15  16
ATOM     16  C   UNL     1       9.230  17.261  34.352  1.00  0.00     0.000 C 
BRANCH  16  17
ATOM     17  C   UNL     1       8.167  18.342  34.086  1.00  0.00     0.000 C 
BRANCH  17  18
ATOM     18  C   UNL     1       8.072  19.373  35.225  1.00  0.00    -0.000 C 
BRANCH  18  19
ATOM     19  C   UNL     1       9.267  20.341  35.242  1.00  0.00    -0.000 C 
BRANCH  19  20
ATOM     20  C   UNL     1      10.143  20.179  36.494  1.00  0.00    -0.000 C 
BRANCH  20  21
ATOM     21  C   UNL     1      11.634  20.260  36.134  1.00  0.00    -0.000 C 
BRANCH  21  22
ATOM     22  C   UNL     1      12.161  18.980  35.462  1.00  0.00    -0.000 C 
BRANCH  22  23
ATOM     23  C   UNL     1      12.437  17.809  36.423  1.00  0.00    -0.000 C 
BRANCH  23  24
ATOM     24  C   UNL     1      13.298  16.703  35.788  1.00  0.00    -0.000 C 
BRANCH  24  25
ATOM     25  C   UNL     1      14.618  16.481  36.541  1.00  0.00    -0.003 C 
ATOM     26  C   UNL     1      15.831  17.010  35.777  1.00  0.00     0.004 C 
ENDBRANCH  24  25
ENDBRANCH  23  24
ENDBRANCH  22  23
ENDBRANCH  21  22
ENDBRANCH  20  21
ENDBRANCH  19  20
ENDBRANCH  18  19
ENDBRANCH  17  18
ENDBRANCH  16  17
ENDBRANCH  15  16
ENDBRANCH   1  15
TORSDOF 22
ENDMDL
MODEL 6
REMARK VINA RESULT:    -4.933      3.027      7.170
REMARK INTER + INTRA:         -15.205
REMARK INTER:                 -12.014
REMARK INTRA:                  -3.191
REMARK UNBOUND:                -3.927
REMARK SMILES CCCCCCCCCCCCCCCCCCCCCCCC(=O)[O-]
REMARK SMILES IDX 13 1 14 2 15 3 16 4 17 5 18 6 19 7 20 8 21 9 22 10 23 11
REMARK SMILES IDX 24 12 25 13 26 14 12 15 11 16 10 17 9 18 8 19 7 20 6 21 5 22
REMARK SMILES IDX 4 23 3 24 2 25 1 26
REMARK H PARENT
REMARK Flexibility Score: inf
ROOT
ATOM      1  C   UNL     1      10.990  20.458  34.274  1.00  0.00     0.000 C 
ENDROOT
BRANCH   1   2
ATOM      2  C   UNL     1      11.161  19.110  33.549  1.00  0.00     0.000 C 
BRANCH   2   3
ATOM      3  C   UNL     1       9.822  18.524  33.069  1.00  0.00     0.000 C 
BRANCH   3   4
ATOM      4  C   UNL     1       9.970  17.656  31.810  1.00  0.00     0.000 C 
BRANCH   4   5
ATOM      5  C   UNL     1       9.524  18.424  30.560  1.00  0.00     0.000 C 
BRANCH   5   6
ATOM      6  C   UNL     1       8.539  19.545  30.922  1.00  0.00     0.000 C 
BRANCH   6   7
ATOM      7  C   UNL     1       8.120  20.392  29.706  1.00  0.00     0.000 C 
BRANCH   7   8
ATOM      8  C   UNL     1       8.072  21.910  29.957  1.00  0.00     0.000 C 
BRANCH   8   9
ATOM      9  C   UNL     1       8.333  22.282  31.424  1.00  0.00     0.000 C 
BRANCH   9  10
ATOM     10  C   UNL     1       9.707  22.950  31.585  1.00  0.00     0.006 C 
BRANCH  10  11
ATOM     11  C   UNL     1       9.635  24.232  32.424  1.00  0.00     0.053 C 
BRANCH  11  12
ATOM     12  C   UNL     1      10.874  24.426  33.246  1.00  0.00     0.041 C 
ATOM     13  O   UNL     1      10.816  24.361  34.502  1.00  0.00    -0.550 OA
ATOM     14  O   UNL     1      12.085  24.703  32.625  1.00  0.00    -0.550 OA
ENDBRANCH  11  12
ENDBRANCH  10  11
ENDBRANCH   9  10
ENDBRANCH   8   9
ENDBRANCH   7   8
ENDBRANCH   6   7
ENDBRANCH   5   6
ENDBRANCH   4   5
ENDBRANCH   3   4
ENDBRANCH   2   3
ENDBRANCH   1   2
BRANCH   1  15
ATOM     15  C   UNL     1       9.527  20.745  34.649  1.00  0.00     0.000 C 
BRANCH  15  16
ATOM     16  C   UNL     1       9.394  21.420  36.026  1.00  0.00     0.000 C 
BRANCH  16  17
ATOM     17  C   UNL     1       8.697  20.521  37.063  1.00  0.00     0.000 C 
BRANCH  17  18
ATOM     18  C   UNL     1       9.647  20.057  38.181  1.00  0.00    -0.000 C 
BRANCH  18  19
ATOM     19  C   UNL     1       9.775  18.526  38.245  1.00  0.00    -0.000 C 
BRANCH  19  20
ATOM     20  C   UNL     1       9.929  17.886  36.857  1.00  0.00    -0.000 C 
BRANCH  20  21
ATOM     21  C   UNL     1      11.231  17.073  36.769  1.00  0.00    -0.000 C 
BRANCH  21  22
ATOM     22  C   UNL     1      12.480  17.901  37.122  1.00  0.00    -0.000 C 
BRANCH  22  23
ATOM     23  C   UNL     1      13.247  17.417  38.367  1.00  0.00    -0.000 C 
BRANCH  23  24
ATOM     24  C   UNL     1      14.774  17.510  38.202  1.00  0.00    -0.000 C 
BRANCH  24  25
ATOM     25  C   UNL     1      15.392  16.194  37.706  1.00  0.00    -0.003 C 
ATOM     26  C   UNL     1      16.222  16.375  36.434  1.00  0.00     0.004 C 
ENDBRANCH  24  25
ENDBRANCH  23  24
ENDBRANCH  22  23
ENDBRANCH  21  22
ENDBRANCH  20  21
ENDBRANCH  19  20
ENDBRANCH  18  19
ENDBRANCH  17  18
ENDBRANCH  16  17
ENDBRANCH  15  16
ENDBRANCH   1  15
TORSDOF 22
ENDMDL
MODEL 7
REMARK VINA RESULT:    -4.914      2.579      5.783
REMARK INTER + INTRA:         -15.162
REMARK INTER:                 -11.149
REMARK INTRA:                  -4.012
REMARK UNBOUND:                -3.927
REMARK SMILES CCCCCCCCCCCCCCCCCCCCCCCC(=O)[O-]
REMARK SMILES IDX 13 1 14 2 15 3 16 4 17 5 18 6 19 7 20 8 21 9 22 10 23 11
REMARK SMILES IDX 24 12 25 13 26 14 12 15 11 16 10 17 9 18 8 19 7 20 6 21 5 22
REMARK SMILES IDX 4 23 3 24 2 25 1 26
REMARK H PARENT
REMARK Flexibility Score: inf
ROOT
ATOM      1  C   UNL     1      10.116  18.199  32.372  1.00  0.00     0.000 C 
ENDROOT
BRANCH   1   2
ATOM      2  C   UNL     1       9.764  17.800  30.928  1.00  0.00     0.000 C 
BRANCH   2   3
ATOM      3  C   UNL     1       9.032  18.918  30.168  1.00  0.00     0.000 C 
BRANCH   3   4
ATOM      4  C   UNL     1       8.348  19.926  31.106  1.00  0.00     0.000 C 
BRANCH   4   5
ATOM      5  C   UNL     1       8.378  21.338  30.508  1.00  0.00     0.000 C 
BRANCH   5   6
ATOM      6  C   UNL     1       8.880  22.362  31.537  1.00  0.00     0.000 C 
BRANCH   6   7
ATOM      7  C   UNL     1       9.915  21.774  32.513  1.00  0.00     0.000 C 
BRANCH   7   8
ATOM      8  C   UNL     1      10.316  22.704  33.673  1.00  0.00     0.000 C 
BRANCH   8   9
ATOM      9  C   UNL     1       9.167  22.958  34.660  1.00  0.00     0.000 C 
BRANCH   9  10
ATOM     10  C   UNL     1       9.704  23.450  36.012  1.00  0.00     0.006 C 
BRANCH  10  11
ATOM     11  C   UNL     1       9.126  22.658  37.191  1.00  0.00     0.053 C 
BRANCH  11  12
ATOM     12  C   UNL     1      10.056  22.653  38.366  1.00  0.00     0.041 C 
ATOM     13  O   UNL     1       9.612  22.859  39.526  1.00  0.00    -0.550 OA
ATOM     14  O   UNL     1      11.417  22.448  38.175  1.00  0.00    -0.550 OA
ENDBRANCH  11  12
ENDBRANCH  10  11
ENDBRANCH   9  10
ENDBRANCH   8   9
ENDBRANCH   7   8
ENDBRANCH   6   7
ENDBRANCH   5   6
ENDBRANCH   4   5
ENDBRANCH   3   4
ENDBRANCH   2   3
ENDBRANCH   1   2
BRANCH   1  15
ATOM     15  C   UNL     1      10.133  16.995  33.329  1.00  0.00     0.000 C 
BRANCH  15  16
ATOM     16  C   UNL     1       9.044  17.089  34.413  1.00  0.00     0.000 C 
BRANCH  16  17
ATOM     17  C   UNL     1       8.232  18.393  34.326  1.00  0.00     0.000 C 
BRANCH  17  18
ATOM     18  C   UNL     1       8.756  19.483  35.277  1.00  0.00    -0.000 C 
BRANCH  18  19
ATOM     19  C   UNL     1       9.050  18.943  36.687  1.00  0.00    -0.000 C 
BRANCH  19  20
ATOM     20  C   UNL     1      10.524  19.109  37.089  1.00  0.00    -0.000 C 
BRANCH  20  21
ATOM     21  C   UNL     1      11.329  19.770  35.959  1.00  0.00    -0.000 C 
BRANCH  21  22
ATOM     22  C   UNL     1      12.420  18.851  35.382  1.00  0.00    -0.000 C 
BRANCH  22  23
ATOM     23  C   UNL     1      12.567  17.493  36.094  1.00  0.00    -0.000 C 
BRANCH  23  24
ATOM     24  C   UNL     1      14.002  17.227  36.583  1.00  0.00    -0.000 C 
BRANCH  24  25
ATOM     25  C   UNL     1      14.089  17.108  38.112  1.00  0.00    -0.003 C 
ATOM     26  C   UNL     1      14.485  18.422  38.784  1.00  0.00     0.004 C 
ENDBRANCH  24  25
ENDBRANCH  23  24
ENDBRANCH  22  23
ENDBRANCH  21  22
ENDBRANCH  20  21
ENDBRANCH  19  20
ENDBRANCH  18  19
ENDBRANCH  17  18
ENDBRANCH  16  17
ENDBRANCH  15  16
ENDBRANCH   1  15
TORSDOF 22
ENDMDL
MODEL 8
REMARK VINA RESULT:    -4.868      1.391      3.998
REMARK INTER + INTRA:         -15.056
REMARK INTER:                 -11.023
REMARK INTRA:                  -4.033
REMARK UNBOUND:                -3.927
REMARK SMILES CCCCCCCCCCCCCCCCCCCCCCCC(=O)[O-]
REMARK SMILES IDX 13 1 14 2 15 3 16 4 17 5 18 6 19 7 20 8 21 9 22 10 23 11
REMARK SMILES IDX 24 12 25 13 26 14 12 15 11 16 10 17 9 18 8 19 7 20 6 21 5 22
REMARK SMILES IDX 4 23 3 24 2 25 1 26
REMARK H PARENT
REMARK Flexibility Score: inf
ROOT
ATOM      1  C   UNL     1       8.248  22.241  30.193  1.00  0.00     0.000 C 
ENDROOT
BRANCH   1   2
ATOM      2  C   UNL     1       8.019  22.044  31.703  1.00  0.00     0.000 C 
BRANCH   2   3
ATOM      3  C   UNL     1       9.205  22.534  32.549  1.00  0.00     0.000 C 
BRANCH   3   4
ATOM      4  C   UNL     1       8.788  23.544  33.630  1.00  0.00     0.000 C 
BRANCH   4   5
ATOM      5  C   UNL     1       9.014  22.969  35.033  1.00  0.00     0.000 C 
BRANCH   5   6
ATOM      6  C   UNL     1      10.066  21.851  35.009  1.00  0.00     0.000 C 
BRANCH   6   7
ATOM      7  C   UNL     1      10.986  21.865  36.245  1.00  0.00     0.000 C 
BRANCH   7   8
ATOM      8  C   UNL     1      11.859  20.609  36.419  1.00  0.00     0.000 C 
BRANCH   8   9
ATOM      9  C   UNL     1      12.006  19.799  35.123  1.00  0.00     0.000 C 
BRANCH   9  10
ATOM     10  C   UNL     1      12.216  18.308  35.428  1.00  0.00     0.006 C 
BRANCH  10  11
ATOM     11  C   UNL     1      12.667  18.069  36.875  1.00  0.00     0.053 C 
BRANCH  11  12
ATOM     12  C   UNL     1      13.253  16.701  37.053  1.00  0.00     0.041 C 
ATOM     13  O   UNL     1      13.214  15.868  36.110  1.00  0.00    -0.550 OA
ATOM     14  O   UNL     1      13.819  16.339  38.269  1.00  0.00    -0.550 OA
ENDBRANCH  11  12
ENDBRANCH  10  11
ENDBRANCH   9  10
ENDBRANCH   8   9
ENDBRANCH   7   8
ENDBRANCH   6   7
ENDBRANCH   5   6
ENDBRANCH   4   5
ENDBRANCH   3   4
ENDBRANCH   2   3
ENDBRANCH   1   2
BRANCH   1  15
ATOM     15  C   UNL     1       8.245  20.914  29.417  1.00  0.00     0.000 C 
BRANCH  15  16
ATOM     16  C   UNL     1       8.092  19.692  30.341  1.00  0.00     0.000 C 
BRANCH  16  17
ATOM     17  C   UNL     1       9.375  18.847  30.426  1.00  0.00     0.000 C 
BRANCH  17  18
ATOM     18  C   UNL     1       9.740  18.465  31.871  1.00  0.00    -0.000 C 
BRANCH  18  19
ATOM     19  C   UNL     1       8.504  18.117  32.717  1.00  0.00    -0.000 C 
BRANCH  19  20
ATOM     20  C   UNL     1       8.581  18.692  34.141  1.00  0.00    -0.000 C 
BRANCH  20  21
ATOM     21  C   UNL     1       8.706  17.567  35.180  1.00  0.00    -0.000 C 
BRANCH  21  22
ATOM     22  C   UNL     1       8.732  18.088  36.628  1.00  0.00    -0.000 C 
BRANCH  22  23
ATOM     23  C   UNL     1       7.973  19.408  36.856  1.00  0.00    -0.000 C 
BRANCH  23  24
ATOM     24  C   UNL     1       8.408  20.134  38.142  1.00  0.00    -0.000 C 
BRANCH  24  25
ATOM     25  C   UNL     1       9.001  19.175  39.185  1.00  0.00    -0.003 C 
ATOM     26  C   UNL     1      10.385  19.610  39.666  1.00  0.00     0.004 C 
ENDBRANCH  24  25
ENDBRANCH  23  24
ENDBRANCH  22  23
ENDBRANCH  21  22
ENDBRANCH  20  21
ENDBRANCH  19  20
ENDBRANCH  18  19
ENDBRANCH  17  18
ENDBRANCH  16  17
ENDBRANCH  15  16
ENDBRANCH   1  15
TORSDOF 22
ENDMDL
MODEL 9
REMARK VINA RESULT:    -4.861      2.949      7.273
REMARK INTER + INTRA:         -15.039
REMARK INTER:                 -11.589
REMARK INTRA:                  -3.450
REMARK UNBOUND:                -3.927
REMARK SMILES CCCCCCCCCCCCCCCCCCCCCCCC(=O)[O-]
REMARK SMILES IDX 13 1 14 2 15 3 16 4 17 5 18 6 19 7 20 8 21 9 22 10 23 11
REMARK SMILES IDX 24 12 25 13 26 14 12 15 11 16 10 17 9 18 8 19 7 20 6 21 5 22
REMARK SMILES IDX 4 23 3 24 2 25 1 26
REMARK H PARENT
REMARK Flexibility Score: inf
ROOT
ATOM      1  C   UNL     1      11.598  18.327  34.944  1.00  0.00     0.000 C 
ENDROOT
BRANCH   1   2
ATOM      2  C   UNL     1      11.272  18.803  33.517  1.00  0.00     0.000 C 
BRANCH   2   3
ATOM      3  C   UNL     1      10.181  17.953  32.846  1.00  0.00     0.000 C 
BRANCH   3   4
ATOM      4  C   UNL     1      10.004  18.281  31.355  1.00  0.00     0.000 C 
BRANCH   4   5
ATOM      5  C   UNL     1       8.624  18.896  31.089  1.00  0.00     0.000 C 
BRANCH   5   6
ATOM      6  C   UNL     1       8.614  19.678  29.767  1.00  0.00     0.000 C 
BRANCH   6   7
ATOM      7  C   UNL     1       7.888  21.031  29.876  1.00  0.00     0.000 C 
BRANCH   7   8
ATOM      8  C   UNL     1       8.021  21.732  31.240  1.00  0.00     0.000 C 
BRANCH   8   9
ATOM      9  C   UNL     1       9.289  22.592  31.349  1.00  0.00     0.000 C 
BRANCH   9  10
ATOM     10  C   UNL     1      10.264  22.004  32.381  1.00  0.00     0.006 C 
BRANCH  10  11
ATOM     11  C   UNL     1      10.328  22.842  33.663  1.00  0.00     0.053 C 
BRANCH  11  12
ATOM     12  C   UNL     1       9.400  22.316  34.716  1.00  0.00     0.041 C 
ATOM     13  O   UNL     1       8.983  23.076  35.629  1.00  0.00    -0.550 OA
ATOM     14  O   UNL     1       9.018  20.980  34.703  1.00  0.00    -0.550 OA
ENDBRANCH  11  12
ENDBRANCH  10  11
ENDBRANCH   9  10
ENDBRANCH   8   9
ENDBRANCH   7   8
ENDBRANCH   6   7
ENDBRANCH   5   6
ENDBRANCH   4   5
ENDBRANCH   3   4
ENDBRANCH   2   3
ENDBRANCH   1   2
BRANCH   1  15
ATOM     15  C   UNL     1      12.119  19.462  35.840  1.00  0.00     0.000 C 
BRANCH  15  16
ATOM     16  C   UNL     1      12.251  19.036  37.314  1.00  0.00     0.000 C 
BRANCH  16  17
ATOM     17  C   UNL     1      12.209  17.508  37.495  1.00  0.00     0.000 C 
BRANCH  17  18
ATOM     18  C   UNL     1      13.346  16.986  38.391  1.00  0.00    -0.000 C 
BRANCH  18  19
ATOM     19  C   UNL     1      14.165  15.875  37.713  1.00  0.00    -0.000 C 
BRANCH  19  20
ATOM     20  C   UNL     1      15.580  16.334  37.327  1.00  0.00    -0.000 C 
BRANCH  20  21
ATOM     21  C   UNL     1      15.606  16.880  35.891  1.00  0.00    -0.000 C 
BRANCH  21  22
ATOM     22  C   UNL     1      15.699  18.416  35.834  1.00  0.00    -0.000 C 
BRANCH  22  23
ATOM     23  C   UNL     1      16.155  19.086  37.143  1.00  0.00    -0.000 C 
BRANCH  23  24
ATOM     24  C   UNL     1      15.626  20.523  37.295  1.00  0.00    -0.000 C 
BRANCH  24  25
ATOM     25  C   UNL     1      15.199  20.843  38.735  1.00  0.00    -0.003 C 
ATOM     26  C   UNL     1      15.419  19.670  39.689  1.00  0.00     0.004 C 
ENDBRANCH  24  25
ENDBRANCH  23  24
ENDBRANCH  22  23
ENDBRANCH  21  22
ENDBRANCH  20  21
ENDBRANCH  19  20
ENDBRANCH  18  19
ENDBRANCH  17  18
ENDBRANCH  16  17
ENDBRANCH  15  16
ENDBRANCH   1  15
TORSDOF 22
ENDMDL
