MODEL 1
REMARK VINA RESULT:    -6.092      0.000      0.000
REMARK INTER + INTRA:          -7.391
REMARK INTER:                  -7.161
REMARK INTRA:                  -0.231
REMARK UNBOUND:                -0.231
REMARK SMILES O=c1c(O)c(-c2ccc(O)cc2)oc2cc(O)cc(O)c12
REMARK SMILES IDX 5 1 3 2 2 3 1 4 21 5 19 6 18 7 16 8 15 9 14 10 13 11 6 12
REMARK SMILES IDX 7 13 8 14 9 15 12 16 11 17 10 18 4 20 20 22 17 24
REMARK H PARENT 10 19 4 21 20 23 17 25
REMARK Flexibility Score: inf
ROOT
ATOM      1  C   UNL     1      26.732  -0.455  42.972  1.00  0.00     0.180 A 
ATOM      2  C   UNL     1      25.950   0.534  43.592  1.00  0.00     0.208 A 
ATOM      3  C   UNL     1      25.571   1.666  42.853  1.00  0.00     0.238 A 
ATOM      4  O   UNL     1      24.825   2.522  43.396  1.00  0.00    -0.285 OA
ATOM      5  C   UNL     1      25.993   1.803  41.509  1.00  0.00     0.111 A 
ATOM      6  C   UNL     1      25.702   2.927  40.678  1.00  0.00     0.134 A 
ATOM      7  C   UNL     1      26.059   2.895  39.324  1.00  0.00     0.093 A 
ATOM      8  C   UNL     1      26.754   1.810  38.788  1.00  0.00     0.123 A 
ATOM      9  C   UNL     1      27.096   0.734  39.604  1.00  0.00     0.094 A 
ATOM     10  C   UNL     1      26.722   0.720  40.950  1.00  0.00     0.146 A 
ATOM     11  O   UNL     1      27.057  -0.329  41.690  1.00  0.00    -0.452 OA
ENDROOT
BRANCH   1  12
ATOM     12  C   UNL     1      27.192  -1.663  43.694  1.00  0.00     0.021 A 
ATOM     13  C   UNL     1      28.233  -1.555  44.632  1.00  0.00     0.016 A 
ATOM     14  C   UNL     1      28.668  -2.678  45.341  1.00  0.00     0.047 A 
ATOM     15  C   UNL     1      28.060  -3.920  45.133  1.00  0.00     0.115 A 
ATOM     16  C   UNL     1      26.572  -2.912  43.503  1.00  0.00     0.016 A 
ATOM     17  C   UNL     1      27.009  -4.034  44.214  1.00  0.00     0.047 A 
BRANCH  15  18
ATOM     18  O   UNL     1      28.505  -5.031  45.846  1.00  0.00    -0.508 OA
ATOM     19  H   UNL     1      29.314  -4.981  46.455  1.00  0.00     0.293 HD
ENDBRANCH  15  18
ENDBRANCH   1  12
BRANCH   2  20
ATOM     20  O   UNL     1      25.525   0.369  44.913  1.00  0.00    -0.502 OA
ATOM     21  H   UNL     1      25.435  -0.543  45.346  1.00  0.00     0.293 HD
ENDBRANCH   2  20
BRANCH   6  22
ATOM     22  O   UNL     1      25.093   4.099  41.136  1.00  0.00    -0.507 OA
ATOM     23  H   UNL     1      24.326   4.130  41.790  1.00  0.00     0.293 HD
ENDBRANCH   6  22
BRANCH   8  24
ATOM     24  O   UNL     1      27.121   1.794  37.442  1.00  0.00    -0.508 OA
ATOM     25  H   UNL     1      26.427   1.755  36.705  1.00  0.00     0.293 HD
ENDBRANCH   8  24
TORSDOF 5
ENDMDL
MODEL 2
REMARK VINA RESULT:    -5.745      7.264      9.240
REMARK INTER + INTRA:          -6.984
REMARK INTER:                  -6.737
REMARK INTRA:                  -0.247
REMARK UNBOUND:                -0.231
REMARK SMILES O=c1c(O)c(-c2ccc(O)cc2)oc2cc(O)cc(O)c12
REMARK SMILES IDX 5 1 3 2 2 3 1 4 21 5 19 6 18 7 16 8 15 9 14 10 13 11 6 12
REMARK SMILES IDX 7 13 8 14 9 15 12 16 11 17 10 18 4 20 20 22 17 24
REMARK H PARENT 10 19 4 21 20 23 17 25
REMARK Flexibility Score: inf
ROOT
ATOM      1  C   UNL     1      27.369  -3.530  35.496  1.00  0.00     0.180 A 
ATOM      2  C   UNL     1      26.610  -2.715  36.354  1.00  0.00     0.208 A 
ATOM      3  C   UNL     1      25.221  -2.905  36.422  1.00  0.00     0.238 A 
ATOM      4  O   UNL     1      24.554  -2.210  37.234  1.00  0.00    -0.285 OA
ATOM      5  C   UNL     1      24.605  -3.896  35.621  1.00  0.00     0.111 A 
ATOM      6  C   UNL     1      23.201  -4.149  35.580  1.00  0.00     0.134 A 
ATOM      7  C   UNL     1      22.717  -5.241  34.849  1.00  0.00     0.093 A 
ATOM      8  C   UNL     1      23.579  -6.049  34.105  1.00  0.00     0.123 A 
ATOM      9  C   UNL     1      24.944  -5.775  34.090  1.00  0.00     0.094 A 
ATOM     10  C   UNL     1      25.462  -4.714  34.839  1.00  0.00     0.146 A 
ATOM     11  O   UNL     1      26.770  -4.494  34.806  1.00  0.00    -0.452 OA
ENDROOT
BRANCH   1  12
ATOM     12  C   UNL     1      28.833  -3.371  35.350  1.00  0.00     0.021 A 
ATOM     13  C   UNL     1      29.347  -2.665  34.248  1.00  0.00     0.016 A 
ATOM     14  C   UNL     1      30.725  -2.485  34.102  1.00  0.00     0.047 A 
ATOM     15  C   UNL     1      31.607  -2.994  35.060  1.00  0.00     0.115 A 
ATOM     16  C   UNL     1      29.724  -3.864  36.321  1.00  0.00     0.016 A 
ATOM     17  C   UNL     1      31.103  -3.681  36.172  1.00  0.00     0.047 A 
BRANCH  15  18
ATOM     18  O   UNL     1      32.978  -2.807  34.901  1.00  0.00    -0.508 OA
ATOM     19  H   UNL     1      33.537  -2.352  35.614  1.00  0.00     0.293 HD
ENDBRANCH  15  18
ENDBRANCH   1  12
BRANCH   2  20
ATOM     20  O   UNL     1      27.240  -1.758  37.153  1.00  0.00    -0.502 OA
ATOM     21  H   UNL     1      27.402  -0.807  36.840  1.00  0.00     0.293 HD
ENDBRANCH   2  20
BRANCH   6  22
ATOM     22  O   UNL     1      22.245  -3.349  36.213  1.00  0.00    -0.507 OA
ATOM     23  H   UNL     1      21.418  -3.697  36.674  1.00  0.00     0.293 HD
ENDBRANCH   6  22
BRANCH   8  24
ATOM     24  O   UNL     1      23.087  -7.124  33.367  1.00  0.00    -0.508 OA
ATOM     25  H   UNL     1      22.109  -7.387  33.402  1.00  0.00     0.293 HD
ENDBRANCH   8  24
TORSDOF 5
ENDMDL
MODEL 3
REMARK VINA RESULT:    -5.521      8.308     10.366
REMARK INTER + INTRA:          -6.720
REMARK INTER:                  -6.420
REMARK INTRA:                  -0.300
REMARK UNBOUND:                -0.231
REMARK SMILES O=c1c(O)c(-c2ccc(O)cc2)oc2cc(O)cc(O)c12
REMARK SMILES IDX 5 1 3 2 2 3 1 4 21 5 19 6 18 7 16 8 15 9 14 10 13 11 6 12
REMARK SMILES IDX 7 13 8 14 9 15 12 16 11 17 10 18 4 20 20 22 17 24
REMARK H PARENT 10 19 4 21 20 23 17 25
REMARK Flexibility Score: inf
ROOT
ATOM      1  C   UNL     1      27.652  -4.382  34.564  1.00  0.00     0.180 A 
ATOM      2  C   UNL     1      27.317  -5.518  33.806  1.00  0.00     0.208 A 
ATOM      3  C   UNL     1      25.990  -5.975  33.815  1.00  0.00     0.238 A 
ATOM      4  O   UNL     1      25.683  -6.959  33.091  1.00  0.00    -0.285 OA
ATOM      5  C   UNL     1      25.018  -5.302  34.594  1.00  0.00     0.111 A 
ATOM      6  C   UNL     1      23.652  -5.701  34.709  1.00  0.00     0.134 A 
ATOM      7  C   UNL     1      22.750  -4.885  35.403  1.00  0.00     0.093 A 
ATOM      8  C   UNL     1      23.178  -3.719  36.041  1.00  0.00     0.123 A 
ATOM      9  C   UNL     1      24.520  -3.352  35.985  1.00  0.00     0.094 A 
ATOM     10  C   UNL     1      25.437  -4.127  35.269  1.00  0.00     0.146 A 
ATOM     11  O   UNL     1      26.705  -3.735  35.232  1.00  0.00    -0.452 OA
ENDROOT
BRANCH   1  12
ATOM     12  C   UNL     1      29.035  -3.857  34.625  1.00  0.00     0.021 A 
ATOM     13  C   UNL     1      29.428  -2.840  33.738  1.00  0.00     0.016 A 
ATOM     14  C   UNL     1      30.722  -2.313  33.792  1.00  0.00     0.047 A 
ATOM     15  C   UNL     1      31.634  -2.784  34.742  1.00  0.00     0.115 A 
ATOM     16  C   UNL     1      29.951  -4.313  35.591  1.00  0.00     0.016 A 
ATOM     17  C   UNL     1      31.244  -3.783  35.644  1.00  0.00     0.047 A 
BRANCH  15  18
ATOM     18  O   UNL     1      32.920  -2.250  34.784  1.00  0.00    -0.508 OA
ATOM     19  H   UNL     1      33.553  -2.456  35.549  1.00  0.00     0.293 HD
ENDBRANCH  15  18
ENDBRANCH   1  12
BRANCH   2  20
ATOM     20  O   UNL     1      28.286  -6.154  33.026  1.00  0.00    -0.502 OA
ATOM     21  H   UNL     1      29.267  -6.167  33.280  1.00  0.00     0.293 HD
ENDBRANCH   2  20
BRANCH   6  22
ATOM     22  O   UNL     1      23.141  -6.893  34.187  1.00  0.00    -0.507 OA
ATOM     23  H   UNL     1      22.173  -7.048  33.950  1.00  0.00     0.293 HD
ENDBRANCH   6  22
BRANCH   8  24
ATOM     24  O   UNL     1      22.277  -2.921  36.744  1.00  0.00    -0.508 OA
ATOM     25  H   UNL     1      22.586  -2.117  37.277  1.00  0.00     0.293 HD
ENDBRANCH   8  24
TORSDOF 5
ENDMDL
MODEL 4
REMARK VINA RESULT:    -5.381      1.892      7.235
REMARK INTER + INTRA:          -6.555
REMARK INTER:                  -6.304
REMARK INTRA:                  -0.252
REMARK UNBOUND:                -0.231
REMARK SMILES O=c1c(O)c(-c2ccc(O)cc2)oc2cc(O)cc(O)c12
REMARK SMILES IDX 5 1 3 2 2 3 1 4 21 5 19 6 18 7 16 8 15 9 14 10 13 11 6 12
REMARK SMILES IDX 7 13 8 14 9 15 12 16 11 17 10 18 4 20 20 22 17 24
REMARK H PARENT 10 19 4 21 20 23 17 25
REMARK Flexibility Score: inf
ROOT
ATOM      1  C   UNL     1      26.906  -1.569  43.822  1.00  0.00     0.180 A 
ATOM      2  C   UNL     1      28.029  -1.698  44.658  1.00  0.00     0.208 A 
ATOM      3  C   UNL     1      28.233  -2.905  45.343  1.00  0.00     0.238 A 
ATOM      4  O   UNL     1      29.270  -3.034  46.047  1.00  0.00    -0.285 OA
ATOM      5  C   UNL     1      27.304  -3.964  45.199  1.00  0.00     0.111 A 
ATOM      6  C   UNL     1      27.390  -5.217  45.878  1.00  0.00     0.134 A 
ATOM      7  C   UNL     1      26.488  -6.238  45.558  1.00  0.00     0.093 A 
ATOM      8  C   UNL     1      25.462  -6.030  44.634  1.00  0.00     0.123 A 
ATOM      9  C   UNL     1      25.333  -4.792  44.010  1.00  0.00     0.094 A 
ATOM     10  C   UNL     1      26.241  -3.764  44.281  1.00  0.00     0.146 A 
ATOM     11  O   UNL     1      26.088  -2.603  43.656  1.00  0.00    -0.452 OA
ENDROOT
BRANCH   1  12
ATOM     12  C   UNL     1      26.609  -0.319  43.087  1.00  0.00     0.021 A 
ATOM     13  C   UNL     1      26.810  -0.269  41.697  1.00  0.00     0.016 A 
ATOM     14  C   UNL     1      26.516   0.894  40.979  1.00  0.00     0.047 A 
ATOM     15  C   UNL     1      26.004   2.016  41.638  1.00  0.00     0.115 A 
ATOM     16  C   UNL     1      26.076   0.807  43.741  1.00  0.00     0.016 A 
ATOM     17  C   UNL     1      25.782   1.969  43.021  1.00  0.00     0.047 A 
BRANCH  15  18
ATOM     18  O   UNL     1      25.717   3.169  40.911  1.00  0.00    -0.508 OA
ATOM     19  H   UNL     1      26.451   3.722  40.484  1.00  0.00     0.293 HD
ENDBRANCH  15  18
ENDBRANCH   1  12
BRANCH   2  20
ATOM     20  O   UNL     1      28.946  -0.649  44.769  1.00  0.00    -0.502 OA
ATOM     21  H   UNL     1      28.839   0.223  44.264  1.00  0.00     0.293 HD
ENDBRANCH   2  20
BRANCH   6  22
ATOM     22  O   UNL     1      28.320  -5.497  46.883  1.00  0.00    -0.507 OA
ATOM     23  H   UNL     1      28.093  -5.608  47.860  1.00  0.00     0.293 HD
ENDBRANCH   6  22
BRANCH   8  24
ATOM     24  O   UNL     1      24.557  -7.047  44.334  1.00  0.00    -0.508 OA
ATOM     25  H   UNL     1      24.182  -7.164  43.400  1.00  0.00     0.293 HD
ENDBRANCH   8  24
TORSDOF 5
ENDMDL
MODEL 5
REMARK VINA RESULT:    -5.240      1.724      7.148
REMARK INTER + INTRA:          -6.390
REMARK INTER:                  -6.107
REMARK INTRA:                  -0.282
REMARK UNBOUND:                -0.231
REMARK SMILES O=c1c(O)c(-c2ccc(O)cc2)oc2cc(O)cc(O)c12
REMARK SMILES IDX 5 1 3 2 2 3 1 4 21 5 19 6 18 7 16 8 15 9 14 10 13 11 6 12
REMARK SMILES IDX 7 13 8 14 9 15 12 16 11 17 10 18 4 20 20 22 17 24
REMARK H PARENT 10 19 4 21 20 23 17 25
REMARK Flexibility Score: inf
ROOT
ATOM      1  C   UNL     1      26.739  -1.201  43.574  1.00  0.00     0.180 A 
ATOM      2  C   UNL     1      25.959  -2.368  43.507  1.00  0.00     0.208 A 
ATOM      3  C   UNL     1      26.384  -3.512  44.201  1.00  0.00     0.238 A 
ATOM      4  O   UNL     1      25.653  -4.537  44.182  1.00  0.00    -0.285 OA
ATOM      5  C   UNL     1      27.592  -3.481  44.938  1.00  0.00     0.111 A 
ATOM      6  C   UNL     1      28.140  -4.593  45.646  1.00  0.00     0.134 A 
ATOM      7  C   UNL     1      29.272  -4.411  46.448  1.00  0.00     0.093 A 
ATOM      8  C   UNL     1      29.915  -3.173  46.517  1.00  0.00     0.123 A 
ATOM      9  C   UNL     1      29.423  -2.096  45.783  1.00  0.00     0.094 A 
ATOM     10  C   UNL     1      28.274  -2.237  45.001  1.00  0.00     0.146 A 
ATOM     11  O   UNL     1      27.832  -1.183  44.327  1.00  0.00    -0.452 OA
ENDROOT
BRANCH   1  12
ATOM     12  C   UNL     1      26.369   0.036  42.849  1.00  0.00     0.021 A 
ATOM     13  C   UNL     1      25.761   1.093  43.549  1.00  0.00     0.016 A 
ATOM     14  C   UNL     1      25.423   2.278  42.890  1.00  0.00     0.047 A 
ATOM     15  C   UNL     1      25.702   2.430  41.528  1.00  0.00     0.115 A 
ATOM     16  C   UNL     1      26.664   0.202  41.484  1.00  0.00     0.016 A 
ATOM     17  C   UNL     1      26.326   1.390  40.827  1.00  0.00     0.047 A 
BRANCH  15  18
ATOM     18  O   UNL     1      25.359   3.617  40.884  1.00  0.00    -0.508 OA
ATOM     19  H   UNL     1      24.391   3.881  40.742  1.00  0.00     0.293 HD
ENDBRANCH  15  18
ENDBRANCH   1  12
BRANCH   2  20
ATOM     20  O   UNL     1      24.758  -2.371  42.792  1.00  0.00    -0.502 OA
ATOM     21  H   UNL     1      24.727  -2.354  41.779  1.00  0.00     0.293 HD
ENDBRANCH   2  20
BRANCH   6  22
ATOM     22  O   UNL     1      27.628  -5.892  45.573  1.00  0.00    -0.507 OA
ATOM     23  H   UNL     1      28.185  -6.732  45.625  1.00  0.00     0.293 HD
ENDBRANCH   6  22
BRANCH   8  24
ATOM     24  O   UNL     1      31.052  -3.004  47.306  1.00  0.00    -0.508 OA
ATOM     25  H   UNL     1      31.982  -3.156  46.933  1.00  0.00     0.293 HD
ENDBRANCH   8  24
TORSDOF 5
ENDMDL
MODEL 6
REMARK VINA RESULT:    -5.200      8.029      9.795
REMARK INTER + INTRA:          -6.343
REMARK INTER:                  -6.078
REMARK INTRA:                  -0.264
REMARK UNBOUND:                -0.231
REMARK SMILES O=c1c(O)c(-c2ccc(O)cc2)oc2cc(O)cc(O)c12
REMARK SMILES IDX 5 1 3 2 2 3 1 4 21 5 19 6 18 7 16 8 15 9 14 10 13 11 6 12
REMARK SMILES IDX 7 13 8 14 9 15 12 16 11 17 10 18 4 20 20 22 17 24
REMARK H PARENT 10 19 4 21 20 23 17 25
REMARK Flexibility Score: inf
ROOT
ATOM      1  C   UNL     1      27.590  -4.181  35.516  1.00  0.00     0.180 A 
ATOM      2  C   UNL     1      28.305  -5.123  36.277  1.00  0.00     0.208 A 
ATOM      3  C   UNL     1      29.705  -5.143  36.194  1.00  0.00     0.238 A 
ATOM      4  O   UNL     1      30.343  -5.952  36.920  1.00  0.00    -0.285 OA
ATOM      5  C   UNL     1      30.375  -4.235  35.339  1.00  0.00     0.111 A 
ATOM      6  C   UNL     1      31.789  -4.194  35.147  1.00  0.00     0.134 A 
ATOM      7  C   UNL     1      32.351  -3.168  34.378  1.00  0.00     0.093 A 
ATOM      8  C   UNL     1      31.546  -2.221  33.741  1.00  0.00     0.123 A 
ATOM      9  C   UNL     1      30.161  -2.288  33.874  1.00  0.00     0.094 A 
ATOM     10  C   UNL     1      29.572  -3.278  34.664  1.00  0.00     0.146 A 
ATOM     11  O   UNL     1      28.250  -3.299  34.774  1.00  0.00    -0.452 OA
ENDROOT
BRANCH   1  12
ATOM     12  C   UNL     1      26.111  -4.115  35.530  1.00  0.00     0.021 A 
ATOM     13  C   UNL     1      25.370  -5.028  34.761  1.00  0.00     0.016 A 
ATOM     14  C   UNL     1      23.973  -4.998  34.777  1.00  0.00     0.047 A 
ATOM     15  C   UNL     1      23.298  -4.067  35.571  1.00  0.00     0.115 A 
ATOM     16  C   UNL     1      25.427  -3.193  36.343  1.00  0.00     0.016 A 
ATOM     17  C   UNL     1      24.028  -3.165  36.357  1.00  0.00     0.047 A 
BRANCH  15  18
ATOM     18  O   UNL     1      21.905  -4.047  35.577  1.00  0.00    -0.508 OA
ATOM     19  H   UNL     1      21.381  -3.901  36.432  1.00  0.00     0.293 HD
ENDBRANCH  15  18
ENDBRANCH   1  12
BRANCH   2  20
ATOM     20  O   UNL     1      27.626  -5.995  37.132  1.00  0.00    -0.502 OA
ATOM     21  H   UNL     1      27.959  -6.214  38.064  1.00  0.00     0.293 HD
ENDBRANCH   2  20
BRANCH   6  22
ATOM     22  O   UNL     1      32.674  -5.144  35.663  1.00  0.00    -0.507 OA
ATOM     23  H   UNL     1      33.034  -5.142  36.605  1.00  0.00     0.293 HD
ENDBRANCH   6  22
BRANCH   8  24
ATOM     24  O   UNL     1      32.113  -1.212  32.963  1.00  0.00    -0.508 OA
ATOM     25  H   UNL     1      32.781  -1.421  32.230  1.00  0.00     0.293 HD
ENDBRANCH   8  24
TORSDOF 5
ENDMDL
MODEL 7
REMARK VINA RESULT:    -5.074      7.585      9.156
REMARK INTER + INTRA:          -6.195
REMARK INTER:                  -5.916
REMARK INTRA:                  -0.278
REMARK UNBOUND:                -0.231
REMARK SMILES O=c1c(O)c(-c2ccc(O)cc2)oc2cc(O)cc(O)c12
REMARK SMILES IDX 5 1 3 2 2 3 1 4 21 5 19 6 18 7 16 8 15 9 14 10 13 11 6 12
REMARK SMILES IDX 7 13 8 14 9 15 12 16 11 17 10 18 4 20 20 22 17 24
REMARK H PARENT 10 19 4 21 20 23 17 25
REMARK Flexibility Score: inf
ROOT
ATOM      1  C   UNL     1      28.486  -4.640  35.832  1.00  0.00     0.180 A 
ATOM      2  C   UNL     1      28.164  -3.405  36.421  1.00  0.00     0.208 A 
ATOM      3  C   UNL     1      26.817  -3.017  36.498  1.00  0.00     0.238 A 
ATOM      4  O   UNL     1      26.531  -1.936  37.077  1.00  0.00    -0.285 OA
ATOM      5  C   UNL     1      25.810  -3.860  35.970  1.00  0.00     0.111 A 
ATOM      6  C   UNL     1      24.417  -3.549  35.957  1.00  0.00     0.134 A 
ATOM      7  C   UNL     1      23.498  -4.515  35.527  1.00  0.00     0.093 A 
ATOM      8  C   UNL     1      23.927  -5.755  35.049  1.00  0.00     0.123 A 
ATOM      9  C   UNL     1      25.288  -6.045  35.001  1.00  0.00     0.094 A 
ATOM     10  C   UNL     1      26.227  -5.116  35.457  1.00  0.00     0.146 A 
ATOM     11  O   UNL     1      27.514  -5.437  35.404  1.00  0.00    -0.452 OA
ENDROOT
BRANCH   1  12
ATOM     12  C   UNL     1      29.884  -5.105  35.691  1.00  0.00     0.021 A 
ATOM     13  C   UNL     1      30.587  -4.837  34.504  1.00  0.00     0.016 A 
ATOM     14  C   UNL     1      31.915  -5.247  34.358  1.00  0.00     0.047 A 
ATOM     15  C   UNL     1      32.563  -5.918  35.401  1.00  0.00     0.115 A 
ATOM     16  C   UNL     1      30.547  -5.762  36.744  1.00  0.00     0.016 A 
ATOM     17  C   UNL     1      31.877  -6.172  36.595  1.00  0.00     0.047 A 
BRANCH  15  18
ATOM     18  O   UNL     1      33.886  -6.322  35.241  1.00  0.00    -0.508 OA
ATOM     19  H   UNL     1      34.487  -5.904  34.540  1.00  0.00     0.293 HD
ENDBRANCH  15  18
ENDBRANCH   1  12
BRANCH   2  20
ATOM     20  O   UNL     1      29.171  -2.598  36.957  1.00  0.00    -0.502 OA
ATOM     21  H   UNL     1      29.660  -1.899  36.408  1.00  0.00     0.293 HD
ENDBRANCH   2  20
BRANCH   6  22
ATOM     22  O   UNL     1      23.891  -2.309  36.327  1.00  0.00    -0.507 OA
ATOM     23  H   UNL     1      23.041  -2.179  36.856  1.00  0.00     0.293 HD
ENDBRANCH   6  22
BRANCH   8  24
ATOM     24  O   UNL     1      23.007  -6.704  34.607  1.00  0.00    -0.508 OA
ATOM     25  H   UNL     1      23.230  -7.693  34.594  1.00  0.00     0.293 HD
ENDBRANCH   8  24
TORSDOF 5
ENDMDL
MODEL 8
REMARK VINA RESULT:    -4.977      4.552      7.716
REMARK INTER + INTRA:          -6.081
REMARK INTER:                  -5.930
REMARK INTRA:                  -0.151
REMARK UNBOUND:                -0.231
REMARK SMILES O=c1c(O)c(-c2ccc(O)cc2)oc2cc(O)cc(O)c12
REMARK SMILES IDX 5 1 3 2 2 3 1 4 21 5 19 6 18 7 16 8 15 9 14 10 13 11 6 12
REMARK SMILES IDX 7 13 8 14 9 15 12 16 11 17 10 18 4 20 20 22 17 24
REMARK H PARENT 10 19 4 21 20 23 17 25
REMARK Flexibility Score: inf
ROOT
ATOM      1  C   UNL     1      26.314  -0.837  37.666  1.00  0.00     0.180 A 
ATOM      2  C   UNL     1      25.257  -1.170  36.801  1.00  0.00     0.208 A 
ATOM      3  C   UNL     1      25.341  -2.350  36.046  1.00  0.00     0.238 A 
ATOM      4  O   UNL     1      24.367  -2.671  35.315  1.00  0.00    -0.285 OA
ATOM      5  C   UNL     1      26.486  -3.175  36.152  1.00  0.00     0.111 A 
ATOM      6  C   UNL     1      26.695  -4.373  35.404  1.00  0.00     0.134 A 
ATOM      7  C   UNL     1      27.806  -5.177  35.686  1.00  0.00     0.093 A 
ATOM      8  C   UNL     1      28.749  -4.795  36.642  1.00  0.00     0.123 A 
ATOM      9  C   UNL     1      28.585  -3.598  37.335  1.00  0.00     0.094 A 
ATOM     10  C   UNL     1      27.469  -2.791  37.102  1.00  0.00     0.146 A 
ATOM     11  O   UNL     1      27.345  -1.664  37.792  1.00  0.00    -0.452 OA
ENDROOT
BRANCH   1  12
ATOM     12  C   UNL     1      26.310   0.403  38.474  1.00  0.00     0.021 A 
ATOM     13  C   UNL     1      26.352   0.315  39.877  1.00  0.00     0.016 A 
ATOM     14  C   UNL     1      26.372   1.473  40.659  1.00  0.00     0.047 A 
ATOM     15  C   UNL     1      26.364   2.733  40.052  1.00  0.00     0.115 A 
ATOM     16  C   UNL     1      26.322   1.673  37.869  1.00  0.00     0.016 A 
ATOM     17  C   UNL     1      26.342   2.830  38.654  1.00  0.00     0.047 A 
BRANCH  15  18
ATOM     18  O   UNL     1      26.382   3.879  40.844  1.00  0.00    -0.508 OA
ATOM     19  H   UNL     1      26.641   4.781  40.463  1.00  0.00     0.293 HD
ENDBRANCH  15  18
ENDBRANCH   1  12
BRANCH   2  20
ATOM     20  O   UNL     1      24.125  -0.354  36.728  1.00  0.00    -0.502 OA
ATOM     21  H   UNL     1      23.232  -0.624  37.124  1.00  0.00     0.293 HD
ENDBRANCH   2  20
BRANCH   6  22
ATOM     22  O   UNL     1      25.863  -4.799  34.365  1.00  0.00    -0.507 OA
ATOM     23  H   UNL     1      24.865  -4.656  34.332  1.00  0.00     0.293 HD
ENDBRANCH   6  22
BRANCH   8  24
ATOM     24  O   UNL     1      29.861  -5.594  36.905  1.00  0.00    -0.508 OA
ATOM     25  H   UNL     1      29.838  -6.315  37.617  1.00  0.00     0.293 HD
ENDBRANCH   8  24
TORSDOF 5
ENDMDL
MODEL 9
REMARK VINA RESULT:    -4.840      7.444      9.143
REMARK INTER + INTRA:          -5.920
REMARK INTER:                  -5.627
REMARK INTRA:                  -0.294
REMARK UNBOUND:                -0.231
REMARK SMILES O=c1c(O)c(-c2ccc(O)cc2)oc2cc(O)cc(O)c12
REMARK SMILES IDX 5 1 3 2 2 3 1 4 21 5 19 6 18 7 16 8 15 9 14 10 13 11 6 12
REMARK SMILES IDX 7 13 8 14 9 15 12 16 11 17 10 18 4 20 20 22 17 24
REMARK H PARENT 10 19 4 21 20 23 17 25
REMARK Flexibility Score: inf
ROOT
ATOM      1  C   UNL     1      27.974  -4.986  35.646  1.00  0.00     0.180 A 
ATOM      2  C   UNL     1      26.959  -5.864  35.225  1.00  0.00     0.208 A 
ATOM      3  C   UNL     1      25.621  -5.450  35.310  1.00  0.00     0.238 A 
ATOM      4  O   UNL     1      24.721  -6.219  34.881  1.00  0.00    -0.285 OA
ATOM      5  C   UNL     1      25.312  -4.170  35.829  1.00  0.00     0.111 A 
ATOM      6  C   UNL     1      23.988  -3.661  35.999  1.00  0.00     0.134 A 
ATOM      7  C   UNL     1      23.806  -2.332  36.399  1.00  0.00     0.093 A 
ATOM      8  C   UNL     1      24.896  -1.514  36.699  1.00  0.00     0.123 A 
ATOM      9  C   UNL     1      26.190  -2.018  36.594  1.00  0.00     0.094 A 
ATOM     10  C   UNL     1      26.406  -3.330  36.163  1.00  0.00     0.146 A 
ATOM     11  O   UNL     1      27.655  -3.768  36.066  1.00  0.00    -0.452 OA
ENDROOT
BRANCH   1  12
ATOM     12  C   UNL     1      29.405  -5.362  35.611  1.00  0.00     0.021 A 
ATOM     13  C   UNL     1      30.167  -5.077  34.464  1.00  0.00     0.016 A 
ATOM     14  C   UNL     1      31.526  -5.403  34.418  1.00  0.00     0.047 A 
ATOM     15  C   UNL     1      32.144  -6.003  35.520  1.00  0.00     0.115 A 
ATOM     16  C   UNL     1      30.037  -5.947  36.723  1.00  0.00     0.016 A 
ATOM     17  C   UNL     1      31.397  -6.272  36.674  1.00  0.00     0.047 A 
BRANCH  15  18
ATOM     18  O   UNL     1      33.498  -6.323  35.459  1.00  0.00    -0.508 OA
ATOM     19  H   UNL     1      33.902  -6.763  34.640  1.00  0.00     0.293 HD
ENDBRANCH  15  18
ENDBRANCH   1  12
BRANCH   2  20
ATOM     20  O   UNL     1      27.288  -7.115  34.695  1.00  0.00    -0.502 OA
ATOM     21  H   UNL     1      27.378  -7.277  33.699  1.00  0.00     0.293 HD
ENDBRANCH   2  20
BRANCH   6  22
ATOM     22  O   UNL     1      22.831  -4.422  35.814  1.00  0.00    -0.507 OA
ATOM     23  H   UNL     1      22.362  -4.550  34.929  1.00  0.00     0.293 HD
ENDBRANCH   6  22
BRANCH   8  24
ATOM     24  O   UNL     1      24.705  -0.196  37.113  1.00  0.00    -0.508 OA
ATOM     25  H   UNL     1      23.935   0.062  37.720  1.00  0.00     0.293 HD
ENDBRANCH   8  24
TORSDOF 5
ENDMDL
