MODEL 1
REMARK VINA RESULT:    -3.934      0.000      0.000
REMARK INTER + INTRA:         -11.565
REMARK INTER:                  -8.534
REMARK INTRA:                  -3.031
REMARK UNBOUND:                -3.031
REMARK SMILES CCCCCCCCCCCCCCCCCCCCCC(=O)[O-]
REMARK SMILES IDX 12 1 11 2 10 3 9 4 8 5 7 6 6 7 5 8 4 9 3 10 2 11 1 12 13 13
REMARK SMILES IDX 14 14 15 15 16 16 17 17 18 18 19 19 20 20 21 21 22 22 23 23
REMARK SMILES IDX 24 24
REMARK H PARENT
REMARK Flexibility Score: inf
ROOT
ATOM      1  C   UNL     1      42.313  21.334 222.966  1.00  0.00     0.000 C 
ENDROOT
BRANCH   1   2
ATOM      2  C   UNL     1      41.120  22.283 222.755  1.00  0.00     0.000 C 
BRANCH   2   3
ATOM      3  C   UNL     1      41.208  23.624 223.513  1.00  0.00     0.000 C 
BRANCH   3   4
ATOM      4  C   UNL     1      41.328  23.501 225.043  1.00  0.00    -0.000 C 
BRANCH   4   5
ATOM      5  C   UNL     1      40.130  24.112 225.785  1.00  0.00    -0.000 C 
BRANCH   5   6
ATOM      6  C   UNL     1      40.235  25.644 225.833  1.00  0.00    -0.000 C 
BRANCH   6   7
ATOM      7  C   UNL     1      38.892  26.335 225.541  1.00  0.00    -0.000 C 
BRANCH   7   8
ATOM      8  C   UNL     1      38.240  25.833 224.242  1.00  0.00    -0.000 C 
BRANCH   8   9
ATOM      9  C   UNL     1      36.829  25.259 224.466  1.00  0.00    -0.000 C 
BRANCH   9  10
ATOM     10  C   UNL     1      36.534  23.939 223.724  1.00  0.00    -0.000 C 
BRANCH  10  11
ATOM     11  C   UNL     1      37.569  23.550 222.654  1.00  0.00    -0.003 C 
ATOM     12  C   UNL     1      36.991  23.539 221.240  1.00  0.00     0.004 C 
ENDBRANCH  10  11
ENDBRANCH   9  10
ENDBRANCH   8   9
ENDBRANCH   7   8
ENDBRANCH   6   7
ENDBRANCH   5   6
ENDBRANCH   4   5
ENDBRANCH   3   4
ENDBRANCH   2   3
ENDBRANCH   1   2
BRANCH   1  13
ATOM     13  C   UNL     1      41.894  19.966 223.524  1.00  0.00     0.000 C 
BRANCH  13  14
ATOM     14  C   UNL     1      42.346  19.805 224.983  1.00  0.00     0.000 C 
BRANCH  14  15
ATOM     15  C   UNL     1      41.166  19.623 225.951  1.00  0.00     0.000 C 
BRANCH  15  16
ATOM     16  C   UNL     1      39.812  19.524 225.227  1.00  0.00     0.000 C 
BRANCH  16  17
ATOM     17  C   UNL     1      38.883  20.703 225.551  1.00  0.00     0.000 C 
BRANCH  17  18
ATOM     18  C   UNL     1      38.289  20.615 226.968  1.00  0.00     0.000 C 
BRANCH  18  19
ATOM     19  C   UNL     1      37.404  19.373 227.167  1.00  0.00     0.000 C 
BRANCH  19  20
ATOM     20  C   UNL     1      37.953  18.386 228.218  1.00  0.00     0.006 C 
BRANCH  20  21
ATOM     21  C   UNL     1      37.639  16.926 227.862  1.00  0.00     0.053 C 
BRANCH  21  22
ATOM     22  C   UNL     1      38.893  16.113 227.827  1.00  0.00     0.041 C 
ATOM     23  O   UNL     1      39.068  15.182 228.658  1.00  0.00    -0.550 OA
ATOM     24  O   UNL     1      39.887  16.405 226.899  1.00  0.00    -0.550 OA
ENDBRANCH  21  22
ENDBRANCH  20  21
ENDBRANCH  19  20
ENDBRANCH  18  19
ENDBRANCH  17  18
ENDBRANCH  16  17
ENDBRANCH  15  16
ENDBRANCH  14  15
ENDBRANCH  13  14
ENDBRANCH   1  13
TORSDOF 20
ENDMDL
MODEL 2
REMARK VINA RESULT:    -3.898      3.420      4.970
REMARK INTER + INTRA:         -11.486
REMARK INTER:                  -8.886
REMARK INTRA:                  -2.600
REMARK UNBOUND:                -3.031
REMARK SMILES CCCCCCCCCCCCCCCCCCCCCC(=O)[O-]
REMARK SMILES IDX 12 1 11 2 10 3 9 4 8 5 7 6 6 7 5 8 4 9 3 10 2 11 1 12 13 13
REMARK SMILES IDX 14 14 15 15 16 16 17 17 18 18 19 19 20 20 21 21 22 22 23 23
REMARK SMILES IDX 24 24
REMARK H PARENT
REMARK Flexibility Score: inf
ROOT
ATOM      1  C   UNL     1      41.943  25.886 226.912  1.00  0.00     0.000 C 
ENDROOT
BRANCH   1   2
ATOM      2  C   UNL     1      41.087  26.931 226.175  1.00  0.00     0.000 C 
BRANCH   2   3
ATOM      3  C   UNL     1      39.615  27.010 226.632  1.00  0.00     0.000 C 
BRANCH   3   4
ATOM      4  C   UNL     1      38.703  25.896 226.089  1.00  0.00    -0.000 C 
BRANCH   4   5
ATOM      5  C   UNL     1      38.323  26.102 224.615  1.00  0.00    -0.000 C 
BRANCH   5   6
ATOM      6  C   UNL     1      36.941  25.503 224.313  1.00  0.00    -0.000 C 
BRANCH   6   7
ATOM      7  C   UNL     1      36.908  23.977 224.498  1.00  0.00    -0.000 C 
BRANCH   7   8
ATOM      8  C   UNL     1      36.485  23.236 223.219  1.00  0.00    -0.000 C 
BRANCH   8   9
ATOM      9  C   UNL     1      36.768  24.044 221.940  1.00  0.00    -0.000 C 
BRANCH   9  10
ATOM     10  C   UNL     1      37.933  23.516 221.077  1.00  0.00    -0.000 C 
BRANCH  10  11
ATOM     11  C   UNL     1      37.564  23.184 219.620  1.00  0.00    -0.003 C 
ATOM     12  C   UNL     1      36.328  23.939 219.132  1.00  0.00     0.004 C 
ENDBRANCH  10  11
ENDBRANCH   9  10
ENDBRANCH   8   9
ENDBRANCH   7   8
ENDBRANCH   6   7
ENDBRANCH   5   6
ENDBRANCH   4   5
ENDBRANCH   3   4
ENDBRANCH   2   3
ENDBRANCH   1   2
BRANCH   1  13
ATOM     13  C   UNL     1      42.554  24.843 225.966  1.00  0.00     0.000 C 
BRANCH  13  14
ATOM     14  C   UNL     1      42.187  23.418 226.407  1.00  0.00     0.000 C 
BRANCH  14  15
ATOM     15  C   UNL     1      40.827  22.961 225.856  1.00  0.00     0.000 C 
BRANCH  15  16
ATOM     16  C   UNL     1      40.611  23.369 224.389  1.00  0.00     0.000 C 
BRANCH  16  17
ATOM     17  C   UNL     1      40.560  22.160 223.442  1.00  0.00     0.000 C 
BRANCH  17  18
ATOM     18  C   UNL     1      41.878  21.955 222.676  1.00  0.00     0.000 C 
BRANCH  18  19
ATOM     19  C   UNL     1      42.056  20.514 222.170  1.00  0.00     0.000 C 
BRANCH  19  20
ATOM     20  C   UNL     1      41.898  19.448 223.274  1.00  0.00     0.006 C 
BRANCH  20  21
ATOM     21  C   UNL     1      43.074  19.455 224.259  1.00  0.00     0.053 C 
BRANCH  21  22
ATOM     22  C   UNL     1      44.216  18.652 223.722  1.00  0.00     0.041 C 
ATOM     23  O   UNL     1      44.337  17.438 224.034  1.00  0.00    -0.550 OA
ATOM     24  O   UNL     1      45.167  19.254 222.906  1.00  0.00    -0.550 OA
ENDBRANCH  21  22
ENDBRANCH  20  21
ENDBRANCH  19  20
ENDBRANCH  18  19
ENDBRANCH  17  18
ENDBRANCH  16  17
ENDBRANCH  15  16
ENDBRANCH  14  15
ENDBRANCH  13  14
ENDBRANCH   1  13
TORSDOF 20
ENDMDL
MODEL 3
REMARK VINA RESULT:    -3.875      1.298      2.458
REMARK INTER + INTRA:         -11.438
REMARK INTER:                  -8.947
REMARK INTRA:                  -2.491
REMARK UNBOUND:                -3.031
REMARK SMILES CCCCCCCCCCCCCCCCCCCCCC(=O)[O-]
REMARK SMILES IDX 12 1 11 2 10 3 9 4 8 5 7 6 6 7 5 8 4 9 3 10 2 11 1 12 13 13
REMARK SMILES IDX 14 14 15 15 16 16 17 17 18 18 19 19 20 20 21 21 22 22 23 23
REMARK SMILES IDX 24 24
REMARK H PARENT
REMARK Flexibility Score: inf
ROOT
ATOM      1  C   UNL     1      41.133  22.595 223.516  1.00  0.00     0.000 C 
ENDROOT
BRANCH   1   2
ATOM      2  C   UNL     1      41.566  23.419 224.741  1.00  0.00     0.000 C 
BRANCH   2   3
ATOM      3  C   UNL     1      40.427  24.176 225.455  1.00  0.00     0.000 C 
BRANCH   3   4
ATOM      4  C   UNL     1      39.383  23.282 226.149  1.00  0.00    -0.000 C 
BRANCH   4   5
ATOM      5  C   UNL     1      37.969  23.467 225.580  1.00  0.00    -0.000 C 
BRANCH   5   6
ATOM      6  C   UNL     1      37.663  22.409 224.510  1.00  0.00    -0.000 C 
BRANCH   6   7
ATOM      7  C   UNL     1      37.506  23.019 223.107  1.00  0.00    -0.000 C 
BRANCH   7   8
ATOM      8  C   UNL     1      36.117  23.643 222.886  1.00  0.00    -0.000 C 
BRANCH   8   9
ATOM      9  C   UNL     1      36.088  24.632 221.708  1.00  0.00    -0.000 C 
BRANCH   9  10
ATOM     10  C   UNL     1      35.554  24.053 220.380  1.00  0.00    -0.000 C 
BRANCH  10  11
ATOM     11  C   UNL     1      36.564  24.052 219.219  1.00  0.00    -0.003 C 
ATOM     12  C   UNL     1      37.619  22.954 219.349  1.00  0.00     0.004 C 
ENDBRANCH  10  11
ENDBRANCH   9  10
ENDBRANCH   8   9
ENDBRANCH   7   8
ENDBRANCH   6   7
ENDBRANCH   5   6
ENDBRANCH   4   5
ENDBRANCH   3   4
ENDBRANCH   2   3
ENDBRANCH   1   2
BRANCH   1  13
ATOM     13  C   UNL     1      42.225  21.630 223.032  1.00  0.00     0.000 C 
BRANCH  13  14
ATOM     14  C   UNL     1      41.793  20.168 223.227  1.00  0.00     0.000 C 
BRANCH  14  15
ATOM     15  C   UNL     1      42.535  19.483 224.385  1.00  0.00     0.000 C 
BRANCH  15  16
ATOM     16  C   UNL     1      41.624  19.205 225.593  1.00  0.00     0.000 C 
BRANCH  16  17
ATOM     17  C   UNL     1      40.140  19.459 225.284  1.00  0.00     0.000 C 
BRANCH  17  18
ATOM     18  C   UNL     1      39.298  19.658 226.555  1.00  0.00     0.000 C 
BRANCH  18  19
ATOM     19  C   UNL     1      37.855  19.149 226.401  1.00  0.00     0.000 C 
BRANCH  19  20
ATOM     20  C   UNL     1      37.627  17.747 227.004  1.00  0.00     0.006 C 
BRANCH  20  21
ATOM     21  C   UNL     1      38.785  17.310 227.909  1.00  0.00     0.053 C 
BRANCH  21  22
ATOM     22  C   UNL     1      39.072  15.853 227.729  1.00  0.00     0.041 C 
ATOM     23  O   UNL     1      40.141  15.482 227.173  1.00  0.00    -0.550 OA
ATOM     24  O   UNL     1      38.144  14.905 228.141  1.00  0.00    -0.550 OA
ENDBRANCH  21  22
ENDBRANCH  20  21
ENDBRANCH  19  20
ENDBRANCH  18  19
ENDBRANCH  17  18
ENDBRANCH  16  17
ENDBRANCH  15  16
ENDBRANCH  14  15
ENDBRANCH  13  14
ENDBRANCH   1  13
TORSDOF 20
ENDMDL
MODEL 4
REMARK VINA RESULT:    -3.820      2.241      5.118
REMARK INTER + INTRA:         -11.317
REMARK INTER:                  -7.176
REMARK INTRA:                  -4.141
REMARK UNBOUND:                -3.031
REMARK SMILES CCCCCCCCCCCCCCCCCCCCCC(=O)[O-]
REMARK SMILES IDX 12 1 11 2 10 3 9 4 8 5 7 6 6 7 5 8 4 9 3 10 2 11 1 12 13 13
REMARK SMILES IDX 14 14 15 15 16 16 17 17 18 18 19 19 20 20 21 21 22 22 23 23
REMARK SMILES IDX 24 24
REMARK H PARENT
REMARK Flexibility Score: inf
ROOT
ATOM      1  C   UNL     1      39.210  26.412 228.194  1.00  0.00     0.000 C 
ENDROOT
BRANCH   1   2
ATOM      2  C   UNL     1      37.739  26.102 227.869  1.00  0.00     0.000 C 
BRANCH   2   3
ATOM      3  C   UNL     1      37.459  24.650 227.428  1.00  0.00     0.000 C 
BRANCH   3   4
ATOM      4  C   UNL     1      37.079  24.480 225.947  1.00  0.00    -0.000 C 
BRANCH   4   5
ATOM      5  C   UNL     1      37.248  25.773 225.136  1.00  0.00    -0.000 C 
BRANCH   5   6
ATOM      6  C   UNL     1      38.229  25.569 223.971  1.00  0.00    -0.000 C 
BRANCH   6   7
ATOM      7  C   UNL     1      39.039  24.269 224.105  1.00  0.00    -0.000 C 
BRANCH   7   8
ATOM      8  C   UNL     1      40.294  24.261 223.216  1.00  0.00    -0.000 C 
BRANCH   8   9
ATOM      9  C   UNL     1      40.557  22.889 222.569  1.00  0.00    -0.000 C 
BRANCH   9  10
ATOM     10  C   UNL     1      41.849  22.184 223.032  1.00  0.00    -0.000 C 
BRANCH  10  11
ATOM     11  C   UNL     1      42.142  20.843 222.337  1.00  0.00    -0.003 C 
ATOM     12  C   UNL     1      41.721  19.634 223.172  1.00  0.00     0.004 C 
ENDBRANCH  10  11
ENDBRANCH   9  10
ENDBRANCH   8   9
ENDBRANCH   7   8
ENDBRANCH   6   7
ENDBRANCH   5   6
ENDBRANCH   4   5
ENDBRANCH   3   4
ENDBRANCH   2   3
ENDBRANCH   1   2
BRANCH   1  13
ATOM     13  C   UNL     1      39.900  27.239 227.100  1.00  0.00     0.000 C 
BRANCH  13  14
ATOM     14  C   UNL     1      40.995  26.420 226.399  1.00  0.00     0.000 C 
BRANCH  14  15
ATOM     15  C   UNL     1      41.358  25.140 227.167  1.00  0.00     0.000 C 
BRANCH  15  16
ATOM     16  C   UNL     1      42.193  24.158 226.327  1.00  0.00     0.000 C 
BRANCH  16  17
ATOM     17  C   UNL     1      41.847  22.690 226.619  1.00  0.00     0.000 C 
BRANCH  17  18
ATOM     18  C   UNL     1      40.341  22.471 226.842  1.00  0.00     0.000 C 
BRANCH  18  19
ATOM     19  C   UNL     1      39.909  21.014 226.605  1.00  0.00     0.000 C 
BRANCH  19  20
ATOM     20  C   UNL     1      38.988  20.835 225.380  1.00  0.00     0.006 C 
BRANCH  20  21
ATOM     21  C   UNL     1      37.504  20.809 225.769  1.00  0.00     0.053 C 
BRANCH  21  22
ATOM     22  C   UNL     1      36.983  19.408 225.764  1.00  0.00     0.041 C 
ATOM     23  O   UNL     1      35.750  19.190 225.904  1.00  0.00    -0.550 OA
ATOM     24  O   UNL     1      37.863  18.339 225.643  1.00  0.00    -0.550 OA
ENDBRANCH  21  22
ENDBRANCH  20  21
ENDBRANCH  19  20
ENDBRANCH  18  19
ENDBRANCH  17  18
ENDBRANCH  16  17
ENDBRANCH  15  16
ENDBRANCH  14  15
ENDBRANCH  13  14
ENDBRANCH   1  13
TORSDOF 20
ENDMDL
MODEL 5
REMARK VINA RESULT:    -3.819      3.123      6.488
REMARK INTER + INTRA:         -11.316
REMARK INTER:                  -7.201
REMARK INTRA:                  -4.114
REMARK UNBOUND:                -3.031
REMARK SMILES CCCCCCCCCCCCCCCCCCCCCC(=O)[O-]
REMARK SMILES IDX 12 1 11 2 10 3 9 4 8 5 7 6 6 7 5 8 4 9 3 10 2 11 1 12 13 13
REMARK SMILES IDX 14 14 15 15 16 16 17 17 18 18 19 19 20 20 21 21 22 22 23 23
REMARK SMILES IDX 24 24
REMARK H PARENT
REMARK Flexibility Score: inf
ROOT
ATOM      1  C   UNL     1      42.210  20.218 225.077  1.00  0.00     0.000 C 
ENDROOT
BRANCH   1   2
ATOM      2  C   UNL     1      40.928  20.244 225.928  1.00  0.00     0.000 C 
BRANCH   2   3
ATOM      3  C   UNL     1      39.642  19.822 225.187  1.00  0.00     0.000 C 
BRANCH   3   4
ATOM      4  C   UNL     1      38.375  19.769 226.058  1.00  0.00    -0.000 C 
BRANCH   4   5
ATOM      5  C   UNL     1      38.066  18.357 226.576  1.00  0.00    -0.000 C 
BRANCH   5   6
ATOM      6  C   UNL     1      37.878  18.358 228.100  1.00  0.00    -0.000 C 
BRANCH   6   7
ATOM      7  C   UNL     1      39.158  17.958 228.851  1.00  0.00    -0.000 C 
BRANCH   7   8
ATOM      8  C   UNL     1      39.931  19.173 229.392  1.00  0.00    -0.000 C 
BRANCH   8   9
ATOM      9  C   UNL     1      39.006  20.335 229.797  1.00  0.00    -0.000 C 
BRANCH   9  10
ATOM     10  C   UNL     1      39.249  21.659 229.041  1.00  0.00    -0.000 C 
BRANCH  10  11
ATOM     11  C   UNL     1      37.973  22.398 228.600  1.00  0.00    -0.003 C 
ATOM     12  C   UNL     1      37.943  23.857 229.054  1.00  0.00     0.004 C 
ENDBRANCH  10  11
ENDBRANCH   9  10
ENDBRANCH   8   9
ENDBRANCH   7   8
ENDBRANCH   6   7
ENDBRANCH   5   6
ENDBRANCH   4   5
ENDBRANCH   3   4
ENDBRANCH   2   3
ENDBRANCH   1   2
BRANCH   1  13
ATOM     13  C   UNL     1      41.924  20.275 223.569  1.00  0.00     0.000 C 
BRANCH  13  14
ATOM     14  C   UNL     1      42.173  21.687 223.016  1.00  0.00     0.000 C 
BRANCH  14  15
ATOM     15  C   UNL     1      40.870  22.443 222.717  1.00  0.00     0.000 C 
BRANCH  15  16
ATOM     16  C   UNL     1      40.861  23.868 223.296  1.00  0.00     0.000 C 
BRANCH  16  17
ATOM     17  C   UNL     1      41.228  23.900 224.788  1.00  0.00     0.000 C 
BRANCH  17  18
ATOM     18  C   UNL     1      39.994  23.813 225.701  1.00  0.00     0.000 C 
BRANCH  18  19
ATOM     19  C   UNL     1      38.737  24.431 225.065  1.00  0.00     0.000 C 
BRANCH  19  20
ATOM     20  C   UNL     1      37.490  23.527 225.160  1.00  0.00     0.006 C 
BRANCH  20  21
ATOM     21  C   UNL     1      37.333  22.624 223.930  1.00  0.00     0.053 C 
BRANCH  21  22
ATOM     22  C   UNL     1      36.822  23.407 222.764  1.00  0.00     0.041 C 
ATOM     23  O   UNL     1      37.504  23.490 221.708  1.00  0.00    -0.550 OA
ATOM     24  O   UNL     1      35.607  24.077 222.854  1.00  0.00    -0.550 OA
ENDBRANCH  21  22
ENDBRANCH  20  21
ENDBRANCH  19  20
ENDBRANCH  18  19
ENDBRANCH  17  18
ENDBRANCH  16  17
ENDBRANCH  15  16
ENDBRANCH  14  15
ENDBRANCH  13  14
ENDBRANCH   1  13
TORSDOF 20
ENDMDL
MODEL 6
REMARK VINA RESULT:    -3.806      3.596      6.848
REMARK INTER + INTRA:         -11.286
REMARK INTER:                  -7.919
REMARK INTRA:                  -3.367
REMARK UNBOUND:                -3.031
REMARK SMILES CCCCCCCCCCCCCCCCCCCCCC(=O)[O-]
REMARK SMILES IDX 12 1 11 2 10 3 9 4 8 5 7 6 6 7 5 8 4 9 3 10 2 11 1 12 13 13
REMARK SMILES IDX 14 14 15 15 16 16 17 17 18 18 19 19 20 20 21 21 22 22 23 23
REMARK SMILES IDX 24 24
REMARK H PARENT
REMARK Flexibility Score: inf
ROOT
ATOM      1  C   UNL     1      39.841  20.394 225.393  1.00  0.00     0.000 C 
ENDROOT
BRANCH   1   2
ATOM      2  C   UNL     1      39.160  21.224 226.495  1.00  0.00     0.000 C 
BRANCH   2   3
ATOM      3  C   UNL     1      40.000  22.395 227.046  1.00  0.00     0.000 C 
BRANCH   3   4
ATOM      4  C   UNL     1      40.211  22.386 228.570  1.00  0.00    -0.000 C 
BRANCH   4   5
ATOM      5  C   UNL     1      39.905  21.023 229.207  1.00  0.00    -0.000 C 
BRANCH   5   6
ATOM      6  C   UNL     1      41.183  20.182 229.348  1.00  0.00    -0.000 C 
BRANCH   6   7
ATOM      7  C   UNL     1      40.979  18.723 228.907  1.00  0.00    -0.000 C 
BRANCH   7   8
ATOM      8  C   UNL     1      39.531  18.242 229.107  1.00  0.00    -0.000 C 
BRANCH   8   9
ATOM      9  C   UNL     1      39.119  17.156 228.097  1.00  0.00    -0.000 C 
BRANCH   9  10
ATOM     10  C   UNL     1      38.195  17.638 226.958  1.00  0.00    -0.000 C 
BRANCH  10  11
ATOM     11  C   UNL     1      36.724  17.843 227.359  1.00  0.00    -0.003 C 
ATOM     12  C   UNL     1      36.083  19.051 226.677  1.00  0.00     0.004 C 
ENDBRANCH  10  11
ENDBRANCH   9  10
ENDBRANCH   8   9
ENDBRANCH   7   8
ENDBRANCH   6   7
ENDBRANCH   5   6
ENDBRANCH   4   5
ENDBRANCH   3   4
ENDBRANCH   2   3
ENDBRANCH   1   2
BRANCH   1  13
ATOM     13  C   UNL     1      41.364  20.306 225.569  1.00  0.00     0.000 C 
BRANCH  13  14
ATOM     14  C   UNL     1      42.092  20.696 224.273  1.00  0.00     0.000 C 
BRANCH  14  15
ATOM     15  C   UNL     1      41.274  21.665 223.405  1.00  0.00     0.000 C 
BRANCH  15  16
ATOM     16  C   UNL     1      41.529  23.140 223.758  1.00  0.00     0.000 C 
BRANCH  16  17
ATOM     17  C   UNL     1      40.524  24.089 223.087  1.00  0.00     0.000 C 
BRANCH  17  18
ATOM     18  C   UNL     1      39.154  23.430 222.857  1.00  0.00     0.000 C 
BRANCH  18  19
ATOM     19  C   UNL     1      38.186  23.639 224.034  1.00  0.00     0.000 C 
BRANCH  19  20
ATOM     20  C   UNL     1      36.741  23.191 223.733  1.00  0.00     0.006 C 
BRANCH  20  21
ATOM     21  C   UNL     1      35.887  24.332 223.166  1.00  0.00     0.053 C 
BRANCH  21  22
ATOM     22  C   UNL     1      35.415  24.002 221.786  1.00  0.00     0.041 C 
ATOM     23  O   UNL     1      34.198  23.757 221.574  1.00  0.00    -0.550 OA
ATOM     24  O   UNL     1      36.326  23.927 220.739  1.00  0.00    -0.550 OA
ENDBRANCH  21  22
ENDBRANCH  20  21
ENDBRANCH  19  20
ENDBRANCH  18  19
ENDBRANCH  17  18
ENDBRANCH  16  17
ENDBRANCH  15  16
ENDBRANCH  14  15
ENDBRANCH  13  14
ENDBRANCH   1  13
TORSDOF 20
ENDMDL
MODEL 7
REMARK VINA RESULT:    -3.796      1.716      3.455
REMARK INTER + INTRA:         -11.266
REMARK INTER:                  -7.604
REMARK INTRA:                  -3.662
REMARK UNBOUND:                -3.031
REMARK SMILES CCCCCCCCCCCCCCCCCCCCCC(=O)[O-]
REMARK SMILES IDX 12 1 11 2 10 3 9 4 8 5 7 6 6 7 5 8 4 9 3 10 2 11 1 12 13 13
REMARK SMILES IDX 14 14 15 15 16 16 17 17 18 18 19 19 20 20 21 21 22 22 23 23
REMARK SMILES IDX 24 24
REMARK H PARENT
REMARK Flexibility Score: inf
ROOT
ATOM      1  C   UNL     1      41.268  23.630 223.565  1.00  0.00     0.000 C 
ENDROOT
BRANCH   1   2
ATOM      2  C   UNL     1      41.811  23.783 224.996  1.00  0.00     0.000 C 
BRANCH   2   3
ATOM      3  C   UNL     1      41.380  22.676 225.981  1.00  0.00     0.000 C 
BRANCH   3   4
ATOM      4  C   UNL     1      40.052  22.937 226.715  1.00  0.00    -0.000 C 
BRANCH   4   5
ATOM      5  C   UNL     1      39.008  21.838 226.466  1.00  0.00    -0.000 C 
BRANCH   5   6
ATOM      6  C   UNL     1      38.060  22.228 225.322  1.00  0.00    -0.000 C 
BRANCH   6   7
ATOM      7  C   UNL     1      37.566  23.679 225.435  1.00  0.00    -0.000 C 
BRANCH   7   8
ATOM      8  C   UNL     1      37.760  24.473 224.132  1.00  0.00    -0.000 C 
BRANCH   8   9
ATOM      9  C   UNL     1      38.450  25.830 224.359  1.00  0.00    -0.000 C 
BRANCH   9  10
ATOM     10  C   UNL     1      38.726  26.186 225.835  1.00  0.00    -0.000 C 
BRANCH  10  11
ATOM     11  C   UNL     1      39.986  27.038 226.073  1.00  0.00    -0.003 C 
ATOM     12  C   UNL     1      39.837  28.007 227.245  1.00  0.00     0.004 C 
ENDBRANCH  10  11
ENDBRANCH   9  10
ENDBRANCH   8   9
ENDBRANCH   7   8
ENDBRANCH   6   7
ENDBRANCH   5   6
ENDBRANCH   4   5
ENDBRANCH   3   4
ENDBRANCH   2   3
ENDBRANCH   1   2
BRANCH   1  13
ATOM     13  C   UNL     1      40.993  22.167 223.186  1.00  0.00     0.000 C 
BRANCH  13  14
ATOM     14  C   UNL     1      42.298  21.432 222.844  1.00  0.00     0.000 C 
BRANCH  14  15
ATOM     15  C   UNL     1      42.202  19.917 223.078  1.00  0.00     0.000 C 
BRANCH  15  16
ATOM     16  C   UNL     1      42.768  19.488 224.443  1.00  0.00     0.000 C 
BRANCH  16  17
ATOM     17  C   UNL     1      41.665  19.173 225.465  1.00  0.00     0.000 C 
BRANCH  17  18
ATOM     18  C   UNL     1      40.328  18.810 224.797  1.00  0.00     0.000 C 
BRANCH  18  19
ATOM     19  C   UNL     1      39.251  18.386 225.810  1.00  0.00     0.000 C 
BRANCH  19  20
ATOM     20  C   UNL     1      39.774  17.436 226.907  1.00  0.00     0.006 C 
BRANCH  20  21
ATOM     21  C   UNL     1      39.264  17.822 228.301  1.00  0.00     0.053 C 
BRANCH  21  22
ATOM     22  C   UNL     1      40.263  18.682 229.007  1.00  0.00     0.041 C 
ATOM     23  O   UNL     1      39.990  19.883 229.271  1.00  0.00    -0.550 OA
ATOM     24  O   UNL     1      41.510  18.169 229.342  1.00  0.00    -0.550 OA
ENDBRANCH  21  22
ENDBRANCH  20  21
ENDBRANCH  19  20
ENDBRANCH  18  19
ENDBRANCH  17  18
ENDBRANCH  16  17
ENDBRANCH  15  16
ENDBRANCH  14  15
ENDBRANCH  13  14
ENDBRANCH   1  13
TORSDOF 20
ENDMDL
MODEL 8
REMARK VINA RESULT:    -3.729      3.565      6.461
REMARK INTER + INTRA:         -11.120
REMARK INTER:                  -7.307
REMARK INTRA:                  -3.813
REMARK UNBOUND:                -3.031
REMARK SMILES CCCCCCCCCCCCCCCCCCCCCC(=O)[O-]
REMARK SMILES IDX 12 1 11 2 10 3 9 4 8 5 7 6 6 7 5 8 4 9 3 10 2 11 1 12 13 13
REMARK SMILES IDX 14 14 15 15 16 16 17 17 18 18 19 19 20 20 21 21 22 22 23 23
REMARK SMILES IDX 24 24
REMARK H PARENT
REMARK Flexibility Score: inf
ROOT
ATOM      1  C   UNL     1      40.811  27.067 226.369  1.00  0.00     0.000 C 
ENDROOT
BRANCH   1   2
ATOM      2  C   UNL     1      39.390  26.758 226.871  1.00  0.00     0.000 C 
BRANCH   2   3
ATOM      3  C   UNL     1      38.643  25.659 226.088  1.00  0.00     0.000 C 
BRANCH   3   4
ATOM      4  C   UNL     1      37.935  24.605 226.957  1.00  0.00    -0.000 C 
BRANCH   4   5
ATOM      5  C   UNL     1      38.689  24.303 228.260  1.00  0.00    -0.000 C 
BRANCH   5   6
ATOM      6  C   UNL     1      39.482  22.992 228.147  1.00  0.00    -0.000 C 
BRANCH   6   7
ATOM      7  C   UNL     1      38.603  21.809 227.711  1.00  0.00    -0.000 C 
BRANCH   7   8
ATOM      8  C   UNL     1      39.318  20.455 227.861  1.00  0.00    -0.000 C 
BRANCH   8   9
ATOM      9  C   UNL     1      39.708  19.834 226.508  1.00  0.00    -0.000 C 
BRANCH   9  10
ATOM     10  C   UNL     1      38.978  18.520 226.156  1.00  0.00    -0.000 C 
BRANCH  10  11
ATOM     11  C   UNL     1      37.535  18.695 225.649  1.00  0.00    -0.003 C 
ATOM     12  C   UNL     1      36.501  18.031 226.557  1.00  0.00     0.004 C 
ENDBRANCH  10  11
ENDBRANCH   9  10
ENDBRANCH   8   9
ENDBRANCH   7   8
ENDBRANCH   6   7
ENDBRANCH   5   6
ENDBRANCH   4   5
ENDBRANCH   3   4
ENDBRANCH   2   3
ENDBRANCH   1   2
BRANCH   1  13
ATOM     13  C   UNL     1      41.883  26.206 227.052  1.00  0.00     0.000 C 
BRANCH  13  14
ATOM     14  C   UNL     1      42.619  25.328 226.028  1.00  0.00     0.000 C 
BRANCH  14  15
ATOM     15  C   UNL     1      42.440  23.826 226.301  1.00  0.00     0.000 C 
BRANCH  15  16
ATOM     16  C   UNL     1      41.639  23.111 225.199  1.00  0.00     0.000 C 
BRANCH  16  17
ATOM     17  C   UNL     1      41.252  24.052 224.048  1.00  0.00     0.000 C 
BRANCH  17  18
ATOM     18  C   UNL     1      39.978  23.597 223.317  1.00  0.00     0.000 C 
BRANCH  18  19
ATOM     19  C   UNL     1      39.213  22.501 224.079  1.00  0.00     0.000 C 
BRANCH  19  20
ATOM     20  C   UNL     1      37.683  22.698 224.072  1.00  0.00     0.006 C 
BRANCH  20  21
ATOM     21  C   UNL     1      37.188  23.354 222.776  1.00  0.00     0.053 C 
BRANCH  21  22
ATOM     22  C   UNL     1      35.902  24.080 223.012  1.00  0.00     0.041 C 
ATOM     23  O   UNL     1      34.958  23.980 222.183  1.00  0.00    -0.550 OA
ATOM     24  O   UNL     1      35.757  24.896 224.127  1.00  0.00    -0.550 OA
ENDBRANCH  21  22
ENDBRANCH  20  21
ENDBRANCH  19  20
ENDBRANCH  18  19
ENDBRANCH  17  18
ENDBRANCH  16  17
ENDBRANCH  15  16
ENDBRANCH  14  15
ENDBRANCH  13  14
ENDBRANCH   1  13
TORSDOF 20
ENDMDL
MODEL 9
REMARK VINA RESULT:    -3.714      3.394      6.958
REMARK INTER + INTRA:         -11.087
REMARK INTER:                  -7.125
REMARK INTRA:                  -3.962
REMARK UNBOUND:                -3.031
REMARK SMILES CCCCCCCCCCCCCCCCCCCCCC(=O)[O-]
REMARK SMILES IDX 12 1 11 2 10 3 9 4 8 5 7 6 6 7 5 8 4 9 3 10 2 11 1 12 13 13
REMARK SMILES IDX 14 14 15 15 16 16 17 17 18 18 19 19 20 20 21 21 22 22 23 23
REMARK SMILES IDX 24 24
REMARK H PARENT
REMARK Flexibility Score: inf
ROOT
ATOM      1  C   UNL     1      37.637  19.912 226.320  1.00  0.00     0.000 C 
ENDROOT
BRANCH   1   2
ATOM      2  C   UNL     1      37.755  18.389 226.133  1.00  0.00     0.000 C 
BRANCH   2   3
ATOM      3  C   UNL     1      37.470  17.552 227.398  1.00  0.00     0.000 C 
BRANCH   3   4
ATOM      4  C   UNL     1      38.653  16.705 227.900  1.00  0.00    -0.000 C 
BRANCH   4   5
ATOM      5  C   UNL     1      39.493  17.427 228.963  1.00  0.00    -0.000 C 
BRANCH   5   6
ATOM      6  C   UNL     1      40.739  18.071 228.337  1.00  0.00    -0.000 C 
BRANCH   6   7
ATOM      7  C   UNL     1      40.973  19.507 228.834  1.00  0.00    -0.000 C 
BRANCH   7   8
ATOM      8  C   UNL     1      39.698  20.148 229.407  1.00  0.00    -0.000 C 
BRANCH   8   9
ATOM      9  C   UNL     1      39.572  21.642 229.054  1.00  0.00    -0.000 C 
BRANCH   9  10
ATOM     10  C   UNL     1      38.133  22.200 229.074  1.00  0.00    -0.000 C 
BRANCH  10  11
ATOM     11  C   UNL     1      37.915  23.464 228.224  1.00  0.00    -0.003 C 
ATOM     12  C   UNL     1      39.142  23.846 227.398  1.00  0.00     0.004 C 
ENDBRANCH  10  11
ENDBRANCH   9  10
ENDBRANCH   8   9
ENDBRANCH   7   8
ENDBRANCH   6   7
ENDBRANCH   5   6
ENDBRANCH   4   5
ENDBRANCH   3   4
ENDBRANCH   2   3
ENDBRANCH   1   2
BRANCH   1  13
ATOM     13  C   UNL     1      38.750  20.687 225.599  1.00  0.00     0.000 C 
BRANCH  13  14
ATOM     14  C   UNL     1      39.934  19.766 225.264  1.00  0.00     0.000 C 
BRANCH  14  15
ATOM     15  C   UNL     1      41.110  20.524 224.629  1.00  0.00     0.000 C 
BRANCH  15  16
ATOM     16  C   UNL     1      41.515  21.774 225.429  1.00  0.00     0.000 C 
BRANCH  16  17
ATOM     17  C   UNL     1      41.510  23.049 224.571  1.00  0.00     0.000 C 
BRANCH  17  18
ATOM     18  C   UNL     1      41.084  22.781 223.118  1.00  0.00     0.000 C 
BRANCH  18  19
ATOM     19  C   UNL     1      39.977  23.734 222.636  1.00  0.00     0.000 C 
BRANCH  19  20
ATOM     20  C   UNL     1      39.005  24.166 223.753  1.00  0.00     0.006 C 
BRANCH  20  21
ATOM     21  C   UNL     1      37.644  23.466 223.640  1.00  0.00     0.053 C 
BRANCH  21  22
ATOM     22  C   UNL     1      36.661  24.338 222.926  1.00  0.00     0.041 C 
ATOM     23  O   UNL     1      36.729  25.591 223.037  1.00  0.00    -0.550 OA
ATOM     24  O   UNL     1      35.647  23.767 222.168  1.00  0.00    -0.550 OA
ENDBRANCH  21  22
ENDBRANCH  20  21
ENDBRANCH  19  20
ENDBRANCH  18  19
ENDBRANCH  17  18
ENDBRANCH  16  17
ENDBRANCH  15  16
ENDBRANCH  14  15
ENDBRANCH  13  14
ENDBRANCH   1  13
TORSDOF 20
ENDMDL
