MODEL 1
REMARK VINA RESULT:    17.793      0.000      0.000
REMARK INTER + INTRA:          44.269
REMARK INTER:                  44.838
REMARK INTRA:                  -0.568
REMARK UNBOUND:                -0.568
REMARK SMILES CCCCCCCCCCCCCCCCCCCCCCCCCCCC(=O)[O-]
REMARK SMILES IDX 15 1 16 2 17 3 18 4 19 5 20 6 21 7 22 8 23 9 24 10 25 11
REMARK SMILES IDX 26 12 27 13 28 14 29 15 30 16 14 17 13 18 12 19 11 20 10 21
REMARK SMILES IDX 9 22 8 23 7 24 6 25 5 26 4 27 3 28 2 29 1 30
REMARK H PARENT
REMARK Flexibility Score: inf
ROOT
ATOM      1  C   UNL     1      -3.348  15.987 -10.194  1.00  0.00     0.000 C 
ENDROOT
BRANCH   1   2
ATOM      2  C   UNL     1      -3.433  17.086 -11.267  1.00  0.00     0.000 C 
BRANCH   2   3
ATOM      3  C   UNL     1      -2.980  18.462 -10.744  1.00  0.00     0.000 C 
BRANCH   3   4
ATOM      4  C   UNL     1      -4.108  19.513 -10.801  1.00  0.00     0.000 C 
BRANCH   4   5
ATOM      5  C   UNL     1      -5.517  18.898 -10.785  1.00  0.00     0.000 C 
BRANCH   5   6
ATOM      6  C   UNL     1      -6.623  19.932 -11.038  1.00  0.00     0.000 C 
BRANCH   6   7
ATOM      7  C   UNL     1      -6.702  20.290 -12.527  1.00  0.00     0.000 C 
BRANCH   7   8
ATOM      8  C   UNL     1      -6.222  21.730 -12.777  1.00  0.00     0.000 C 
BRANCH   8   9
ATOM      9  C   UNL     1      -5.669  22.393 -11.506  1.00  0.00     0.000 C 
BRANCH   9  10
ATOM     10  C   UNL     1      -4.575  23.432 -11.809  1.00  0.00     0.000 C 
BRANCH  10  11
ATOM     11  C   UNL     1      -4.871  24.806 -11.182  1.00  0.00     0.000 C 
BRANCH  11  12
ATOM     12  C   UNL     1      -3.784  25.861 -11.493  1.00  0.00     0.006 C 
BRANCH  12  13
ATOM     13  C   UNL     1      -4.199  27.263 -11.036  1.00  0.00     0.053 C 
BRANCH  13  14
ATOM     14  C   UNL     1      -5.674  27.325 -10.789  1.00  0.00     0.041 C 
ATOM     15  O   UNL     1      -6.452  27.709 -11.702  1.00  0.00    -0.550 OA
ATOM     16  O   UNL     1      -6.193  26.902  -9.571  1.00  0.00    -0.550 OA
ENDBRANCH  13  14
ENDBRANCH  12  13
ENDBRANCH  11  12
ENDBRANCH  10  11
ENDBRANCH   9  10
ENDBRANCH   8   9
ENDBRANCH   7   8
ENDBRANCH   6   7
ENDBRANCH   5   6
ENDBRANCH   4   5
ENDBRANCH   3   4
ENDBRANCH   2   3
ENDBRANCH   1   2
BRANCH   1  17
ATOM     17  C   UNL     1      -4.304  14.814 -10.474  1.00  0.00     0.000 C 
BRANCH  17  18
ATOM     18  C   UNL     1      -5.273  15.104 -11.630  1.00  0.00     0.000 C 
BRANCH  18  19
ATOM     19  C   UNL     1      -6.476  15.962 -11.204  1.00  0.00     0.000 C 
BRANCH  19  20
ATOM     20  C   UNL     1      -7.470  16.189 -12.367  1.00  0.00     0.000 C 
BRANCH  20  21
ATOM     21  C   UNL     1      -8.506  15.061 -12.516  1.00  0.00     0.000 C 
BRANCH  21  22
ATOM     22  C   UNL     1      -9.723  15.199 -11.584  1.00  0.00    -0.000 C 
BRANCH  22  23
ATOM     23  C   UNL     1     -10.112  13.883 -10.870  1.00  0.00    -0.000 C 
BRANCH  23  24
ATOM     24  C   UNL     1     -10.741  14.118  -9.485  1.00  0.00    -0.000 C 
BRANCH  24  25
ATOM     25  C   UNL     1     -11.112  15.589  -9.251  1.00  0.00    -0.000 C 
BRANCH  25  26
ATOM     26  C   UNL     1     -10.009  16.376  -8.519  1.00  0.00    -0.000 C 
BRANCH  26  27
ATOM     27  C   UNL     1     -10.549  17.149  -7.308  1.00  0.00    -0.000 C 
BRANCH  27  28
ATOM     28  C   UNL     1     -11.153  16.224  -6.236  1.00  0.00    -0.000 C 
BRANCH  28  29
ATOM     29  C   UNL     1     -12.540  15.694  -6.634  1.00  0.00    -0.003 C 
ATOM     30  C   UNL     1     -13.429  15.407  -5.423  1.00  0.00     0.004 C 
ENDBRANCH  28  29
ENDBRANCH  27  28
ENDBRANCH  26  27
ENDBRANCH  25  26
ENDBRANCH  24  25
ENDBRANCH  23  24
ENDBRANCH  22  23
ENDBRANCH  21  22
ENDBRANCH  20  21
ENDBRANCH  19  20
ENDBRANCH  18  19
ENDBRANCH  17  18
ENDBRANCH   1  17
TORSDOF 26
ENDMDL
MODEL 2
REMARK VINA RESULT:    17.877      3.842      4.910
REMARK INTER + INTRA:          44.480
REMARK INTER:                  45.673
REMARK INTRA:                  -1.193
REMARK UNBOUND:                -0.568
REMARK SMILES CCCCCCCCCCCCCCCCCCCCCCCCCCCC(=O)[O-]
REMARK SMILES IDX 15 1 16 2 17 3 18 4 19 5 20 6 21 7 22 8 23 9 24 10 25 11
REMARK SMILES IDX 26 12 27 13 28 14 29 15 30 16 14 17 13 18 12 19 11 20 10 21
REMARK SMILES IDX 9 22 8 23 7 24 6 25 5 26 4 27 3 28 2 29 1 30
REMARK H PARENT
REMARK Flexibility Score: inf
ROOT
ATOM      1  C   UNL     1      -3.304  15.290  -9.562  1.00  0.00     0.000 C 
ENDROOT
BRANCH   1   2
ATOM      2  C   UNL     1      -2.766  16.472 -10.386  1.00  0.00     0.000 C 
BRANCH   2   3
ATOM      3  C   UNL     1      -3.859  17.500 -10.733  1.00  0.00     0.000 C 
BRANCH   3   4
ATOM      4  C   UNL     1      -3.273  18.868 -11.136  1.00  0.00     0.000 C 
BRANCH   4   5
ATOM      5  C   UNL     1      -4.195  20.051 -10.799  1.00  0.00     0.000 C 
BRANCH   5   6
ATOM      6  C   UNL     1      -5.680  19.663 -10.772  1.00  0.00     0.000 C 
BRANCH   6   7
ATOM      7  C   UNL     1      -6.548  20.793 -11.339  1.00  0.00     0.000 C 
BRANCH   7   8
ATOM      8  C   UNL     1      -6.718  20.652 -12.861  1.00  0.00     0.000 C 
BRANCH   8   9
ATOM      9  C   UNL     1      -6.430  21.963 -13.608  1.00  0.00     0.000 C 
BRANCH   9  10
ATOM     10  C   UNL     1      -6.770  21.877 -15.107  1.00  0.00     0.000 C 
BRANCH  10  11
ATOM     11  C   UNL     1      -6.698  20.438 -15.650  1.00  0.00     0.000 C 
BRANCH  11  12
ATOM     12  C   UNL     1      -5.673  20.273 -16.795  1.00  0.00     0.006 C 
BRANCH  12  13
ATOM     13  C   UNL     1      -6.291  19.597 -18.024  1.00  0.00     0.053 C 
BRANCH  13  14
ATOM     14  C   UNL     1      -5.882  18.159 -18.098  1.00  0.00     0.041 C 
ATOM     15  O   UNL     1      -4.671  17.839 -17.967  1.00  0.00    -0.550 OA
ATOM     16  O   UNL     1      -6.845  17.170 -18.255  1.00  0.00    -0.550 OA
ENDBRANCH  13  14
ENDBRANCH  12  13
ENDBRANCH  11  12
ENDBRANCH  10  11
ENDBRANCH   9  10
ENDBRANCH   8   9
ENDBRANCH   7   8
ENDBRANCH   6   7
ENDBRANCH   5   6
ENDBRANCH   4   5
ENDBRANCH   3   4
ENDBRANCH   2   3
ENDBRANCH   1   2
BRANCH   1  17
ATOM     17  C   UNL     1      -3.549  14.036 -10.420  1.00  0.00     0.000 C 
BRANCH  17  18
ATOM     18  C   UNL     1      -4.962  13.996 -11.019  1.00  0.00     0.000 C 
BRANCH  18  19
ATOM     19  C   UNL     1      -5.349  15.303 -11.731  1.00  0.00     0.000 C 
BRANCH  19  20
ATOM     20  C   UNL     1      -6.765  15.785 -11.335  1.00  0.00     0.000 C 
BRANCH  20  21
ATOM     21  C   UNL     1      -7.648  16.148 -12.541  1.00  0.00     0.000 C 
BRANCH  21  22
ATOM     22  C   UNL     1      -9.145  15.859 -12.333  1.00  0.00    -0.000 C 
BRANCH  22  23
ATOM     23  C   UNL     1      -9.427  14.776 -11.265  1.00  0.00    -0.000 C 
BRANCH  23  24
ATOM     24  C   UNL     1     -10.103  15.341 -10.003  1.00  0.00    -0.000 C 
BRANCH  24  25
ATOM     25  C   UNL     1      -9.116  15.526  -8.841  1.00  0.00    -0.000 C 
BRANCH  25  26
ATOM     26  C   UNL     1      -9.498  16.693  -7.911  1.00  0.00    -0.000 C 
BRANCH  26  27
ATOM     27  C   UNL     1     -11.005  16.990  -7.938  1.00  0.00    -0.000 C 
BRANCH  27  28
ATOM     28  C   UNL     1     -11.584  17.239  -6.534  1.00  0.00    -0.000 C 
BRANCH  28  29
ATOM     29  C   UNL     1     -11.729  15.941  -5.722  1.00  0.00    -0.003 C 
ATOM     30  C   UNL     1     -13.110  15.305  -5.873  1.00  0.00     0.004 C 
ENDBRANCH  28  29
ENDBRANCH  27  28
ENDBRANCH  26  27
ENDBRANCH  25  26
ENDBRANCH  24  25
ENDBRANCH  23  24
ENDBRANCH  22  23
ENDBRANCH  21  22
ENDBRANCH  20  21
ENDBRANCH  19  20
ENDBRANCH  18  19
ENDBRANCH  17  18
ENDBRANCH   1  17
TORSDOF 26
ENDMDL
MODEL 3
REMARK VINA RESULT:    17.971      4.273      9.431
REMARK INTER + INTRA:          44.718
REMARK INTER:                  46.578
REMARK INTRA:                  -1.861
REMARK UNBOUND:                -0.568
REMARK SMILES CCCCCCCCCCCCCCCCCCCCCCCCCCCC(=O)[O-]
REMARK SMILES IDX 15 1 16 2 17 3 18 4 19 5 20 6 21 7 22 8 23 9 24 10 25 11
REMARK SMILES IDX 26 12 27 13 28 14 29 15 30 16 14 17 13 18 12 19 11 20 10 21
REMARK SMILES IDX 9 22 8 23 7 24 6 25 5 26 4 27 3 28 2 29 1 30
REMARK H PARENT
REMARK Flexibility Score: inf
ROOT
ATOM      1  C   UNL     1      -3.202  14.938 -10.502  1.00  0.00     0.000 C 
ENDROOT
BRANCH   1   2
ATOM      2  C   UNL     1      -4.605  14.322 -10.629  1.00  0.00     0.000 C 
BRANCH   2   3
ATOM      3  C   UNL     1      -5.462  15.013 -11.707  1.00  0.00     0.000 C 
BRANCH   3   4
ATOM      4  C   UNL     1      -6.559  15.911 -11.101  1.00  0.00     0.000 C 
BRANCH   4   5
ATOM      5  C   UNL     1      -7.477  16.550 -12.155  1.00  0.00     0.000 C 
BRANCH   5   6
ATOM      6  C   UNL     1      -8.433  15.540 -12.806  1.00  0.00     0.000 C 
BRANCH   6   7
ATOM      7  C   UNL     1      -9.773  15.502 -12.061  1.00  0.00     0.000 C 
BRANCH   7   8
ATOM      8  C   UNL     1      -9.945  14.179 -11.295  1.00  0.00     0.000 C 
BRANCH   8   9
ATOM      9  C   UNL     1     -10.452  14.393  -9.860  1.00  0.00     0.000 C 
BRANCH   9  10
ATOM     10  C   UNL     1     -10.324  15.856  -9.400  1.00  0.00     0.000 C 
BRANCH  10  11
ATOM     11  C   UNL     1     -11.354  16.231  -8.319  1.00  0.00     0.000 C 
BRANCH  11  12
ATOM     12  C   UNL     1     -10.773  16.189  -6.888  1.00  0.00     0.006 C 
BRANCH  12  13
ATOM     13  C   UNL     1     -11.806  16.612  -5.837  1.00  0.00     0.053 C 
BRANCH  13  14
ATOM     14  C   UNL     1     -12.938  15.635  -5.786  1.00  0.00     0.041 C 
ATOM     15  O   UNL     1     -12.809  14.551  -5.156  1.00  0.00    -0.550 OA
ATOM     16  O   UNL     1     -14.153  15.946  -6.382  1.00  0.00    -0.550 OA
ENDBRANCH  13  14
ENDBRANCH  12  13
ENDBRANCH  11  12
ENDBRANCH  10  11
ENDBRANCH   9  10
ENDBRANCH   8   9
ENDBRANCH   7   8
ENDBRANCH   6   7
ENDBRANCH   5   6
ENDBRANCH   4   5
ENDBRANCH   3   4
ENDBRANCH   2   3
ENDBRANCH   1   2
BRANCH   1  17
ATOM     17  C   UNL     1      -3.237  16.379  -9.964  1.00  0.00     0.000 C 
BRANCH  17  18
ATOM     18  C   UNL     1      -3.515  17.414 -11.063  1.00  0.00     0.000 C 
BRANCH  18  19
ATOM     19  C   UNL     1      -2.895  18.790 -10.764  1.00  0.00     0.000 C 
BRANCH  19  20
ATOM     20  C   UNL     1      -3.951  19.920 -10.780  1.00  0.00     0.000 C 
BRANCH  20  21
ATOM     21  C   UNL     1      -5.391  19.410 -10.963  1.00  0.00     0.000 C 
BRANCH  21  22
ATOM     22  C   UNL     1      -6.406  20.511 -11.320  1.00  0.00    -0.000 C 
BRANCH  22  23
ATOM     23  C   UNL     1      -5.819  21.635 -12.206  1.00  0.00    -0.000 C 
BRANCH  23  24
ATOM     24  C   UNL     1      -6.687  21.939 -13.439  1.00  0.00    -0.000 C 
BRANCH  24  25
ATOM     25  C   UNL     1      -6.831  20.725 -14.369  1.00  0.00    -0.000 C 
BRANCH  25  26
ATOM     26  C   UNL     1      -6.683  21.091 -15.858  1.00  0.00    -0.000 C 
BRANCH  26  27
ATOM     27  C   UNL     1      -5.580  20.278 -16.551  1.00  0.00    -0.000 C 
BRANCH  27  28
ATOM     28  C   UNL     1      -6.095  19.508 -17.780  1.00  0.00    -0.000 C 
BRANCH  28  29
ATOM     29  C   UNL     1      -5.767  18.008 -17.711  1.00  0.00    -0.003 C 
ATOM     30  C   UNL     1      -6.853  17.139 -18.344  1.00  0.00     0.004 C 
ENDBRANCH  28  29
ENDBRANCH  27  28
ENDBRANCH  26  27
ENDBRANCH  25  26
ENDBRANCH  24  25
ENDBRANCH  23  24
ENDBRANCH  22  23
ENDBRANCH  21  22
ENDBRANCH  20  21
ENDBRANCH  19  20
ENDBRANCH  18  19
ENDBRANCH  17  18
ENDBRANCH   1  17
TORSDOF 26
ENDMDL
MODEL 4
REMARK VINA RESULT:    18.331      3.779      9.521
REMARK INTER + INTRA:          45.626
REMARK INTER:                  46.913
REMARK INTRA:                  -1.287
REMARK UNBOUND:                -0.568
REMARK SMILES CCCCCCCCCCCCCCCCCCCCCCCCCCCC(=O)[O-]
REMARK SMILES IDX 15 1 16 2 17 3 18 4 19 5 20 6 21 7 22 8 23 9 24 10 25 11
REMARK SMILES IDX 26 12 27 13 28 14 29 15 30 16 14 17 13 18 12 19 11 20 10 21
REMARK SMILES IDX 9 22 8 23 7 24 6 25 5 26 4 27 3 28 2 29 1 30
REMARK H PARENT
REMARK Flexibility Score: inf
ROOT
ATOM      1  C   UNL     1      -3.188  16.687 -10.042  1.00  0.00     0.000 C 
ENDROOT
BRANCH   1   2
ATOM      2  C   UNL     1      -3.103  15.153 -10.123  1.00  0.00     0.000 C 
BRANCH   2   3
ATOM      3  C   UNL     1      -4.457  14.501 -10.463  1.00  0.00     0.000 C 
BRANCH   3   4
ATOM      4  C   UNL     1      -5.095  15.098 -11.733  1.00  0.00     0.000 C 
BRANCH   4   5
ATOM      5  C   UNL     1      -6.482  15.716 -11.488  1.00  0.00     0.000 C 
BRANCH   5   6
ATOM      6  C   UNL     1      -7.420  15.578 -12.695  1.00  0.00     0.000 C 
BRANCH   6   7
ATOM      7  C   UNL     1      -8.886  15.699 -12.261  1.00  0.00     0.000 C 
BRANCH   7   8
ATOM      8  C   UNL     1      -9.426  14.353 -11.750  1.00  0.00     0.000 C 
BRANCH   8   9
ATOM      9  C   UNL     1     -10.466  14.524 -10.631  1.00  0.00     0.000 C 
BRANCH   9  10
ATOM     10  C   UNL     1     -10.410  15.918  -9.981  1.00  0.00     0.000 C 
BRANCH  10  11
ATOM     11  C   UNL     1     -10.353  15.854  -8.444  1.00  0.00     0.000 C 
BRANCH  11  12
ATOM     12  C   UNL     1     -11.675  16.286  -7.769  1.00  0.00     0.006 C 
BRANCH  12  13
ATOM     13  C   UNL     1     -11.616  16.136  -6.245  1.00  0.00     0.053 C 
BRANCH  13  14
ATOM     14  C   UNL     1     -12.886  15.544  -5.722  1.00  0.00     0.041 C 
ATOM     15  O   UNL     1     -13.969  16.180  -5.822  1.00  0.00    -0.550 OA
ATOM     16  O   UNL     1     -12.885  14.265  -5.177  1.00  0.00    -0.550 OA
ENDBRANCH  13  14
ENDBRANCH  12  13
ENDBRANCH  11  12
ENDBRANCH  10  11
ENDBRANCH   9  10
ENDBRANCH   8   9
ENDBRANCH   7   8
ENDBRANCH   6   7
ENDBRANCH   5   6
ENDBRANCH   4   5
ENDBRANCH   3   4
ENDBRANCH   2   3
ENDBRANCH   1   2
BRANCH   1  17
ATOM     17  C   UNL     1      -3.099  17.356 -11.425  1.00  0.00     0.000 C 
BRANCH  17  18
ATOM     18  C   UNL     1      -3.349  18.870 -11.366  1.00  0.00     0.000 C 
BRANCH  18  19
ATOM     19  C   UNL     1      -4.450  19.258 -10.364  1.00  0.00     0.000 C 
BRANCH  19  20
ATOM     20  C   UNL     1      -5.831  18.689 -10.768  1.00  0.00     0.000 C 
BRANCH  20  21
ATOM     21  C   UNL     1      -6.785  19.749 -11.346  1.00  0.00     0.000 C 
BRANCH  21  22
ATOM     22  C   UNL     1      -6.524  20.088 -12.825  1.00  0.00    -0.000 C 
BRANCH  22  23
ATOM     23  C   UNL     1      -6.658  21.594 -13.151  1.00  0.00    -0.000 C 
BRANCH  23  24
ATOM     24  C   UNL     1      -6.303  22.498 -11.957  1.00  0.00    -0.000 C 
BRANCH  24  25
ATOM     25  C   UNL     1      -4.845  22.328 -11.505  1.00  0.00    -0.000 C 
BRANCH  25  26
ATOM     26  C   UNL     1      -4.036  23.636 -11.588  1.00  0.00    -0.000 C 
BRANCH  26  27
ATOM     27  C   UNL     1      -4.878  24.867 -11.223  1.00  0.00    -0.000 C 
BRANCH  27  28
ATOM     28  C   UNL     1      -4.068  26.175 -11.274  1.00  0.00    -0.000 C 
BRANCH  28  29
ATOM     29  C   UNL     1      -4.825  27.358 -10.651  1.00  0.00    -0.003 C 
ATOM     30  C   UNL     1      -5.966  27.859 -11.537  1.00  0.00     0.004 C 
ENDBRANCH  28  29
ENDBRANCH  27  28
ENDBRANCH  26  27
ENDBRANCH  25  26
ENDBRANCH  24  25
ENDBRANCH  23  24
ENDBRANCH  22  23
ENDBRANCH  21  22
ENDBRANCH  20  21
ENDBRANCH  19  20
ENDBRANCH  18  19
ENDBRANCH  17  18
ENDBRANCH   1  17
TORSDOF 26
ENDMDL
MODEL 5
REMARK VINA RESULT:    18.601      3.809      9.770
REMARK INTER + INTRA:          46.305
REMARK INTER:                  47.438
REMARK INTRA:                  -1.133
REMARK UNBOUND:                -0.568
REMARK SMILES CCCCCCCCCCCCCCCCCCCCCCCCCCCC(=O)[O-]
REMARK SMILES IDX 15 1 16 2 17 3 18 4 19 5 20 6 21 7 22 8 23 9 24 10 25 11
REMARK SMILES IDX 26 12 27 13 28 14 29 15 30 16 14 17 13 18 12 19 11 20 10 21
REMARK SMILES IDX 9 22 8 23 7 24 6 25 5 26 4 27 3 28 2 29 1 30
REMARK H PARENT
REMARK Flexibility Score: inf
ROOT
ATOM      1  C   UNL     1      -3.503  14.678 -10.596  1.00  0.00     0.000 C 
ENDROOT
BRANCH   1   2
ATOM      2  C   UNL     1      -4.900  14.307 -11.121  1.00  0.00     0.000 C 
BRANCH   2   3
ATOM      3  C   UNL     1      -5.859  15.512 -11.159  1.00  0.00     0.000 C 
BRANCH   3   4
ATOM      4  C   UNL     1      -6.428  15.766 -12.569  1.00  0.00     0.000 C 
BRANCH   4   5
ATOM      5  C   UNL     1      -7.928  16.103 -12.571  1.00  0.00     0.000 C 
BRANCH   5   6
ATOM      6  C   UNL     1      -8.813  14.894 -12.236  1.00  0.00     0.000 C 
BRANCH   6   7
ATOM      7  C   UNL     1     -10.128  15.345 -11.590  1.00  0.00     0.000 C 
BRANCH   7   8
ATOM      8  C   UNL     1     -10.679  14.266 -10.642  1.00  0.00     0.000 C 
BRANCH   8   9
ATOM      9  C   UNL     1     -10.236  14.482  -9.187  1.00  0.00     0.000 C 
BRANCH   9  10
ATOM     10  C   UNL     1      -9.357  15.734  -9.015  1.00  0.00     0.000 C 
BRANCH  10  11
ATOM     11  C   UNL     1      -9.686  16.518  -7.732  1.00  0.00     0.000 C 
BRANCH  11  12
ATOM     12  C   UNL     1     -11.204  16.650  -7.474  1.00  0.00     0.006 C 
BRANCH  12  13
ATOM     13  C   UNL     1     -11.565  16.352  -6.015  1.00  0.00     0.053 C 
BRANCH  13  14
ATOM     14  C   UNL     1     -12.832  15.560  -5.934  1.00  0.00     0.041 C 
ATOM     15  O   UNL     1     -13.811  15.857  -6.670  1.00  0.00    -0.550 OA
ATOM     16  O   UNL     1     -12.913  14.460  -5.089  1.00  0.00    -0.550 OA
ENDBRANCH  13  14
ENDBRANCH  12  13
ENDBRANCH  11  12
ENDBRANCH  10  11
ENDBRANCH   9  10
ENDBRANCH   8   9
ENDBRANCH   7   8
ENDBRANCH   6   7
ENDBRANCH   5   6
ENDBRANCH   4   5
ENDBRANCH   3   4
ENDBRANCH   2   3
ENDBRANCH   1   2
BRANCH   1  17
ATOM     17  C   UNL     1      -3.463  16.082  -9.967  1.00  0.00     0.000 C 
BRANCH  17  18
ATOM     18  C   UNL     1      -3.581  17.201 -11.011  1.00  0.00     0.000 C 
BRANCH  18  19
ATOM     19  C   UNL     1      -2.905  18.510 -10.568  1.00  0.00     0.000 C 
BRANCH  19  20
ATOM     20  C   UNL     1      -3.687  19.758 -11.040  1.00  0.00     0.000 C 
BRANCH  20  21
ATOM     21  C   UNL     1      -5.211  19.625 -10.874  1.00  0.00     0.000 C 
BRANCH  21  22
ATOM     22  C   UNL     1      -6.011  20.801 -11.463  1.00  0.00    -0.000 C 
BRANCH  22  23
ATOM     23  C   UNL     1      -5.175  22.088 -11.653  1.00  0.00    -0.000 C 
BRANCH  23  24
ATOM     24  C   UNL     1      -6.043  23.328 -11.936  1.00  0.00    -0.000 C 
BRANCH  24  25
ATOM     25  C   UNL     1      -5.429  24.616 -11.368  1.00  0.00    -0.000 C 
BRANCH  25  26
ATOM     26  C   UNL     1      -6.481  25.566 -10.767  1.00  0.00    -0.000 C 
BRANCH  26  27
ATOM     27  C   UNL     1      -6.178  27.041 -11.074  1.00  0.00    -0.000 C 
BRANCH  27  28
ATOM     28  C   UNL     1      -4.723  27.426 -10.750  1.00  0.00    -0.000 C 
BRANCH  28  29
ATOM     29  C   UNL     1      -4.484  27.597  -9.241  1.00  0.00    -0.003 C 
ATOM     30  C   UNL     1      -3.043  27.290  -8.836  1.00  0.00     0.004 C 
ENDBRANCH  28  29
ENDBRANCH  27  28
ENDBRANCH  26  27
ENDBRANCH  25  26
ENDBRANCH  24  25
ENDBRANCH  23  24
ENDBRANCH  22  23
ENDBRANCH  21  22
ENDBRANCH  20  21
ENDBRANCH  19  20
ENDBRANCH  18  19
ENDBRANCH  17  18
ENDBRANCH   1  17
TORSDOF 26
ENDMDL
MODEL 6
REMARK VINA RESULT:    19.026      4.246      9.029
REMARK INTER + INTRA:          47.375
REMARK INTER:                  49.108
REMARK INTRA:                  -1.733
REMARK UNBOUND:                -0.568
REMARK SMILES CCCCCCCCCCCCCCCCCCCCCCCCCCCC(=O)[O-]
REMARK SMILES IDX 15 1 16 2 17 3 18 4 19 5 20 6 21 7 22 8 23 9 24 10 25 11
REMARK SMILES IDX 26 12 27 13 28 14 29 15 30 16 14 17 13 18 12 19 11 20 10 21
REMARK SMILES IDX 9 22 8 23 7 24 6 25 5 26 4 27 3 28 2 29 1 30
REMARK H PARENT
REMARK Flexibility Score: inf
ROOT
ATOM      1  C   UNL     1      -5.135  14.828 -11.353  1.00  0.00     0.000 C 
ENDROOT
BRANCH   1   2
ATOM      2  C   UNL     1      -5.953  15.829 -10.521  1.00  0.00     0.000 C 
BRANCH   2   3
ATOM      3  C   UNL     1      -6.692  16.862 -11.393  1.00  0.00     0.000 C 
BRANCH   3   4
ATOM      4  C   UNL     1      -7.086  16.293 -12.771  1.00  0.00     0.000 C 
BRANCH   4   5
ATOM      5  C   UNL     1      -8.519  16.655 -13.194  1.00  0.00     0.000 C 
BRANCH   5   6
ATOM      6  C   UNL     1      -9.468  15.448 -13.180  1.00  0.00     0.000 C 
BRANCH   6   7
ATOM      7  C   UNL     1      -9.272  14.617 -11.907  1.00  0.00     0.000 C 
BRANCH   7   8
ATOM      8  C   UNL     1     -10.609  14.388 -11.182  1.00  0.00     0.000 C 
BRANCH   8   9
ATOM      9  C   UNL     1     -10.487  14.556  -9.659  1.00  0.00     0.000 C 
BRANCH   9  10
ATOM     10  C   UNL     1      -9.852  15.900  -9.261  1.00  0.00     0.000 C 
BRANCH  10  11
ATOM     11  C   UNL     1      -9.923  16.165  -7.747  1.00  0.00     0.000 C 
BRANCH  11  12
ATOM     12  C   UNL     1     -11.145  17.019  -7.338  1.00  0.00     0.006 C 
BRANCH  12  13
ATOM     13  C   UNL     1     -11.676  16.634  -5.953  1.00  0.00     0.053 C 
BRANCH  13  14
ATOM     14  C   UNL     1     -12.689  15.538  -6.061  1.00  0.00     0.041 C 
ATOM     15  O   UNL     1     -13.166  15.226  -7.184  1.00  0.00    -0.550 OA
ATOM     16  O   UNL     1     -13.063  14.822  -4.930  1.00  0.00    -0.550 OA
ENDBRANCH  13  14
ENDBRANCH  12  13
ENDBRANCH  11  12
ENDBRANCH  10  11
ENDBRANCH   9  10
ENDBRANCH   8   9
ENDBRANCH   7   8
ENDBRANCH   6   7
ENDBRANCH   5   6
ENDBRANCH   4   5
ENDBRANCH   3   4
ENDBRANCH   2   3
ENDBRANCH   1   2
BRANCH   1  17
ATOM     17  C   UNL     1      -4.070  14.096 -10.516  1.00  0.00     0.000 C 
BRANCH  17  18
ATOM     18  C   UNL     1      -2.844  14.973 -10.223  1.00  0.00     0.000 C 
BRANCH  18  19
ATOM     19  C   UNL     1      -3.216  16.411  -9.822  1.00  0.00     0.000 C 
BRANCH  19  20
ATOM     20  C   UNL     1      -2.967  17.419 -10.969  1.00  0.00     0.000 C 
BRANCH  20  21
ATOM     21  C   UNL     1      -3.841  18.682 -10.875  1.00  0.00     0.000 C 
BRANCH  21  22
ATOM     22  C   UNL     1      -3.056  19.964 -10.544  1.00  0.00    -0.000 C 
BRANCH  22  23
ATOM     23  C   UNL     1      -3.951  21.215 -10.378  1.00  0.00    -0.000 C 
BRANCH  23  24
ATOM     24  C   UNL     1      -4.990  21.360 -11.503  1.00  0.00    -0.000 C 
BRANCH  24  25
ATOM     25  C   UNL     1      -6.267  20.551 -11.232  1.00  0.00    -0.000 C 
BRANCH  25  26
ATOM     26  C   UNL     1      -7.032  20.190 -12.518  1.00  0.00    -0.000 C 
BRANCH  26  27
ATOM     27  C   UNL     1      -6.232  20.525 -13.786  1.00  0.00    -0.000 C 
BRANCH  27  28
ATOM     28  C   UNL     1      -7.038  21.370 -14.788  1.00  0.00    -0.000 C 
BRANCH  28  29
ATOM     29  C   UNL     1      -7.457  22.729 -14.205  1.00  0.00    -0.003 C 
ATOM     30  C   UNL     1      -7.897  23.720 -15.283  1.00  0.00     0.004 C 
ENDBRANCH  28  29
ENDBRANCH  27  28
ENDBRANCH  26  27
ENDBRANCH  25  26
ENDBRANCH  24  25
ENDBRANCH  23  24
ENDBRANCH  22  23
ENDBRANCH  21  22
ENDBRANCH  20  21
ENDBRANCH  19  20
ENDBRANCH  18  19
ENDBRANCH  17  18
ENDBRANCH   1  17
TORSDOF 26
ENDMDL
MODEL 7
REMARK VINA RESULT:    19.307      3.253      9.340
REMARK INTER + INTRA:          48.085
REMARK INTER:                  46.666
REMARK INTRA:                   1.418
REMARK UNBOUND:                -0.568
REMARK SMILES CCCCCCCCCCCCCCCCCCCCCCCCCCCC(=O)[O-]
REMARK SMILES IDX 15 1 16 2 17 3 18 4 19 5 20 6 21 7 22 8 23 9 24 10 25 11
REMARK SMILES IDX 26 12 27 13 28 14 29 15 30 16 14 17 13 18 12 19 11 20 10 21
REMARK SMILES IDX 9 22 8 23 7 24 6 25 5 26 4 27 3 28 2 29 1 30
REMARK H PARENT
REMARK Flexibility Score: inf
ROOT
ATOM      1  C   UNL     1      -2.999  17.948 -10.763  1.00  0.00     0.000 C 
ENDROOT
BRANCH   1   2
ATOM      2  C   UNL     1      -3.736  16.650 -10.391  1.00  0.00     0.000 C 
BRANCH   2   3
ATOM      3  C   UNL     1      -2.794  15.434 -10.315  1.00  0.00     0.000 C 
BRANCH   3   4
ATOM      4  C   UNL     1      -3.560  14.108 -10.135  1.00  0.00     0.000 C 
BRANCH   4   5
ATOM      5  C   UNL     1      -4.725  13.936 -11.124  1.00  0.00     0.000 C 
BRANCH   5   6
ATOM      6  C   UNL     1      -5.449  15.255 -11.429  1.00  0.00     0.000 C 
BRANCH   6   7
ATOM      7  C   UNL     1      -6.618  15.022 -12.394  1.00  0.00     0.000 C 
BRANCH   7   8
ATOM      8  C   UNL     1      -7.534  16.255 -12.464  1.00  0.00     0.000 C 
BRANCH   8   9
ATOM      9  C   UNL     1      -8.975  15.895 -12.859  1.00  0.00     0.000 C 
BRANCH   9  10
ATOM     10  C   UNL     1      -9.286  14.401 -12.663  1.00  0.00     0.000 C 
BRANCH  10  11
ATOM     11  C   UNL     1      -9.753  14.074 -11.233  1.00  0.00     0.000 C 
BRANCH  11  12
ATOM     12  C   UNL     1     -10.445  15.267 -10.534  1.00  0.00     0.006 C 
BRANCH  12  13
ATOM     13  C   UNL     1     -10.580  15.047  -9.024  1.00  0.00     0.053 C 
BRANCH  13  14
ATOM     14  C   UNL     1      -9.987  16.193  -8.267  1.00  0.00     0.041 C 
ATOM     15  O   UNL     1      -8.736  16.304  -8.166  1.00  0.00    -0.550 OA
ATOM     16  O   UNL     1     -10.813  17.170  -7.724  1.00  0.00    -0.550 OA
ENDBRANCH  13  14
ENDBRANCH  12  13
ENDBRANCH  11  12
ENDBRANCH  10  11
ENDBRANCH   9  10
ENDBRANCH   8   9
ENDBRANCH   7   8
ENDBRANCH   6   7
ENDBRANCH   5   6
ENDBRANCH   4   5
ENDBRANCH   3   4
ENDBRANCH   2   3
ENDBRANCH   1   2
BRANCH   1  17
ATOM     17  C   UNL     1      -3.961  19.127 -10.994  1.00  0.00     0.000 C 
BRANCH  17  18
ATOM     18  C   UNL     1      -5.432  18.737 -10.791  1.00  0.00     0.000 C 
BRANCH  18  19
ATOM     19  C   UNL     1      -6.412  19.830 -11.251  1.00  0.00     0.000 C 
BRANCH  19  20
ATOM     20  C   UNL     1      -7.130  19.451 -12.568  1.00  0.00     0.000 C 
BRANCH  20  21
ATOM     21  C   UNL     1      -6.825  20.413 -13.730  1.00  0.00     0.000 C 
BRANCH  21  22
ATOM     22  C   UNL     1      -6.482  21.845 -13.285  1.00  0.00    -0.000 C 
BRANCH  22  23
ATOM     23  C   UNL     1      -6.162  21.968 -11.776  1.00  0.00    -0.000 C 
BRANCH  23  24
ATOM     24  C   UNL     1      -4.809  22.651 -11.506  1.00  0.00    -0.000 C 
BRANCH  24  25
ATOM     25  C   UNL     1      -4.946  24.167 -11.305  1.00  0.00    -0.000 C 
BRANCH  25  26
ATOM     26  C   UNL     1      -3.665  24.938 -11.671  1.00  0.00    -0.000 C 
BRANCH  26  27
ATOM     27  C   UNL     1      -3.611  26.325 -11.014  1.00  0.00    -0.000 C 
BRANCH  27  28
ATOM     28  C   UNL     1      -5.009  26.927 -10.786  1.00  0.00    -0.000 C 
BRANCH  28  29
ATOM     29  C   UNL     1      -5.198  28.266 -11.518  1.00  0.00    -0.003 C 
ATOM     30  C   UNL     1      -6.602  28.425 -12.100  1.00  0.00     0.004 C 
ENDBRANCH  28  29
ENDBRANCH  27  28
ENDBRANCH  26  27
ENDBRANCH  25  26
ENDBRANCH  24  25
ENDBRANCH  23  24
ENDBRANCH  22  23
ENDBRANCH  21  22
ENDBRANCH  20  21
ENDBRANCH  19  20
ENDBRANCH  18  19
ENDBRANCH  17  18
ENDBRANCH   1  17
TORSDOF 26
ENDMDL
MODEL 8
REMARK VINA RESULT:    19.337      2.658      4.434
REMARK INTER + INTRA:          48.161
REMARK INTER:                  46.763
REMARK INTRA:                   1.397
REMARK UNBOUND:                -0.568
REMARK SMILES CCCCCCCCCCCCCCCCCCCCCCCCCCCC(=O)[O-]
REMARK SMILES IDX 15 1 16 2 17 3 18 4 19 5 20 6 21 7 22 8 23 9 24 10 25 11
REMARK SMILES IDX 26 12 27 13 28 14 29 15 30 16 14 17 13 18 12 19 11 20 10 21
REMARK SMILES IDX 9 22 8 23 7 24 6 25 5 26 4 27 3 28 2 29 1 30
REMARK H PARENT
REMARK Flexibility Score: inf
ROOT
ATOM      1  C   UNL     1      -5.863  15.603 -11.806  1.00  0.00     0.000 C 
ENDROOT
BRANCH   1   2
ATOM      2  C   UNL     1      -4.772  14.565 -11.494  1.00  0.00     0.000 C 
BRANCH   2   3
ATOM      3  C   UNL     1      -4.952  13.912 -10.111  1.00  0.00     0.000 C 
BRANCH   3   4
ATOM      4  C   UNL     1      -3.639  13.875  -9.303  1.00  0.00     0.000 C 
BRANCH   4   5
ATOM      5  C   UNL     1      -2.396  14.216 -10.141  1.00  0.00     0.000 C 
BRANCH   5   6
ATOM      6  C   UNL     1      -2.542  15.531 -10.920  1.00  0.00     0.000 C 
BRANCH   6   7
ATOM      7  C   UNL     1      -2.984  16.667  -9.989  1.00  0.00     0.000 C 
BRANCH   7   8
ATOM      8  C   UNL     1      -3.748  17.754 -10.764  1.00  0.00     0.000 C 
BRANCH   8   9
ATOM      9  C   UNL     1      -3.392  19.172 -10.291  1.00  0.00     0.000 C 
BRANCH   9  10
ATOM     10  C   UNL     1      -3.546  20.222 -11.405  1.00  0.00     0.000 C 
BRANCH  10  11
ATOM     11  C   UNL     1      -4.129  21.552 -10.892  1.00  0.00     0.000 C 
BRANCH  11  12
ATOM     12  C   UNL     1      -5.548  21.840 -11.432  1.00  0.00     0.006 C 
BRANCH  12  13
ATOM     13  C   UNL     1      -6.417  20.578 -11.465  1.00  0.00     0.053 C 
BRANCH  13  14
ATOM     14  C   UNL     1      -6.845  20.266 -12.864  1.00  0.00     0.041 C 
ATOM     15  O   UNL     1      -7.299  19.126 -13.147  1.00  0.00    -0.550 OA
ATOM     16  O   UNL     1      -6.797  21.252 -13.842  1.00  0.00    -0.550 OA
ENDBRANCH  13  14
ENDBRANCH  12  13
ENDBRANCH  11  12
ENDBRANCH  10  11
ENDBRANCH   9  10
ENDBRANCH   8   9
ENDBRANCH   7   8
ENDBRANCH   6   7
ENDBRANCH   5   6
ENDBRANCH   4   5
ENDBRANCH   3   4
ENDBRANCH   2   3
ENDBRANCH   1   2
BRANCH   1  17
ATOM     17  C   UNL     1      -7.052  14.997 -12.573  1.00  0.00     0.000 C 
BRANCH  17  18
ATOM     18  C   UNL     1      -8.188  16.006 -12.794  1.00  0.00     0.000 C 
BRANCH  18  19
ATOM     19  C   UNL     1      -9.575  15.344 -12.859  1.00  0.00     0.000 C 
BRANCH  19  20
ATOM     20  C   UNL     1      -9.730  14.213 -11.813  1.00  0.00     0.000 C 
BRANCH  20  21
ATOM     21  C   UNL     1     -10.921  14.419 -10.861  1.00  0.00     0.000 C 
BRANCH  21  22
ATOM     22  C   UNL     1     -10.608  15.314  -9.649  1.00  0.00    -0.000 C 
BRANCH  22  23
ATOM     23  C   UNL     1      -9.243  15.011  -8.988  1.00  0.00    -0.000 C 
BRANCH  23  24
ATOM     24  C   UNL     1      -8.478  16.284  -8.584  1.00  0.00    -0.000 C 
BRANCH  24  25
ATOM     25  C   UNL     1      -9.328  17.231  -7.723  1.00  0.00    -0.000 C 
BRANCH  25  26
ATOM     26  C   UNL     1     -10.830  16.892  -7.765  1.00  0.00    -0.000 C 
BRANCH  26  27
ATOM     27  C   UNL     1     -11.299  16.164  -6.497  1.00  0.00    -0.000 C 
BRANCH  27  28
ATOM     28  C   UNL     1     -12.727  15.604  -6.630  1.00  0.00    -0.000 C 
BRANCH  28  29
ATOM     29  C   UNL     1     -13.426  15.455  -5.269  1.00  0.00    -0.003 C 
ATOM     30  C   UNL     1     -13.168  14.095  -4.622  1.00  0.00     0.004 C 
ENDBRANCH  28  29
ENDBRANCH  27  28
ENDBRANCH  26  27
ENDBRANCH  25  26
ENDBRANCH  24  25
ENDBRANCH  23  24
ENDBRANCH  22  23
ENDBRANCH  21  22
ENDBRANCH  20  21
ENDBRANCH  19  20
ENDBRANCH  18  19
ENDBRANCH  17  18
ENDBRANCH   1  17
TORSDOF 26
ENDMDL
MODEL 9
REMARK VINA RESULT:    19.820      3.869      9.936
REMARK INTER + INTRA:          49.377
REMARK INTER:                  49.171
REMARK INTRA:                   0.206
REMARK UNBOUND:                -0.568
REMARK SMILES CCCCCCCCCCCCCCCCCCCCCCCCCCCC(=O)[O-]
REMARK SMILES IDX 15 1 16 2 17 3 18 4 19 5 20 6 21 7 22 8 23 9 24 10 25 11
REMARK SMILES IDX 26 12 27 13 28 14 29 15 30 16 14 17 13 18 12 19 11 20 10 21
REMARK SMILES IDX 9 22 8 23 7 24 6 25 5 26 4 27 3 28 2 29 1 30
REMARK H PARENT
REMARK Flexibility Score: inf
ROOT
ATOM      1  C   UNL     1      -3.100  16.947 -10.968  1.00  0.00     0.000 C 
ENDROOT
BRANCH   1   2
ATOM      2  C   UNL     1      -3.083  15.892  -9.850  1.00  0.00     0.000 C 
BRANCH   2   3
ATOM      3  C   UNL     1      -3.424  14.479 -10.361  1.00  0.00     0.000 C 
BRANCH   3   4
ATOM      4  C   UNL     1      -4.813  14.414 -11.028  1.00  0.00     0.000 C 
BRANCH   4   5
ATOM      5  C   UNL     1      -5.359  15.792 -11.436  1.00  0.00     0.000 C 
BRANCH   5   6
ATOM      6  C   UNL     1      -6.805  16.023 -10.974  1.00  0.00     0.000 C 
BRANCH   6   7
ATOM      7  C   UNL     1      -7.755  16.089 -12.176  1.00  0.00     0.000 C 
BRANCH   7   8
ATOM      8  C   UNL     1      -9.155  15.571 -11.806  1.00  0.00     0.000 C 
BRANCH   8   9
ATOM      9  C   UNL     1      -9.258  15.163 -10.328  1.00  0.00     0.000 C 
BRANCH   9  10
ATOM     10  C   UNL     1     -10.693  15.273  -9.783  1.00  0.00     0.000 C 
BRANCH  10  11
ATOM     11  C   UNL     1     -10.920  16.559  -8.967  1.00  0.00     0.000 C 
BRANCH  11  12
ATOM     12  C   UNL     1     -10.621  16.382  -7.461  1.00  0.00     0.006 C 
BRANCH  12  13
ATOM     13  C   UNL     1     -11.812  16.790  -6.588  1.00  0.00     0.053 C 
BRANCH  13  14
ATOM     14  C   UNL     1     -12.665  15.602  -6.267  1.00  0.00     0.041 C 
ATOM     15  O   UNL     1     -12.684  14.611  -7.044  1.00  0.00    -0.550 OA
ATOM     16  O   UNL     1     -13.391  15.567  -5.084  1.00  0.00    -0.550 OA
ENDBRANCH  13  14
ENDBRANCH  12  13
ENDBRANCH  11  12
ENDBRANCH  10  11
ENDBRANCH   9  10
ENDBRANCH   8   9
ENDBRANCH   7   8
ENDBRANCH   6   7
ENDBRANCH   5   6
ENDBRANCH   4   5
ENDBRANCH   3   4
ENDBRANCH   2   3
ENDBRANCH   1   2
BRANCH   1  17
ATOM     17  C   UNL     1      -3.229  18.381 -10.424  1.00  0.00     0.000 C 
BRANCH  17  18
ATOM     18  C   UNL     1      -4.303  19.197 -11.158  1.00  0.00     0.000 C 
BRANCH  18  19
ATOM     19  C   UNL     1      -5.734  18.819 -10.742  1.00  0.00     0.000 C 
BRANCH  19  20
ATOM     20  C   UNL     1      -6.799  19.657 -11.489  1.00  0.00     0.000 C 
BRANCH  20  21
ATOM     21  C   UNL     1      -6.199  20.786 -12.345  1.00  0.00     0.000 C 
BRANCH  21  22
ATOM     22  C   UNL     1      -6.128  22.146 -11.630  1.00  0.00    -0.000 C 
BRANCH  22  23
ATOM     23  C   UNL     1      -4.824  22.929 -11.910  1.00  0.00    -0.000 C 
BRANCH  23  24
ATOM     24  C   UNL     1      -4.753  24.266 -11.150  1.00  0.00    -0.000 C 
BRANCH  24  25
ATOM     25  C   UNL     1      -3.562  25.130 -11.590  1.00  0.00    -0.000 C 
BRANCH  25  26
ATOM     26  C   UNL     1      -3.861  26.639 -11.526  1.00  0.00    -0.000 C 
BRANCH  26  27
ATOM     27  C   UNL     1      -4.832  26.993 -10.390  1.00  0.00    -0.000 C 
BRANCH  27  28
ATOM     28  C   UNL     1      -6.229  27.385 -10.906  1.00  0.00    -0.000 C 
BRANCH  28  29
ATOM     29  C   UNL     1      -6.163  28.292 -12.146  1.00  0.00    -0.003 C 
ATOM     30  C   UNL     1      -5.415  29.598 -11.879  1.00  0.00     0.004 C 
ENDBRANCH  28  29
ENDBRANCH  27  28
ENDBRANCH  26  27
ENDBRANCH  25  26
ENDBRANCH  24  25
ENDBRANCH  23  24
ENDBRANCH  22  23
ENDBRANCH  21  22
ENDBRANCH  20  21
ENDBRANCH  19  20
ENDBRANCH  18  19
ENDBRANCH  17  18
ENDBRANCH   1  17
TORSDOF 26
ENDMDL
