MODEL 1
REMARK VINA RESULT:    -1.643      0.000      0.000
REMARK INTER + INTRA:          -5.374
REMARK INTER:                  -3.564
REMARK INTRA:                  -1.809
REMARK UNBOUND:                -1.809
REMARK SMILES CCCCCCCCCCCCCCCCCCCCCC(=O)[O-]
REMARK SMILES IDX 12 1 11 2 10 3 9 4 8 5 7 6 6 7 5 8 4 9 3 10 2 11 1 12 13 13
REMARK SMILES IDX 14 14 15 15 16 16 17 17 18 18 19 19 20 20 21 21 22 22 23 23
REMARK SMILES IDX 24 24
REMARK H PARENT
REMARK Flexibility Score: inf
ROOT
ATOM      1  C   UNL     1       2.434  -6.764  -9.715  1.00  0.00     0.000 C 
ENDROOT
BRANCH   1   2
ATOM      2  C   UNL     1       2.941  -8.155  -9.309  1.00  0.00     0.000 C 
BRANCH   2   3
ATOM      3  C   UNL     1       4.166  -8.601 -10.125  1.00  0.00     0.000 C 
BRANCH   3   4
ATOM      4  C   UNL     1       5.431  -8.743  -9.265  1.00  0.00    -0.000 C 
BRANCH   4   5
ATOM      5  C   UNL     1       5.752  -7.424  -8.544  1.00  0.00    -0.000 C 
BRANCH   5   6
ATOM      6  C   UNL     1       7.060  -7.488  -7.739  1.00  0.00    -0.000 C 
BRANCH   6   7
ATOM      7  C   UNL     1       7.741  -8.871  -7.712  1.00  0.00    -0.000 C 
BRANCH   7   8
ATOM      8  C   UNL     1       8.594  -9.123  -6.450  1.00  0.00    -0.000 C 
BRANCH   8   9
ATOM      9  C   UNL     1       7.899  -8.637  -5.170  1.00  0.00    -0.000 C 
BRANCH   9  10
ATOM     10  C   UNL     1       8.858  -8.675  -3.972  1.00  0.00    -0.000 C 
BRANCH  10  11
ATOM     11  C   UNL     1       8.118  -8.713  -2.626  1.00  0.00    -0.003 C 
ATOM     12  C   UNL     1       9.066  -8.729  -1.427  1.00  0.00     0.004 C 
ENDBRANCH  10  11
ENDBRANCH   9  10
ENDBRANCH   8   9
ENDBRANCH   7   8
ENDBRANCH   6   7
ENDBRANCH   5   6
ENDBRANCH   4   5
ENDBRANCH   3   4
ENDBRANCH   2   3
ENDBRANCH   1   2
BRANCH   1  13
ATOM     13  C   UNL     1       3.600  -5.851 -10.120  1.00  0.00     0.000 C 
BRANCH  13  14
ATOM     14  C   UNL     1       3.267  -4.353  -9.987  1.00  0.00     0.000 C 
BRANCH  14  15
ATOM     15  C   UNL     1       4.254  -3.536  -9.133  1.00  0.00     0.000 C 
BRANCH  15  16
ATOM     16  C   UNL     1       5.176  -2.639  -9.977  1.00  0.00     0.000 C 
BRANCH  16  17
ATOM     17  C   UNL     1       6.651  -2.716  -9.541  1.00  0.00     0.000 C 
BRANCH  17  18
ATOM     18  C   UNL     1       7.444  -3.900 -10.122  1.00  0.00     0.000 C 
BRANCH  18  19
ATOM     19  C   UNL     1       8.414  -4.529  -9.106  1.00  0.00     0.000 C 
BRANCH  19  20
ATOM     20  C   UNL     1       8.151  -4.054  -7.668  1.00  0.00     0.006 C 
BRANCH  20  21
ATOM     21  C   UNL     1       9.049  -4.758  -6.644  1.00  0.00     0.053 C 
BRANCH  21  22
ATOM     22  C   UNL     1       8.318  -4.946  -5.352  1.00  0.00     0.041 C 
ATOM     23  O   UNL     1       8.946  -4.939  -4.261  1.00  0.00    -0.550 OA
ATOM     24  O   UNL     1       6.948  -5.178  -5.357  1.00  0.00    -0.550 OA
ENDBRANCH  21  22
ENDBRANCH  20  21
ENDBRANCH  19  20
ENDBRANCH  18  19
ENDBRANCH  17  18
ENDBRANCH  16  17
ENDBRANCH  15  16
ENDBRANCH  14  15
ENDBRANCH  13  14
ENDBRANCH   1  13
TORSDOF 20
ENDMDL
MODEL 2
REMARK VINA RESULT:    -0.929      3.733      6.723
REMARK INTER + INTRA:          -3.825
REMARK INTER:                  -2.219
REMARK INTRA:                  -1.605
REMARK UNBOUND:                -1.809
REMARK SMILES CCCCCCCCCCCCCCCCCCCCCC(=O)[O-]
REMARK SMILES IDX 12 1 11 2 10 3 9 4 8 5 7 6 6 7 5 8 4 9 3 10 2 11 1 12 13 13
REMARK SMILES IDX 14 14 15 15 16 16 17 17 18 18 19 19 20 20 21 21 22 22 23 23
REMARK SMILES IDX 24 24
REMARK H PARENT
REMARK Flexibility Score: inf
ROOT
ATOM      1  C   UNL     1       5.181  -7.453  -4.646  1.00  0.00     0.000 C 
ENDROOT
BRANCH   1   2
ATOM      2  C   UNL     1       6.310  -8.176  -3.897  1.00  0.00     0.000 C 
BRANCH   2   3
ATOM      3  C   UNL     1       6.129  -8.135  -2.371  1.00  0.00     0.000 C 
BRANCH   3   4
ATOM      4  C   UNL     1       7.338  -8.706  -1.616  1.00  0.00    -0.000 C 
BRANCH   4   5
ATOM      5  C   UNL     1       6.944  -9.125  -0.190  1.00  0.00    -0.000 C 
BRANCH   5   6
ATOM      6  C   UNL     1       5.478  -8.798   0.143  1.00  0.00    -0.000 C 
BRANCH   6   7
ATOM      7  C   UNL     1       5.159  -8.701   1.649  1.00  0.00    -0.000 C 
BRANCH   7   8
ATOM      8  C   UNL     1       5.175  -7.259   2.199  1.00  0.00    -0.000 C 
BRANCH   8   9
ATOM      9  C   UNL     1       5.397  -7.218   3.718  1.00  0.00    -0.000 C 
BRANCH   9  10
ATOM     10  C   UNL     1       6.768  -7.800   4.092  1.00  0.00    -0.000 C 
BRANCH  10  11
ATOM     11  C   UNL     1       7.038  -7.745   5.604  1.00  0.00    -0.003 C 
ATOM     12  C   UNL     1       7.864  -6.526   6.015  1.00  0.00     0.004 C 
ENDBRANCH  10  11
ENDBRANCH   9  10
ENDBRANCH   8   9
ENDBRANCH   7   8
ENDBRANCH   6   7
ENDBRANCH   5   6
ENDBRANCH   4   5
ENDBRANCH   3   4
ENDBRANCH   2   3
ENDBRANCH   1   2
BRANCH   1  13
ATOM     13  C   UNL     1       5.627  -7.059  -6.062  1.00  0.00     0.000 C 
BRANCH  13  14
ATOM     14  C   UNL     1       6.388  -8.183  -6.790  1.00  0.00     0.000 C 
BRANCH  14  15
ATOM     15  C   UNL     1       7.510  -7.711  -7.733  1.00  0.00     0.000 C 
BRANCH  15  16
ATOM     16  C   UNL     1       7.440  -8.367  -9.123  1.00  0.00     0.000 C 
BRANCH  16  17
ATOM     17  C   UNL     1       6.487  -7.633 -10.085  1.00  0.00     0.000 C 
BRANCH  17  18
ATOM     18  C   UNL     1       4.988  -7.803  -9.778  1.00  0.00     0.000 C 
BRANCH  18  19
ATOM     19  C   UNL     1       4.217  -6.471  -9.796  1.00  0.00     0.000 C 
BRANCH  19  20
ATOM     20  C   UNL     1       5.147  -5.254  -9.926  1.00  0.00     0.006 C 
BRANCH  20  21
ATOM     21  C   UNL     1       5.365  -4.537  -8.588  1.00  0.00     0.053 C 
BRANCH  21  22
ATOM     22  C   UNL     1       6.820  -4.263  -8.375  1.00  0.00     0.041 C 
ATOM     23  O   UNL     1       7.587  -4.097  -9.360  1.00  0.00    -0.550 OA
ATOM     24  O   UNL     1       7.341  -4.237  -7.087  1.00  0.00    -0.550 OA
ENDBRANCH  21  22
ENDBRANCH  20  21
ENDBRANCH  19  20
ENDBRANCH  18  19
ENDBRANCH  17  18
ENDBRANCH  16  17
ENDBRANCH  15  16
ENDBRANCH  14  15
ENDBRANCH  13  14
ENDBRANCH   1  13
TORSDOF 20
ENDMDL
MODEL 3
REMARK VINA RESULT:    -0.690     16.721     19.495
REMARK INTER + INTRA:          -3.305
REMARK INTER:                  -1.881
REMARK INTRA:                  -1.424
REMARK UNBOUND:                -1.809
REMARK SMILES CCCCCCCCCCCCCCCCCCCCCC(=O)[O-]
REMARK SMILES IDX 12 1 11 2 10 3 9 4 8 5 7 6 6 7 5 8 4 9 3 10 2 11 1 12 13 13
REMARK SMILES IDX 14 14 15 15 16 16 17 17 18 18 19 19 20 20 21 21 22 22 23 23
REMARK SMILES IDX 24 24
REMARK H PARENT
REMARK Flexibility Score: inf
ROOT
ATOM      1  C   UNL     1       5.384   4.915   6.532  1.00  0.00     0.000 C 
ENDROOT
BRANCH   1   2
ATOM      2  C   UNL     1       4.684   5.269   5.213  1.00  0.00     0.000 C 
BRANCH   2   3
ATOM      3  C   UNL     1       4.212   4.027   4.439  1.00  0.00     0.000 C 
BRANCH   3   4
ATOM      4  C   UNL     1       3.210   4.367   3.327  1.00  0.00    -0.000 C 
BRANCH   4   5
ATOM      5  C   UNL     1       3.850   5.292   2.279  1.00  0.00    -0.000 C 
BRANCH   5   6
ATOM      6  C   UNL     1       2.943   5.529   1.059  1.00  0.00    -0.000 C 
BRANCH   6   7
ATOM      7  C   UNL     1       1.456   5.189   1.279  1.00  0.00    -0.000 C 
BRANCH   7   8
ATOM      8  C   UNL     1       0.624   5.159  -0.021  1.00  0.00    -0.000 C 
BRANCH   8   9
ATOM      9  C   UNL     1       0.011   3.777  -0.290  1.00  0.00    -0.000 C 
BRANCH   9  10
ATOM     10  C   UNL     1      -1.521   3.856  -0.358  1.00  0.00    -0.000 C 
BRANCH  10  11
ATOM     11  C   UNL     1      -2.079   5.101   0.350  1.00  0.00    -0.003 C 
ATOM     12  C   UNL     1      -3.416   4.840   1.042  1.00  0.00     0.004 C 
ENDBRANCH  10  11
ENDBRANCH   9  10
ENDBRANCH   8   9
ENDBRANCH   7   8
ENDBRANCH   6   7
ENDBRANCH   5   6
ENDBRANCH   4   5
ENDBRANCH   3   4
ENDBRANCH   2   3
ENDBRANCH   1   2
BRANCH   1  13
ATOM     13  C   UNL     1       6.358   6.025   6.952  1.00  0.00     0.000 C 
BRANCH  13  14
ATOM     14  C   UNL     1       5.826   6.888   8.112  1.00  0.00     0.000 C 
BRANCH  14  15
ATOM     15  C   UNL     1       6.866   7.257   9.185  1.00  0.00     0.000 C 
BRANCH  15  16
ATOM     16  C   UNL     1       6.441   8.465  10.040  1.00  0.00     0.000 C 
BRANCH  16  17
ATOM     17  C   UNL     1       7.341   9.696   9.827  1.00  0.00     0.000 C 
BRANCH  17  18
ATOM     18  C   UNL     1       6.632  10.931   9.241  1.00  0.00     0.000 C 
BRANCH  18  19
ATOM     19  C   UNL     1       5.750  10.596   8.024  1.00  0.00     0.000 C 
BRANCH  19  20
ATOM     20  C   UNL     1       6.379  11.053   6.698  1.00  0.00     0.006 C 
BRANCH  20  21
ATOM     21  C   UNL     1       7.472  10.097   6.207  1.00  0.00     0.053 C 
BRANCH  21  22
ATOM     22  C   UNL     1       7.182   9.646   4.810  1.00  0.00     0.041 C 
ATOM     23  O   UNL     1       6.918  10.489   3.913  1.00  0.00    -0.550 OA
ATOM     24  O   UNL     1       7.155   8.290   4.509  1.00  0.00    -0.550 OA
ENDBRANCH  21  22
ENDBRANCH  20  21
ENDBRANCH  19  20
ENDBRANCH  18  19
ENDBRANCH  17  18
ENDBRANCH  16  17
ENDBRANCH  15  16
ENDBRANCH  14  15
ENDBRANCH  13  14
ENDBRANCH   1  13
TORSDOF 20
ENDMDL
MODEL 4
REMARK VINA RESULT:    -0.549     16.909     19.592
REMARK INTER + INTRA:          -3.001
REMARK INTER:                  -1.926
REMARK INTRA:                  -1.075
REMARK UNBOUND:                -1.809
REMARK SMILES CCCCCCCCCCCCCCCCCCCCCC(=O)[O-]
REMARK SMILES IDX 12 1 11 2 10 3 9 4 8 5 7 6 6 7 5 8 4 9 3 10 2 11 1 12 13 13
REMARK SMILES IDX 14 14 15 15 16 16 17 17 18 18 19 19 20 20 21 21 22 22 23 23
REMARK SMILES IDX 24 24
REMARK H PARENT
REMARK Flexibility Score: inf
ROOT
ATOM      1  C   UNL     1       6.441   7.218   6.163  1.00  0.00     0.000 C 
ENDROOT
BRANCH   1   2
ATOM      2  C   UNL     1       5.797   5.831   6.022  1.00  0.00     0.000 C 
BRANCH   2   3
ATOM      3  C   UNL     1       4.701   5.794   4.943  1.00  0.00     0.000 C 
BRANCH   3   4
ATOM      4  C   UNL     1       4.250   4.365   4.606  1.00  0.00    -0.000 C 
BRANCH   4   5
ATOM      5  C   UNL     1       3.446   4.341   3.296  1.00  0.00    -0.000 C 
BRANCH   5   6
ATOM      6  C   UNL     1       3.981   5.334   2.250  1.00  0.00    -0.000 C 
BRANCH   6   7
ATOM      7  C   UNL     1       3.017   5.636   1.086  1.00  0.00    -0.000 C 
BRANCH   7   8
ATOM      8  C   UNL     1       1.586   5.098   1.305  1.00  0.00    -0.000 C 
BRANCH   8   9
ATOM      9  C   UNL     1       0.677   5.349   0.092  1.00  0.00    -0.000 C 
BRANCH   9  10
ATOM     10  C   UNL     1      -0.803   5.205   0.473  1.00  0.00    -0.000 C 
BRANCH  10  11
ATOM     11  C   UNL     1      -1.447   3.948  -0.134  1.00  0.00    -0.003 C 
ATOM     12  C   UNL     1      -0.453   3.093  -0.920  1.00  0.00     0.004 C 
ENDBRANCH  10  11
ENDBRANCH   9  10
ENDBRANCH   8   9
ENDBRANCH   7   8
ENDBRANCH   6   7
ENDBRANCH   5   6
ENDBRANCH   4   5
ENDBRANCH   3   4
ENDBRANCH   2   3
ENDBRANCH   1   2
BRANCH   1  13
ATOM     13  C   UNL     1       6.740   7.827   4.786  1.00  0.00     0.000 C 
BRANCH  13  14
ATOM     14  C   UNL     1       7.223   9.288   4.864  1.00  0.00     0.000 C 
BRANCH  14  15
ATOM     15  C   UNL     1       6.106  10.348   4.878  1.00  0.00     0.000 C 
BRANCH  15  16
ATOM     16  C   UNL     1       5.995  11.083   6.225  1.00  0.00     0.000 C 
BRANCH  16  17
ATOM     17  C   UNL     1       6.742  10.365   7.364  1.00  0.00     0.000 C 
BRANCH  17  18
ATOM     18  C   UNL     1       6.427  10.881   8.780  1.00  0.00     0.000 C 
BRANCH  18  19
ATOM     19  C   UNL     1       7.529  10.542   9.801  1.00  0.00     0.000 C 
BRANCH  19  20
ATOM     20  C   UNL     1       7.847   9.039   9.847  1.00  0.00     0.006 C 
BRANCH  20  21
ATOM     21  C   UNL     1       6.601   8.169   9.645  1.00  0.00     0.053 C 
BRANCH  21  22
ATOM     22  C   UNL     1       6.955   6.719   9.748  1.00  0.00     0.041 C 
ATOM     23  O   UNL     1       8.115   6.371  10.089  1.00  0.00    -0.550 OA
ATOM     24  O   UNL     1       6.015   5.751   9.419  1.00  0.00    -0.550 OA
ENDBRANCH  21  22
ENDBRANCH  20  21
ENDBRANCH  19  20
ENDBRANCH  18  19
ENDBRANCH  17  18
ENDBRANCH  16  17
ENDBRANCH  15  16
ENDBRANCH  14  15
ENDBRANCH  13  14
ENDBRANCH   1  13
TORSDOF 20
ENDMDL
MODEL 5
REMARK VINA RESULT:    -0.464     16.692     19.310
REMARK INTER + INTRA:          -2.816
REMARK INTER:                  -1.362
REMARK INTRA:                  -1.454
REMARK UNBOUND:                -1.809
REMARK SMILES CCCCCCCCCCCCCCCCCCCCCC(=O)[O-]
REMARK SMILES IDX 12 1 11 2 10 3 9 4 8 5 7 6 6 7 5 8 4 9 3 10 2 11 1 12 13 13
REMARK SMILES IDX 14 14 15 15 16 16 17 17 18 18 19 19 20 20 21 21 22 22 23 23
REMARK SMILES IDX 24 24
REMARK H PARENT
REMARK Flexibility Score: inf
ROOT
ATOM      1  C   UNL     1       5.514   5.123   6.435  1.00  0.00     0.000 C 
ENDROOT
BRANCH   1   2
ATOM      2  C   UNL     1       4.557   5.365   5.259  1.00  0.00     0.000 C 
BRANCH   2   3
ATOM      3  C   UNL     1       4.224   4.075   4.491  1.00  0.00     0.000 C 
BRANCH   3   4
ATOM      4  C   UNL     1       3.196   4.300   3.373  1.00  0.00    -0.000 C 
BRANCH   4   5
ATOM      5  C   UNL     1       3.827   5.065   2.198  1.00  0.00    -0.000 C 
BRANCH   5   6
ATOM      6  C   UNL     1       2.778   5.697   1.267  1.00  0.00    -0.000 C 
BRANCH   6   7
ATOM      7  C   UNL     1       1.441   4.935   1.180  1.00  0.00    -0.000 C 
BRANCH   7   8
ATOM      8  C   UNL     1       0.628   5.243  -0.096  1.00  0.00    -0.000 C 
BRANCH   8   9
ATOM      9  C   UNL     1       0.090   3.970  -0.766  1.00  0.00    -0.000 C 
BRANCH   9  10
ATOM     10  C   UNL     1      -1.200   3.491  -0.085  1.00  0.00    -0.000 C 
BRANCH  10  11
ATOM     11  C   UNL     1      -2.363   4.479  -0.268  1.00  0.00    -0.003 C 
ATOM     12  C   UNL     1      -2.899   5.017   1.059  1.00  0.00     0.004 C 
ENDBRANCH  10  11
ENDBRANCH   9  10
ENDBRANCH   8   9
ENDBRANCH   7   8
ENDBRANCH   6   7
ENDBRANCH   5   6
ENDBRANCH   4   5
ENDBRANCH   3   4
ENDBRANCH   2   3
ENDBRANCH   1   2
BRANCH   1  13
ATOM     13  C   UNL     1       6.588   6.220   6.503  1.00  0.00     0.000 C 
BRANCH  13  14
ATOM     14  C   UNL     1       6.113   7.565   5.921  1.00  0.00     0.000 C 
BRANCH  14  15
ATOM     15  C   UNL     1       6.941   8.097   4.738  1.00  0.00     0.000 C 
BRANCH  15  16
ATOM     16  C   UNL     1       7.362   9.567   4.913  1.00  0.00     0.000 C 
BRANCH  16  17
ATOM     17  C   UNL     1       6.222  10.459   5.438  1.00  0.00     0.000 C 
BRANCH  17  18
ATOM     18  C   UNL     1       6.279  10.777   6.943  1.00  0.00     0.000 C 
BRANCH  18  19
ATOM     19  C   UNL     1       7.692  10.633   7.534  1.00  0.00     0.000 C 
BRANCH  19  20
ATOM     20  C   UNL     1       7.684  10.554   9.069  1.00  0.00     0.006 C 
BRANCH  20  21
ATOM     21  C   UNL     1       7.837   9.117   9.583  1.00  0.00     0.053 C 
BRANCH  21  22
ATOM     22  C   UNL     1       6.495   8.517   9.862  1.00  0.00     0.041 C 
ATOM     23  O   UNL     1       6.346   7.267   9.864  1.00  0.00    -0.550 OA
ATOM     24  O   UNL     1       5.396   9.341  10.073  1.00  0.00    -0.550 OA
ENDBRANCH  21  22
ENDBRANCH  20  21
ENDBRANCH  19  20
ENDBRANCH  18  19
ENDBRANCH  17  18
ENDBRANCH  16  17
ENDBRANCH  15  16
ENDBRANCH  14  15
ENDBRANCH  13  14
ENDBRANCH   1  13
TORSDOF 20
ENDMDL
MODEL 6
REMARK VINA RESULT:    -0.385     23.046     25.190
REMARK INTER + INTRA:          -2.644
REMARK INTER:                  -1.684
REMARK INTRA:                  -0.960
REMARK UNBOUND:                -1.809
REMARK SMILES CCCCCCCCCCCCCCCCCCCCCC(=O)[O-]
REMARK SMILES IDX 12 1 11 2 10 3 9 4 8 5 7 6 6 7 5 8 4 9 3 10 2 11 1 12 13 13
REMARK SMILES IDX 14 14 15 15 16 16 17 17 18 18 19 19 20 20 21 21 22 22 23 23
REMARK SMILES IDX 24 24
REMARK H PARENT
REMARK Flexibility Score: inf
ROOT
ATOM      1  C   UNL     1      -9.944   0.887  10.113  1.00  0.00     0.000 C 
ENDROOT
BRANCH   1   2
ATOM      2  C   UNL     1     -10.594   1.995   9.273  1.00  0.00     0.000 C 
BRANCH   2   3
ATOM      3  C   UNL     1     -11.075   3.181  10.125  1.00  0.00     0.000 C 
BRANCH   3   4
ATOM      4  C   UNL     1     -10.097   4.365  10.096  1.00  0.00    -0.000 C 
BRANCH   4   5
ATOM      5  C   UNL     1     -10.857   5.698   9.993  1.00  0.00    -0.000 C 
BRANCH   5   6
ATOM      6  C   UNL     1      -9.934   6.921  10.118  1.00  0.00    -0.000 C 
BRANCH   6   7
ATOM      7  C   UNL     1      -9.074   7.218   8.873  1.00  0.00    -0.000 C 
BRANCH   7   8
ATOM      8  C   UNL     1      -7.555   7.087   9.118  1.00  0.00    -0.000 C 
BRANCH   8   9
ATOM      9  C   UNL     1      -6.728   7.847   8.071  1.00  0.00    -0.000 C 
BRANCH   9  10
ATOM     10  C   UNL     1      -5.537   8.564   8.723  1.00  0.00    -0.000 C 
BRANCH  10  11
ATOM     11  C   UNL     1      -5.766  10.077   8.864  1.00  0.00    -0.003 C 
ATOM     12  C   UNL     1      -5.972  10.774   7.519  1.00  0.00     0.004 C 
ENDBRANCH  10  11
ENDBRANCH   9  10
ENDBRANCH   8   9
ENDBRANCH   7   8
ENDBRANCH   6   7
ENDBRANCH   5   6
ENDBRANCH   4   5
ENDBRANCH   3   4
ENDBRANCH   2   3
ENDBRANCH   1   2
BRANCH   1  13
ATOM     13  C   UNL     1     -10.730  -0.427   9.992  1.00  0.00     0.000 C 
BRANCH  13  14
ATOM     14  C   UNL     1      -9.910  -1.564   9.352  1.00  0.00     0.000 C 
BRANCH  14  15
ATOM     15  C   UNL     1     -10.736  -2.744   8.809  1.00  0.00     0.000 C 
BRANCH  15  16
ATOM     16  C   UNL     1     -10.646  -3.997   9.698  1.00  0.00     0.000 C 
BRANCH  16  17
ATOM     17  C   UNL     1      -9.957  -5.182   8.996  1.00  0.00     0.000 C 
BRANCH  17  18
ATOM     18  C   UNL     1      -8.642  -4.839   8.273  1.00  0.00     0.000 C 
BRANCH  18  19
ATOM     19  C   UNL     1      -8.741  -4.986   6.744  1.00  0.00     0.000 C 
BRANCH  19  20
ATOM     20  C   UNL     1      -9.712  -6.100   6.321  1.00  0.00     0.006 C 
BRANCH  20  21
ATOM     21  C   UNL     1     -10.679  -5.649   5.221  1.00  0.00     0.053 C 
BRANCH  21  22
ATOM     22  C   UNL     1     -10.916  -6.760   4.247  1.00  0.00     0.041 C 
ATOM     23  O   UNL     1     -11.106  -7.935   4.657  1.00  0.00    -0.550 OA
ATOM     24  O   UNL     1     -10.878  -6.506   2.881  1.00  0.00    -0.550 OA
ENDBRANCH  21  22
ENDBRANCH  20  21
ENDBRANCH  19  20
ENDBRANCH  18  19
ENDBRANCH  17  18
ENDBRANCH  16  17
ENDBRANCH  15  16
ENDBRANCH  14  15
ENDBRANCH  13  14
ENDBRANCH   1  13
TORSDOF 20
ENDMDL
MODEL 7
REMARK VINA RESULT:    -0.281      1.674      2.260
REMARK INTER + INTRA:          -2.418
REMARK INTER:                  -3.051
REMARK INTRA:                   0.632
REMARK UNBOUND:                -1.809
REMARK SMILES CCCCCCCCCCCCCCCCCCCCCC(=O)[O-]
REMARK SMILES IDX 12 1 11 2 10 3 9 4 8 5 7 6 6 7 5 8 4 9 3 10 2 11 1 12 13 13
REMARK SMILES IDX 14 14 15 15 16 16 17 17 18 18 19 19 20 20 21 21 22 22 23 23
REMARK SMILES IDX 24 24
REMARK H PARENT
REMARK Flexibility Score: inf
ROOT
ATOM      1  C   UNL     1       3.296  -6.858  -9.866  1.00  0.00     0.000 C 
ENDROOT
BRANCH   1   2
ATOM      2  C   UNL     1       3.395  -8.135  -9.019  1.00  0.00     0.000 C 
BRANCH   2   3
ATOM      3  C   UNL     1       4.818  -8.718  -8.988  1.00  0.00     0.000 C 
BRANCH   3   4
ATOM      4  C   UNL     1       5.794  -7.944  -9.886  1.00  0.00    -0.000 C 
BRANCH   4   5
ATOM      5  C   UNL     1       7.160  -8.648  -9.941  1.00  0.00    -0.000 C 
BRANCH   5   6
ATOM      6  C   UNL     1       7.972  -8.474  -8.647  1.00  0.00    -0.000 C 
BRANCH   6   7
ATOM      7  C   UNL     1       7.348  -9.123  -7.395  1.00  0.00    -0.000 C 
BRANCH   7   8
ATOM      8  C   UNL     1       7.078  -8.129  -6.245  1.00  0.00    -0.000 C 
BRANCH   8   9
ATOM      9  C   UNL     1       6.015  -8.646  -5.266  1.00  0.00    -0.000 C 
BRANCH   9  10
ATOM     10  C   UNL     1       5.215  -7.485  -4.656  1.00  0.00    -0.000 C 
BRANCH  10  11
ATOM     11  C   UNL     1       4.443  -6.683  -5.715  1.00  0.00    -0.003 C 
ATOM     12  C   UNL     1       5.175  -5.411  -6.145  1.00  0.00     0.004 C 
ENDBRANCH  10  11
ENDBRANCH   9  10
ENDBRANCH   8   9
ENDBRANCH   7   8
ENDBRANCH   6   7
ENDBRANCH   5   6
ENDBRANCH   4   5
ENDBRANCH   3   4
ENDBRANCH   2   3
ENDBRANCH   1   2
BRANCH   1  13
ATOM     13  C   UNL     1       4.561  -6.001  -9.714  1.00  0.00     0.000 C 
BRANCH  13  14
ATOM     14  C   UNL     1       4.347  -4.531 -10.125  1.00  0.00     0.000 C 
BRANCH  14  15
ATOM     15  C   UNL     1       4.743  -3.489  -9.064  1.00  0.00     0.000 C 
BRANCH  15  16
ATOM     16  C   UNL     1       5.545  -2.314  -9.649  1.00  0.00     0.000 C 
BRANCH  16  17
ATOM     17  C   UNL     1       7.055  -2.416  -9.362  1.00  0.00     0.000 C 
BRANCH  17  18
ATOM     18  C   UNL     1       7.772  -3.594 -10.044  1.00  0.00     0.000 C 
BRANCH  18  19
ATOM     19  C   UNL     1       8.852  -4.236  -9.155  1.00  0.00     0.000 C 
BRANCH  19  20
ATOM     20  C   UNL     1       8.651  -3.920  -7.664  1.00  0.00     0.006 C 
BRANCH  20  21
ATOM     21  C   UNL     1       7.959  -5.061  -6.910  1.00  0.00     0.053 C 
BRANCH  21  22
ATOM     22  C   UNL     1       8.573  -5.241  -5.558  1.00  0.00     0.041 C 
ATOM     23  O   UNL     1       8.651  -4.269  -4.761  1.00  0.00    -0.550 OA
ATOM     24  O   UNL     1       9.104  -6.472  -5.194  1.00  0.00    -0.550 OA
ENDBRANCH  21  22
ENDBRANCH  20  21
ENDBRANCH  19  20
ENDBRANCH  18  19
ENDBRANCH  17  18
ENDBRANCH  16  17
ENDBRANCH  15  16
ENDBRANCH  14  15
ENDBRANCH  13  14
ENDBRANCH   1  13
TORSDOF 20
ENDMDL
