MODEL 1
REMARK VINA RESULT:    -5.311      0.000      0.000
REMARK INTER + INTRA:          -5.621
REMARK INTER:                  -5.621
REMARK INTRA:                   0.000
REMARK UNBOUND:                 0.000
REMARK SMILES O=c1ccc2cc(O)c(O)cc2o1
REMARK SMILES IDX 4 1 3 2 2 3 1 4 13 5 12 6 11 7 9 8 7 9 6 10 5 11 8 12 10 14
REMARK H PARENT 8 13 10 15
REMARK Flexibility Score: inf
ROOT
ATOM      1  C   UNL     1      26.718   9.790 -32.671  1.00  0.00     0.019 A 
ATOM      2  C   UNL     1      25.958  10.856 -32.189  1.00  0.00     0.094 A 
ATOM      3  C   UNL     1      26.493  12.148 -32.243  1.00  0.00     0.336 A 
ATOM      4  O   UNL     1      25.823  13.123 -31.813  1.00  0.00    -0.246 OA
ATOM      5  O   UNL     1      27.708  12.354 -32.746  1.00  0.00    -0.423 OA
ATOM      6  C   UNL     1      28.465  11.366 -33.216  1.00  0.00     0.142 A 
ATOM      7  C   UNL     1      29.734  11.642 -33.734  1.00  0.00     0.098 A 
ATOM      8  C   UNL     1      30.536  10.604 -34.230  1.00  0.00     0.161 A 
ATOM      9  C   UNL     1      30.066   9.283 -34.209  1.00  0.00     0.158 A 
ATOM     10  C   UNL     1      28.793   8.999 -33.691  1.00  0.00     0.062 A 
ATOM     11  C   UNL     1      27.991  10.036 -33.194  1.00  0.00     0.022 A 
ENDROOT
BRANCH   9  12
ATOM     12  O   UNL     1      30.869   8.257 -34.705  1.00  0.00    -0.504 OA
ATOM     13  H   UNL     1      30.657   7.793 -35.581  1.00  0.00     0.293 HD
ENDBRANCH   9  12
BRANCH   8  14
ATOM     14  O   UNL     1      31.802  10.877 -34.746  1.00  0.00    -0.504 OA
ATOM     15  H   UNL     1      31.998  10.800 -35.738  1.00  0.00     0.293 HD
ENDBRANCH   8  14
TORSDOF 2
ENDMDL
MODEL 2
REMARK VINA RESULT:    -5.284      1.015      2.232
REMARK INTER + INTRA:          -5.593
REMARK INTER:                  -5.593
REMARK INTRA:                   0.000
REMARK UNBOUND:                 0.000
REMARK SMILES O=c1ccc2cc(O)c(O)cc2o1
REMARK SMILES IDX 4 1 3 2 2 3 1 4 13 5 12 6 11 7 9 8 7 9 6 10 5 11 8 12 10 14
REMARK H PARENT 8 13 10 15
REMARK Flexibility Score: inf
ROOT
ATOM      1  C   UNL     1      28.584  12.884 -32.590  1.00  0.00     0.019 A 
ATOM      2  C   UNL     1      27.272  12.859 -32.116  1.00  0.00     0.094 A 
ATOM      3  C   UNL     1      26.506  11.704 -32.303  1.00  0.00     0.336 A 
ATOM      4  O   UNL     1      25.320  11.662 -31.882  1.00  0.00    -0.246 OA
ATOM      5  O   UNL     1      27.022  10.646 -32.923  1.00  0.00    -0.423 OA
ATOM      6  C   UNL     1      28.268  10.628 -33.390  1.00  0.00     0.142 A 
ATOM      7  C   UNL     1      28.757   9.487 -34.034  1.00  0.00     0.098 A 
ATOM      8  C   UNL     1      30.070   9.463 -34.528  1.00  0.00     0.161 A 
ATOM      9  C   UNL     1      30.897  10.585 -34.377  1.00  0.00     0.158 A 
ATOM     10  C   UNL     1      30.412  11.733 -33.731  1.00  0.00     0.062 A 
ATOM     11  C   UNL     1      29.100  11.758 -33.238  1.00  0.00     0.022 A 
ENDROOT
BRANCH   9  12
ATOM     12  O   UNL     1      32.200  10.553 -34.871  1.00  0.00    -0.504 OA
ATOM     13  H   UNL     1      32.755   9.705 -34.848  1.00  0.00     0.293 HD
ENDBRANCH   9  12
BRANCH   8  14
ATOM     14  O   UNL     1      30.560   8.327 -35.170  1.00  0.00    -0.504 OA
ATOM     15  H   UNL     1      30.800   7.488 -34.654  1.00  0.00     0.293 HD
ENDBRANCH   8  14
TORSDOF 2
ENDMDL
MODEL 3
REMARK VINA RESULT:    -5.263     11.922     12.528
REMARK INTER + INTRA:          -5.571
REMARK INTER:                  -5.571
REMARK INTRA:                   0.000
REMARK UNBOUND:                 0.000
REMARK SMILES O=c1ccc2cc(O)c(O)cc2o1
REMARK SMILES IDX 4 1 3 2 2 3 1 4 13 5 12 6 11 7 9 8 7 9 6 10 5 11 8 12 10 14
REMARK H PARENT 8 13 10 15
REMARK Flexibility Score: inf
ROOT
ATOM      1  C   UNL     1      32.511   6.486 -24.490  1.00  0.00     0.019 A 
ATOM      2  C   UNL     1      31.634   5.591 -25.102  1.00  0.00     0.094 A 
ATOM      3  C   UNL     1      30.485   5.189 -24.413  1.00  0.00     0.336 A 
ATOM      4  O   UNL     1      29.681   4.382 -24.949  1.00  0.00    -0.246 OA
ATOM      5  O   UNL     1      30.234   5.656 -23.192  1.00  0.00    -0.423 OA
ATOM      6  C   UNL     1      31.043   6.512 -22.573  1.00  0.00     0.142 A 
ATOM      7  C   UNL     1      30.727   6.969 -21.290  1.00  0.00     0.098 A 
ATOM      8  C   UNL     1      31.576   7.870 -20.632  1.00  0.00     0.161 A 
ATOM      9  C   UNL     1      32.748   8.317 -21.261  1.00  0.00     0.158 A 
ATOM     10  C   UNL     1      33.070   7.862 -22.549  1.00  0.00     0.062 A 
ATOM     11  C   UNL     1      32.222   6.961 -23.207  1.00  0.00     0.022 A 
ENDROOT
BRANCH   9  12
ATOM     12  O   UNL     1      33.587   9.213 -20.601  1.00  0.00    -0.504 OA
ATOM     13  H   UNL     1      34.570   9.013 -20.458  1.00  0.00     0.293 HD
ENDBRANCH   9  12
BRANCH   8  14
ATOM     14  O   UNL     1      31.264   8.328 -19.353  1.00  0.00    -0.504 OA
ATOM     15  H   UNL     1      30.305   8.390 -19.031  1.00  0.00     0.293 HD
ENDBRANCH   8  14
TORSDOF 2
ENDMDL
MODEL 4
REMARK VINA RESULT:    -5.229      1.247      5.013
REMARK INTER + INTRA:          -5.534
REMARK INTER:                  -5.534
REMARK INTRA:                   0.000
REMARK UNBOUND:                 0.000
REMARK SMILES O=c1ccc2cc(O)c(O)cc2o1
REMARK SMILES IDX 4 1 3 2 2 3 1 4 13 5 12 6 11 7 9 8 7 9 6 10 5 11 8 12 10 14
REMARK H PARENT 8 13 10 15
REMARK Flexibility Score: inf
ROOT
ATOM      1  C   UNL     1      30.093  11.638 -33.727  1.00  0.00     0.019 A 
ATOM      2  C   UNL     1      30.915  10.755 -34.429  1.00  0.00     0.094 A 
ATOM      3  C   UNL     1      30.472   9.446 -34.648  1.00  0.00     0.336 A 
ATOM      4  O   UNL     1      31.200   8.636 -35.280  1.00  0.00    -0.246 OA
ATOM      5  O   UNL     1      29.285   9.051 -34.194  1.00  0.00    -0.423 OA
ATOM      6  C   UNL     1      28.471   9.860 -33.521  1.00  0.00     0.142 A 
ATOM      7  C   UNL     1      27.235   9.390 -33.068  1.00  0.00     0.098 A 
ATOM      8  C   UNL     1      26.373  10.238 -32.358  1.00  0.00     0.161 A 
ATOM      9  C   UNL     1      26.750  11.564 -32.100  1.00  0.00     0.158 A 
ATOM     10  C   UNL     1      27.989  12.043 -32.552  1.00  0.00     0.062 A 
ATOM     11  C   UNL     1      28.851  11.195 -33.261  1.00  0.00     0.022 A 
ENDROOT
BRANCH   9  12
ATOM     12  O   UNL     1      25.887  12.401 -31.393  1.00  0.00    -0.504 OA
ATOM     13  H   UNL     1      25.065  12.804 -31.827  1.00  0.00     0.293 HD
ENDBRANCH   9  12
BRANCH   8  14
ATOM     14  O   UNL     1      25.140   9.771 -31.905  1.00  0.00    -0.504 OA
ATOM     15  H   UNL     1      24.530   9.223 -32.500  1.00  0.00     0.293 HD
ENDBRANCH   8  14
TORSDOF 2
ENDMDL
MODEL 5
REMARK VINA RESULT:    -5.228     12.358     13.100
REMARK INTER + INTRA:          -5.533
REMARK INTER:                  -5.533
REMARK INTRA:                   0.000
REMARK UNBOUND:                 0.000
REMARK SMILES O=c1ccc2cc(O)c(O)cc2o1
REMARK SMILES IDX 4 1 3 2 2 3 1 4 13 5 12 6 11 7 9 8 7 9 6 10 5 11 8 12 10 14
REMARK H PARENT 8 13 10 15
REMARK Flexibility Score: inf
ROOT
ATOM      1  C   UNL     1      33.553   6.534 -23.976  1.00  0.00     0.019 A 
ATOM      2  C   UNL     1      34.785   6.787 -23.372  1.00  0.00     0.094 A 
ATOM      3  C   UNL     1      34.834   6.977 -21.987  1.00  0.00     0.336 A 
ATOM      4  O   UNL     1      35.937   7.205 -21.424  1.00  0.00    -0.246 OA
ATOM      5  O   UNL     1      33.722   6.917 -21.258  1.00  0.00    -0.423 OA
ATOM      6  C   UNL     1      32.527   6.679 -21.794  1.00  0.00     0.142 A 
ATOM      7  C   UNL     1      31.393   6.627 -20.978  1.00  0.00     0.098 A 
ATOM      8  C   UNL     1      30.132   6.376 -21.538  1.00  0.00     0.161 A 
ATOM      9  C   UNL     1      30.005   6.176 -22.920  1.00  0.00     0.158 A 
ATOM     10  C   UNL     1      31.140   6.226 -23.744  1.00  0.00     0.062 A 
ATOM     11  C   UNL     1      32.400   6.477 -23.186  1.00  0.00     0.022 A 
ENDROOT
BRANCH   9  12
ATOM     12  O   UNL     1      28.747   5.927 -23.468  1.00  0.00    -0.504 OA
ATOM     13  H   UNL     1      28.395   6.464 -24.253  1.00  0.00     0.293 HD
ENDBRANCH   9  12
BRANCH   8  14
ATOM     14  O   UNL     1      28.999   6.325 -20.727  1.00  0.00    -0.504 OA
ATOM     15  H   UNL     1      28.829   7.019 -20.009  1.00  0.00     0.293 HD
ENDBRANCH   8  14
TORSDOF 2
ENDMDL
MODEL 6
REMARK VINA RESULT:    -5.016     11.784     12.144
REMARK INTER + INTRA:          -5.309
REMARK INTER:                  -5.309
REMARK INTRA:                   0.000
REMARK UNBOUND:                 0.000
REMARK SMILES O=c1ccc2cc(O)c(O)cc2o1
REMARK SMILES IDX 4 1 3 2 2 3 1 4 13 5 12 6 11 7 9 8 7 9 6 10 5 11 8 12 10 14
REMARK H PARENT 8 13 10 15
REMARK Flexibility Score: inf
ROOT
ATOM      1  C   UNL     1      30.876   7.530 -20.655  1.00  0.00     0.019 A 
ATOM      2  C   UNL     1      31.981   8.274 -20.239  1.00  0.00     0.094 A 
ATOM      3  C   UNL     1      33.055   8.442 -21.120  1.00  0.00     0.336 A 
ATOM      4  O   UNL     1      34.061   9.110 -20.762  1.00  0.00    -0.246 OA
ATOM      5  O   UNL     1      33.022   7.900 -22.335  1.00  0.00    -0.423 OA
ATOM      6  C   UNL     1      31.988   7.185 -22.771  1.00  0.00     0.142 A 
ATOM      7  C   UNL     1      32.009   6.640 -24.059  1.00  0.00     0.098 A 
ATOM      8  C   UNL     1      30.922   5.884 -24.523  1.00  0.00     0.161 A 
ATOM      9  C   UNL     1      29.809   5.674 -23.696  1.00  0.00     0.158 A 
ATOM     10  C   UNL     1      29.782   6.218 -22.403  1.00  0.00     0.062 A 
ATOM     11  C   UNL     1      30.868   6.972 -21.938  1.00  0.00     0.022 A 
ENDROOT
BRANCH   9  12
ATOM     12  O   UNL     1      28.733   4.922 -24.166  1.00  0.00    -0.504 OA
ATOM     13  H   UNL     1      28.792   4.394 -25.029  1.00  0.00     0.293 HD
ENDBRANCH   9  12
BRANCH   8  14
ATOM     14  O   UNL     1      30.940   5.339 -25.806  1.00  0.00    -0.504 OA
ATOM     15  H   UNL     1      31.066   4.345 -25.958  1.00  0.00     0.293 HD
ENDBRANCH   8  14
TORSDOF 2
ENDMDL
MODEL 7
REMARK VINA RESULT:    -5.013     12.087     12.914
REMARK INTER + INTRA:          -5.306
REMARK INTER:                  -5.306
REMARK INTRA:                   0.000
REMARK UNBOUND:                 0.000
REMARK SMILES O=c1ccc2cc(O)c(O)cc2o1
REMARK SMILES IDX 4 1 3 2 2 3 1 4 13 5 12 6 11 7 9 8 7 9 6 10 5 11 8 12 10 14
REMARK H PARENT 8 13 10 15
REMARK Flexibility Score: inf
ROOT
ATOM      1  C   UNL     1      33.814   7.144 -21.289  1.00  0.00     0.019 A 
ATOM      2  C   UNL     1      34.902   7.235 -22.156  1.00  0.00     0.094 A 
ATOM      3  C   UNL     1      34.701   7.009 -23.522  1.00  0.00     0.336 A 
ATOM      4  O   UNL     1      35.671   7.087 -24.321  1.00  0.00    -0.246 OA
ATOM      5  O   UNL     1      33.489   6.712 -23.984  1.00  0.00    -0.423 OA
ATOM      6  C   UNL     1      32.424   6.615 -23.192  1.00  0.00     0.142 A 
ATOM      7  C   UNL     1      31.175   6.300 -23.734  1.00  0.00     0.098 A 
ATOM      8  C   UNL     1      30.050   6.197 -22.903  1.00  0.00     0.161 A 
ATOM      9  C   UNL     1      30.175   6.411 -21.523  1.00  0.00     0.158 A 
ATOM     10  C   UNL     1      31.426   6.728 -20.972  1.00  0.00     0.062 A 
ATOM     11  C   UNL     1      32.551   6.830 -21.802  1.00  0.00     0.022 A 
ENDROOT
BRANCH   9  12
ATOM     12  O   UNL     1      29.052   6.307 -20.704  1.00  0.00    -0.504 OA
ATOM     13  H   UNL     1      28.768   7.064 -20.094  1.00  0.00     0.293 HD
ENDBRANCH   9  12
BRANCH   8  14
ATOM     14  O   UNL     1      28.803   5.883 -23.441  1.00  0.00    -0.504 OA
ATOM     15  H   UNL     1      28.484   6.289 -24.314  1.00  0.00     0.293 HD
ENDBRANCH   8  14
TORSDOF 2
ENDMDL
MODEL 8
REMARK VINA RESULT:    -4.811      2.558      3.793
REMARK INTER + INTRA:          -5.092
REMARK INTER:                  -5.092
REMARK INTRA:                   0.000
REMARK UNBOUND:                 0.000
REMARK SMILES O=c1ccc2cc(O)c(O)cc2o1
REMARK SMILES IDX 4 1 3 2 2 3 1 4 13 5 12 6 11 7 9 8 7 9 6 10 5 11 8 12 10 14
REMARK H PARENT 8 13 10 15
REMARK Flexibility Score: inf
ROOT
ATOM      1  C   UNL     1      24.792  10.046 -31.980  1.00  0.00     0.019 A 
ATOM      2  C   UNL     1      24.268   8.822 -32.396  1.00  0.00     0.094 A 
ATOM      3  C   UNL     1      25.086   7.945 -33.116  1.00  0.00     0.336 A 
ATOM      4  O   UNL     1      24.631   6.835 -33.499  1.00  0.00    -0.246 OA
ATOM      5  O   UNL     1      26.343   8.275 -33.399  1.00  0.00    -0.423 OA
ATOM      6  C   UNL     1      26.882   9.432 -33.022  1.00  0.00     0.142 A 
ATOM      7  C   UNL     1      28.210   9.724 -33.349  1.00  0.00     0.098 A 
ATOM      8  C   UNL     1      28.782  10.942 -32.954  1.00  0.00     0.161 A 
ATOM      9  C   UNL     1      28.023  11.872 -32.229  1.00  0.00     0.158 A 
ATOM     10  C   UNL     1      26.690  11.584 -31.897  1.00  0.00     0.062 A 
ATOM     11  C   UNL     1      26.117  10.367 -32.292  1.00  0.00     0.022 A 
ENDROOT
BRANCH   9  12
ATOM     12  O   UNL     1      28.599  13.080 -31.840  1.00  0.00    -0.504 OA
ATOM     13  H   UNL     1      28.085  13.762 -31.294  1.00  0.00     0.293 HD
ENDBRANCH   9  12
BRANCH   8  14
ATOM     14  O   UNL     1      30.105  11.237 -33.278  1.00  0.00    -0.504 OA
ATOM     15  H   UNL     1      30.469  11.086 -34.213  1.00  0.00     0.293 HD
ENDBRANCH   8  14
TORSDOF 2
ENDMDL
MODEL 9
REMARK VINA RESULT:    -4.724     13.035     13.582
REMARK INTER + INTRA:          -5.000
REMARK INTER:                  -5.000
REMARK INTRA:                   0.000
REMARK UNBOUND:                 0.000
REMARK SMILES O=c1ccc2cc(O)c(O)cc2o1
REMARK SMILES IDX 4 1 3 2 2 3 1 4 13 5 12 6 11 7 9 8 7 9 6 10 5 11 8 12 10 14
REMARK H PARENT 8 13 10 15
REMARK Flexibility Score: inf
ROOT
ATOM      1  C   UNL     1      32.563   8.637 -21.185  1.00  0.00     0.019 A 
ATOM      2  C   UNL     1      33.834   8.641 -20.612  1.00  0.00     0.094 A 
ATOM      3  C   UNL     1      34.523   7.430 -20.482  1.00  0.00     0.336 A 
ATOM      4  O   UNL     1      35.672   7.415 -19.967  1.00  0.00    -0.246 OA
ATOM      5  O   UNL     1      33.972   6.294 -20.901  1.00  0.00    -0.423 OA
ATOM      6  C   UNL     1      32.763   6.245 -21.453  1.00  0.00     0.142 A 
ATOM      7  C   UNL     1      32.235   5.021 -21.875  1.00  0.00     0.098 A 
ATOM      8  C   UNL     1      30.961   4.965 -22.458  1.00  0.00     0.161 A 
ATOM      9  C   UNL     1      30.211   6.138 -22.620  1.00  0.00     0.158 A 
ATOM     10  C   UNL     1      30.735   7.370 -22.199  1.00  0.00     0.062 A 
ATOM     11  C   UNL     1      32.008   7.428 -21.616  1.00  0.00     0.022 A 
ENDROOT
BRANCH   9  12
ATOM     12  O   UNL     1      28.945   6.073 -23.201  1.00  0.00    -0.504 OA
ATOM     13  H   UNL     1      28.430   6.911 -23.445  1.00  0.00     0.293 HD
ENDBRANCH   9  12
BRANCH   8  14
ATOM     14  O   UNL     1      30.432   3.745 -22.879  1.00  0.00    -0.504 OA
ATOM     15  H   UNL     1      29.467   3.661 -23.178  1.00  0.00     0.293 HD
ENDBRANCH   8  14
TORSDOF 2
ENDMDL
