MODEL 1
REMARK VINA RESULT:    -5.768      0.000      0.000
REMARK INTER + INTRA:          -7.149
REMARK INTER:                  -6.948
REMARK INTRA:                  -0.201
REMARK UNBOUND:                -0.201
REMARK SMILES O=c1c(O)c(-c2ccc(O)c(O)c2)oc2cc(O)cc(O)c12
REMARK SMILES IDX 5 1 3 2 2 3 1 4 22 5 20 6 19 7 17 8 16 9 15 10 14 11 6 12
REMARK SMILES IDX 7 13 8 14 9 15 13 16 11 17 10 18 12 20 4 22 21 24 18 26
REMARK H PARENT 10 19 12 21 4 23 21 25 18 27
REMARK Flexibility Score: inf
ROOT
ATOM      1  C   UNL     1      57.061  25.820  28.220  1.00  0.00     0.180 A 
ATOM      2  C   UNL     1      58.295  25.255  28.594  1.00  0.00     0.208 A 
ATOM      3  C   UNL     1      59.400  26.101  28.779  1.00  0.00     0.238 A 
ATOM      4  O   UNL     1      60.509  25.608  29.125  1.00  0.00    -0.285 OA
ATOM      5  C   UNL     1      59.259  27.488  28.568  1.00  0.00     0.111 A 
ATOM      6  C   UNL     1      60.323  28.408  28.729  1.00  0.00     0.134 A 
ATOM      7  C   UNL     1      60.104  29.773  28.491  1.00  0.00     0.093 A 
ATOM      8  C   UNL     1      58.843  30.234  28.096  1.00  0.00     0.123 A 
ATOM      9  C   UNL     1      57.792  29.331  27.936  1.00  0.00     0.094 A 
ATOM     10  C   UNL     1      57.988  27.967  28.170  1.00  0.00     0.146 A 
ATOM     11  O   UNL     1      56.969  27.131  28.015  1.00  0.00    -0.452 OA
ENDROOT
BRANCH   1  12
ATOM     12  C   UNL     1      55.846  24.996  28.024  1.00  0.00     0.025 A 
ATOM     13  C   UNL     1      54.796  25.084  28.951  1.00  0.00     0.016 A 
ATOM     14  C   UNL     1      53.648  24.301  28.797  1.00  0.00     0.051 A 
ATOM     15  C   UNL     1      53.540  23.409  27.727  1.00  0.00     0.157 A 
ATOM     16  C   UNL     1      55.744  24.083  26.959  1.00  0.00     0.062 A 
ATOM     17  C   UNL     1      54.593  23.295  26.805  1.00  0.00     0.158 A 
BRANCH  15  18
ATOM     18  O   UNL     1      52.382  22.642  27.598  1.00  0.00    -0.504 OA
ATOM     19  H   UNL     1      51.474  22.988  27.881  1.00  0.00     0.293 HD
ENDBRANCH  15  18
BRANCH  17  20
ATOM     20  O   UNL     1      54.498  22.397  25.742  1.00  0.00    -0.504 OA
ATOM     21  H   UNL     1      55.041  22.516  24.895  1.00  0.00     0.293 HD
ENDBRANCH  17  20
ENDBRANCH   1  12
BRANCH   2  22
ATOM     22  O   UNL     1      58.421  23.872  28.748  1.00  0.00    -0.502 OA
ATOM     23  H   UNL     1      57.701  23.225  28.453  1.00  0.00     0.293 HD
ENDBRANCH   2  22
BRANCH   6  24
ATOM     24  O   UNL     1      61.591  27.978  29.122  1.00  0.00    -0.507 OA
ATOM     25  H   UNL     1      61.788  27.701  30.076  1.00  0.00     0.293 HD
ENDBRANCH   6  24
BRANCH   8  26
ATOM     26  O   UNL     1      58.626  31.589  27.859  1.00  0.00    -0.508 OA
ATOM     27  H   UNL     1      57.754  31.926  27.465  1.00  0.00     0.293 HD
ENDBRANCH   8  26
TORSDOF 6
ENDMDL
MODEL 2
REMARK VINA RESULT:    -5.652      2.131      4.039
REMARK INTER + INTRA:          -7.010
REMARK INTER:                  -6.732
REMARK INTRA:                  -0.278
REMARK UNBOUND:                -0.201
REMARK SMILES O=c1c(O)c(-c2ccc(O)c(O)c2)oc2cc(O)cc(O)c12
REMARK SMILES IDX 5 1 3 2 2 3 1 4 22 5 20 6 19 7 17 8 16 9 15 10 14 11 6 12
REMARK SMILES IDX 7 13 8 14 9 15 13 16 11 17 10 18 12 20 4 22 21 24 18 26
REMARK H PARENT 10 19 12 21 4 23 21 25 18 27
REMARK Flexibility Score: inf
ROOT
ATOM      1  C   UNL     1      54.717  23.995  28.250  1.00  0.00     0.180 A 
ATOM      2  C   UNL     1      54.274  25.295  28.557  1.00  0.00     0.208 A 
ATOM      3  C   UNL     1      55.225  26.309  28.749  1.00  0.00     0.238 A 
ATOM      4  O   UNL     1      54.839  27.481  29.013  1.00  0.00    -0.285 OA
ATOM      5  C   UNL     1      56.599  26.004  28.653  1.00  0.00     0.111 A 
ATOM      6  C   UNL     1      57.621  26.966  28.837  1.00  0.00     0.134 A 
ATOM      7  C   UNL     1      58.965  26.581  28.735  1.00  0.00     0.093 A 
ATOM      8  C   UNL     1      59.307  25.253  28.452  1.00  0.00     0.123 A 
ATOM      9  C   UNL     1      58.303  24.301  28.270  1.00  0.00     0.094 A 
ATOM     10  C   UNL     1      56.956  24.665  28.366  1.00  0.00     0.146 A 
ATOM     11  O   UNL     1      56.021  23.740  28.183  1.00  0.00    -0.452 OA
ENDROOT
BRANCH   1  12
ATOM     12  C   UNL     1      53.776  22.877  28.015  1.00  0.00     0.025 A 
ATOM     13  C   UNL     1      53.176  22.237  29.111  1.00  0.00     0.016 A 
ATOM     14  C   UNL     1      52.300  21.167  28.913  1.00  0.00     0.051 A 
ATOM     15  C   UNL     1      52.022  20.710  27.622  1.00  0.00     0.157 A 
ATOM     16  C   UNL     1      53.510  22.404  26.717  1.00  0.00     0.062 A 
ATOM     17  C   UNL     1      52.633  21.327  26.517  1.00  0.00     0.158 A 
BRANCH  15  18
ATOM     18  O   UNL     1      51.142  19.641  27.455  1.00  0.00    -0.504 OA
ATOM     19  H   UNL     1      50.524  19.333  28.195  1.00  0.00     0.293 HD
ENDBRANCH  15  18
BRANCH  17  20
ATOM     20  O   UNL     1      52.371  20.868  25.227  1.00  0.00    -0.504 OA
ATOM     21  H   UNL     1      52.959  21.124  24.442  1.00  0.00     0.293 HD
ENDBRANCH  17  20
ENDBRANCH   1  12
BRANCH   2  22
ATOM     22  O   UNL     1      52.909  25.562  28.695  1.00  0.00    -0.502 OA
ATOM     23  H   UNL     1      52.547  26.185  29.406  1.00  0.00     0.293 HD
ENDBRANCH   2  22
BRANCH   6  24
ATOM     24  O   UNL     1      57.312  28.297  29.120  1.00  0.00    -0.507 OA
ATOM     25  H   UNL     1      56.887  28.571  29.997  1.00  0.00     0.293 HD
ENDBRANCH   6  24
BRANCH   8  26
ATOM     26  O   UNL     1      60.642  24.870  28.351  1.00  0.00    -0.508 OA
ATOM     27  H   UNL     1      61.135  24.895  27.465  1.00  0.00     0.293 HD
ENDBRANCH   8  26
TORSDOF 6
ENDMDL
MODEL 3
REMARK VINA RESULT:    -5.005      1.784      3.314
REMARK INTER + INTRA:          -6.231
REMARK INTER:                  -5.902
REMARK INTRA:                  -0.329
REMARK UNBOUND:                -0.201
REMARK SMILES O=c1c(O)c(-c2ccc(O)c(O)c2)oc2cc(O)cc(O)c12
REMARK SMILES IDX 5 1 3 2 2 3 1 4 22 5 20 6 19 7 17 8 16 9 15 10 14 11 6 12
REMARK SMILES IDX 7 13 8 14 9 15 13 16 11 17 10 18 12 20 4 22 21 24 18 26
REMARK H PARENT 10 19 12 21 4 23 21 25 18 27
REMARK Flexibility Score: inf
ROOT
ATOM      1  C   UNL     1      55.809  24.691  28.271  1.00  0.00     0.180 A 
ATOM      2  C   UNL     1      55.501  26.029  28.583  1.00  0.00     0.208 A 
ATOM      3  C   UNL     1      56.552  26.941  28.769  1.00  0.00     0.238 A 
ATOM      4  O   UNL     1      56.289  28.145  29.038  1.00  0.00    -0.285 OA
ATOM      5  C   UNL     1      57.887  26.498  28.659  1.00  0.00     0.111 A 
ATOM      6  C   UNL     1      59.003  27.352  28.836  1.00  0.00     0.134 A 
ATOM      7  C   UNL     1      60.300  26.833  28.720  1.00  0.00     0.093 A 
ATOM      8  C   UNL     1      60.503  25.478  28.432  1.00  0.00     0.123 A 
ATOM      9  C   UNL     1      59.406  24.633  28.257  1.00  0.00     0.094 A 
ATOM     10  C   UNL     1      58.104  25.131  28.367  1.00  0.00     0.146 A 
ATOM     11  O   UNL     1      57.079  24.306  28.191  1.00  0.00    -0.452 OA
ENDROOT
BRANCH   1  12
ATOM     12  C   UNL     1      54.756  23.675  28.042  1.00  0.00     0.025 A 
ATOM     13  C   UNL     1      54.278  22.920  29.125  1.00  0.00     0.016 A 
ATOM     14  C   UNL     1      53.300  21.942  28.929  1.00  0.00     0.051 A 
ATOM     15  C   UNL     1      52.797  21.691  27.649  1.00  0.00     0.157 A 
ATOM     16  C   UNL     1      54.264  23.408  26.752  1.00  0.00     0.062 A 
ATOM     17  C   UNL     1      53.283  22.424  26.554  1.00  0.00     0.158 A 
BRANCH  15  18
ATOM     18  O   UNL     1      51.820  20.710  27.485  1.00  0.00    -0.504 OA
ATOM     19  H   UNL     1      51.082  20.796  26.797  1.00  0.00     0.293 HD
ENDBRANCH  15  18
BRANCH  17  20
ATOM     20  O   UNL     1      52.796  22.170  25.272  1.00  0.00    -0.504 OA
ATOM     21  H   UNL     1      52.512  21.240  24.986  1.00  0.00     0.293 HD
ENDBRANCH  17  20
ENDBRANCH   1  12
BRANCH   2  22
ATOM     22  O   UNL     1      54.172  26.431  28.735  1.00  0.00    -0.502 OA
ATOM     23  H   UNL     1      53.674  26.342  29.612  1.00  0.00     0.293 HD
ENDBRANCH   2  22
BRANCH   6  24
ATOM     24  O   UNL     1      58.833  28.706  29.124  1.00  0.00    -0.507 OA
ATOM     25  H   UNL     1      59.422  29.188  29.791  1.00  0.00     0.293 HD
ENDBRANCH   6  24
BRANCH   8  26
ATOM     26  O   UNL     1      61.791  24.962  28.317  1.00  0.00    -0.508 OA
ATOM     27  H   UNL     1      62.140  24.257  28.958  1.00  0.00     0.293 HD
ENDBRANCH   8  26
TORSDOF 6
ENDMDL
MODEL 4
REMARK VINA RESULT:    -4.645      4.360      5.816
REMARK INTER + INTRA:          -5.797
REMARK INTER:                  -5.903
REMARK INTRA:                   0.105
REMARK UNBOUND:                -0.201
REMARK SMILES O=c1c(O)c(-c2ccc(O)c(O)c2)oc2cc(O)cc(O)c12
REMARK SMILES IDX 5 1 3 2 2 3 1 4 22 5 20 6 19 7 17 8 16 9 15 10 14 11 6 12
REMARK SMILES IDX 7 13 8 14 9 15 13 16 11 17 10 18 12 20 4 22 21 24 18 26
REMARK H PARENT 10 19 12 21 4 23 21 25 18 27
REMARK Flexibility Score: inf
ROOT
ATOM      1  C   UNL     1      60.115  29.525  28.384  1.00  0.00     0.180 A 
ATOM      2  C   UNL     1      60.491  28.176  28.536  1.00  0.00     0.208 A 
ATOM      3  C   UNL     1      61.852  27.863  28.680  1.00  0.00     0.238 A 
ATOM      4  O   UNL     1      62.200  26.660  28.828  1.00  0.00    -0.285 OA
ATOM      5  C   UNL     1      62.812  28.896  28.650  1.00  0.00     0.111 A 
ATOM      6  C   UNL     1      64.202  28.665  28.784  1.00  0.00     0.134 A 
ATOM      7  C   UNL     1      65.095  29.746  28.734  1.00  0.00     0.093 A 
ATOM      8  C   UNL     1      64.623  31.052  28.552  1.00  0.00     0.123 A 
ATOM      9  C   UNL     1      63.254  31.284  28.419  1.00  0.00     0.094 A 
ATOM     10  C   UNL     1      62.347  30.221  28.468  1.00  0.00     0.146 A 
ATOM     11  O   UNL     1      61.049  30.471  28.345  1.00  0.00    -0.452 OA
ENDROOT
BRANCH   1  12
ATOM     12  C   UNL     1      58.700  29.936  28.245  1.00  0.00     0.025 A 
ATOM     13  C   UNL     1      57.728  29.359  29.078  1.00  0.00     0.016 A 
ATOM     14  C   UNL     1      56.384  29.717  28.951  1.00  0.00     0.051 A 
ATOM     15  C   UNL     1      55.988  30.643  27.981  1.00  0.00     0.157 A 
ATOM     16  C   UNL     1      58.297  30.852  27.257  1.00  0.00     0.062 A 
ATOM     17  C   UNL     1      56.947  31.211  27.126  1.00  0.00     0.158 A 
BRANCH  15  18
ATOM     18  O   UNL     1      54.639  30.983  27.879  1.00  0.00    -0.504 OA
ATOM     19  H   UNL     1      54.007  30.917  28.667  1.00  0.00     0.293 HD
ENDBRANCH  15  18
BRANCH  17  20
ATOM     20  O   UNL     1      56.557  32.125  26.148  1.00  0.00    -0.504 OA
ATOM     21  H   UNL     1      56.437  33.109  26.358  1.00  0.00     0.293 HD
ENDBRANCH  17  20
ENDBRANCH   1  12
BRANCH   2  22
ATOM     22  O   UNL     1      59.525  27.167  28.513  1.00  0.00    -0.502 OA
ATOM     23  H   UNL     1      59.314  26.600  29.324  1.00  0.00     0.293 HD
ENDBRANCH   2  22
BRANCH   6  24
ATOM     24  O   UNL     1      64.702  27.376  28.966  1.00  0.00    -0.507 OA
ATOM     25  H   UNL     1      64.112  26.557  28.879  1.00  0.00     0.293 HD
ENDBRANCH   6  24
BRANCH   8  26
ATOM     26  O   UNL     1      65.509  32.125  28.501  1.00  0.00    -0.508 OA
ATOM     27  H   UNL     1      65.707  32.689  29.321  1.00  0.00     0.293 HD
ENDBRANCH   8  26
TORSDOF 6
ENDMDL
MODEL 5
REMARK VINA RESULT:    -4.645      1.808      7.358
REMARK INTER + INTRA:          -5.797
REMARK INTER:                  -5.589
REMARK INTRA:                  -0.208
REMARK UNBOUND:                -0.201
REMARK SMILES O=c1c(O)c(-c2ccc(O)c(O)c2)oc2cc(O)cc(O)c12
REMARK SMILES IDX 5 1 3 2 2 3 1 4 22 5 20 6 19 7 17 8 16 9 15 10 14 11 6 12
REMARK SMILES IDX 7 13 8 14 9 15 13 16 11 17 10 18 12 20 4 22 21 24 18 26
REMARK H PARENT 10 19 12 21 4 23 21 25 18 27
REMARK Flexibility Score: inf
ROOT
ATOM      1  C   UNL     1      56.146  24.485  27.336  1.00  0.00     0.180 A 
ATOM      2  C   UNL     1      56.307  23.783  26.127  1.00  0.00     0.208 A 
ATOM      3  C   UNL     1      55.301  22.894  25.719  1.00  0.00     0.238 A 
ATOM      4  O   UNL     1      55.428  22.268  24.631  1.00  0.00    -0.285 OA
ATOM      5  C   UNL     1      54.165  22.706  26.533  1.00  0.00     0.111 A 
ATOM      6  C   UNL     1      53.108  21.826  26.197  1.00  0.00     0.134 A 
ATOM      7  C   UNL     1      52.015  21.687  27.065  1.00  0.00     0.093 A 
ATOM      8  C   UNL     1      51.960  22.411  28.262  1.00  0.00     0.123 A 
ATOM      9  C   UNL     1      52.999  23.280  28.598  1.00  0.00     0.094 A 
ATOM     10  C   UNL     1      54.096  23.434  27.745  1.00  0.00     0.146 A 
ATOM     11  O   UNL     1      55.069  24.271  28.086  1.00  0.00    -0.452 OA
ENDROOT
BRANCH   1  12
ATOM     12  C   UNL     1      57.154  25.453  27.824  1.00  0.00     0.025 A 
ATOM     13  C   UNL     1      56.860  26.826  27.804  1.00  0.00     0.016 A 
ATOM     14  C   UNL     1      57.803  27.759  28.240  1.00  0.00     0.051 A 
ATOM     15  C   UNL     1      59.059  27.338  28.688  1.00  0.00     0.157 A 
ATOM     16  C   UNL     1      58.425  25.033  28.256  1.00  0.00     0.062 A 
ATOM     17  C   UNL     1      59.375  25.969  28.692  1.00  0.00     0.158 A 
BRANCH  15  18
ATOM     18  O   UNL     1      59.980  28.292  29.120  1.00  0.00    -0.504 OA
ATOM     19  H   UNL     1      59.693  29.203  29.455  1.00  0.00     0.293 HD
ENDBRANCH  15  18
BRANCH  17  20
ATOM     20  O   UNL     1      60.630  25.543  29.125  1.00  0.00    -0.504 OA
ATOM     21  H   UNL     1      61.434  25.547  28.508  1.00  0.00     0.293 HD
ENDBRANCH  17  20
ENDBRANCH   1  12
BRANCH   2  22
ATOM     22  O   UNL     1      57.465  23.950  25.362  1.00  0.00    -0.502 OA
ATOM     23  H   UNL     1      57.815  23.230  24.743  1.00  0.00     0.293 HD
ENDBRANCH   2  22
BRANCH   6  24
ATOM     24  O   UNL     1      53.135  21.091  25.011  1.00  0.00    -0.507 OA
ATOM     25  H   UNL     1      52.290  20.715  24.597  1.00  0.00     0.293 HD
ENDBRANCH   6  24
BRANCH   8  26
ATOM     26  O   UNL     1      50.876  22.273  29.125  1.00  0.00    -0.508 OA
ATOM     27  H   UNL     1      50.962  21.791  30.013  1.00  0.00     0.293 HD
ENDBRANCH   8  26
TORSDOF 6
ENDMDL
MODEL 6
REMARK VINA RESULT:    -4.601      1.404      2.983
REMARK INTER + INTRA:          -5.744
REMARK INTER:                  -5.627
REMARK INTRA:                  -0.117
REMARK UNBOUND:                -0.201
REMARK SMILES O=c1c(O)c(-c2ccc(O)c(O)c2)oc2cc(O)cc(O)c12
REMARK SMILES IDX 5 1 3 2 2 3 1 4 22 5 20 6 19 7 17 8 16 9 15 10 14 11 6 12
REMARK SMILES IDX 7 13 8 14 9 15 13 16 11 17 10 18 12 20 4 22 21 24 18 26
REMARK H PARENT 10 19 12 21 4 23 21 25 18 27
REMARK Flexibility Score: inf
ROOT
ATOM      1  C   UNL     1      57.648  26.703  28.380  1.00  0.00     0.180 A 
ATOM      2  C   UNL     1      57.245  28.045  28.519  1.00  0.00     0.208 A 
ATOM      3  C   UNL     1      58.225  29.030  28.717  1.00  0.00     0.238 A 
ATOM      4  O   UNL     1      57.878  30.238  28.831  1.00  0.00    -0.285 OA
ATOM      5  C   UNL     1      59.583  28.658  28.792  1.00  0.00     0.111 A 
ATOM      6  C   UNL     1      60.632  29.588  28.994  1.00  0.00     0.134 A 
ATOM      7  C   UNL     1      61.957  29.136  29.067  1.00  0.00     0.093 A 
ATOM      8  C   UNL     1      62.254  27.774  28.943  1.00  0.00     0.123 A 
ATOM      9  C   UNL     1      61.225  26.854  28.745  1.00  0.00     0.094 A 
ATOM     10  C   UNL     1      59.896  27.283  28.667  1.00  0.00     0.146 A 
ATOM     11  O   UNL     1      58.937  26.387  28.472  1.00  0.00    -0.452 OA
ENDROOT
BRANCH   1  12
ATOM     12  C   UNL     1      56.676  25.610  28.150  1.00  0.00     0.025 A 
ATOM     13  C   UNL     1      55.704  25.334  29.125  1.00  0.00     0.016 A 
ATOM     14  C   UNL     1      54.790  24.294  28.938  1.00  0.00     0.051 A 
ATOM     15  C   UNL     1      54.843  23.505  27.786  1.00  0.00     0.157 A 
ATOM     16  C   UNL     1      56.740  24.802  27.001  1.00  0.00     0.062 A 
ATOM     17  C   UNL     1      55.825  23.756  26.813  1.00  0.00     0.158 A 
BRANCH  15  18
ATOM     18  O   UNL     1      53.916  22.475  27.626  1.00  0.00    -0.504 OA
ATOM     19  H   UNL     1      54.072  21.705  26.987  1.00  0.00     0.293 HD
ENDBRANCH  15  18
BRANCH  17  20
ATOM     20  O   UNL     1      55.892  22.964  25.667  1.00  0.00    -0.504 OA
ATOM     21  H   UNL     1      55.837  23.367  24.739  1.00  0.00     0.293 HD
ENDBRANCH  17  20
ENDBRANCH   1  12
BRANCH   2  22
ATOM     22  O   UNL     1      55.890  28.382  28.490  1.00  0.00    -0.502 OA
ATOM     23  H   UNL     1      55.331  28.459  29.330  1.00  0.00     0.293 HD
ENDBRANCH   2  22
BRANCH   6  24
ATOM     24  O   UNL     1      60.367  30.952  29.121  1.00  0.00    -0.507 OA
ATOM     25  H   UNL     1      61.086  31.612  29.393  1.00  0.00     0.293 HD
ENDBRANCH   6  24
BRANCH   8  26
ATOM     26  O   UNL     1      63.571  27.325  29.017  1.00  0.00    -0.508 OA
ATOM     27  H   UNL     1      63.917  26.829  29.830  1.00  0.00     0.293 HD
ENDBRANCH   8  26
TORSDOF 6
ENDMDL
MODEL 7
REMARK VINA RESULT:    -4.516      2.376      4.786
REMARK INTER + INTRA:          -5.641
REMARK INTER:                  -6.062
REMARK INTRA:                   0.421
REMARK UNBOUND:                -0.201
REMARK SMILES O=c1c(O)c(-c2ccc(O)c(O)c2)oc2cc(O)cc(O)c12
REMARK SMILES IDX 5 1 3 2 2 3 1 4 22 5 20 6 19 7 17 8 16 9 15 10 14 11 6 12
REMARK SMILES IDX 7 13 8 14 9 15 13 16 11 17 10 18 12 20 4 22 21 24 18 26
REMARK H PARENT 10 19 12 21 4 23 21 25 18 27
REMARK Flexibility Score: inf
ROOT
ATOM      1  C   UNL     1      60.010  27.837  28.623  1.00  0.00     0.180 A 
ATOM      2  C   UNL     1      59.593  29.136  28.275  1.00  0.00     0.208 A 
ATOM      3  C   UNL     1      60.560  30.144  28.132  1.00  0.00     0.238 A 
ATOM      4  O   UNL     1      60.200  31.309  27.809  1.00  0.00    -0.285 OA
ATOM      5  C   UNL     1      61.919  29.843  28.359  1.00  0.00     0.111 A 
ATOM      6  C   UNL     1      62.955  30.801  28.240  1.00  0.00     0.134 A 
ATOM      7  C   UNL     1      64.282  30.425  28.491  1.00  0.00     0.093 A 
ATOM      8  C   UNL     1      64.593  29.110  28.859  1.00  0.00     0.123 A 
ATOM      9  C   UNL     1      63.576  28.163  28.977  1.00  0.00     0.094 A 
ATOM     10  C   UNL     1      62.246  28.517  28.729  1.00  0.00     0.146 A 
ATOM     11  O   UNL     1      61.299  27.594  28.844  1.00  0.00    -0.452 OA
ENDROOT
BRANCH   1  12
ATOM     12  C   UNL     1      59.053  26.718  28.774  1.00  0.00     0.025 A 
ATOM     13  C   UNL     1      59.527  25.396  28.749  1.00  0.00     0.016 A 
ATOM     14  C   UNL     1      58.639  24.324  28.870  1.00  0.00     0.051 A 
ATOM     15  C   UNL     1      57.267  24.554  29.000  1.00  0.00     0.157 A 
ATOM     16  C   UNL     1      57.670  26.946  28.886  1.00  0.00     0.062 A 
ATOM     17  C   UNL     1      56.777  25.870  29.004  1.00  0.00     0.158 A 
BRANCH  15  18
ATOM     18  O   UNL     1      56.405  23.464  29.120  1.00  0.00    -0.504 OA
ATOM     19  H   UNL     1      56.213  22.842  28.345  1.00  0.00     0.293 HD
ENDBRANCH  15  18
BRANCH  17  20
ATOM     20  O   UNL     1      55.408  26.107  29.120  1.00  0.00    -0.504 OA
ATOM     21  H   UNL     1      54.723  25.422  28.821  1.00  0.00     0.293 HD
ENDBRANCH  17  20
ENDBRANCH   1  12
BRANCH   2  22
ATOM     22  O   UNL     1      58.236  29.420  28.104  1.00  0.00    -0.502 OA
ATOM     23  H   UNL     1      57.702  29.067  27.320  1.00  0.00     0.293 HD
ENDBRANCH   2  22
BRANCH   6  24
ATOM     24  O   UNL     1      62.676  32.119  27.875  1.00  0.00    -0.507 OA
ATOM     25  H   UNL     1      63.359  32.697  27.401  1.00  0.00     0.293 HD
ENDBRANCH   6  24
BRANCH   8  26
ATOM     26  O   UNL     1      65.911  28.737  29.109  1.00  0.00    -0.508 OA
ATOM     27  H   UNL     1      66.566  29.369  29.558  1.00  0.00     0.293 HD
ENDBRANCH   8  26
TORSDOF 6
ENDMDL
MODEL 8
REMARK VINA RESULT:    -4.142      2.219      7.681
REMARK INTER + INTRA:          -5.191
REMARK INTER:                  -5.731
REMARK INTRA:                   0.540
REMARK UNBOUND:                -0.201
REMARK SMILES O=c1c(O)c(-c2ccc(O)c(O)c2)oc2cc(O)cc(O)c12
REMARK SMILES IDX 5 1 3 2 2 3 1 4 22 5 20 6 19 7 17 8 16 9 15 10 14 11 6 12
REMARK SMILES IDX 7 13 8 14 9 15 13 16 11 17 10 18 12 20 4 22 21 24 18 26
REMARK H PARENT 10 19 12 21 4 23 21 25 18 27
REMARK Flexibility Score: inf
ROOT
ATOM      1  C   UNL     1      59.873  28.291  28.774  1.00  0.00     0.180 A 
ATOM      2  C   UNL     1      58.741  29.127  28.812  1.00  0.00     0.208 A 
ATOM      3  C   UNL     1      57.469  28.542  28.914  1.00  0.00     0.238 A 
ATOM      4  O   UNL     1      56.448  29.281  28.961  1.00  0.00    -0.285 OA
ATOM      5  C   UNL     1      57.348  27.138  28.955  1.00  0.00     0.111 A 
ATOM      6  C   UNL     1      56.104  26.470  29.053  1.00  0.00     0.134 A 
ATOM      7  C   UNL     1      56.068  25.068  29.079  1.00  0.00     0.093 A 
ATOM      8  C   UNL     1      57.251  24.322  29.008  1.00  0.00     0.123 A 
ATOM      9  C   UNL     1      58.479  24.977  28.911  1.00  0.00     0.094 A 
ATOM     10  C   UNL     1      58.538  26.373  28.886  1.00  0.00     0.146 A 
ATOM     11  O   UNL     1      59.721  26.970  28.799  1.00  0.00    -0.452 OA
ENDROOT
BRANCH   1  12
ATOM     12  C   UNL     1      61.248  28.833  28.686  1.00  0.00     0.025 A 
ATOM     13  C   UNL     1      61.442  30.222  28.648  1.00  0.00     0.016 A 
ATOM     14  C   UNL     1      62.730  30.755  28.545  1.00  0.00     0.051 A 
ATOM     15  C   UNL     1      63.840  29.910  28.462  1.00  0.00     0.157 A 
ATOM     16  C   UNL     1      62.365  27.983  28.583  1.00  0.00     0.062 A 
ATOM     17  C   UNL     1      63.658  28.517  28.476  1.00  0.00     0.158 A 
BRANCH  15  18
ATOM     18  O   UNL     1      65.113  30.470  28.362  1.00  0.00    -0.504 OA
ATOM     19  H   UNL     1      65.418  30.968  27.535  1.00  0.00     0.293 HD
ENDBRANCH  15  18
BRANCH  17  20
ATOM     20  O   UNL     1      64.760  27.668  28.380  1.00  0.00    -0.504 OA
ATOM     21  H   UNL     1      64.985  27.185  27.518  1.00  0.00     0.293 HD
ENDBRANCH  17  20
ENDBRANCH   1  12
BRANCH   2  22
ATOM     22  O   UNL     1      58.884  30.514  28.721  1.00  0.00    -0.502 OA
ATOM     23  H   UNL     1      59.580  30.950  28.129  1.00  0.00     0.293 HD
ENDBRANCH   2  22
BRANCH   6  24
ATOM     24  O   UNL     1      54.908  27.185  29.125  1.00  0.00    -0.507 OA
ATOM     25  H   UNL     1      54.887  28.165  29.379  1.00  0.00     0.293 HD
ENDBRANCH   6  24
BRANCH   8  26
ATOM     26  O   UNL     1      57.214  22.931  29.033  1.00  0.00    -0.508 OA
ATOM     27  H   UNL     1      57.470  22.408  29.863  1.00  0.00     0.293 HD
ENDBRANCH   8  26
TORSDOF 6
ENDMDL
MODEL 9
REMARK VINA RESULT:    -4.058      2.979      8.667
REMARK INTER + INTRA:          -5.090
REMARK INTER:                  -5.630
REMARK INTRA:                   0.540
REMARK UNBOUND:                -0.201
REMARK SMILES O=c1c(O)c(-c2ccc(O)c(O)c2)oc2cc(O)cc(O)c12
REMARK SMILES IDX 5 1 3 2 2 3 1 4 22 5 20 6 19 7 17 8 16 9 15 10 14 11 6 12
REMARK SMILES IDX 7 13 8 14 9 15 13 16 11 17 10 18 12 20 4 22 21 24 18 26
REMARK H PARENT 10 19 12 21 4 23 21 25 18 27
REMARK Flexibility Score: inf
ROOT
ATOM      1  C   UNL     1      61.471  29.472  28.655  1.00  0.00     0.180 A 
ATOM      2  C   UNL     1      60.306  30.237  28.454  1.00  0.00     0.208 A 
ATOM      3  C   UNL     1      59.061  29.588  28.447  1.00  0.00     0.238 A 
ATOM      4  O   UNL     1      58.009  30.263  28.279  1.00  0.00    -0.285 OA
ATOM      5  C   UNL     1      59.003  28.189  28.620  1.00  0.00     0.111 A 
ATOM      6  C   UNL     1      57.791  27.459  28.622  1.00  0.00     0.134 A 
ATOM      7  C   UNL     1      57.818  26.067  28.791  1.00  0.00     0.093 A 
ATOM      8  C   UNL     1      59.033  25.392  28.958  1.00  0.00     0.123 A 
ATOM      9  C   UNL     1      60.231  26.108  28.957  1.00  0.00     0.094 A 
ATOM     10  C   UNL     1      60.226  27.496  28.792  1.00  0.00     0.146 A 
ATOM     11  O   UNL     1      61.379  28.153  28.800  1.00  0.00    -0.452 OA
ENDROOT
BRANCH   1  12
ATOM     12  C   UNL     1      62.818  30.086  28.694  1.00  0.00     0.025 A 
ATOM     13  C   UNL     1      62.956  31.464  28.465  1.00  0.00     0.016 A 
ATOM     14  C   UNL     1      64.219  32.061  28.477  1.00  0.00     0.051 A 
ATOM     15  C   UNL     1      65.363  31.290  28.701  1.00  0.00     0.157 A 
ATOM     16  C   UNL     1      63.971  29.309  28.900  1.00  0.00     0.062 A 
ATOM     17  C   UNL     1      65.241  29.906  28.910  1.00  0.00     0.158 A 
BRANCH  15  18
ATOM     18  O   UNL     1      66.610  31.914  28.710  1.00  0.00    -0.504 OA
ATOM     19  H   UNL     1      67.448  31.436  29.018  1.00  0.00     0.293 HD
ENDBRANCH  15  18
BRANCH  17  20
ATOM     20  O   UNL     1      66.379  29.129  29.121  1.00  0.00    -0.504 OA
ATOM     21  H   UNL     1      66.414  28.153  28.850  1.00  0.00     0.293 HD
ENDBRANCH  17  20
ENDBRANCH   1  12
BRANCH   2  22
ATOM     22  O   UNL     1      60.394  31.614  28.235  1.00  0.00    -0.502 OA
ATOM     23  H   UNL     1      61.272  32.116  28.280  1.00  0.00     0.293 HD
ENDBRANCH   2  22
BRANCH   6  24
ATOM     24  O   UNL     1      56.564  28.102  28.458  1.00  0.00    -0.507 OA
ATOM     25  H   UNL     1      55.818  28.011  29.137  1.00  0.00     0.293 HD
ENDBRANCH   6  24
BRANCH   8  26
ATOM     26  O   UNL     1      59.060  24.010  29.125  1.00  0.00    -0.508 OA
ATOM     27  H   UNL     1      59.645  23.572  29.827  1.00  0.00     0.293 HD
ENDBRANCH   8  26
TORSDOF 6
ENDMDL
