MODEL 1
REMARK VINA RESULT:    -4.709      0.000      0.000
REMARK INTER + INTRA:         -16.528
REMARK INTER:                 -12.416
REMARK INTRA:                  -4.112
REMARK UNBOUND:                -4.112
REMARK SMILES CCCCCCCCCCCCCCCCCCCCCCCCCCCCCC(=O)[O-]
REMARK SMILES IDX 16 1 17 2 18 3 19 4 20 5 21 6 22 7 23 8 24 9 25 10 26 11
REMARK SMILES IDX 27 12 28 13 29 14 30 15 31 16 32 17 15 18 14 19 13 20 12 21
REMARK SMILES IDX 11 22 10 23 9 24 8 25 7 26 6 27 5 28 4 29 3 30 2 31 1 32
REMARK H PARENT
REMARK Flexibility Score: inf
ROOT
ATOM      1  C   UNL     1     178.932 183.507 182.782  1.00  0.00     0.000 C 
ENDROOT
BRANCH   1   2
ATOM      2  C   UNL     1     180.186 183.920 183.582  1.00  0.00     0.000 C 
BRANCH   2   3
ATOM      3  C   UNL     1     181.294 182.852 183.614  1.00  0.00     0.000 C 
BRANCH   3   4
ATOM      4  C   UNL     1     181.700 182.449 185.039  1.00  0.00     0.000 C 
BRANCH   4   5
ATOM      5  C   UNL     1     182.572 181.187 185.028  1.00  0.00     0.000 C 
BRANCH   5   6
ATOM      6  C   UNL     1     183.128 180.913 183.623  1.00  0.00     0.000 C 
BRANCH   6   7
ATOM      7  C   UNL     1     184.467 180.148 183.643  1.00  0.00     0.000 C 
BRANCH   7   8
ATOM      8  C   UNL     1     185.452 180.529 182.524  1.00  0.00     0.000 C 
BRANCH   8   9
ATOM      9  C   UNL     1     185.212 181.943 181.966  1.00  0.00     0.000 C 
BRANCH   9  10
ATOM     10  C   UNL     1     186.505 182.585 181.436  1.00  0.00     0.000 C 
BRANCH  10  11
ATOM     11  C   UNL     1     186.972 183.807 182.257  1.00  0.00     0.000 C 
BRANCH  11  12
ATOM     12  C   UNL     1     187.339 185.026 181.390  1.00  0.00     0.000 C 
BRANCH  12  13
ATOM     13  C   UNL     1     188.493 185.884 181.944  1.00  0.00     0.006 C 
BRANCH  13  14
ATOM     14  C   UNL     1     188.232 187.398 181.906  1.00  0.00     0.053 C 
BRANCH  14  15
ATOM     15  C   UNL     1     189.124 188.148 182.850  1.00  0.00     0.041 C 
ATOM     16  O   UNL     1     189.975 188.961 182.405  1.00  0.00    -0.550 OA
ATOM     17  O   UNL     1     188.995 187.966 184.222  1.00  0.00    -0.550 OA
ENDBRANCH  14  15
ENDBRANCH  13  14
ENDBRANCH  12  13
ENDBRANCH  11  12
ENDBRANCH  10  11
ENDBRANCH   9  10
ENDBRANCH   8   9
ENDBRANCH   7   8
ENDBRANCH   6   7
ENDBRANCH   5   6
ENDBRANCH   4   5
ENDBRANCH   3   4
ENDBRANCH   2   3
ENDBRANCH   1   2
BRANCH   1  18
ATOM     18  C   UNL     1     179.205 183.368 181.271  1.00  0.00     0.000 C 
BRANCH  18  19
ATOM     19  C   UNL     1     178.560 182.114 180.658  1.00  0.00     0.000 C 
BRANCH  19  20
ATOM     20  C   UNL     1     177.680 181.343 181.659  1.00  0.00     0.000 C 
BRANCH  20  21
ATOM     21  C   UNL     1     178.335 180.034 182.136  1.00  0.00     0.000 C 
BRANCH  21  22
ATOM     22  C   UNL     1     179.866 179.968 181.971  1.00  0.00     0.000 C 
BRANCH  22  23
ATOM     23  C   UNL     1     180.385 178.841 181.060  1.00  0.00     0.000 C 
BRANCH  23  24
ATOM     24  C   UNL     1     181.904 178.911 180.833  1.00  0.00    -0.000 C 
BRANCH  24  25
ATOM     25  C   UNL     1     182.365 180.253 180.235  1.00  0.00    -0.000 C 
BRANCH  25  26
ATOM     26  C   UNL     1     181.389 180.899 179.234  1.00  0.00    -0.000 C 
BRANCH  26  27
ATOM     27  C   UNL     1     182.061 181.929 178.316  1.00  0.00    -0.000 C 
BRANCH  27  28
ATOM     28  C   UNL     1     183.102 182.755 179.089  1.00  0.00    -0.000 C 
BRANCH  28  29
ATOM     29  C   UNL     1     182.462 183.598 180.206  1.00  0.00    -0.000 C 
BRANCH  29  30
ATOM     30  C   UNL     1     183.488 184.448 180.990  1.00  0.00    -0.000 C 
BRANCH  30  31
ATOM     31  C   UNL     1     183.228 185.962 180.901  1.00  0.00    -0.003 C 
ATOM     32  C   UNL     1     181.835 186.354 181.386  1.00  0.00     0.004 C 
ENDBRANCH  30  31
ENDBRANCH  29  30
ENDBRANCH  28  29
ENDBRANCH  27  28
ENDBRANCH  26  27
ENDBRANCH  25  26
ENDBRANCH  24  25
ENDBRANCH  23  24
ENDBRANCH  22  23
ENDBRANCH  21  22
ENDBRANCH  20  21
ENDBRANCH  19  20
ENDBRANCH  18  19
ENDBRANCH   1  18
TORSDOF 28
ENDMDL
MODEL 2
REMARK VINA RESULT:    -4.451      2.992      6.746
REMARK INTER + INTRA:         -15.849
REMARK INTER:                 -11.102
REMARK INTRA:                  -4.747
REMARK UNBOUND:                -4.112
REMARK SMILES CCCCCCCCCCCCCCCCCCCCCCCCCCCCCC(=O)[O-]
REMARK SMILES IDX 16 1 17 2 18 3 19 4 20 5 21 6 22 7 23 8 24 9 25 10 26 11
REMARK SMILES IDX 27 12 28 13 29 14 30 15 31 16 32 17 15 18 14 19 13 20 12 21
REMARK SMILES IDX 11 22 10 23 9 24 8 25 7 26 6 27 5 28 4 29 3 30 2 31 1 32
REMARK H PARENT
REMARK Flexibility Score: inf
ROOT
ATOM      1  C   UNL     1     182.518 180.333 182.677  1.00  0.00     0.000 C 
ENDROOT
BRANCH   1   2
ATOM      2  C   UNL     1     182.179 179.485 181.433  1.00  0.00     0.000 C 
BRANCH   2   3
ATOM      3  C   UNL     1     182.423 180.204 180.094  1.00  0.00     0.000 C 
BRANCH   3   4
ATOM      4  C   UNL     1     181.127 180.510 179.330  1.00  0.00     0.000 C 
BRANCH   4   5
ATOM      5  C   UNL     1     181.079 181.979 178.890  1.00  0.00     0.000 C 
BRANCH   5   6
ATOM      6  C   UNL     1     182.261 182.769 179.473  1.00  0.00     0.000 C 
BRANCH   6   7
ATOM      7  C   UNL     1     181.820 184.013 180.269  1.00  0.00     0.000 C 
BRANCH   7   8
ATOM      8  C   UNL     1     182.931 184.684 181.097  1.00  0.00     0.000 C 
BRANCH   8   9
ATOM      9  C   UNL     1     183.909 183.674 181.723  1.00  0.00     0.000 C 
BRANCH   9  10
ATOM     10  C   UNL     1     185.315 184.268 181.910  1.00  0.00     0.000 C 
BRANCH  10  11
ATOM     11  C   UNL     1     186.454 183.272 181.597  1.00  0.00     0.000 C 
BRANCH  11  12
ATOM     12  C   UNL     1     185.955 181.860 181.237  1.00  0.00     0.000 C 
BRANCH  12  13
ATOM     13  C   UNL     1     186.596 180.724 182.057  1.00  0.00     0.006 C 
BRANCH  13  14
ATOM     14  C   UNL     1     185.703 180.171 183.179  1.00  0.00     0.053 C 
BRANCH  14  15
ATOM     15  C   UNL     1     186.506 179.655 184.335  1.00  0.00     0.041 C 
ATOM     16  O   UNL     1     187.763 179.657 184.285  1.00  0.00    -0.550 OA
ATOM     17  O   UNL     1     185.863 179.196 185.479  1.00  0.00    -0.550 OA
ENDBRANCH  14  15
ENDBRANCH  13  14
ENDBRANCH  12  13
ENDBRANCH  11  12
ENDBRANCH  10  11
ENDBRANCH   9  10
ENDBRANCH   8   9
ENDBRANCH   7   8
ENDBRANCH   6   7
ENDBRANCH   5   6
ENDBRANCH   4   5
ENDBRANCH   3   4
ENDBRANCH   2   3
ENDBRANCH   1   2
BRANCH   1  18
ATOM     18  C   UNL     1     181.469 181.427 182.960  1.00  0.00     0.000 C 
BRANCH  18  19
ATOM     19  C   UNL     1     181.700 182.147 184.298  1.00  0.00     0.000 C 
BRANCH  19  20
ATOM     20  C   UNL     1     180.940 183.481 184.400  1.00  0.00     0.000 C 
BRANCH  20  21
ATOM     21  C   UNL     1     180.006 183.724 183.200  1.00  0.00     0.000 C 
BRANCH  21  22
ATOM     22  C   UNL     1     178.511 183.867 183.550  1.00  0.00     0.000 C 
BRANCH  22  23
ATOM     23  C   UNL     1     177.532 183.285 182.514  1.00  0.00     0.000 C 
BRANCH  23  24
ATOM     24  C   UNL     1     178.236 182.806 181.233  1.00  0.00    -0.000 C 
BRANCH  24  25
ATOM     25  C   UNL     1     178.024 181.307 180.952  1.00  0.00    -0.000 C 
BRANCH  25  26
ATOM     26  C   UNL     1     178.372 180.361 182.117  1.00  0.00    -0.000 C 
BRANCH  26  27
ATOM     27  C   UNL     1     177.139 179.693 182.740  1.00  0.00    -0.000 C 
BRANCH  27  28
ATOM     28  C   UNL     1     176.155 179.235 181.651  1.00  0.00    -0.000 C 
BRANCH  28  29
ATOM     29  C   UNL     1     175.268 178.070 182.123  1.00  0.00    -0.000 C 
BRANCH  29  30
ATOM     30  C   UNL     1     175.982 176.701 182.072  1.00  0.00    -0.000 C 
BRANCH  30  31
ATOM     31  C   UNL     1     175.249 175.595 182.850  1.00  0.00    -0.003 C 
ATOM     32  C   UNL     1     174.866 176.020 184.265  1.00  0.00     0.004 C 
ENDBRANCH  30  31
ENDBRANCH  29  30
ENDBRANCH  28  29
ENDBRANCH  27  28
ENDBRANCH  26  27
ENDBRANCH  25  26
ENDBRANCH  24  25
ENDBRANCH  23  24
ENDBRANCH  22  23
ENDBRANCH  21  22
ENDBRANCH  20  21
ENDBRANCH  19  20
ENDBRANCH  18  19
ENDBRANCH   1  18
TORSDOF 28
ENDMDL
MODEL 3
REMARK VINA RESULT:    -4.429      5.072      9.404
REMARK INTER + INTRA:         -15.790
REMARK INTER:                 -11.650
REMARK INTRA:                  -4.140
REMARK UNBOUND:                -4.112
REMARK SMILES CCCCCCCCCCCCCCCCCCCCCCCCCCCCCC(=O)[O-]
REMARK SMILES IDX 16 1 17 2 18 3 19 4 20 5 21 6 22 7 23 8 24 9 25 10 26 11
REMARK SMILES IDX 27 12 28 13 29 14 30 15 31 16 32 17 15 18 14 19 13 20 12 21
REMARK SMILES IDX 11 22 10 23 9 24 8 25 7 26 6 27 5 28 4 29 3 30 2 31 1 32
REMARK H PARENT
REMARK Flexibility Score: inf
ROOT
ATOM      1  C   UNL     1     184.241 180.067 183.584  1.00  0.00     0.000 C 
ENDROOT
BRANCH   1   2
ATOM      2  C   UNL     1     182.990 180.968 183.523  1.00  0.00     0.000 C 
BRANCH   2   3
ATOM      3  C   UNL     1     182.438 181.376 184.901  1.00  0.00     0.000 C 
BRANCH   3   4
ATOM      4  C   UNL     1     181.636 182.685 184.865  1.00  0.00     0.000 C 
BRANCH   4   5
ATOM      5  C   UNL     1     181.001 182.906 183.486  1.00  0.00     0.000 C 
BRANCH   5   6
ATOM      6  C   UNL     1     179.820 183.884 183.573  1.00  0.00     0.000 C 
BRANCH   6   7
ATOM      7  C   UNL     1     178.559 183.374 182.848  1.00  0.00     0.000 C 
BRANCH   7   8
ATOM      8  C   UNL     1     178.738 183.101 181.343  1.00  0.00     0.000 C 
BRANCH   8   9
ATOM      9  C   UNL     1     178.178 181.735 180.908  1.00  0.00     0.000 C 
BRANCH   9  10
ATOM     10  C   UNL     1     178.029 180.766 182.093  1.00  0.00     0.000 C 
BRANCH  10  11
ATOM     11  C   UNL     1     176.651 180.072 182.156  1.00  0.00     0.000 C 
BRANCH  11  12
ATOM     12  C   UNL     1     176.722 178.546 181.959  1.00  0.00     0.000 C 
BRANCH  12  13
ATOM     13  C   UNL     1     175.379 177.813 182.138  1.00  0.00     0.006 C 
BRANCH  13  14
ATOM     14  C   UNL     1     175.512 176.330 182.521  1.00  0.00     0.053 C 
BRANCH  14  15
ATOM     15  C   UNL     1     174.672 175.978 183.712  1.00  0.00     0.041 C 
ATOM     16  O   UNL     1     175.164 176.022 184.870  1.00  0.00    -0.550 OA
ATOM     17  O   UNL     1     173.338 175.626 183.544  1.00  0.00    -0.550 OA
ENDBRANCH  14  15
ENDBRANCH  13  14
ENDBRANCH  12  13
ENDBRANCH  11  12
ENDBRANCH  10  11
ENDBRANCH   9  10
ENDBRANCH   8   9
ENDBRANCH   7   8
ENDBRANCH   6   7
ENDBRANCH   5   6
ENDBRANCH   4   5
ENDBRANCH   3   4
ENDBRANCH   2   3
ENDBRANCH   1   2
BRANCH   1  18
ATOM     18  C   UNL     1     185.482 180.723 182.947  1.00  0.00     0.000 C 
BRANCH  18  19
ATOM     19  C   UNL     1     185.345 180.915 181.427  1.00  0.00     0.000 C 
BRANCH  19  20
ATOM     20  C   UNL     1     185.879 182.276 180.945  1.00  0.00     0.000 C 
BRANCH  20  21
ATOM     21  C   UNL     1     185.701 183.388 181.995  1.00  0.00     0.000 C 
BRANCH  21  22
ATOM     22  C   UNL     1     184.308 184.050 182.020  1.00  0.00     0.000 C 
BRANCH  22  23
ATOM     23  C   UNL     1     184.066 185.120 180.939  1.00  0.00     0.000 C 
BRANCH  23  24
ATOM     24  C   UNL     1     182.573 185.413 180.717  1.00  0.00    -0.000 C 
BRANCH  24  25
ATOM     25  C   UNL     1     181.738 184.144 180.465  1.00  0.00    -0.000 C 
BRANCH  25  26
ATOM     26  C   UNL     1     182.505 182.963 179.843  1.00  0.00    -0.000 C 
BRANCH  26  27
ATOM     27  C   UNL     1     181.798 182.360 178.621  1.00  0.00    -0.000 C 
BRANCH  27  28
ATOM     28  C   UNL     1     181.140 181.016 178.978  1.00  0.00    -0.000 C 
BRANCH  28  29
ATOM     29  C   UNL     1     181.472 180.570 180.412  1.00  0.00    -0.000 C 
BRANCH  29  30
ATOM     30  C   UNL     1     182.314 179.275 180.468  1.00  0.00    -0.000 C 
BRANCH  30  31
ATOM     31  C   UNL     1     181.705 178.183 181.364  1.00  0.00    -0.003 C 
ATOM     32  C   UNL     1     180.258 177.860 181.004  1.00  0.00     0.004 C 
ENDBRANCH  30  31
ENDBRANCH  29  30
ENDBRANCH  28  29
ENDBRANCH  27  28
ENDBRANCH  26  27
ENDBRANCH  25  26
ENDBRANCH  24  25
ENDBRANCH  23  24
ENDBRANCH  22  23
ENDBRANCH  21  22
ENDBRANCH  20  21
ENDBRANCH  19  20
ENDBRANCH  18  19
ENDBRANCH   1  18
TORSDOF 28
ENDMDL
MODEL 4
REMARK VINA RESULT:    -4.357      1.030      3.347
REMARK INTER + INTRA:         -15.600
REMARK INTER:                 -10.932
REMARK INTRA:                  -4.668
REMARK UNBOUND:                -4.112
REMARK SMILES CCCCCCCCCCCCCCCCCCCCCCCCCCCCCC(=O)[O-]
REMARK SMILES IDX 16 1 17 2 18 3 19 4 20 5 21 6 22 7 23 8 24 9 25 10 26 11
REMARK SMILES IDX 27 12 28 13 29 14 30 15 31 16 32 17 15 18 14 19 13 20 12 21
REMARK SMILES IDX 11 22 10 23 9 24 8 25 7 26 6 27 5 28 4 29 3 30 2 31 1 32
REMARK H PARENT
REMARK Flexibility Score: inf
ROOT
ATOM      1  C   UNL     1     181.688 184.579 181.767  1.00  0.00     0.000 C 
ENDROOT
BRANCH   1   2
ATOM      2  C   UNL     1     182.055 183.294 182.540  1.00  0.00     0.000 C 
BRANCH   2   3
ATOM      3  C   UNL     1     181.321 183.136 183.884  1.00  0.00     0.000 C 
BRANCH   3   4
ATOM      4  C   UNL     1     181.981 182.107 184.813  1.00  0.00     0.000 C 
BRANCH   4   5
ATOM      5  C   UNL     1     182.390 180.847 184.039  1.00  0.00     0.000 C 
BRANCH   5   6
ATOM      6  C   UNL     1     183.880 180.533 184.244  1.00  0.00     0.000 C 
BRANCH   6   7
ATOM      7  C   UNL     1     184.590 180.101 182.946  1.00  0.00     0.000 C 
BRANCH   7   8
ATOM      8  C   UNL     1     185.771 180.992 182.521  1.00  0.00     0.000 C 
BRANCH   8   9
ATOM      9  C   UNL     1     185.375 182.068 181.495  1.00  0.00     0.000 C 
BRANCH   9  10
ATOM     10  C   UNL     1     185.596 183.492 182.034  1.00  0.00     0.000 C 
BRANCH  10  11
ATOM     11  C   UNL     1     187.076 183.935 182.026  1.00  0.00     0.000 C 
BRANCH  11  12
ATOM     12  C   UNL     1     187.301 185.315 181.381  1.00  0.00     0.000 C 
BRANCH  12  13
ATOM     13  C   UNL     1     188.462 186.126 181.988  1.00  0.00     0.006 C 
BRANCH  13  14
ATOM     14  C   UNL     1     188.334 187.647 181.810  1.00  0.00     0.053 C 
BRANCH  14  15
ATOM     15  C   UNL     1     189.169 188.403 182.800  1.00  0.00     0.041 C 
ATOM     16  O   UNL     1     189.148 188.088 184.018  1.00  0.00    -0.550 OA
ATOM     17  O   UNL     1     189.990 189.438 182.371  1.00  0.00    -0.550 OA
ENDBRANCH  14  15
ENDBRANCH  13  14
ENDBRANCH  12  13
ENDBRANCH  11  12
ENDBRANCH  10  11
ENDBRANCH   9  10
ENDBRANCH   8   9
ENDBRANCH   7   8
ENDBRANCH   6   7
ENDBRANCH   5   6
ENDBRANCH   4   5
ENDBRANCH   3   4
ENDBRANCH   2   3
ENDBRANCH   1   2
BRANCH   1  18
ATOM     18  C   UNL     1     181.486 184.332 180.259  1.00  0.00     0.000 C 
BRANCH  18  19
ATOM     19  C   UNL     1     182.309 183.147 179.729  1.00  0.00     0.000 C 
BRANCH  19  20
ATOM     20  C   UNL     1     181.559 182.322 178.669  1.00  0.00     0.000 C 
BRANCH  20  21
ATOM     21  C   UNL     1     181.600 180.810 178.957  1.00  0.00     0.000 C 
BRANCH  21  22
ATOM     22  C   UNL     1     182.347 180.407 180.244  1.00  0.00     0.000 C 
BRANCH  22  23
ATOM     23  C   UNL     1     181.869 179.100 180.904  1.00  0.00     0.000 C 
BRANCH  23  24
ATOM     24  C   UNL     1     180.340 179.033 181.052  1.00  0.00    -0.000 C 
BRANCH  24  25
ATOM     25  C   UNL     1     179.778 180.104 182.004  1.00  0.00    -0.000 C 
BRANCH  25  26
ATOM     26  C   UNL     1     178.256 180.049 182.234  1.00  0.00    -0.000 C 
BRANCH  26  27
ATOM     27  C   UNL     1     177.497 181.175 181.519  1.00  0.00    -0.000 C 
BRANCH  27  28
ATOM     28  C   UNL     1     178.423 182.371 181.244  1.00  0.00    -0.000 C 
BRANCH  28  29
ATOM     29  C   UNL     1     178.156 183.545 182.202  1.00  0.00    -0.000 C 
BRANCH  29  30
ATOM     30  C   UNL     1     177.049 183.246 183.239  1.00  0.00    -0.000 C 
BRANCH  30  31
ATOM     31  C   UNL     1     176.795 184.404 184.219  1.00  0.00    -0.003 C 
ATOM     32  C   UNL     1     178.031 184.770 185.036  1.00  0.00     0.004 C 
ENDBRANCH  30  31
ENDBRANCH  29  30
ENDBRANCH  28  29
ENDBRANCH  27  28
ENDBRANCH  26  27
ENDBRANCH  25  26
ENDBRANCH  24  25
ENDBRANCH  23  24
ENDBRANCH  22  23
ENDBRANCH  21  22
ENDBRANCH  20  21
ENDBRANCH  19  20
ENDBRANCH  18  19
ENDBRANCH   1  18
TORSDOF 28
ENDMDL
MODEL 5
REMARK VINA RESULT:    -4.344      1.888      5.552
REMARK INTER + INTRA:         -15.566
REMARK INTER:                 -11.371
REMARK INTRA:                  -4.196
REMARK UNBOUND:                -4.112
REMARK SMILES CCCCCCCCCCCCCCCCCCCCCCCCCCCCCC(=O)[O-]
REMARK SMILES IDX 16 1 17 2 18 3 19 4 20 5 21 6 22 7 23 8 24 9 25 10 26 11
REMARK SMILES IDX 27 12 28 13 29 14 30 15 31 16 32 17 15 18 14 19 13 20 12 21
REMARK SMILES IDX 11 22 10 23 9 24 8 25 7 26 6 27 5 28 4 29 3 30 2 31 1 32
REMARK H PARENT
REMARK Flexibility Score: inf
ROOT
ATOM      1  C   UNL     1     179.514 184.068 183.914  1.00  0.00     0.000 C 
ENDROOT
BRANCH   1   2
ATOM      2  C   UNL     1     178.366 183.515 183.043  1.00  0.00     0.000 C 
BRANCH   2   3
ATOM      3  C   UNL     1     178.789 183.123 181.616  1.00  0.00     0.000 C 
BRANCH   3   4
ATOM      4  C   UNL     1     177.903 182.028 181.005  1.00  0.00     0.000 C 
BRANCH   4   5
ATOM      5  C   UNL     1     177.425 181.041 182.078  1.00  0.00     0.000 C 
BRANCH   5   6
ATOM      6  C   UNL     1     178.308 179.784 182.105  1.00  0.00     0.000 C 
BRANCH   6   7
ATOM      7  C   UNL     1     179.803 180.092 181.890  1.00  0.00     0.000 C 
BRANCH   7   8
ATOM      8  C   UNL     1     180.573 179.043 181.067  1.00  0.00     0.000 C 
BRANCH   8   9
ATOM      9  C   UNL     1     181.573 179.669 180.079  1.00  0.00     0.000 C 
BRANCH   9  10
ATOM     10  C   UNL     1     181.079 181.018 179.531  1.00  0.00     0.000 C 
BRANCH  10  11
ATOM     11  C   UNL     1     182.027 181.646 178.486  1.00  0.00     0.000 C 
BRANCH  11  12
ATOM     12  C   UNL     1     182.858 182.820 179.037  1.00  0.00     0.000 C 
BRANCH  12  13
ATOM     13  C   UNL     1     182.453 183.286 180.449  1.00  0.00     0.006 C 
BRANCH  13  14
ATOM     14  C   UNL     1     181.732 184.643 180.486  1.00  0.00     0.053 C 
BRANCH  14  15
ATOM     15  C   UNL     1     182.611 185.734 181.018  1.00  0.00     0.041 C 
ATOM     16  O   UNL     1     183.837 185.755 180.735  1.00  0.00    -0.550 OA
ATOM     17  O   UNL     1     182.069 186.743 181.806  1.00  0.00    -0.550 OA
ENDBRANCH  14  15
ENDBRANCH  13  14
ENDBRANCH  12  13
ENDBRANCH  11  12
ENDBRANCH  10  11
ENDBRANCH   9  10
ENDBRANCH   8   9
ENDBRANCH   7   8
ENDBRANCH   6   7
ENDBRANCH   5   6
ENDBRANCH   4   5
ENDBRANCH   3   4
ENDBRANCH   2   3
ENDBRANCH   1   2
BRANCH   1  18
ATOM     18  C   UNL     1     180.848 183.330 183.684  1.00  0.00     0.000 C 
BRANCH  18  19
ATOM     19  C   UNL     1     181.448 182.759 184.979  1.00  0.00     0.000 C 
BRANCH  19  20
ATOM     20  C   UNL     1     182.270 181.479 184.745  1.00  0.00     0.000 C 
BRANCH  20  21
ATOM     21  C   UNL     1     182.742 181.336 183.287  1.00  0.00     0.000 C 
BRANCH  21  22
ATOM     22  C   UNL     1     183.549 180.059 182.981  1.00  0.00     0.000 C 
BRANCH  22  23
ATOM     23  C   UNL     1     184.954 179.998 183.609  1.00  0.00     0.000 C 
BRANCH  23  24
ATOM     24  C   UNL     1     186.001 180.785 182.803  1.00  0.00    -0.000 C 
BRANCH  24  25
ATOM     25  C   UNL     1     185.524 181.147 181.385  1.00  0.00    -0.000 C 
BRANCH  25  26
ATOM     26  C   UNL     1     186.065 182.476 180.825  1.00  0.00    -0.000 C 
BRANCH  26  27
ATOM     27  C   UNL     1     186.316 183.531 181.912  1.00  0.00    -0.000 C 
BRANCH  27  28
ATOM     28  C   UNL     1     187.659 184.243 181.683  1.00  0.00    -0.000 C 
BRANCH  28  29
ATOM     29  C   UNL     1     187.524 185.774 181.755  1.00  0.00    -0.000 C 
BRANCH  29  30
ATOM     30  C   UNL     1     188.883 186.501 181.872  1.00  0.00    -0.000 C 
BRANCH  30  31
ATOM     31  C   UNL     1     188.783 187.891 182.523  1.00  0.00    -0.003 C 
ATOM     32  C   UNL     1     190.112 188.371 183.102  1.00  0.00     0.004 C 
ENDBRANCH  30  31
ENDBRANCH  29  30
ENDBRANCH  28  29
ENDBRANCH  27  28
ENDBRANCH  26  27
ENDBRANCH  25  26
ENDBRANCH  24  25
ENDBRANCH  23  24
ENDBRANCH  22  23
ENDBRANCH  21  22
ENDBRANCH  20  21
ENDBRANCH  19  20
ENDBRANCH  18  19
ENDBRANCH   1  18
TORSDOF 28
ENDMDL
MODEL 6
REMARK VINA RESULT:    -4.341      5.046      9.130
REMARK INTER + INTRA:         -15.559
REMARK INTER:                 -10.986
REMARK INTRA:                  -4.573
REMARK UNBOUND:                -4.112
REMARK SMILES CCCCCCCCCCCCCCCCCCCCCCCCCCCCCC(=O)[O-]
REMARK SMILES IDX 16 1 17 2 18 3 19 4 20 5 21 6 22 7 23 8 24 9 25 10 26 11
REMARK SMILES IDX 27 12 28 13 29 14 30 15 31 16 32 17 15 18 14 19 13 20 12 21
REMARK SMILES IDX 11 22 10 23 9 24 8 25 7 26 6 27 5 28 4 29 3 30 2 31 1 32
REMARK H PARENT
REMARK Flexibility Score: inf
ROOT
ATOM      1  C   UNL     1     182.762 180.503 182.765  1.00  0.00     0.000 C 
ENDROOT
BRANCH   1   2
ATOM      2  C   UNL     1     181.691 181.591 182.987  1.00  0.00     0.000 C 
BRANCH   2   3
ATOM      3  C   UNL     1     181.681 182.186 184.407  1.00  0.00     0.000 C 
BRANCH   3   4
ATOM      4  C   UNL     1     180.858 183.478 184.512  1.00  0.00     0.000 C 
BRANCH   4   5
ATOM      5  C   UNL     1     180.008 183.696 183.254  1.00  0.00     0.000 C 
BRANCH   5   6
ATOM      6  C   UNL     1     178.522 183.849 183.612  1.00  0.00     0.000 C 
BRANCH   6   7
ATOM      7  C   UNL     1     177.580 183.243 182.553  1.00  0.00     0.000 C 
BRANCH   7   8
ATOM      8  C   UNL     1     178.249 182.892 181.211  1.00  0.00     0.000 C 
BRANCH   8   9
ATOM      9  C   UNL     1     178.178 181.392 180.876  1.00  0.00     0.000 C 
BRANCH   9  10
ATOM     10  C   UNL     1     178.426 180.511 182.112  1.00  0.00     0.000 C 
BRANCH  10  11
ATOM     11  C   UNL     1     177.605 179.202 182.114  1.00  0.00     0.000 C 
BRANCH  11  12
ATOM     12  C   UNL     1     176.082 179.432 182.096  1.00  0.00     0.000 C 
BRANCH  12  13
ATOM     13  C   UNL     1     175.243 178.156 181.892  1.00  0.00     0.006 C 
BRANCH  13  14
ATOM     14  C   UNL     1     175.899 176.874 182.428  1.00  0.00     0.053 C 
BRANCH  14  15
ATOM     15  C   UNL     1     174.976 176.099 183.320  1.00  0.00     0.041 C 
ATOM     16  O   UNL     1     174.061 175.391 182.824  1.00  0.00    -0.550 OA
ATOM     17  O   UNL     1     175.145 176.139 184.699  1.00  0.00    -0.550 OA
ENDBRANCH  14  15
ENDBRANCH  13  14
ENDBRANCH  12  13
ENDBRANCH  11  12
ENDBRANCH  10  11
ENDBRANCH   9  10
ENDBRANCH   8   9
ENDBRANCH   7   8
ENDBRANCH   6   7
ENDBRANCH   5   6
ENDBRANCH   4   5
ENDBRANCH   3   4
ENDBRANCH   2   3
ENDBRANCH   1   2
BRANCH   1  18
ATOM     18  C   UNL     1     182.363 179.483 181.680  1.00  0.00     0.000 C 
BRANCH  18  19
ATOM     19  C   UNL     1     182.584 180.008 180.253  1.00  0.00     0.000 C 
BRANCH  19  20
ATOM     20  C   UNL     1     181.268 180.298 179.510  1.00  0.00     0.000 C 
BRANCH  20  21
ATOM     21  C   UNL     1     181.266 181.677 178.826  1.00  0.00     0.000 C 
BRANCH  21  22
ATOM     22  C   UNL     1     182.352 182.655 179.317  1.00  0.00     0.000 C 
BRANCH  22  23
ATOM     23  C   UNL     1     181.859 183.771 180.257  1.00  0.00     0.000 C 
BRANCH  23  24
ATOM     24  C   UNL     1     183.011 184.587 180.866  1.00  0.00    -0.000 C 
BRANCH  24  25
ATOM     25  C   UNL     1     183.997 183.728 181.678  1.00  0.00    -0.000 C 
BRANCH  25  26
ATOM     26  C   UNL     1     185.381 184.360 181.917  1.00  0.00    -0.000 C 
BRANCH  26  27
ATOM     27  C   UNL     1     186.534 183.356 181.780  1.00  0.00    -0.000 C 
BRANCH  27  28
ATOM     28  C   UNL     1     186.071 182.086 181.047  1.00  0.00    -0.000 C 
BRANCH  28  29
ATOM     29  C   UNL     1     186.604 180.805 181.712  1.00  0.00    -0.000 C 
BRANCH  29  30
ATOM     30  C   UNL     1     185.962 180.522 183.090  1.00  0.00    -0.000 C 
BRANCH  30  31
ATOM     31  C   UNL     1     186.892 179.773 184.059  1.00  0.00    -0.003 C 
ATOM     32  C   UNL     1     186.138 179.112 185.211  1.00  0.00     0.004 C 
ENDBRANCH  30  31
ENDBRANCH  29  30
ENDBRANCH  28  29
ENDBRANCH  27  28
ENDBRANCH  26  27
ENDBRANCH  25  26
ENDBRANCH  24  25
ENDBRANCH  23  24
ENDBRANCH  22  23
ENDBRANCH  21  22
ENDBRANCH  20  21
ENDBRANCH  19  20
ENDBRANCH  18  19
ENDBRANCH   1  18
TORSDOF 28
ENDMDL
MODEL 7
REMARK VINA RESULT:    -4.275      1.956      5.250
REMARK INTER + INTRA:         -15.385
REMARK INTER:                 -12.065
REMARK INTRA:                  -3.320
REMARK UNBOUND:                -4.112
REMARK SMILES CCCCCCCCCCCCCCCCCCCCCCCCCCCCCC(=O)[O-]
REMARK SMILES IDX 16 1 17 2 18 3 19 4 20 5 21 6 22 7 23 8 24 9 25 10 26 11
REMARK SMILES IDX 27 12 28 13 29 14 30 15 31 16 32 17 15 18 14 19 13 20 12 21
REMARK SMILES IDX 11 22 10 23 9 24 8 25 7 26 6 27 5 28 4 29 3 30 2 31 1 32
REMARK H PARENT
REMARK Flexibility Score: inf
ROOT
ATOM      1  C   UNL     1     181.468 184.556 181.542  1.00  0.00     0.000 C 
ENDROOT
BRANCH   1   2
ATOM      2  C   UNL     1     180.923 183.982 182.867  1.00  0.00     0.000 C 
BRANCH   2   3
ATOM      3  C   UNL     1     181.318 182.517 183.129  1.00  0.00     0.000 C 
BRANCH   3   4
ATOM      4  C   UNL     1     181.991 182.310 184.494  1.00  0.00     0.000 C 
BRANCH   4   5
ATOM      5  C   UNL     1     182.689 180.946 184.564  1.00  0.00     0.000 C 
BRANCH   5   6
ATOM      6  C   UNL     1     183.111 180.470 183.166  1.00  0.00     0.000 C 
BRANCH   6   7
ATOM      7  C   UNL     1     184.620 180.639 182.902  1.00  0.00     0.000 C 
BRANCH   7   8
ATOM      8  C   UNL     1     185.001 180.885 181.430  1.00  0.00     0.000 C 
BRANCH   8   9
ATOM      9  C   UNL     1     186.099 181.949 181.262  1.00  0.00     0.000 C 
BRANCH   9  10
ATOM     10  C   UNL     1     185.820 183.208 182.101  1.00  0.00     0.000 C 
BRANCH  10  11
ATOM     11  C   UNL     1     187.091 184.009 182.458  1.00  0.00     0.000 C 
BRANCH  11  12
ATOM     12  C   UNL     1     187.527 184.993 181.356  1.00  0.00     0.000 C 
BRANCH  12  13
ATOM     13  C   UNL     1     188.631 185.982 181.779  1.00  0.00     0.006 C 
BRANCH  13  14
ATOM     14  C   UNL     1     188.154 187.435 181.936  1.00  0.00     0.053 C 
BRANCH  14  15
ATOM     15  C   UNL     1     189.042 188.223 182.852  1.00  0.00     0.041 C 
ATOM     16  O   UNL     1     188.981 188.051 184.097  1.00  0.00    -0.550 OA
ATOM     17  O   UNL     1     189.956 189.128 182.326  1.00  0.00    -0.550 OA
ENDBRANCH  14  15
ENDBRANCH  13  14
ENDBRANCH  12  13
ENDBRANCH  11  12
ENDBRANCH  10  11
ENDBRANCH   9  10
ENDBRANCH   8   9
ENDBRANCH   7   8
ENDBRANCH   6   7
ENDBRANCH   5   6
ENDBRANCH   4   5
ENDBRANCH   3   4
ENDBRANCH   2   3
ENDBRANCH   1   2
BRANCH   1  18
ATOM     18  C   UNL     1     182.858 184.000 181.175  1.00  0.00     0.000 C 
BRANCH  18  19
ATOM     19  C   UNL     1     183.047 183.809 179.661  1.00  0.00     0.000 C 
BRANCH  19  20
ATOM     20  C   UNL     1     182.990 182.333 179.232  1.00  0.00     0.000 C 
BRANCH  20  21
ATOM     21  C   UNL     1     181.912 182.067 178.165  1.00  0.00     0.000 C 
BRANCH  21  22
ATOM     22  C   UNL     1     180.775 181.121 178.602  1.00  0.00     0.000 C 
BRANCH  22  23
ATOM     23  C   UNL     1     180.351 181.236 180.078  1.00  0.00     0.000 C 
BRANCH  23  24
ATOM     24  C   UNL     1     179.041 182.020 180.261  1.00  0.00    -0.000 C 
BRANCH  24  25
ATOM     25  C   UNL     1     178.306 181.673 181.569  1.00  0.00    -0.000 C 
BRANCH  25  26
ATOM     26  C   UNL     1     178.342 180.187 181.972  1.00  0.00    -0.000 C 
BRANCH  26  27
ATOM     27  C   UNL     1     177.052 179.717 182.658  1.00  0.00    -0.000 C 
BRANCH  27  28
ATOM     28  C   UNL     1     175.982 179.346 181.618  1.00  0.00    -0.000 C 
BRANCH  28  29
ATOM     29  C   UNL     1     175.081 178.194 182.098  1.00  0.00    -0.000 C 
BRANCH  29  30
ATOM     30  C   UNL     1     175.831 176.849 182.231  1.00  0.00    -0.000 C 
BRANCH  30  31
ATOM     31  C   UNL     1     175.210 175.899 183.269  1.00  0.00    -0.003 C 
ATOM     32  C   UNL     1     173.684 175.879 183.216  1.00  0.00     0.004 C 
ENDBRANCH  30  31
ENDBRANCH  29  30
ENDBRANCH  28  29
ENDBRANCH  27  28
ENDBRANCH  26  27
ENDBRANCH  25  26
ENDBRANCH  24  25
ENDBRANCH  23  24
ENDBRANCH  22  23
ENDBRANCH  21  22
ENDBRANCH  20  21
ENDBRANCH  19  20
ENDBRANCH  18  19
ENDBRANCH   1  18
TORSDOF 28
ENDMDL
MODEL 8
REMARK VINA RESULT:    -4.247      1.858      5.477
REMARK INTER + INTRA:         -15.310
REMARK INTER:                 -11.899
REMARK INTRA:                  -3.411
REMARK UNBOUND:                -4.112
REMARK SMILES CCCCCCCCCCCCCCCCCCCCCCCCCCCCCC(=O)[O-]
REMARK SMILES IDX 16 1 17 2 18 3 19 4 20 5 21 6 22 7 23 8 24 9 25 10 26 11
REMARK SMILES IDX 27 12 28 13 29 14 30 15 31 16 32 17 15 18 14 19 13 20 12 21
REMARK SMILES IDX 11 22 10 23 9 24 8 25 7 26 6 27 5 28 4 29 3 30 2 31 1 32
REMARK H PARENT
REMARK Flexibility Score: inf
ROOT
ATOM      1  C   UNL     1     182.113 181.557 178.660  1.00  0.00     0.000 C 
ENDROOT
BRANCH   1   2
ATOM      2  C   UNL     1     180.802 181.285 179.427  1.00  0.00     0.000 C 
BRANCH   2   3
ATOM      3  C   UNL     1     180.928 180.225 180.535  1.00  0.00     0.000 C 
BRANCH   3   4
ATOM      4  C   UNL     1     182.367 179.724 180.728  1.00  0.00     0.000 C 
BRANCH   4   5
ATOM      5  C   UNL     1     182.719 179.614 182.217  1.00  0.00     0.000 C 
BRANCH   5   6
ATOM      6  C   UNL     1     183.652 180.754 182.649  1.00  0.00     0.000 C 
BRANCH   6   7
ATOM      7  C   UNL     1     185.112 180.299 182.841  1.00  0.00     0.000 C 
BRANCH   7   8
ATOM      8  C   UNL     1     186.166 181.171 182.133  1.00  0.00     0.000 C 
BRANCH   8   9
ATOM      9  C   UNL     1     185.545 182.287 181.275  1.00  0.00     0.000 C 
BRANCH   9  10
ATOM     10  C   UNL     1     185.508 183.635 182.015  1.00  0.00     0.000 C 
BRANCH  10  11
ATOM     11  C   UNL     1     186.902 184.147 182.439  1.00  0.00     0.000 C 
BRANCH  11  12
ATOM     12  C   UNL     1     187.614 184.966 181.345  1.00  0.00     0.000 C 
BRANCH  12  13
ATOM     13  C   UNL     1     188.703 185.923 181.868  1.00  0.00     0.006 C 
BRANCH  13  14
ATOM     14  C   UNL     1     188.308 187.408 181.839  1.00  0.00     0.053 C 
BRANCH  14  15
ATOM     15  C   UNL     1     189.090 188.219 182.829  1.00  0.00     0.041 C 
ATOM     16  O   UNL     1     189.808 189.175 182.437  1.00  0.00    -0.550 OA
ATOM     17  O   UNL     1     189.003 187.933 184.186  1.00  0.00    -0.550 OA
ENDBRANCH  14  15
ENDBRANCH  13  14
ENDBRANCH  12  13
ENDBRANCH  11  12
ENDBRANCH  10  11
ENDBRANCH   9  10
ENDBRANCH   8   9
ENDBRANCH   7   8
ENDBRANCH   6   7
ENDBRANCH   5   6
ENDBRANCH   4   5
ENDBRANCH   3   4
ENDBRANCH   2   3
ENDBRANCH   1   2
BRANCH   1  18
ATOM     18  C   UNL     1     182.564 183.029 178.749  1.00  0.00     0.000 C 
BRANCH  18  19
ATOM     19  C   UNL     1     182.762 183.509 180.196  1.00  0.00     0.000 C 
BRANCH  19  20
ATOM     20  C   UNL     1     182.040 184.835 180.492  1.00  0.00     0.000 C 
BRANCH  20  21
ATOM     21  C   UNL     1     181.440 184.880 181.909  1.00  0.00     0.000 C 
BRANCH  21  22
ATOM     22  C   UNL     1     181.701 183.628 182.772  1.00  0.00     0.000 C 
BRANCH  22  23
ATOM     23  C   UNL     1     180.463 182.764 183.074  1.00  0.00     0.000 C 
BRANCH  23  24
ATOM     24  C   UNL     1     179.142 183.518 182.848  1.00  0.00    -0.000 C 
BRANCH  24  25
ATOM     25  C   UNL     1     178.299 182.932 181.701  1.00  0.00    -0.000 C 
BRANCH  25  26
ATOM     26  C   UNL     1     177.197 181.946 182.129  1.00  0.00    -0.000 C 
BRANCH  26  27
ATOM     27  C   UNL     1     177.381 180.541 181.539  1.00  0.00    -0.000 C 
BRANCH  27  28
ATOM     28  C   UNL     1     176.784 179.474 182.472  1.00  0.00    -0.000 C 
BRANCH  28  29
ATOM     29  C   UNL     1     175.758 178.582 181.752  1.00  0.00    -0.000 C 
BRANCH  29  30
ATOM     30  C   UNL     1     175.892 177.085 182.112  1.00  0.00    -0.000 C 
BRANCH  30  31
ATOM     31  C   UNL     1     175.162 176.697 183.409  1.00  0.00    -0.003 C 
ATOM     32  C   UNL     1     174.197 175.530 183.219  1.00  0.00     0.004 C 
ENDBRANCH  30  31
ENDBRANCH  29  30
ENDBRANCH  28  29
ENDBRANCH  27  28
ENDBRANCH  26  27
ENDBRANCH  25  26
ENDBRANCH  24  25
ENDBRANCH  23  24
ENDBRANCH  22  23
ENDBRANCH  21  22
ENDBRANCH  20  21
ENDBRANCH  19  20
ENDBRANCH  18  19
ENDBRANCH   1  18
TORSDOF 28
ENDMDL
MODEL 9
REMARK VINA RESULT:    -4.225      5.121      9.329
REMARK INTER + INTRA:         -15.253
REMARK INTER:                 -10.511
REMARK INTRA:                  -4.742
REMARK UNBOUND:                -4.112
REMARK SMILES CCCCCCCCCCCCCCCCCCCCCCCCCCCCCC(=O)[O-]
REMARK SMILES IDX 16 1 17 2 18 3 19 4 20 5 21 6 22 7 23 8 24 9 25 10 26 11
REMARK SMILES IDX 27 12 28 13 29 14 30 15 31 16 32 17 15 18 14 19 13 20 12 21
REMARK SMILES IDX 11 22 10 23 9 24 8 25 7 26 6 27 5 28 4 29 3 30 2 31 1 32
REMARK H PARENT
REMARK Flexibility Score: inf
ROOT
ATOM      1  C   UNL     1     181.700 180.712 182.734  1.00  0.00     0.000 C 
ENDROOT
BRANCH   1   2
ATOM      2  C   UNL     1     182.446 179.525 182.089  1.00  0.00     0.000 C 
BRANCH   2   3
ATOM      3  C   UNL     1     182.803 179.735 180.606  1.00  0.00     0.000 C 
BRANCH   3   4
ATOM      4  C   UNL     1     182.565 181.175 180.128  1.00  0.00     0.000 C 
BRANCH   4   5
ATOM      5  C   UNL     1     181.929 181.196 178.732  1.00  0.00     0.000 C 
BRANCH   5   6
ATOM      6  C   UNL     1     180.587 181.942 178.748  1.00  0.00     0.000 C 
BRANCH   6   7
ATOM      7  C   UNL     1     179.700 181.563 179.949  1.00  0.00     0.000 C 
BRANCH   7   8
ATOM      8  C   UNL     1     178.593 182.578 180.288  1.00  0.00     0.000 C 
BRANCH   8   9
ATOM      9  C   UNL     1     177.815 182.217 181.566  1.00  0.00     0.000 C 
BRANCH   9  10
ATOM     10  C   UNL     1     178.141 180.797 182.061  1.00  0.00     0.000 C 
BRANCH  10  11
ATOM     11  C   UNL     1     176.901 180.005 182.529  1.00  0.00     0.000 C 
BRANCH  11  12
ATOM     12  C   UNL     1     176.621 178.747 181.685  1.00  0.00     0.000 C 
BRANCH  12  13
ATOM     13  C   UNL     1     175.364 177.960 182.104  1.00  0.00     0.006 C 
BRANCH  13  14
ATOM     14  C   UNL     1     175.631 176.493 182.479  1.00  0.00     0.053 C 
BRANCH  14  15
ATOM     15  C   UNL     1     174.742 176.025 183.592  1.00  0.00     0.041 C 
ATOM     16  O   UNL     1     175.204 175.880 184.753  1.00  0.00    -0.550 OA
ATOM     17  O   UNL     1     173.397 175.775 183.350  1.00  0.00    -0.550 OA
ENDBRANCH  14  15
ENDBRANCH  13  14
ENDBRANCH  12  13
ENDBRANCH  11  12
ENDBRANCH  10  11
ENDBRANCH   9  10
ENDBRANCH   8   9
ENDBRANCH   7   8
ENDBRANCH   6   7
ENDBRANCH   5   6
ENDBRANCH   4   5
ENDBRANCH   3   4
ENDBRANCH   2   3
ENDBRANCH   1   2
BRANCH   1  18
ATOM     18  C   UNL     1     182.408 181.249 183.995  1.00  0.00     0.000 C 
BRANCH  18  19
ATOM     19  C   UNL     1     181.993 182.686 184.350  1.00  0.00     0.000 C 
BRANCH  19  20
ATOM     20  C   UNL     1     180.599 183.057 183.812  1.00  0.00     0.000 C 
BRANCH  20  21
ATOM     21  C   UNL     1     180.619 184.323 182.938  1.00  0.00     0.000 C 
BRANCH  21  22
ATOM     22  C   UNL     1     181.277 184.154 181.553  1.00  0.00     0.000 C 
BRANCH  22  23
ATOM     23  C   UNL     1     181.894 185.432 180.954  1.00  0.00     0.000 C 
BRANCH  23  24
ATOM     24  C   UNL     1     183.430 185.387 180.912  1.00  0.00    -0.000 C 
BRANCH  24  25
ATOM     25  C   UNL     1     184.002 183.985 181.191  1.00  0.00    -0.000 C 
BRANCH  25  26
ATOM     26  C   UNL     1     184.958 183.890 182.394  1.00  0.00    -0.000 C 
BRANCH  26  27
ATOM     27  C   UNL     1     186.327 183.298 182.033  1.00  0.00    -0.000 C 
BRANCH  27  28
ATOM     28  C   UNL     1     186.206 182.318 180.854  1.00  0.00    -0.000 C 
BRANCH  28  29
ATOM     29  C   UNL     1     186.084 180.857 181.323  1.00  0.00    -0.000 C 
BRANCH  29  30
ATOM     30  C   UNL     1     186.624 180.630 182.754  1.00  0.00    -0.000 C 
BRANCH  30  31
ATOM     31  C   UNL     1     185.645 179.874 183.668  1.00  0.00    -0.003 C 
ATOM     32  C   UNL     1     186.299 179.377 184.955  1.00  0.00     0.004 C 
ENDBRANCH  30  31
ENDBRANCH  29  30
ENDBRANCH  28  29
ENDBRANCH  27  28
ENDBRANCH  26  27
ENDBRANCH  25  26
ENDBRANCH  24  25
ENDBRANCH  23  24
ENDBRANCH  22  23
ENDBRANCH  21  22
ENDBRANCH  20  21
ENDBRANCH  19  20
ENDBRANCH  18  19
ENDBRANCH   1  18
TORSDOF 28
ENDMDL
