MODEL 1
REMARK VINA RESULT:     2.173      0.000      0.000
REMARK INTER + INTRA:           5.183
REMARK INTER:                   4.206
REMARK INTRA:                   0.977
REMARK UNBOUND:                 0.977
REMARK SMILES CCCCCCCCCCCCCCCCCC(=O)[O-]
REMARK SMILES IDX 10 1 11 2 12 3 13 4 14 5 15 6 16 7 17 8 18 9 19 10 20 11
REMARK SMILES IDX 9 12 8 13 7 14 6 15 5 16 4 17 3 18 2 19 1 20
REMARK H PARENT
REMARK Flexibility Score: inf
ROOT
ATOM      1  C   UNL     1     -30.136   3.757 -26.031  1.00  0.00     0.000 C 
ENDROOT
BRANCH   1   2
ATOM      2  C   UNL     1     -29.646   3.804 -27.489  1.00  0.00     0.000 C 
BRANCH   2   3
ATOM      3  C   UNL     1     -30.774   4.115 -28.490  1.00  0.00     0.000 C 
BRANCH   3   4
ATOM      4  C   UNL     1     -32.063   3.327 -28.192  1.00  0.00     0.000 C 
BRANCH   4   5
ATOM      5  C   UNL     1     -32.108   1.914 -28.805  1.00  0.00     0.000 C 
BRANCH   5   6
ATOM      6  C   UNL     1     -31.984   0.806 -27.749  1.00  0.00     0.000 C 
BRANCH   6   7
ATOM      7  C   UNL     1     -32.125  -0.581 -28.386  1.00  0.00     0.006 C 
BRANCH   7   8
ATOM      8  C   UNL     1     -31.777  -1.685 -27.384  1.00  0.00     0.053 C 
BRANCH   8   9
ATOM      9  C   UNL     1     -30.817  -2.660 -27.988  1.00  0.00     0.041 C 
ATOM     10  O   UNL     1     -31.217  -3.792 -28.371  1.00  0.00    -0.550 OA
ATOM     11  O   UNL     1     -29.488  -2.302 -28.174  1.00  0.00    -0.550 OA
ENDBRANCH   8   9
ENDBRANCH   7   8
ENDBRANCH   6   7
ENDBRANCH   5   6
ENDBRANCH   4   5
ENDBRANCH   3   4
ENDBRANCH   2   3
ENDBRANCH   1   2
BRANCH   1  12
ATOM     12  C   UNL     1     -31.614   3.354 -25.851  1.00  0.00     0.000 C 
BRANCH  12  13
ATOM     13  C   UNL     1     -32.043   3.199 -24.376  1.00  0.00    -0.000 C 
BRANCH  13  14
ATOM     14  C   UNL     1     -32.039   1.727 -23.922  1.00  0.00    -0.000 C 
BRANCH  14  15
ATOM     15  C   UNL     1     -31.002   0.879 -24.675  1.00  0.00    -0.000 C 
BRANCH  15  16
ATOM     16  C   UNL     1     -31.145  -0.623 -24.373  1.00  0.00    -0.000 C 
BRANCH  16  17
ATOM     17  C   UNL     1     -31.042  -0.939 -22.871  1.00  0.00    -0.000 C 
BRANCH  17  18
ATOM     18  C   UNL     1     -29.645  -0.656 -22.276  1.00  0.00    -0.000 C 
BRANCH  18  19
ATOM     19  C   UNL     1     -29.012  -1.884 -21.597  1.00  0.00    -0.003 C 
ATOM     20  C   UNL     1     -29.035  -1.781 -20.071  1.00  0.00     0.004 C 
ENDBRANCH  18  19
ENDBRANCH  17  18
ENDBRANCH  16  17
ENDBRANCH  15  16
ENDBRANCH  14  15
ENDBRANCH  13  14
ENDBRANCH  12  13
ENDBRANCH   1  12
TORSDOF 16
ENDMDL
MODEL 2
REMARK VINA RESULT:     3.080      6.009      8.510
REMARK INTER + INTRA:           6.939
REMARK INTER:                   7.397
REMARK INTRA:                  -0.458
REMARK UNBOUND:                 0.977
REMARK SMILES CCCCCCCCCCCCCCCCCC(=O)[O-]
REMARK SMILES IDX 10 1 11 2 12 3 13 4 14 5 15 6 16 7 17 8 18 9 19 10 20 11
REMARK SMILES IDX 9 12 8 13 7 14 6 15 5 16 4 17 3 18 2 19 1 20
REMARK H PARENT
REMARK Flexibility Score: inf
ROOT
ATOM      1  C   UNL     1     -27.402  -2.481 -28.724  1.00  0.00     0.000 C 
ENDROOT
BRANCH   1   2
ATOM      2  C   UNL     1     -26.034  -2.301 -28.043  1.00  0.00     0.000 C 
BRANCH   2   3
ATOM      3  C   UNL     1     -25.272  -1.062 -28.548  1.00  0.00     0.000 C 
BRANCH   3   4
ATOM      4  C   UNL     1     -24.000  -0.775 -27.730  1.00  0.00     0.000 C 
BRANCH   4   5
ATOM      5  C   UNL     1     -23.109   0.346 -28.298  1.00  0.00     0.000 C 
BRANCH   5   6
ATOM      6  C   UNL     1     -22.210   0.986 -27.231  1.00  0.00     0.000 C 
BRANCH   6   7
ATOM      7  C   UNL     1     -22.314   2.516 -27.268  1.00  0.00     0.006 C 
BRANCH   7   8
ATOM      8  C   UNL     1     -20.962   3.167 -26.965  1.00  0.00     0.053 C 
BRANCH   8   9
ATOM      9  C   UNL     1     -20.791   4.421 -27.763  1.00  0.00     0.041 C 
ATOM     10  O   UNL     1     -19.645   4.915 -27.934  1.00  0.00    -0.550 OA
ATOM     11  O   UNL     1     -21.894   5.019 -28.359  1.00  0.00    -0.550 OA
ENDBRANCH   8   9
ENDBRANCH   7   8
ENDBRANCH   6   7
ENDBRANCH   5   6
ENDBRANCH   4   5
ENDBRANCH   3   4
ENDBRANCH   2   3
ENDBRANCH   1   2
BRANCH   1  12
ATOM     12  C   UNL     1     -28.614  -2.471 -27.771  1.00  0.00     0.000 C 
BRANCH  12  13
ATOM     13  C   UNL     1     -29.971  -2.640 -28.485  1.00  0.00    -0.000 C 
BRANCH  13  14
ATOM     14  C   UNL     1     -31.130  -2.836 -27.490  1.00  0.00    -0.000 C 
BRANCH  14  15
ATOM     15  C   UNL     1     -31.936  -1.548 -27.260  1.00  0.00    -0.000 C 
BRANCH  15  16
ATOM     16  C   UNL     1     -31.282  -0.627 -26.214  1.00  0.00    -0.000 C 
BRANCH  16  17
ATOM     17  C   UNL     1     -31.839   0.806 -26.254  1.00  0.00    -0.000 C 
BRANCH  17  18
ATOM     18  C   UNL     1     -31.227   1.735 -25.183  1.00  0.00    -0.000 C 
BRANCH  18  19
ATOM     19  C   UNL     1     -30.624   3.025 -25.768  1.00  0.00    -0.003 C 
ATOM     20  C   UNL     1     -31.675   4.114 -25.982  1.00  0.00     0.004 C 
ENDBRANCH  18  19
ENDBRANCH  17  18
ENDBRANCH  16  17
ENDBRANCH  15  16
ENDBRANCH  14  15
ENDBRANCH  13  14
ENDBRANCH  12  13
ENDBRANCH   1  12
TORSDOF 16
ENDMDL
MODEL 3
REMARK VINA RESULT:     3.684      5.663      8.130
REMARK INTER + INTRA:           8.107
REMARK INTER:                   8.672
REMARK INTRA:                  -0.565
REMARK UNBOUND:                 0.977
REMARK SMILES CCCCCCCCCCCCCCCCCC(=O)[O-]
REMARK SMILES IDX 10 1 11 2 12 3 13 4 14 5 15 6 16 7 17 8 18 9 19 10 20 11
REMARK SMILES IDX 9 12 8 13 7 14 6 15 5 16 4 17 3 18 2 19 1 20
REMARK H PARENT
REMARK Flexibility Score: inf
ROOT
ATOM      1  C   UNL     1     -27.234  -2.522 -28.687  1.00  0.00     0.000 C 
ENDROOT
BRANCH   1   2
ATOM      2  C   UNL     1     -28.445  -2.344 -27.755  1.00  0.00     0.000 C 
BRANCH   2   3
ATOM      3  C   UNL     1     -29.788  -2.604 -28.463  1.00  0.00     0.000 C 
BRANCH   3   4
ATOM      4  C   UNL     1     -30.951  -2.794 -27.472  1.00  0.00     0.000 C 
BRANCH   4   5
ATOM      5  C   UNL     1     -31.845  -1.552 -27.285  1.00  0.00     0.000 C 
BRANCH   5   6
ATOM      6  C   UNL     1     -31.374  -0.652 -26.134  1.00  0.00     0.000 C 
BRANCH   6   7
ATOM      7  C   UNL     1     -31.782   0.806 -26.373  1.00  0.00     0.006 C 
BRANCH   7   8
ATOM      8  C   UNL     1     -31.255   1.715 -25.258  1.00  0.00     0.053 C 
BRANCH   8   9
ATOM      9  C   UNL     1     -31.420   3.154 -25.631  1.00  0.00     0.041 C 
ATOM     10  O   UNL     1     -32.012   3.949 -24.854  1.00  0.00    -0.550 OA
ATOM     11  O   UNL     1     -30.878   3.630 -26.818  1.00  0.00    -0.550 OA
ENDBRANCH   8   9
ENDBRANCH   7   8
ENDBRANCH   6   7
ENDBRANCH   5   6
ENDBRANCH   4   5
ENDBRANCH   3   4
ENDBRANCH   2   3
ENDBRANCH   1   2
BRANCH   1  12
ATOM     12  C   UNL     1     -25.860  -2.289 -28.026  1.00  0.00     0.000 C 
BRANCH  12  13
ATOM     13  C   UNL     1     -25.124  -1.034 -28.542  1.00  0.00    -0.000 C 
BRANCH  13  14
ATOM     14  C   UNL     1     -23.863  -0.720 -27.715  1.00  0.00    -0.000 C 
BRANCH  14  15
ATOM     15  C   UNL     1     -23.056   0.454 -28.290  1.00  0.00    -0.000 C 
BRANCH  15  16
ATOM     16  C   UNL     1     -21.775   0.734 -27.485  1.00  0.00    -0.000 C 
BRANCH  16  17
ATOM     17  C   UNL     1     -21.893   1.987 -26.600  1.00  0.00    -0.000 C 
BRANCH  17  18
ATOM     18  C   UNL     1     -20.988   3.152 -27.057  1.00  0.00    -0.000 C 
BRANCH  18  19
ATOM     19  C   UNL     1     -21.773   4.338 -27.646  1.00  0.00    -0.003 C 
ATOM     20  C   UNL     1     -20.973   5.094 -28.708  1.00  0.00     0.004 C 
ENDBRANCH  18  19
ENDBRANCH  17  18
ENDBRANCH  16  17
ENDBRANCH  15  16
ENDBRANCH  14  15
ENDBRANCH  13  14
ENDBRANCH  12  13
ENDBRANCH   1  12
TORSDOF 16
ENDMDL
MODEL 4
REMARK VINA RESULT:     3.876      4.831      7.556
REMARK INTER + INTRA:           8.478
REMARK INTER:                   9.316
REMARK INTRA:                  -0.838
REMARK UNBOUND:                 0.977
REMARK SMILES CCCCCCCCCCCCCCCCCC(=O)[O-]
REMARK SMILES IDX 10 1 11 2 12 3 13 4 14 5 15 6 16 7 17 8 18 9 19 10 20 11
REMARK SMILES IDX 9 12 8 13 7 14 6 15 5 16 4 17 3 18 2 19 1 20
REMARK H PARENT
REMARK Flexibility Score: inf
ROOT
ATOM      1  C   UNL     1     -30.021  -2.872 -27.975  1.00  0.00     0.000 C 
ENDROOT
BRANCH   1   2
ATOM      2  C   UNL     1     -28.698  -2.168 -27.624  1.00  0.00     0.000 C 
BRANCH   2   3
ATOM      3  C   UNL     1     -27.560  -2.510 -28.604  1.00  0.00     0.000 C 
BRANCH   3   4
ATOM      4  C   UNL     1     -26.166  -2.335 -27.974  1.00  0.00     0.000 C 
BRANCH   4   5
ATOM      5  C   UNL     1     -25.325  -1.197 -28.584  1.00  0.00     0.000 C 
BRANCH   5   6
ATOM      6  C   UNL     1     -24.112  -0.827 -27.718  1.00  0.00     0.000 C 
BRANCH   6   7
ATOM      7  C   UNL     1     -23.239   0.223 -28.414  1.00  0.00     0.006 C 
BRANCH   7   8
ATOM      8  C   UNL     1     -22.066   0.642 -27.522  1.00  0.00     0.053 C 
BRANCH   8   9
ATOM      9  C   UNL     1     -22.252   2.044 -27.033  1.00  0.00     0.041 C 
ATOM     10  O   UNL     1     -22.662   2.260 -25.862  1.00  0.00    -0.550 OA
ATOM     11  O   UNL     1     -21.926   3.114 -27.856  1.00  0.00    -0.550 OA
ENDBRANCH   8   9
ENDBRANCH   7   8
ENDBRANCH   6   7
ENDBRANCH   5   6
ENDBRANCH   4   5
ENDBRANCH   3   4
ENDBRANCH   2   3
ENDBRANCH   1   2
BRANCH   1  12
ATOM     12  C   UNL     1     -31.287  -2.008 -27.803  1.00  0.00     0.000 C 
BRANCH  12  13
ATOM     13  C   UNL     1     -31.408  -1.348 -26.413  1.00  0.00    -0.000 C 
BRANCH  13  14
ATOM     14  C   UNL     1     -31.856   0.122 -26.506  1.00  0.00    -0.000 C 
BRANCH  14  15
ATOM     15  C   UNL     1     -30.984   1.061 -25.658  1.00  0.00    -0.000 C 
BRANCH  15  16
ATOM     16  C   UNL     1     -31.818   2.113 -24.905  1.00  0.00    -0.000 C 
BRANCH  16  17
ATOM     17  C   UNL     1     -31.808   3.486 -25.600  1.00  0.00    -0.000 C 
BRANCH  17  18
ATOM     18  C   UNL     1     -30.562   3.722 -26.481  1.00  0.00    -0.000 C 
BRANCH  18  19
ATOM     19  C   UNL     1     -30.857   4.550 -27.745  1.00  0.00    -0.003 C 
ATOM     20  C   UNL     1     -31.351   3.685 -28.905  1.00  0.00     0.004 C 
ENDBRANCH  18  19
ENDBRANCH  17  18
ENDBRANCH  16  17
ENDBRANCH  15  16
ENDBRANCH  14  15
ENDBRANCH  13  14
ENDBRANCH  12  13
ENDBRANCH   1  12
TORSDOF 16
ENDMDL
MODEL 5
REMARK VINA RESULT:     4.506      6.008      8.393
REMARK INTER + INTRA:           9.697
REMARK INTER:                  10.357
REMARK INTRA:                  -0.659
REMARK UNBOUND:                 0.977
REMARK SMILES CCCCCCCCCCCCCCCCCC(=O)[O-]
REMARK SMILES IDX 10 1 11 2 12 3 13 4 14 5 15 6 16 7 17 8 18 9 19 10 20 11
REMARK SMILES IDX 9 12 8 13 7 14 6 15 5 16 4 17 3 18 2 19 1 20
REMARK H PARENT
REMARK Flexibility Score: inf
ROOT
ATOM      1  C   UNL     1     -25.870  -2.078 -28.652  1.00  0.00     0.000 C 
ENDROOT
BRANCH   1   2
ATOM      2  C   UNL     1     -27.055  -2.404 -27.726  1.00  0.00     0.000 C 
BRANCH   2   3
ATOM      3  C   UNL     1     -28.386  -2.546 -28.486  1.00  0.00     0.000 C 
BRANCH   3   4
ATOM      4  C   UNL     1     -29.612  -2.388 -27.566  1.00  0.00     0.000 C 
BRANCH   4   5
ATOM      5  C   UNL     1     -30.970  -2.457 -28.289  1.00  0.00     0.000 C 
BRANCH   5   6
ATOM      6  C   UNL     1     -32.103  -1.806 -27.483  1.00  0.00     0.000 C 
BRANCH   6   7
ATOM      7  C   UNL     1     -31.548  -1.004 -26.301  1.00  0.00     0.006 C 
BRANCH   7   8
ATOM      8  C   UNL     1     -31.787   0.496 -26.491  1.00  0.00     0.053 C 
BRANCH   8   9
ATOM      9  C   UNL     1     -31.211   1.270 -25.348  1.00  0.00     0.041 C 
ATOM     10  O   UNL     1     -30.980   2.502 -25.466  1.00  0.00    -0.550 OA
ATOM     11  O   UNL     1     -30.975   0.639 -24.133  1.00  0.00    -0.550 OA
ENDBRANCH   8   9
ENDBRANCH   7   8
ENDBRANCH   6   7
ENDBRANCH   5   6
ENDBRANCH   4   5
ENDBRANCH   3   4
ENDBRANCH   2   3
ENDBRANCH   1   2
BRANCH   1  12
ATOM     12  C   UNL     1     -24.637  -1.475 -27.948  1.00  0.00     0.000 C 
BRANCH  12  13
ATOM     13  C   UNL     1     -24.161  -0.140 -28.558  1.00  0.00    -0.000 C 
BRANCH  13  14
ATOM     14  C   UNL     1     -22.744   0.239 -28.091  1.00  0.00    -0.000 C 
BRANCH  14  15
ATOM     15  C   UNL     1     -22.666   1.670 -27.537  1.00  0.00    -0.000 C 
BRANCH  15  16
ATOM     16  C   UNL     1     -21.309   1.970 -26.876  1.00  0.00    -0.000 C 
BRANCH  16  17
ATOM     17  C   UNL     1     -21.138   3.457 -26.521  1.00  0.00    -0.000 C 
BRANCH  17  18
ATOM     18  C   UNL     1     -21.622   4.416 -27.631  1.00  0.00    -0.000 C 
BRANCH  18  19
ATOM     19  C   UNL     1     -20.472   5.124 -28.368  1.00  0.00    -0.003 C 
ATOM     20  C   UNL     1     -19.139   4.993 -27.630  1.00  0.00     0.004 C 
ENDBRANCH  18  19
ENDBRANCH  17  18
ENDBRANCH  16  17
ENDBRANCH  15  16
ENDBRANCH  14  15
ENDBRANCH  13  14
ENDBRANCH  12  13
ENDBRANCH   1  12
TORSDOF 16
ENDMDL
MODEL 6
REMARK VINA RESULT:     5.013     19.667     22.572
REMARK INTER + INTRA:          10.680
REMARK INTER:                  10.581
REMARK INTRA:                   0.099
REMARK UNBOUND:                 0.977
REMARK SMILES CCCCCCCCCCCCCCCCCC(=O)[O-]
REMARK SMILES IDX 10 1 11 2 12 3 13 4 14 5 15 6 16 7 17 8 18 9 19 10 20 11
REMARK SMILES IDX 9 12 8 13 7 14 6 15 5 16 4 17 3 18 2 19 1 20
REMARK H PARENT
REMARK Flexibility Score: inf
ROOT
ATOM      1  C   UNL     1     -12.735  -2.811 -13.026  1.00  0.00     0.000 C 
ENDROOT
BRANCH   1   2
ATOM      2  C   UNL     1     -11.961  -2.190 -14.202  1.00  0.00     0.000 C 
BRANCH   2   3
ATOM      3  C   UNL     1     -12.771  -1.114 -14.949  1.00  0.00     0.000 C 
BRANCH   3   4
ATOM      4  C   UNL     1     -14.291  -1.342 -14.849  1.00  0.00     0.000 C 
BRANCH   4   5
ATOM      5  C   UNL     1     -14.855  -2.359 -15.859  1.00  0.00     0.000 C 
BRANCH   5   6
ATOM      6  C   UNL     1     -13.871  -3.497 -16.166  1.00  0.00     0.000 C 
BRANCH   6   7
ATOM      7  C   UNL     1     -14.137  -4.712 -15.270  1.00  0.00     0.006 C 
BRANCH   7   8
ATOM      8  C   UNL     1     -13.899  -6.019 -16.031  1.00  0.00     0.053 C 
BRANCH   8   9
ATOM      9  C   UNL     1     -14.075  -7.195 -15.123  1.00  0.00     0.041 C 
ATOM     10  O   UNL     1     -13.977  -8.367 -15.574  1.00  0.00    -0.550 OA
ATOM     11  O   UNL     1     -14.301  -6.997 -13.767  1.00  0.00    -0.550 OA
ENDBRANCH   8   9
ENDBRANCH   7   8
ENDBRANCH   6   7
ENDBRANCH   5   6
ENDBRANCH   4   5
ENDBRANCH   3   4
ENDBRANCH   2   3
ENDBRANCH   1   2
BRANCH   1  12
ATOM     12  C   UNL     1     -11.951  -2.900 -11.701  1.00  0.00     0.000 C 
BRANCH  12  13
ATOM     13  C   UNL     1     -12.127  -1.668 -10.789  1.00  0.00    -0.000 C 
BRANCH  13  14
ATOM     14  C   UNL     1     -12.392  -2.063  -9.324  1.00  0.00    -0.000 C 
BRANCH  14  15
ATOM     15  C   UNL     1     -13.882  -2.303  -9.037  1.00  0.00    -0.000 C 
BRANCH  15  16
ATOM     16  C   UNL     1     -14.215  -3.797  -8.882  1.00  0.00    -0.000 C 
BRANCH  16  17
ATOM     17  C   UNL     1     -13.700  -4.645 -10.057  1.00  0.00    -0.000 C 
BRANCH  17  18
ATOM     18  C   UNL     1     -13.724  -6.164  -9.779  1.00  0.00    -0.000 C 
BRANCH  18  19
ATOM     19  C   UNL     1     -12.572  -6.637  -8.876  1.00  0.00    -0.003 C 
ATOM     20  C   UNL     1     -12.009  -7.991  -9.311  1.00  0.00     0.004 C 
ENDBRANCH  18  19
ENDBRANCH  17  18
ENDBRANCH  16  17
ENDBRANCH  15  16
ENDBRANCH  14  15
ENDBRANCH  13  14
ENDBRANCH  12  13
ENDBRANCH   1  12
TORSDOF 16
ENDMDL
MODEL 7
REMARK VINA RESULT:     5.118     17.487     21.929
REMARK INTER + INTRA:          10.883
REMARK INTER:                  11.786
REMARK INTRA:                  -0.903
REMARK UNBOUND:                 0.977
REMARK SMILES CCCCCCCCCCCCCCCCCC(=O)[O-]
REMARK SMILES IDX 10 1 11 2 12 3 13 4 14 5 15 6 16 7 17 8 18 9 19 10 20 11
REMARK SMILES IDX 9 12 8 13 7 14 6 15 5 16 4 17 3 18 2 19 1 20
REMARK H PARENT
REMARK Flexibility Score: inf
ROOT
ATOM      1  C   UNL     1     -14.322  -2.864 -15.485  1.00  0.00     0.000 C 
ENDROOT
BRANCH   1   2
ATOM      2  C   UNL     1     -13.776  -3.580 -14.238  1.00  0.00     0.000 C 
BRANCH   2   3
ATOM      3  C   UNL     1     -12.417  -3.024 -13.775  1.00  0.00     0.000 C 
BRANCH   3   4
ATOM      4  C   UNL     1     -12.436  -2.567 -12.304  1.00  0.00     0.000 C 
BRANCH   4   5
ATOM      5  C   UNL     1     -13.756  -2.848 -11.561  1.00  0.00     0.000 C 
BRANCH   5   6
ATOM      6  C   UNL     1     -13.535  -3.499 -10.188  1.00  0.00     0.000 C 
BRANCH   6   7
ATOM      7  C   UNL     1     -12.310  -4.421 -10.206  1.00  0.00     0.006 C 
BRANCH   7   8
ATOM      8  C   UNL     1     -12.160  -5.163  -8.875  1.00  0.00     0.053 C 
BRANCH   8   9
ATOM      9  C   UNL     1     -12.905  -6.459  -8.909  1.00  0.00     0.041 C 
ATOM     10  O   UNL     1     -12.280  -7.552  -8.923  1.00  0.00    -0.550 OA
ATOM     11  O   UNL     1     -14.294  -6.462  -8.877  1.00  0.00    -0.550 OA
ENDBRANCH   8   9
ENDBRANCH   7   8
ENDBRANCH   6   7
ENDBRANCH   5   6
ENDBRANCH   4   5
ENDBRANCH   3   4
ENDBRANCH   2   3
ENDBRANCH   1   2
BRANCH   1  12
ATOM     12  C   UNL     1     -13.532  -1.613 -15.920  1.00  0.00     0.000 C 
BRANCH  12  13
ATOM     13  C   UNL     1     -14.130  -0.286 -15.405  1.00  0.00    -0.000 C 
BRANCH  13  14
ATOM     14  C   UNL     1     -14.576   0.634 -16.556  1.00  0.00    -0.000 C 
BRANCH  14  15
ATOM     15  C   UNL     1     -15.300   1.894 -16.059  1.00  0.00    -0.000 C 
BRANCH  15  16
ATOM     16  C   UNL     1     -15.746   2.808 -17.214  1.00  0.00    -0.000 C 
BRANCH  16  17
ATOM     17  C   UNL     1     -16.847   3.798 -16.796  1.00  0.00    -0.000 C 
BRANCH  17  18
ATOM     18  C   UNL     1     -18.230   3.138 -16.603  1.00  0.00    -0.000 C 
BRANCH  18  19
ATOM     19  C   UNL     1     -18.710   3.146 -15.141  1.00  0.00    -0.003 C 
ATOM     20  C   UNL     1     -20.052   2.434 -14.965  1.00  0.00     0.004 C 
ENDBRANCH  18  19
ENDBRANCH  17  18
ENDBRANCH  16  17
ENDBRANCH  15  16
ENDBRANCH  14  15
ENDBRANCH  13  14
ENDBRANCH  12  13
ENDBRANCH   1  12
TORSDOF 16
ENDMDL
