MODEL 1
REMARK VINA RESULT:    -5.400      0.000      0.000
REMARK INTER + INTRA:          -6.341
REMARK INTER:                  -6.347
REMARK INTRA:                   0.005
REMARK UNBOUND:                 0.005
REMARK SMILES O=C([O-])C=Cc1ccc(O)c(O)c1
REMARK SMILES IDX 6 1 13 2 7 3 11 4 8 5 9 6 5 7 4 8 2 9 1 10 3 11 12 12 10 14
REMARK H PARENT 12 13 10 15
REMARK Flexibility Score: inf
ROOT
ATOM      1  C   UNL     1     -22.371 -16.071 -13.515  1.00  0.00    -0.022 A 
ATOM      2  C   UNL     1     -21.044 -16.507 -13.660  1.00  0.00     0.058 A 
ATOM      3  C   UNL     1     -22.630 -14.889 -12.814  1.00  0.00     0.012 A 
ATOM      4  C   UNL     1     -19.988 -15.802 -13.069  1.00  0.00     0.157 A 
ATOM      5  C   UNL     1     -21.586 -14.180 -12.218  1.00  0.00     0.051 A 
ATOM      6  C   UNL     1     -20.264 -14.625 -12.331  1.00  0.00     0.157 A 
ENDROOT
BRANCH   1   7
ATOM      7  C   UNL     1     -23.486 -16.778 -14.179  1.00  0.00     0.010 C 
ATOM      8  C   UNL     1     -24.174 -16.324 -15.237  1.00  0.00     0.025 C 
BRANCH   8   9
ATOM      9  C   UNL     1     -23.823 -15.138 -16.041  1.00  0.00     0.064 C 
ATOM     10  O   UNL     1     -24.047 -13.990 -15.576  1.00  0.00    -0.545 OA
ATOM     11  O   UNL     1     -23.318 -15.259 -17.330  1.00  0.00    -0.545 OA
ENDBRANCH   8   9
ENDBRANCH   1   7
BRANCH   4  12
ATOM     12  O   UNL     1     -18.694 -16.298 -13.241  1.00  0.00    -0.504 OA
ATOM     13  H   UNL     1     -18.107 -16.620 -12.485  1.00  0.00     0.293 HD
ENDBRANCH   4  12
BRANCH   6  14
ATOM     14  O   UNL     1     -19.266 -13.876 -11.705  1.00  0.00    -0.504 OA
ATOM     15  H   UNL     1     -19.266 -12.867 -11.652  1.00  0.00     0.293 HD
ENDBRANCH   6  14
TORSDOF 4
ENDMDL
MODEL 2
REMARK VINA RESULT:    -5.163      2.119      2.691
REMARK INTER + INTRA:          -6.064
REMARK INTER:                  -6.519
REMARK INTRA:                   0.455
REMARK UNBOUND:                 0.005
REMARK SMILES O=C([O-])C=Cc1ccc(O)c(O)c1
REMARK SMILES IDX 6 1 13 2 7 3 11 4 8 5 9 6 5 7 4 8 2 9 1 10 3 11 12 12 10 14
REMARK H PARENT 12 13 10 15
REMARK Flexibility Score: inf
ROOT
ATOM      1  C   UNL     1     -22.847 -14.622 -13.967  1.00  0.00    -0.022 A 
ATOM      2  C   UNL     1     -22.939 -14.861 -12.587  1.00  0.00     0.058 A 
ATOM      3  C   UNL     1     -21.631 -14.187 -14.507  1.00  0.00     0.012 A 
ATOM      4  C   UNL     1     -21.848 -14.620 -11.742  1.00  0.00     0.157 A 
ATOM      5  C   UNL     1     -20.539 -13.941 -13.674  1.00  0.00     0.051 A 
ATOM      6  C   UNL     1     -20.633 -14.147 -12.293  1.00  0.00     0.157 A 
ENDROOT
BRANCH   1   7
ATOM      7  C   UNL     1     -23.975 -14.922 -14.874  1.00  0.00     0.010 C 
ATOM      8  C   UNL     1     -24.384 -16.151 -15.223  1.00  0.00     0.025 C 
BRANCH   8   9
ATOM      9  C   UNL     1     -23.913 -17.413 -14.624  1.00  0.00     0.064 C 
ATOM     10  O   UNL     1     -24.715 -18.374 -14.502  1.00  0.00    -0.545 OA
ATOM     11  O   UNL     1     -22.621 -17.541 -14.125  1.00  0.00    -0.545 OA
ENDBRANCH   8   9
ENDBRANCH   1   7
BRANCH   4  12
ATOM     12  O   UNL     1     -22.012 -14.867 -10.378  1.00  0.00    -0.504 OA
ATOM     13  H   UNL     1     -22.634 -14.342  -9.780  1.00  0.00     0.293 HD
ENDBRANCH   4  12
BRANCH   6  14
ATOM     14  O   UNL     1     -19.506 -13.875 -11.513  1.00  0.00    -0.504 OA
ATOM     15  H   UNL     1     -19.278 -14.365 -10.661  1.00  0.00     0.293 HD
ENDBRANCH   6  14
TORSDOF 4
ENDMDL
MODEL 3
REMARK VINA RESULT:    -4.535      1.049      2.170
REMARK INTER + INTRA:          -5.325
REMARK INTER:                  -5.075
REMARK INTRA:                  -0.250
REMARK UNBOUND:                 0.005
REMARK SMILES O=C([O-])C=Cc1ccc(O)c(O)c1
REMARK SMILES IDX 6 1 13 2 7 3 11 4 8 5 9 6 5 7 4 8 2 9 1 10 3 11 12 12 10 14
REMARK H PARENT 12 13 10 15
REMARK Flexibility Score: inf
ROOT
ATOM      1  C   UNL     1     -22.253 -16.387 -13.406  1.00  0.00    -0.022 A 
ATOM      2  C   UNL     1     -22.647 -15.545 -12.354  1.00  0.00     0.058 A 
ATOM      3  C   UNL     1     -20.909 -16.410 -13.798  1.00  0.00     0.012 A 
ATOM      4  C   UNL     1     -21.724 -14.695 -11.730  1.00  0.00     0.157 A 
ATOM      5  C   UNL     1     -19.983 -15.565 -13.185  1.00  0.00     0.051 A 
ATOM      6  C   UNL     1     -20.375 -14.701 -12.157  1.00  0.00     0.157 A 
ENDROOT
BRANCH   1   7
ATOM      7  C   UNL     1     -23.207 -17.325 -14.034  1.00  0.00     0.010 C 
ATOM      8  C   UNL     1     -24.127 -16.997 -14.953  1.00  0.00     0.025 C 
BRANCH   8   9
ATOM      9  C   UNL     1     -24.227 -15.695 -15.638  1.00  0.00     0.064 C 
ATOM     10  O   UNL     1     -23.737 -15.565 -16.789  1.00  0.00    -0.545 OA
ATOM     11  O   UNL     1     -24.787 -14.587 -15.011  1.00  0.00    -0.545 OA
ENDBRANCH   8   9
ENDBRANCH   1   7
BRANCH   4  12
ATOM     12  O   UNL     1     -22.186 -13.875 -10.699  1.00  0.00    -0.504 OA
ATOM     13  H   UNL     1     -22.422 -12.900 -10.815  1.00  0.00     0.293 HD
ENDBRANCH   4  12
BRANCH   6  14
ATOM     14  O   UNL     1     -19.401 -13.875 -11.590  1.00  0.00    -0.504 OA
ATOM     15  H   UNL     1     -19.031 -13.049 -12.038  1.00  0.00     0.293 HD
ENDBRANCH   6  14
TORSDOF 4
ENDMDL
MODEL 4
REMARK VINA RESULT:    -4.421      1.631      4.621
REMARK INTER + INTRA:          -5.192
REMARK INTER:                  -5.459
REMARK INTRA:                   0.267
REMARK UNBOUND:                 0.005
REMARK SMILES O=C([O-])C=Cc1ccc(O)c(O)c1
REMARK SMILES IDX 6 1 13 2 7 3 11 4 8 5 9 6 5 7 4 8 2 9 1 10 3 11 12 12 10 14
REMARK H PARENT 12 13 10 15
REMARK Flexibility Score: inf
ROOT
ATOM      1  C   UNL     1     -22.689 -14.698 -12.777  1.00  0.00    -0.022 A 
ATOM      2  C   UNL     1     -22.555 -16.056 -13.107  1.00  0.00     0.058 A 
ATOM      3  C   UNL     1     -23.536 -13.888 -13.541  1.00  0.00     0.012 A 
ATOM      4  C   UNL     1     -23.217 -16.593 -14.219  1.00  0.00     0.157 A 
ATOM      5  C   UNL     1     -24.198 -14.412 -14.652  1.00  0.00     0.051 A 
ATOM      6  C   UNL     1     -24.044 -15.757 -15.007  1.00  0.00     0.157 A 
ENDROOT
BRANCH   1   7
ATOM      7  C   UNL     1     -22.037 -14.134 -11.576  1.00  0.00     0.010 C 
ATOM      8  C   UNL     1     -20.728 -13.875 -11.453  1.00  0.00     0.025 C 
BRANCH   8   9
ATOM      9  C   UNL     1     -19.738 -13.925 -12.545  1.00  0.00     0.064 C 
ATOM     10  O   UNL     1     -18.512 -13.946 -12.266  1.00  0.00    -0.545 OA
ATOM     11  O   UNL     1     -20.128 -13.876 -13.879  1.00  0.00    -0.545 OA
ENDBRANCH   8   9
ENDBRANCH   1   7
BRANCH   4  12
ATOM     12  O   UNL     1     -23.030 -17.948 -14.498  1.00  0.00    -0.504 OA
ATOM     13  H   UNL     1     -22.158 -18.343 -14.820  1.00  0.00     0.293 HD
ENDBRANCH   4  12
BRANCH   6  14
ATOM     14  O   UNL     1     -24.728 -16.218 -16.134  1.00  0.00    -0.504 OA
ATOM     15  H   UNL     1     -25.705 -16.470 -16.138  1.00  0.00     0.293 HD
ENDBRANCH   6  14
TORSDOF 4
ENDMDL
MODEL 5
REMARK VINA RESULT:    -4.187      2.232      4.818
REMARK INTER + INTRA:          -4.916
REMARK INTER:                  -5.002
REMARK INTRA:                   0.086
REMARK UNBOUND:                 0.005
REMARK SMILES O=C([O-])C=Cc1ccc(O)c(O)c1
REMARK SMILES IDX 6 1 13 2 7 3 11 4 8 5 9 6 5 7 4 8 2 9 1 10 3 11 12 12 10 14
REMARK H PARENT 12 13 10 15
REMARK Flexibility Score: inf
ROOT
ATOM      1  C   UNL     1     -22.057 -14.930 -13.826  1.00  0.00    -0.022 A 
ATOM      2  C   UNL     1     -22.288 -16.314 -13.799  1.00  0.00     0.058 A 
ATOM      3  C   UNL     1     -22.953 -14.099 -14.509  1.00  0.00     0.012 A 
ATOM      4  C   UNL     1     -23.372 -16.875 -14.487  1.00  0.00     0.157 A 
ATOM      5  C   UNL     1     -24.034 -14.648 -15.200  1.00  0.00     0.051 A 
ATOM      6  C   UNL     1     -24.253 -16.030 -15.204  1.00  0.00     0.157 A 
ENDROOT
BRANCH   1   7
ATOM      7  C   UNL     1     -20.948 -14.323 -13.060  1.00  0.00     0.010 C 
ATOM      8  C   UNL     1     -21.029 -13.878 -11.798  1.00  0.00     0.025 C 
BRANCH   8   9
ATOM      9  C   UNL     1     -22.171 -14.084 -10.888  1.00  0.00     0.064 C 
ATOM     10  O   UNL     1     -21.962 -14.509  -9.723  1.00  0.00    -0.545 OA
ATOM     11  O   UNL     1     -23.481 -13.888 -11.312  1.00  0.00    -0.545 OA
ENDBRANCH   8   9
ENDBRANCH   1   7
BRANCH   4  12
ATOM     12  O   UNL     1     -23.536 -18.260 -14.428  1.00  0.00    -0.504 OA
ATOM     13  H   UNL     1     -23.423 -18.807 -13.587  1.00  0.00     0.293 HD
ENDBRANCH   4  12
BRANCH   6  14
ATOM     14  O   UNL     1     -25.348 -16.517 -15.921  1.00  0.00    -0.504 OA
ATOM     15  H   UNL     1     -25.508 -17.495 -16.113  1.00  0.00     0.293 HD
ENDBRANCH   6  14
TORSDOF 4
ENDMDL
MODEL 6
REMARK VINA RESULT:    -4.050      2.148      5.087
REMARK INTER + INTRA:          -4.755
REMARK INTER:                  -4.775
REMARK INTRA:                   0.021
REMARK UNBOUND:                 0.005
REMARK SMILES O=C([O-])C=Cc1ccc(O)c(O)c1
REMARK SMILES IDX 6 1 13 2 7 3 11 4 8 5 9 6 5 7 4 8 2 9 1 10 3 11 12 12 10 14
REMARK H PARENT 12 13 10 15
REMARK Flexibility Score: inf
ROOT
ATOM      1  C   UNL     1     -21.976 -15.473 -13.402  1.00  0.00    -0.022 A 
ATOM      2  C   UNL     1     -22.982 -14.972 -14.244  1.00  0.00     0.058 A 
ATOM      3  C   UNL     1     -21.885 -16.854 -13.190  1.00  0.00     0.012 A 
ATOM      4  C   UNL     1     -23.922 -15.831 -14.829  1.00  0.00     0.157 A 
ATOM      5  C   UNL     1     -22.818 -17.718 -13.766  1.00  0.00     0.051 A 
ATOM      6  C   UNL     1     -23.843 -17.222 -14.581  1.00  0.00     0.157 A 
ENDROOT
BRANCH   1   7
ATOM      7  C   UNL     1     -20.949 -14.583 -12.822  1.00  0.00     0.010 C 
ATOM      8  C   UNL     1     -21.083 -13.875 -11.691  1.00  0.00     0.025 C 
BRANCH   8   9
ATOM      9  C   UNL     1     -22.193 -14.002 -10.729  1.00  0.00     0.064 C 
ATOM     10  O   UNL     1     -23.378 -13.875 -11.134  1.00  0.00    -0.545 OA
ATOM     11  O   UNL     1     -21.959 -14.188  -9.371  1.00  0.00    -0.545 OA
ENDBRANCH   8   9
ENDBRANCH   1   7
BRANCH   4  12
ATOM     12  O   UNL     1     -24.903 -15.265 -15.645  1.00  0.00    -0.504 OA
ATOM     13  H   UNL     1     -24.720 -14.866 -16.555  1.00  0.00     0.293 HD
ENDBRANCH   4  12
BRANCH   6  14
ATOM     14  O   UNL     1     -24.749 -18.138 -15.121  1.00  0.00    -0.504 OA
ATOM     15  H   UNL     1     -24.790 -19.112 -14.860  1.00  0.00     0.293 HD
ENDBRANCH   6  14
TORSDOF 4
ENDMDL
MODEL 7
REMARK VINA RESULT:    -3.871      1.507      4.912
REMARK INTER + INTRA:          -4.545
REMARK INTER:                  -4.983
REMARK INTRA:                   0.438
REMARK UNBOUND:                 0.005
REMARK SMILES O=C([O-])C=Cc1ccc(O)c(O)c1
REMARK SMILES IDX 6 1 13 2 7 3 11 4 8 5 9 6 5 7 4 8 2 9 1 10 3 11 12 12 10 14
REMARK H PARENT 12 13 10 15
REMARK Flexibility Score: inf
ROOT
ATOM      1  C   UNL     1     -21.361 -14.734 -13.132  1.00  0.00    -0.022 A 
ATOM      2  C   UNL     1     -21.651 -14.480 -14.482  1.00  0.00     0.058 A 
ATOM      3  C   UNL     1     -21.888 -15.878 -12.522  1.00  0.00     0.012 A 
ATOM      4  C   UNL     1     -22.500 -15.327 -15.206  1.00  0.00     0.157 A 
ATOM      5  C   UNL     1     -22.737 -16.728 -13.233  1.00  0.00     0.051 A 
ATOM      6  C   UNL     1     -23.056 -16.463 -14.570  1.00  0.00     0.157 A 
ENDROOT
BRANCH   1   7
ATOM      7  C   UNL     1     -20.426 -13.876 -12.375  1.00  0.00     0.010 C 
ATOM      8  C   UNL     1     -19.124 -14.130 -12.179  1.00  0.00     0.025 C 
BRANCH   8   9
ATOM      9  C   UNL     1     -18.353 -15.201 -12.836  1.00  0.00     0.064 C 
ATOM     10  O   UNL     1     -17.119 -15.045 -13.026  1.00  0.00    -0.545 OA
ATOM     11  O   UNL     1     -18.971 -16.351 -13.316  1.00  0.00    -0.545 OA
ENDBRANCH   8   9
ENDBRANCH   1   7
BRANCH   4  12
ATOM     12  O   UNL     1     -22.756 -15.009 -16.541  1.00  0.00    -0.504 OA
ATOM     13  H   UNL     1     -23.552 -15.350 -17.060  1.00  0.00     0.293 HD
ENDBRANCH   4  12
BRANCH   6  14
ATOM     14  O   UNL     1     -23.917 -17.348 -15.224  1.00  0.00    -0.504 OA
ATOM     15  H   UNL     1     -24.669 -17.844 -14.769  1.00  0.00     0.293 HD
ENDBRANCH   6  14
TORSDOF 4
ENDMDL
