MODEL 1
REMARK VINA RESULT:    24.626      0.000      0.000
REMARK INTER + INTRA:          28.674
REMARK INTER:                  28.944
REMARK INTRA:                  -0.270
REMARK UNBOUND:                -0.270
REMARK SMILES O=c1cc(-c2ccc(O)c(O)c2)oc2cc(O)cc(O)c12
REMARK SMILES IDX 4 1 3 2 2 3 1 4 21 5 19 6 18 7 16 8 15 9 14 10 13 11 5 12
REMARK SMILES IDX 6 13 7 14 8 15 12 16 10 17 9 18 11 20 20 22 17 24
REMARK H PARENT 9 19 11 21 20 23 17 25
REMARK Flexibility Score: inf
ROOT
ATOM      1  C   UNL     1      -3.849   2.625  13.961  1.00  0.00     0.138 A 
ATOM      2  C   UNL     1      -3.878   2.181  15.291  1.00  0.00     0.100 A 
ATOM      3  C   UNL     1      -4.933   2.559  16.123  1.00  0.00     0.197 A 
ATOM      4  O   UNL     1      -4.964   2.095  17.291  1.00  0.00    -0.289 OA
ATOM      5  C   UNL     1      -5.946   3.414  15.628  1.00  0.00     0.107 A 
ATOM      6  C   UNL     1      -7.047   3.898  16.396  1.00  0.00     0.134 A 
ATOM      7  C   UNL     1      -8.052   4.645  15.768  1.00  0.00     0.093 A 
ATOM      8  C   UNL     1      -7.966   4.975  14.417  1.00  0.00     0.123 A 
ATOM      9  C   UNL     1      -6.866   4.552  13.667  1.00  0.00     0.094 A 
ATOM     10  C   UNL     1      -5.865   3.777  14.258  1.00  0.00     0.146 A 
ATOM     11  O   UNL     1      -4.842   3.382  13.506  1.00  0.00    -0.456 OA
ENDROOT
BRANCH   1  12
ATOM     12  C   UNL     1      -2.751   2.253  13.034  1.00  0.00     0.021 A 
ATOM     13  C   UNL     1      -2.034   3.263  12.371  1.00  0.00     0.016 A 
ATOM     14  C   UNL     1      -0.991   2.939  11.499  1.00  0.00     0.051 A 
ATOM     15  C   UNL     1      -0.640   1.605  11.281  1.00  0.00     0.157 A 
ATOM     16  C   UNL     1      -2.385   0.909  12.821  1.00  0.00     0.062 A 
ATOM     17  C   UNL     1      -1.338   0.584  11.947  1.00  0.00     0.158 A 
BRANCH  15  18
ATOM     18  O   UNL     1       0.404   1.313  10.403  1.00  0.00    -0.504 OA
ATOM     19  H   UNL     1       0.819   0.390  10.349  1.00  0.00     0.293 HD
ENDBRANCH  15  18
BRANCH  17  20
ATOM     20  O   UNL     1      -0.985  -0.750  11.742  1.00  0.00    -0.504 OA
ATOM     21  H   UNL     1      -1.303  -1.265  10.930  1.00  0.00     0.293 HD
ENDBRANCH  17  20
ENDBRANCH   1  12
BRANCH   6  22
ATOM     22  O   UNL     1      -7.187   3.698  17.773  1.00  0.00    -0.507 OA
ATOM     23  H   UNL     1      -8.023   3.893  18.301  1.00  0.00     0.293 HD
ENDBRANCH   6  22
BRANCH   8  24
ATOM     24  O   UNL     1      -8.977   5.732  13.828  1.00  0.00    -0.508 OA
ATOM     25  H   UNL     1      -9.953   5.579  14.052  1.00  0.00     0.293 HD
ENDBRANCH   8  24
TORSDOF 5
ENDMDL
MODEL 2
REMARK VINA RESULT:    26.015      2.475      4.153
REMARK INTER + INTRA:          30.307
REMARK INTER:                  30.577
REMARK INTRA:                  -0.270
REMARK UNBOUND:                -0.270
REMARK SMILES O=c1cc(-c2ccc(O)c(O)c2)oc2cc(O)cc(O)c12
REMARK SMILES IDX 4 1 3 2 2 3 1 4 21 5 19 6 18 7 16 8 15 9 14 10 13 11 5 12
REMARK SMILES IDX 6 13 7 14 8 15 12 16 10 17 9 18 11 20 20 22 17 24
REMARK H PARENT 9 19 11 21 20 23 17 25
REMARK Flexibility Score: inf
ROOT
ATOM      1  C   UNL     1      -5.478   3.690  14.872  1.00  0.00     0.138 A 
ATOM      2  C   UNL     1      -6.623   3.473  14.092  1.00  0.00     0.100 A 
ATOM      3  C   UNL     1      -7.545   4.506  13.917  1.00  0.00     0.197 A 
ATOM      4  O   UNL     1      -8.530   4.301  13.162  1.00  0.00    -0.289 OA
ATOM      5  C   UNL     1      -7.335   5.752  14.553  1.00  0.00     0.107 A 
ATOM      6  C   UNL     1      -8.227   6.863  14.480  1.00  0.00     0.134 A 
ATOM      7  C   UNL     1      -7.857   8.085  15.056  1.00  0.00     0.093 A 
ATOM      8  C   UNL     1      -6.657   8.219  15.753  1.00  0.00     0.123 A 
ATOM      9  C   UNL     1      -5.801   7.124  15.877  1.00  0.00     0.094 A 
ATOM     10  C   UNL     1      -6.126   5.902  15.284  1.00  0.00     0.146 A 
ATOM     11  O   UNL     1      -5.277   4.887  15.413  1.00  0.00    -0.456 OA
ENDROOT
BRANCH   1  12
ATOM     12  C   UNL     1      -4.465   2.628  15.091  1.00  0.00     0.021 A 
ATOM     13  C   UNL     1      -3.580   2.291  14.053  1.00  0.00     0.016 A 
ATOM     14  C   UNL     1      -2.613   1.299  14.237  1.00  0.00     0.051 A 
ATOM     15  C   UNL     1      -2.506   0.634  15.461  1.00  0.00     0.157 A 
ATOM     16  C   UNL     1      -4.344   1.964  16.328  1.00  0.00     0.062 A 
ATOM     17  C   UNL     1      -3.373   0.970  16.513  1.00  0.00     0.158 A 
BRANCH  15  18
ATOM     18  O   UNL     1      -1.531  -0.352  15.613  1.00  0.00    -0.504 OA
ATOM     19  H   UNL     1      -0.938  -0.399  16.433  1.00  0.00     0.293 HD
ENDBRANCH  15  18
BRANCH  17  20
ATOM     20  O   UNL     1      -3.263   0.318  17.741  1.00  0.00    -0.504 OA
ATOM     21  H   UNL     1      -3.357  -0.688  17.819  1.00  0.00     0.293 HD
ENDBRANCH  17  20
ENDBRANCH   1  12
BRANCH   6  22
ATOM     22  O   UNL     1      -9.490   6.812  13.881  1.00  0.00    -0.507 OA
ATOM     23  H   UNL     1      -9.740   6.208  13.114  1.00  0.00     0.293 HD
ENDBRANCH   6  22
BRANCH   8  24
ATOM     24  O   UNL     1      -6.329   9.446  16.326  1.00  0.00    -0.508 OA
ATOM     25  H   UNL     1      -5.372   9.782  16.349  1.00  0.00     0.293 HD
ENDBRANCH   8  24
TORSDOF 5
ENDMDL
MODEL 3
REMARK VINA RESULT:    26.237      2.429      7.047
REMARK INTER + INTRA:          30.568
REMARK INTER:                  30.835
REMARK INTRA:                  -0.267
REMARK UNBOUND:                -0.270
REMARK SMILES O=c1cc(-c2ccc(O)c(O)c2)oc2cc(O)cc(O)c12
REMARK SMILES IDX 4 1 3 2 2 3 1 4 21 5 19 6 18 7 16 8 15 9 14 10 13 11 5 12
REMARK SMILES IDX 6 13 7 14 8 15 12 16 10 17 9 18 11 20 20 22 17 24
REMARK H PARENT 9 19 11 21 20 23 17 25
REMARK Flexibility Score: inf
ROOT
ATOM      1  C   UNL     1      -6.419   5.494  15.458  1.00  0.00     0.138 A 
ATOM      2  C   UNL     1      -6.609   4.876  16.702  1.00  0.00     0.100 A 
ATOM      3  C   UNL     1      -5.962   3.671  16.980  1.00  0.00     0.197 A 
ATOM      4  O   UNL     1      -6.102   3.172  18.126  1.00  0.00    -0.289 OA
ATOM      5  C   UNL     1      -5.147   3.067  15.993  1.00  0.00     0.107 A 
ATOM      6  C   UNL     1      -4.472   1.820  16.150  1.00  0.00     0.134 A 
ATOM      7  C   UNL     1      -3.598   1.377  15.147  1.00  0.00     0.093 A 
ATOM      8  C   UNL     1      -3.423   2.105  13.971  1.00  0.00     0.123 A 
ATOM      9  C   UNL     1      -4.120   3.300  13.784  1.00  0.00     0.094 A 
ATOM     10  C   UNL     1      -4.971   3.784  14.780  1.00  0.00     0.146 A 
ATOM     11  O   UNL     1      -5.606   4.934  14.569  1.00  0.00    -0.456 OA
ENDROOT
BRANCH   1  12
ATOM     12  C   UNL     1      -7.083   6.775  15.110  1.00  0.00     0.021 A 
ATOM     13  C   UNL     1      -6.633   7.969  15.698  1.00  0.00     0.016 A 
ATOM     14  C   UNL     1      -7.236   9.189  15.381  1.00  0.00     0.051 A 
ATOM     15  C   UNL     1      -8.290   9.241  14.466  1.00  0.00     0.157 A 
ATOM     16  C   UNL     1      -8.138   6.834  14.177  1.00  0.00     0.062 A 
ATOM     17  C   UNL     1      -8.742   8.059  13.857  1.00  0.00     0.158 A 
BRANCH  15  18
ATOM     18  O   UNL     1      -8.873  10.474  14.171  1.00  0.00    -0.504 OA
ATOM     19  H   UNL     1      -9.532  10.588  13.410  1.00  0.00     0.293 HD
ENDBRANCH  15  18
BRANCH  17  20
ATOM     20  O   UNL     1      -9.786   8.104  12.934  1.00  0.00    -0.504 OA
ATOM     21  H   UNL     1     -10.591   7.494  13.012  1.00  0.00     0.293 HD
ENDBRANCH  17  20
ENDBRANCH   1  12
BRANCH   6  22
ATOM     22  O   UNL     1      -4.641   0.971  17.248  1.00  0.00    -0.507 OA
ATOM     23  H   UNL     1      -4.986   0.026  17.198  1.00  0.00     0.293 HD
ENDBRANCH   6  22
BRANCH   8  24
ATOM     24  O   UNL     1      -2.558   1.626  12.989  1.00  0.00    -0.508 OA
ATOM     25  H   UNL     1      -2.890   1.377  12.065  1.00  0.00     0.293 HD
ENDBRANCH   8  24
TORSDOF 5
ENDMDL
