MODEL 1
REMARK VINA RESULT:    -4.654      0.000      0.000
REMARK INTER + INTRA:          -4.654
REMARK INTER:                  -4.654
REMARK INTRA:                   0.000
REMARK UNBOUND:                 0.000
REMARK SMILES CC1(C)O[C@]2(C)CC[C@H]1CC2
REMARK SMILES IDX 1 1 2 2 9 3 8 4 7 5 5 6 4 7 11 8 10 9 6 10 3 11
REMARK H PARENT
REMARK Flexibility Score: inf
ROOT
ATOM      1  C   UNL     1     -17.423  11.976  37.722  1.00  0.00     0.042 C 
ATOM      2  C   UNL     1     -18.955  11.798  37.788  1.00  0.00     0.066 C 
ATOM      3  C   UNL     1     -19.596  11.941  36.354  1.00  0.00     0.021 C 
ATOM      4  C   UNL     1     -21.120  11.704  36.472  1.00  0.00     0.009 C 
ATOM      5  C   UNL     1     -21.371  10.372  37.221  1.00  0.00     0.035 C 
ATOM      6  C   UNL     1     -20.014   9.674  37.522  1.00  0.00     0.066 C 
ATOM      7  O   UNL     1     -19.230  10.516  38.370  1.00  0.00    -0.369 OA
ATOM      8  C   UNL     1     -19.253   9.447  36.183  1.00  0.00     0.035 C 
ATOM      9  C   UNL     1     -19.053  10.801  35.459  1.00  0.00     0.009 C 
ATOM     10  C   UNL     1     -20.248   8.337  38.234  1.00  0.00     0.042 C 
ATOM     11  C   UNL     1     -19.502  12.884  38.740  1.00  0.00     0.042 C 
ENDROOT
TORSDOF 0
ENDMDL
MODEL 2
REMARK VINA RESULT:    -4.608      1.225      3.074
REMARK INTER + INTRA:          -4.608
REMARK INTER:                  -4.608
REMARK INTRA:                   0.000
REMARK UNBOUND:                 0.000
REMARK SMILES CC1(C)O[C@]2(C)CC[C@H]1CC2
REMARK SMILES IDX 1 1 2 2 9 3 8 4 7 5 5 6 4 7 11 8 10 9 6 10 3 11
REMARK H PARENT
REMARK Flexibility Score: inf
ROOT
ATOM      1  C   UNL     1     -20.145   8.726  38.661  1.00  0.00     0.042 C 
ATOM      2  C   UNL     1     -20.393   9.551  37.381  1.00  0.00     0.066 C 
ATOM      3  C   UNL     1     -20.380  11.096  37.700  1.00  0.00     0.021 C 
ATOM      4  C   UNL     1     -20.582  11.872  36.378  1.00  0.00     0.009 C 
ATOM      5  C   UNL     1     -19.561  11.366  35.330  1.00  0.00     0.035 C 
ATOM      6  C   UNL     1     -18.616  10.316  35.980  1.00  0.00     0.066 C 
ATOM      7  O   UNL     1     -19.388   9.197  36.420  1.00  0.00    -0.369 OA
ATOM      8  C   UNL     1     -17.909  10.962  37.207  1.00  0.00     0.035 C 
ATOM      9  C   UNL     1     -18.970  11.478  38.210  1.00  0.00     0.009 C 
ATOM     10  C   UNL     1     -17.578   9.831  34.962  1.00  0.00     0.042 C 
ATOM     11  C   UNL     1     -21.766   9.123  36.818  1.00  0.00     0.042 C 
ENDROOT
TORSDOF 0
ENDMDL
MODEL 3
REMARK VINA RESULT:    -4.512      1.129      3.357
REMARK INTER + INTRA:          -4.512
REMARK INTER:                  -4.512
REMARK INTRA:                   0.000
REMARK UNBOUND:                 0.000
REMARK SMILES CC1(C)O[C@]2(C)CC[C@H]1CC2
REMARK SMILES IDX 1 1 2 2 9 3 8 4 7 5 5 6 4 7 11 8 10 9 6 10 3 11
REMARK H PARENT
REMARK Flexibility Score: inf
ROOT
ATOM      1  C   UNL     1     -21.357  10.346  37.238  1.00  0.00     0.042 C 
ATOM      2  C   UNL     1     -19.906   9.854  37.058  1.00  0.00     0.066 C 
ATOM      3  C   UNL     1     -19.464   9.954  35.547  1.00  0.00     0.021 C 
ATOM      4  C   UNL     1     -17.990   9.498  35.435  1.00  0.00     0.009 C 
ATOM      5  C   UNL     1     -17.137  10.278  36.466  1.00  0.00     0.035 C 
ATOM      6  C   UNL     1     -18.025  11.320  37.203  1.00  0.00     0.066 C 
ATOM      7  O   UNL     1     -19.060  10.637  37.913  1.00  0.00    -0.369 OA
ATOM      8  C   UNL     1     -18.668  12.271  36.153  1.00  0.00     0.035 C 
ATOM      9  C   UNL     1     -19.485  11.444  35.129  1.00  0.00     0.009 C 
ATOM     10  C   UNL     1     -17.186  12.122  38.204  1.00  0.00     0.042 C 
ATOM     11  C   UNL     1     -19.854   8.389  37.545  1.00  0.00     0.042 C 
ENDROOT
TORSDOF 0
ENDMDL
MODEL 4
REMARK VINA RESULT:    -4.492      1.469      3.316
REMARK INTER + INTRA:          -4.492
REMARK INTER:                  -4.492
REMARK INTRA:                   0.000
REMARK UNBOUND:                 0.000
REMARK SMILES CC1(C)O[C@]2(C)CC[C@H]1CC2
REMARK SMILES IDX 1 1 2 2 9 3 8 4 7 5 5 6 4 7 11 8 10 9 6 10 3 11
REMARK H PARENT
REMARK Flexibility Score: inf
ROOT
ATOM      1  C   UNL     1     -18.960   9.101  36.698  1.00  0.00     0.042 C 
ATOM      2  C   UNL     1     -20.094  10.122  36.933  1.00  0.00     0.066 C 
ATOM      3  C   UNL     1     -19.838  10.946  38.254  1.00  0.00     0.021 C 
ATOM      4  C   UNL     1     -20.974  11.985  38.411  1.00  0.00     0.009 C 
ATOM      5  C   UNL     1     -21.110  12.793  37.097  1.00  0.00     0.035 C 
ATOM      6  C   UNL     1     -20.004  12.357  36.094  1.00  0.00     0.066 C 
ATOM      7  O   UNL     1     -20.174  10.973  35.780  1.00  0.00    -0.369 OA
ATOM      8  C   UNL     1     -18.610  12.564  36.755  1.00  0.00     0.035 C 
ATOM      9  C   UNL     1     -18.534  11.761  38.077  1.00  0.00     0.009 C 
ATOM     10  C   UNL     1     -20.106  13.173  34.801  1.00  0.00     0.042 C 
ATOM     11  C   UNL     1     -21.414   9.327  37.034  1.00  0.00     0.042 C 
ENDROOT
TORSDOF 0
ENDMDL
MODEL 5
REMARK VINA RESULT:    -4.487      8.270     10.278
REMARK INTER + INTRA:          -4.487
REMARK INTER:                  -4.487
REMARK INTRA:                   0.000
REMARK UNBOUND:                 0.000
REMARK SMILES CC1(C)O[C@]2(C)CC[C@H]1CC2
REMARK SMILES IDX 1 1 2 2 9 3 8 4 7 5 5 6 4 7 11 8 10 9 6 10 3 11
REMARK H PARENT
REMARK Flexibility Score: inf
ROOT
ATOM      1  C   UNL     1     -13.996  14.377  33.171  1.00  0.00     0.042 C 
ATOM      2  C   UNL     1     -13.293  15.750  33.156  1.00  0.00     0.066 C 
ATOM      3  C   UNL     1     -13.160  16.326  34.619  1.00  0.00     0.021 C 
ATOM      4  C   UNL     1     -12.405  17.674  34.548  1.00  0.00     0.009 C 
ATOM      5  C   UNL     1     -11.092  17.481  33.750  1.00  0.00     0.035 C 
ATOM      6  C   UNL     1     -10.925  15.983  33.366  1.00  0.00     0.066 C 
ATOM      7  O   UNL     1     -12.013  15.589  32.528  1.00  0.00    -0.369 OA
ATOM      8  C   UNL     1     -10.942  15.123  34.663  1.00  0.00     0.035 C 
ATOM      9  C   UNL     1     -12.258  15.372  35.439  1.00  0.00     0.009 C 
ATOM     10  C   UNL     1      -9.612  15.771  32.604  1.00  0.00     0.042 C 
ATOM     11  C   UNL     1     -14.144  16.691  32.276  1.00  0.00     0.042 C 
ENDROOT
TORSDOF 0
ENDMDL
MODEL 6
REMARK VINA RESULT:    -4.456      0.871      3.323
REMARK INTER + INTRA:          -4.456
REMARK INTER:                  -4.456
REMARK INTRA:                   0.000
REMARK UNBOUND:                 0.000
REMARK SMILES CC1(C)O[C@]2(C)CC[C@H]1CC2
REMARK SMILES IDX 1 1 2 2 9 3 8 4 7 5 5 6 4 7 11 8 10 9 6 10 3 11
REMARK H PARENT
REMARK Flexibility Score: inf
ROOT
ATOM      1  C   UNL     1     -20.472   8.983  38.034  1.00  0.00     0.042 C 
ATOM      2  C   UNL     1     -19.894   9.997  37.025  1.00  0.00     0.066 C 
ATOM      3  C   UNL     1     -20.967  11.093  36.657  1.00  0.00     0.021 C 
ATOM      4  C   UNL     1     -20.318  12.109  35.687  1.00  0.00     0.009 C 
ATOM      5  C   UNL     1     -18.985  12.611  36.294  1.00  0.00     0.035 C 
ATOM      6  C   UNL     1     -18.788  12.001  37.711  1.00  0.00     0.066 C 
ATOM      7  O   UNL     1     -18.715  10.578  37.603  1.00  0.00    -0.369 OA
ATOM      8  C   UNL     1     -20.006  12.384  38.601  1.00  0.00     0.035 C 
ATOM      9  C   UNL     1     -21.314  11.888  37.940  1.00  0.00     0.009 C 
ATOM     10  C   UNL     1     -17.487  12.516  38.337  1.00  0.00     0.042 C 
ATOM     11  C   UNL     1     -19.471   9.206  35.769  1.00  0.00     0.042 C 
ENDROOT
TORSDOF 0
ENDMDL
MODEL 7
REMARK VINA RESULT:    -4.393      1.473      2.736
REMARK INTER + INTRA:          -4.393
REMARK INTER:                  -4.393
REMARK INTRA:                   0.000
REMARK UNBOUND:                 0.000
REMARK SMILES CC1(C)O[C@]2(C)CC[C@H]1CC2
REMARK SMILES IDX 1 1 2 2 9 3 8 4 7 5 5 6 4 7 11 8 10 9 6 10 3 11
REMARK H PARENT
REMARK Flexibility Score: inf
ROOT
ATOM      1  C   UNL     1     -19.836  12.527  34.407  1.00  0.00     0.042 C 
ATOM      2  C   UNL     1     -19.372  11.893  35.734  1.00  0.00     0.066 C 
ATOM      3  C   UNL     1     -19.732  12.825  36.955  1.00  0.00     0.021 C 
ATOM      4  C   UNL     1     -19.291  12.118  38.259  1.00  0.00     0.009 C 
ATOM      5  C   UNL     1     -19.872  10.682  38.280  1.00  0.00     0.035 C 
ATOM      6  C   UNL     1     -20.776  10.462  37.034  1.00  0.00     0.066 C 
ATOM      7  O   UNL     1     -19.987  10.601  35.850  1.00  0.00    -0.369 OA
ATOM      8  C   UNL     1     -21.901  11.537  37.027  1.00  0.00     0.035 C 
ATOM      9  C   UNL     1     -21.273  12.952  37.036  1.00  0.00     0.009 C 
ATOM     10  C   UNL     1     -21.383   9.055  37.059  1.00  0.00     0.042 C 
ATOM     11  C   UNL     1     -17.844  11.689  35.637  1.00  0.00     0.042 C 
ENDROOT
TORSDOF 0
ENDMDL
MODEL 8
REMARK VINA RESULT:    -4.353      7.971      9.506
REMARK INTER + INTRA:          -4.353
REMARK INTER:                  -4.353
REMARK INTRA:                   0.000
REMARK UNBOUND:                 0.000
REMARK SMILES CC1(C)O[C@]2(C)CC[C@H]1CC2
REMARK SMILES IDX 1 1 2 2 9 3 8 4 7 5 5 6 4 7 11 8 10 9 6 10 3 11
REMARK H PARENT
REMARK Flexibility Score: inf
ROOT
ATOM      1  C   UNL     1     -11.304  17.419  33.875  1.00  0.00     0.042 C 
ATOM      2  C   UNL     1     -11.234  15.878  33.895  1.00  0.00     0.066 C 
ATOM      3  C   UNL     1     -11.357  15.332  35.370  1.00  0.00     0.021 C 
ATOM      4  C   UNL     1     -11.332  13.786  35.325  1.00  0.00     0.009 C 
ATOM      5  C   UNL     1     -12.387  13.290  34.305  1.00  0.00     0.035 C 
ATOM      6  C   UNL     1     -13.180  14.501  33.737  1.00  0.00     0.066 C 
ATOM      7  O   UNL     1     -12.279  15.373  33.051  1.00  0.00    -0.369 OA
ATOM      8  C   UNL     1     -13.839  15.274  34.916  1.00  0.00     0.035 C 
ATOM      9  C   UNL     1     -12.750  15.722  35.921  1.00  0.00     0.009 C 
ATOM     10  C   UNL     1     -14.250  14.022  32.750  1.00  0.00     0.042 C 
ATOM     11  C   UNL     1      -9.879  15.472  33.276  1.00  0.00     0.042 C 
ENDROOT
TORSDOF 0
ENDMDL
MODEL 9
REMARK VINA RESULT:    -4.342      1.490      2.717
REMARK INTER + INTRA:          -4.342
REMARK INTER:                  -4.342
REMARK INTRA:                   0.000
REMARK UNBOUND:                 0.000
REMARK SMILES CC1(C)O[C@]2(C)CC[C@H]1CC2
REMARK SMILES IDX 1 1 2 2 9 3 8 4 7 5 5 6 4 7 11 8 10 9 6 10 3 11
REMARK H PARENT
REMARK Flexibility Score: inf
ROOT
ATOM      1  C   UNL     1     -20.095  13.650  36.507  1.00  0.00     0.042 C 
ATOM      2  C   UNL     1     -19.756  12.333  35.778  1.00  0.00     0.066 C 
ATOM      3  C   UNL     1     -18.310  11.836  36.166  1.00  0.00     0.021 C 
ATOM      4  C   UNL     1     -18.044  10.491  35.450  1.00  0.00     0.009 C 
ATOM      5  C   UNL     1     -19.218   9.522  35.737  1.00  0.00     0.035 C 
ATOM      6  C   UNL     1     -20.222  10.187  36.720  1.00  0.00     0.066 C 
ATOM      7  O   UNL     1     -20.760  11.365  36.115  1.00  0.00    -0.369 OA
ATOM      8  C   UNL     1     -19.469  10.581  38.024  1.00  0.00     0.035 C 
ATOM      9  C   UNL     1     -18.290  11.525  37.683  1.00  0.00     0.009 C 
ATOM     10  C   UNL     1     -21.372   9.226  37.038  1.00  0.00     0.042 C 
ATOM     11  C   UNL     1     -19.847  12.610  34.262  1.00  0.00     0.042 C 
ENDROOT
TORSDOF 0
ENDMDL
