MODEL 1
REMARK VINA RESULT:    -4.214      0.000      0.000
REMARK INTER + INTRA:         -13.308
REMARK INTER:                  -9.634
REMARK INTRA:                  -3.673
REMARK UNBOUND:                -3.673
REMARK SMILES CCCCCCCCCCCCCCCCCCCCCCCC(=O)[O-]
REMARK SMILES IDX 13 1 14 2 15 3 16 4 17 5 18 6 19 7 20 8 21 9 22 10 23 11
REMARK SMILES IDX 24 12 25 13 26 14 12 15 11 16 10 17 9 18 8 19 7 20 6 21 5 22
REMARK SMILES IDX 4 23 3 24 2 25 1 26
REMARK H PARENT
REMARK Flexibility Score: inf
ROOT
ATOM      1  C   UNL     1      11.447 -18.209 -22.859  1.00  0.00     0.000 C 
ENDROOT
BRANCH   1   2
ATOM      2  C   UNL     1      11.074 -16.933 -23.638  1.00  0.00     0.000 C 
BRANCH   2   3
ATOM      3  C   UNL     1      11.496 -16.965 -25.124  1.00  0.00     0.000 C 
BRANCH   3   4
ATOM      4  C   UNL     1      10.483 -16.312 -26.081  1.00  0.00     0.000 C 
BRANCH   4   5
ATOM      5  C   UNL     1       9.080 -16.189 -25.461  1.00  0.00     0.000 C 
BRANCH   5   6
ATOM      6  C   UNL     1       8.503 -14.768 -25.574  1.00  0.00     0.000 C 
BRANCH   6   7
ATOM      7  C   UNL     1       8.575 -13.967 -24.257  1.00  0.00     0.000 C 
BRANCH   7   8
ATOM      8  C   UNL     1       9.756 -12.985 -24.239  1.00  0.00     0.000 C 
BRANCH   8   9
ATOM      9  C   UNL     1      10.734 -13.319 -23.102  1.00  0.00     0.000 C 
BRANCH   9  10
ATOM     10  C   UNL     1      10.072 -13.272 -21.715  1.00  0.00     0.006 C 
BRANCH  10  11
ATOM     11  C   UNL     1      10.185 -14.601 -20.956  1.00  0.00     0.053 C 
BRANCH  11  12
ATOM     12  C   UNL     1      10.711 -14.372 -19.575  1.00  0.00     0.041 C 
ATOM     13  O   UNL     1      10.984 -15.350 -18.830  1.00  0.00    -0.550 OA
ATOM     14  O   UNL     1      10.861 -13.077 -19.093  1.00  0.00    -0.550 OA
ENDBRANCH  11  12
ENDBRANCH  10  11
ENDBRANCH   9  10
ENDBRANCH   8   9
ENDBRANCH   7   8
ENDBRANCH   6   7
ENDBRANCH   5   6
ENDBRANCH   4   5
ENDBRANCH   3   4
ENDBRANCH   2   3
ENDBRANCH   1   2
BRANCH   1  15
ATOM     15  C   UNL     1      11.198 -19.528 -23.615  1.00  0.00     0.000 C 
BRANCH  15  16
ATOM     16  C   UNL     1       9.773 -20.100 -23.487  1.00  0.00     0.000 C 
BRANCH  16  17
ATOM     17  C   UNL     1       9.085 -20.320 -24.842  1.00  0.00     0.000 C 
BRANCH  17  18
ATOM     18  C   UNL     1      10.112 -20.313 -25.984  1.00  0.00    -0.000 C 
BRANCH  18  19
ATOM     19  C   UNL     1       9.564 -19.676 -27.270  1.00  0.00    -0.000 C 
BRANCH  19  20
ATOM     20  C   UNL     1      10.682 -19.245 -28.238  1.00  0.00    -0.000 C 
BRANCH  20  21
ATOM     21  C   UNL     1      12.084 -19.565 -27.699  1.00  0.00    -0.000 C 
BRANCH  21  22
ATOM     22  C   UNL     1      13.196 -18.837 -28.474  1.00  0.00    -0.000 C 
BRANCH  22  23
ATOM     23  C   UNL     1      12.950 -17.322 -28.585  1.00  0.00    -0.000 C 
BRANCH  23  24
ATOM     24  C   UNL     1      14.218 -16.470 -28.800  1.00  0.00    -0.000 C 
BRANCH  24  25
ATOM     25  C   UNL     1      15.220 -16.494 -27.632  1.00  0.00    -0.003 C 
ATOM     26  C   UNL     1      16.633 -16.876 -28.071  1.00  0.00     0.004 C 
ENDBRANCH  24  25
ENDBRANCH  23  24
ENDBRANCH  22  23
ENDBRANCH  21  22
ENDBRANCH  20  21
ENDBRANCH  19  20
ENDBRANCH  18  19
ENDBRANCH  17  18
ENDBRANCH  16  17
ENDBRANCH  15  16
ENDBRANCH   1  15
TORSDOF 22
ENDMDL
MODEL 2
REMARK VINA RESULT:    -4.120      1.204      2.622
REMARK INTER + INTRA:         -13.093
REMARK INTER:                  -8.968
REMARK INTRA:                  -4.124
REMARK UNBOUND:                -3.673
REMARK SMILES CCCCCCCCCCCCCCCCCCCCCCCC(=O)[O-]
REMARK SMILES IDX 13 1 14 2 15 3 16 4 17 5 18 6 19 7 20 8 21 9 22 10 23 11
REMARK SMILES IDX 24 12 25 13 26 14 12 15 11 16 10 17 9 18 8 19 7 20 6 21 5 22
REMARK SMILES IDX 4 23 3 24 2 25 1 26
REMARK H PARENT
REMARK Flexibility Score: inf
ROOT
ATOM      1  C   UNL     1      11.656 -16.959 -23.463  1.00  0.00     0.000 C 
ENDROOT
BRANCH   1   2
ATOM      2  C   UNL     1      11.135 -17.391 -24.847  1.00  0.00     0.000 C 
BRANCH   2   3
ATOM      3  C   UNL     1      10.511 -16.238 -25.666  1.00  0.00     0.000 C 
BRANCH   3   4
ATOM      4  C   UNL     1       9.024 -16.442 -26.010  1.00  0.00     0.000 C 
BRANCH   4   5
ATOM      5  C   UNL     1       8.100 -15.515 -25.201  1.00  0.00     0.000 C 
BRANCH   5   6
ATOM      6  C   UNL     1       8.305 -14.029 -25.539  1.00  0.00     0.000 C 
BRANCH   6   7
ATOM      7  C   UNL     1       8.527 -13.140 -24.298  1.00  0.00     0.000 C 
BRANCH   7   8
ATOM      8  C   UNL     1       9.877 -12.409 -24.342  1.00  0.00     0.000 C 
BRANCH   8   9
ATOM      9  C   UNL     1      10.821 -12.929 -23.247  1.00  0.00     0.000 C 
BRANCH   9  10
ATOM     10  C   UNL     1      10.139 -13.928 -22.298  1.00  0.00     0.006 C 
BRANCH  10  11
ATOM     11  C   UNL     1      10.107 -13.441 -20.844  1.00  0.00     0.053 C 
BRANCH  11  12
ATOM     12  C   UNL     1      10.147 -14.601 -19.901  1.00  0.00     0.041 C 
ATOM     13  O   UNL     1       9.185 -15.413 -19.854  1.00  0.00    -0.550 OA
ATOM     14  O   UNL     1      11.228 -14.764 -19.043  1.00  0.00    -0.550 OA
ENDBRANCH  11  12
ENDBRANCH  10  11
ENDBRANCH   9  10
ENDBRANCH   8   9
ENDBRANCH   7   8
ENDBRANCH   6   7
ENDBRANCH   5   6
ENDBRANCH   4   5
ENDBRANCH   3   4
ENDBRANCH   2   3
ENDBRANCH   1   2
BRANCH   1  15
ATOM     15  C   UNL     1      10.883 -17.542 -22.266  1.00  0.00     0.000 C 
BRANCH  15  16
ATOM     16  C   UNL     1       9.406 -17.884 -22.541  1.00  0.00     0.000 C 
BRANCH  16  17
ATOM     17  C   UNL     1       8.909 -19.103 -21.749  1.00  0.00     0.000 C 
BRANCH  17  18
ATOM     18  C   UNL     1       8.813 -20.340 -22.654  1.00  0.00    -0.000 C 
BRANCH  18  19
ATOM     19  C   UNL     1      10.165 -20.730 -23.270  1.00  0.00    -0.000 C 
BRANCH  19  20
ATOM     20  C   UNL     1      10.059 -21.049 -24.773  1.00  0.00    -0.000 C 
BRANCH  20  21
ATOM     21  C   UNL     1       8.930 -20.269 -25.462  1.00  0.00    -0.000 C 
BRANCH  21  22
ATOM     22  C   UNL     1       9.193 -20.051 -26.963  1.00  0.00    -0.000 C 
BRANCH  22  23
ATOM     23  C   UNL     1      10.689 -20.096 -27.318  1.00  0.00    -0.000 C 
BRANCH  23  24
ATOM     24  C   UNL     1      11.190 -18.920 -28.181  1.00  0.00    -0.000 C 
BRANCH  24  25
ATOM     25  C   UNL     1      12.718 -18.744 -28.212  1.00  0.00    -0.003 C 
ATOM     26  C   UNL     1      13.149 -17.282 -28.102  1.00  0.00     0.004 C 
ENDBRANCH  24  25
ENDBRANCH  23  24
ENDBRANCH  22  23
ENDBRANCH  21  22
ENDBRANCH  20  21
ENDBRANCH  19  20
ENDBRANCH  18  19
ENDBRANCH  17  18
ENDBRANCH  16  17
ENDBRANCH  15  16
ENDBRANCH   1  15
TORSDOF 22
ENDMDL
MODEL 3
REMARK VINA RESULT:    -3.826      1.242      2.463
REMARK INTER + INTRA:         -12.419
REMARK INTER:                  -8.695
REMARK INTRA:                  -3.724
REMARK UNBOUND:                -3.673
REMARK SMILES CCCCCCCCCCCCCCCCCCCCCCCC(=O)[O-]
REMARK SMILES IDX 13 1 14 2 15 3 16 4 17 5 18 6 19 7 20 8 21 9 22 10 23 11
REMARK SMILES IDX 24 12 25 13 26 14 12 15 11 16 10 17 9 18 8 19 7 20 6 21 5 22
REMARK SMILES IDX 4 23 3 24 2 25 1 26
REMARK H PARENT
REMARK Flexibility Score: inf
ROOT
ATOM      1  C   UNL     1      10.825 -16.615 -25.974  1.00  0.00     0.000 C 
ENDROOT
BRANCH   1   2
ATOM      2  C   UNL     1      11.971 -17.391 -25.296  1.00  0.00     0.000 C 
BRANCH   2   3
ATOM      3  C   UNL     1      11.726 -17.679 -23.797  1.00  0.00     0.000 C 
BRANCH   3   4
ATOM      4  C   UNL     1      11.111 -19.060 -23.512  1.00  0.00     0.000 C 
BRANCH   4   5
ATOM      5  C   UNL     1       9.657 -18.968 -23.017  1.00  0.00     0.000 C 
BRANCH   5   6
ATOM      6  C   UNL     1       9.306 -17.578 -22.461  1.00  0.00     0.000 C 
BRANCH   6   7
ATOM      7  C   UNL     1       8.209 -16.851 -23.267  1.00  0.00     0.000 C 
BRANCH   7   8
ATOM      8  C   UNL     1       8.253 -15.329 -23.065  1.00  0.00     0.000 C 
BRANCH   8   9
ATOM      9  C   UNL     1       9.457 -14.711 -23.794  1.00  0.00     0.000 C 
BRANCH   9  10
ATOM     10  C   UNL     1      10.315 -13.823 -22.879  1.00  0.00     0.006 C 
BRANCH  10  11
ATOM     11  C   UNL     1      10.681 -14.507 -21.556  1.00  0.00     0.053 C 
BRANCH  11  12
ATOM     12  C   UNL     1      10.401 -13.600 -20.401  1.00  0.00     0.041 C 
ATOM     13  O   UNL     1       9.842 -12.487 -20.590  1.00  0.00    -0.550 OA
ATOM     14  O   UNL     1      10.796 -13.963 -19.118  1.00  0.00    -0.550 OA
ENDBRANCH  11  12
ENDBRANCH  10  11
ENDBRANCH   9  10
ENDBRANCH   8   9
ENDBRANCH   7   8
ENDBRANCH   6   7
ENDBRANCH   5   6
ENDBRANCH   4   5
ENDBRANCH   3   4
ENDBRANCH   2   3
ENDBRANCH   1   2
BRANCH   1  15
ATOM     15  C   UNL     1      10.085 -17.387 -27.083  1.00  0.00     0.000 C 
BRANCH  15  16
ATOM     16  C   UNL     1       9.134 -18.494 -26.591  1.00  0.00     0.000 C 
BRANCH  16  17
ATOM     17  C   UNL     1       9.367 -19.845 -27.285  1.00  0.00     0.000 C 
BRANCH  17  18
ATOM     18  C   UNL     1      10.709 -20.456 -26.855  1.00  0.00    -0.000 C 
BRANCH  18  19
ATOM     19  C   UNL     1      11.650 -20.713 -28.042  1.00  0.00    -0.000 C 
BRANCH  19  20
ATOM     20  C   UNL     1      11.141 -20.076 -29.348  1.00  0.00    -0.000 C 
BRANCH  20  21
ATOM     21  C   UNL     1      12.096 -19.003 -29.892  1.00  0.00    -0.000 C 
BRANCH  21  22
ATOM     22  C   UNL     1      13.281 -18.734 -28.948  1.00  0.00    -0.000 C 
BRANCH  22  23
ATOM     23  C   UNL     1      13.402 -17.253 -28.551  1.00  0.00    -0.000 C 
BRANCH  23  24
ATOM     24  C   UNL     1      14.746 -16.588 -28.914  1.00  0.00    -0.000 C 
BRANCH  24  25
ATOM     25  C   UNL     1      15.652 -16.261 -27.714  1.00  0.00    -0.003 C 
ATOM     26  C   UNL     1      16.857 -17.195 -27.608  1.00  0.00     0.004 C 
ENDBRANCH  24  25
ENDBRANCH  23  24
ENDBRANCH  22  23
ENDBRANCH  21  22
ENDBRANCH  20  21
ENDBRANCH  19  20
ENDBRANCH  18  19
ENDBRANCH  17  18
ENDBRANCH  16  17
ENDBRANCH  15  16
ENDBRANCH   1  15
TORSDOF 22
ENDMDL
MODEL 4
REMARK VINA RESULT:    -3.788      2.968      7.121
REMARK INTER + INTRA:         -12.333
REMARK INTER:                  -8.213
REMARK INTRA:                  -4.120
REMARK UNBOUND:                -3.673
REMARK SMILES CCCCCCCCCCCCCCCCCCCCCCCC(=O)[O-]
REMARK SMILES IDX 13 1 14 2 15 3 16 4 17 5 18 6 19 7 20 8 21 9 22 10 23 11
REMARK SMILES IDX 24 12 25 13 26 14 12 15 11 16 10 17 9 18 8 19 7 20 6 21 5 22
REMARK SMILES IDX 4 23 3 24 2 25 1 26
REMARK H PARENT
REMARK Flexibility Score: inf
ROOT
ATOM      1  C   UNL     1      11.111 -18.348 -22.838  1.00  0.00     0.000 C 
ENDROOT
BRANCH   1   2
ATOM      2  C   UNL     1       9.649 -18.250 -22.360  1.00  0.00     0.000 C 
BRANCH   2   3
ATOM      3  C   UNL     1       8.730 -19.349 -22.940  1.00  0.00     0.000 C 
BRANCH   3   4
ATOM      4  C   UNL     1       9.446 -20.343 -23.873  1.00  0.00     0.000 C 
BRANCH   4   5
ATOM      5  C   UNL     1       8.844 -20.360 -25.289  1.00  0.00     0.000 C 
BRANCH   5   6
ATOM      6  C   UNL     1       9.913 -20.479 -26.388  1.00  0.00     0.000 C 
BRANCH   6   7
ATOM      7  C   UNL     1       9.488 -19.850 -27.731  1.00  0.00     0.000 C 
BRANCH   7   8
ATOM      8  C   UNL     1      10.626 -19.051 -28.383  1.00  0.00     0.000 C 
BRANCH   8   9
ATOM      9  C   UNL     1      11.987 -19.448 -27.792  1.00  0.00     0.000 C 
BRANCH   9  10
ATOM     10  C   UNL     1      13.172 -18.910 -28.610  1.00  0.00     0.006 C 
BRANCH  10  11
ATOM     11  C   UNL     1      13.381 -17.401 -28.434  1.00  0.00     0.053 C 
BRANCH  11  12
ATOM     12  C   UNL     1      14.807 -17.106 -28.089  1.00  0.00     0.041 C 
ATOM     13  O   UNL     1      15.160 -15.931 -27.807  1.00  0.00    -0.550 OA
ATOM     14  O   UNL     1      15.755 -18.122 -28.121  1.00  0.00    -0.550 OA
ENDBRANCH  11  12
ENDBRANCH  10  11
ENDBRANCH   9  10
ENDBRANCH   8   9
ENDBRANCH   7   8
ENDBRANCH   6   7
ENDBRANCH   5   6
ENDBRANCH   4   5
ENDBRANCH   3   4
ENDBRANCH   2   3
ENDBRANCH   1   2
BRANCH   1  15
ATOM     15  C   UNL     1      11.614 -17.135 -23.643  1.00  0.00     0.000 C 
BRANCH  15  16
ATOM     16  C   UNL     1      11.555 -17.292 -25.174  1.00  0.00     0.000 C 
BRANCH  16  17
ATOM     17  C   UNL     1      10.623 -16.276 -25.851  1.00  0.00     0.000 C 
BRANCH  17  18
ATOM     18  C   UNL     1       9.155 -16.706 -25.713  1.00  0.00    -0.000 C 
BRANCH  18  19
ATOM     19  C   UNL     1       8.302 -15.669 -24.965  1.00  0.00    -0.000 C 
BRANCH  19  20
ATOM     20  C   UNL     1       8.659 -14.222 -25.351  1.00  0.00    -0.000 C 
BRANCH  20  21
ATOM     21  C   UNL     1       8.634 -13.268 -24.147  1.00  0.00    -0.000 C 
BRANCH  21  22
ATOM     22  C   UNL     1      10.044 -12.927 -23.633  1.00  0.00    -0.000 C 
BRANCH  22  23
ATOM     23  C   UNL     1      10.608 -13.999 -22.685  1.00  0.00    -0.000 C 
BRANCH  23  24
ATOM     24  C   UNL     1       9.587 -14.592 -21.691  1.00  0.00    -0.000 C 
BRANCH  24  25
ATOM     25  C   UNL     1       9.871 -14.285 -20.211  1.00  0.00    -0.003 C 
ATOM     26  C   UNL     1      11.024 -15.112 -19.643  1.00  0.00     0.004 C 
ENDBRANCH  24  25
ENDBRANCH  23  24
ENDBRANCH  22  23
ENDBRANCH  21  22
ENDBRANCH  20  21
ENDBRANCH  19  20
ENDBRANCH  18  19
ENDBRANCH  17  18
ENDBRANCH  16  17
ENDBRANCH  15  16
ENDBRANCH   1  15
TORSDOF 22
ENDMDL
MODEL 5
REMARK VINA RESULT:    -3.768      4.385      8.367
REMARK INTER + INTRA:         -12.288
REMARK INTER:                  -9.748
REMARK INTRA:                  -2.540
REMARK UNBOUND:                -3.673
REMARK SMILES CCCCCCCCCCCCCCCCCCCCCCCC(=O)[O-]
REMARK SMILES IDX 13 1 14 2 15 3 16 4 17 5 18 6 19 7 20 8 21 9 22 10 23 11
REMARK SMILES IDX 24 12 25 13 26 14 12 15 11 16 10 17 9 18 8 19 7 20 6 21 5 22
REMARK SMILES IDX 4 23 3 24 2 25 1 26
REMARK H PARENT
REMARK Flexibility Score: inf
ROOT
ATOM      1  C   UNL     1      10.756 -12.984 -22.781  1.00  0.00     0.000 C 
ENDROOT
BRANCH   1   2
ATOM      2  C   UNL     1       9.818 -12.896 -21.561  1.00  0.00     0.000 C 
BRANCH   2   3
ATOM      3  C   UNL     1      10.538 -13.088 -20.207  1.00  0.00     0.000 C 
BRANCH   3   4
ATOM      4  C   UNL     1      10.682 -14.558 -19.772  1.00  0.00     0.000 C 
BRANCH   4   5
ATOM      5  C   UNL     1       9.756 -15.500 -20.562  1.00  0.00     0.000 C 
BRANCH   5   6
ATOM      6  C   UNL     1      10.531 -16.540 -21.387  1.00  0.00     0.000 C 
BRANCH   6   7
ATOM      7  C   UNL     1       9.642 -17.338 -22.363  1.00  0.00     0.000 C 
BRANCH   7   8
ATOM      8  C   UNL     1      10.089 -17.171 -23.824  1.00  0.00     0.000 C 
BRANCH   8   9
ATOM      9  C   UNL     1       9.201 -17.995 -24.769  1.00  0.00     0.000 C 
BRANCH   9  10
ATOM     10  C   UNL     1       9.579 -17.815 -26.249  1.00  0.00     0.006 C 
BRANCH  10  11
ATOM     11  C   UNL     1      10.815 -16.928 -26.444  1.00  0.00     0.053 C 
BRANCH  11  12
ATOM     12  C   UNL     1      11.985 -17.748 -26.886  1.00  0.00     0.041 C 
ATOM     13  O   UNL     1      12.961 -17.200 -27.464  1.00  0.00    -0.550 OA
ATOM     14  O   UNL     1      11.980 -19.125 -26.697  1.00  0.00    -0.550 OA
ENDBRANCH  11  12
ENDBRANCH  10  11
ENDBRANCH   9  10
ENDBRANCH   8   9
ENDBRANCH   7   8
ENDBRANCH   6   7
ENDBRANCH   5   6
ENDBRANCH   4   5
ENDBRANCH   3   4
ENDBRANCH   2   3
ENDBRANCH   1   2
BRANCH   1  15
ATOM     15  C   UNL     1      10.161 -13.702 -24.008  1.00  0.00     0.000 C 
BRANCH  15  16
ATOM     16  C   UNL     1       8.625 -13.817 -24.021  1.00  0.00     0.000 C 
BRANCH  16  17
ATOM     17  C   UNL     1       7.982 -13.201 -25.272  1.00  0.00     0.000 C 
BRANCH  17  18
ATOM     18  C   UNL     1       8.712 -11.915 -25.684  1.00  0.00    -0.000 C 
BRANCH  18  19
ATOM     19  C   UNL     1       8.364 -10.720 -24.783  1.00  0.00    -0.000 C 
BRANCH  19  20
ATOM     20  C   UNL     1       9.602  -9.888 -24.402  1.00  0.00    -0.000 C 
BRANCH  20  21
ATOM     21  C   UNL     1       9.473  -8.415 -24.821  1.00  0.00    -0.000 C 
BRANCH  21  22
ATOM     22  C   UNL     1       8.560  -8.227 -26.044  1.00  0.00    -0.000 C 
BRANCH  22  23
ATOM     23  C   UNL     1       9.107  -7.192 -27.042  1.00  0.00    -0.000 C 
BRANCH  23  24
ATOM     24  C   UNL     1       9.000  -7.597 -28.527  1.00  0.00    -0.000 C 
BRANCH  24  25
ATOM     25  C   UNL     1       8.419  -6.515 -29.454  1.00  0.00    -0.003 C 
ATOM     26  C   UNL     1       8.147  -5.197 -28.730  1.00  0.00     0.004 C 
ENDBRANCH  24  25
ENDBRANCH  23  24
ENDBRANCH  22  23
ENDBRANCH  21  22
ENDBRANCH  20  21
ENDBRANCH  19  20
ENDBRANCH  18  19
ENDBRANCH  17  18
ENDBRANCH  16  17
ENDBRANCH  15  16
ENDBRANCH   1  15
TORSDOF 22
ENDMDL
MODEL 6
REMARK VINA RESULT:    -3.754      3.141      7.095
REMARK INTER + INTRA:         -12.256
REMARK INTER:                  -9.096
REMARK INTRA:                  -3.161
REMARK UNBOUND:                -3.673
REMARK SMILES CCCCCCCCCCCCCCCCCCCCCCCC(=O)[O-]
REMARK SMILES IDX 13 1 14 2 15 3 16 4 17 5 18 6 19 7 20 8 21 9 22 10 23 11
REMARK SMILES IDX 24 12 25 13 26 14 12 15 11 16 10 17 9 18 8 19 7 20 6 21 5 22
REMARK SMILES IDX 4 23 3 24 2 25 1 26
REMARK H PARENT
REMARK Flexibility Score: inf
ROOT
ATOM      1  C   UNL     1       9.449 -11.704 -23.936  1.00  0.00     0.000 C 
ENDROOT
BRANCH   1   2
ATOM      2  C   UNL     1       8.257 -12.665 -24.109  1.00  0.00     0.000 C 
BRANCH   2   3
ATOM      3  C   UNL     1       8.311 -13.497 -25.410  1.00  0.00     0.000 C 
BRANCH   3   4
ATOM      4  C   UNL     1       8.219 -15.017 -25.191  1.00  0.00     0.000 C 
BRANCH   4   5
ATOM      5  C   UNL     1       8.549 -15.818 -26.463  1.00  0.00     0.000 C 
BRANCH   5   6
ATOM      6  C   UNL     1       9.374 -17.082 -26.172  1.00  0.00     0.000 C 
BRANCH   6   7
ATOM      7  C   UNL     1      10.883 -16.908 -26.445  1.00  0.00     0.000 C 
BRANCH   7   8
ATOM      8  C   UNL     1      11.278 -17.395 -27.847  1.00  0.00     0.000 C 
BRANCH   8   9
ATOM      9  C   UNL     1      12.763 -17.789 -27.895  1.00  0.00     0.000 C 
BRANCH   9  10
ATOM     10  C   UNL     1      13.482 -17.250 -29.143  1.00  0.00     0.006 C 
BRANCH  10  11
ATOM     11  C   UNL     1      14.720 -16.411 -28.801  1.00  0.00     0.053 C 
BRANCH  11  12
ATOM     12  C   UNL     1      15.695 -17.217 -28.002  1.00  0.00     0.041 C 
ATOM     13  O   UNL     1      16.158 -18.293 -28.465  1.00  0.00    -0.550 OA
ATOM     14  O   UNL     1      16.060 -16.802 -26.727  1.00  0.00    -0.550 OA
ENDBRANCH  11  12
ENDBRANCH  10  11
ENDBRANCH   9  10
ENDBRANCH   8   9
ENDBRANCH   7   8
ENDBRANCH   6   7
ENDBRANCH   5   6
ENDBRANCH   4   5
ENDBRANCH   3   4
ENDBRANCH   2   3
ENDBRANCH   1   2
BRANCH   1  15
ATOM     15  C   UNL     1      10.565 -12.215 -23.006  1.00  0.00     0.000 C 
BRANCH  15  16
ATOM     16  C   UNL     1      10.083 -12.863 -21.694  1.00  0.00     0.000 C 
BRANCH  16  17
ATOM     17  C   UNL     1      10.547 -14.318 -21.532  1.00  0.00     0.000 C 
BRANCH  17  18
ATOM     18  C   UNL     1      11.187 -14.836 -22.828  1.00  0.00    -0.000 C 
BRANCH  18  19
ATOM     19  C   UNL     1      11.069 -16.360 -22.980  1.00  0.00    -0.000 C 
BRANCH  19  20
ATOM     20  C   UNL     1      10.157 -16.991 -21.911  1.00  0.00    -0.000 C 
BRANCH  20  21
ATOM     21  C   UNL     1       8.991 -17.781 -22.524  1.00  0.00    -0.000 C 
BRANCH  21  22
ATOM     22  C   UNL     1       8.870 -19.201 -21.945  1.00  0.00    -0.000 C 
BRANCH  22  23
ATOM     23  C   UNL     1       8.874 -20.290 -23.031  1.00  0.00    -0.000 C 
BRANCH  23  24
ATOM     24  C   UNL     1      10.273 -20.787 -23.451  1.00  0.00    -0.000 C 
BRANCH  24  25
ATOM     25  C   UNL     1      10.839 -20.131 -24.723  1.00  0.00    -0.003 C 
ATOM     26  C   UNL     1      10.343 -20.797 -26.005  1.00  0.00     0.004 C 
ENDBRANCH  24  25
ENDBRANCH  23  24
ENDBRANCH  22  23
ENDBRANCH  21  22
ENDBRANCH  20  21
ENDBRANCH  19  20
ENDBRANCH  18  19
ENDBRANCH  17  18
ENDBRANCH  16  17
ENDBRANCH  15  16
ENDBRANCH   1  15
TORSDOF 22
ENDMDL
MODEL 7
REMARK VINA RESULT:    -3.730      1.408      2.367
REMARK INTER + INTRA:         -12.200
REMARK INTER:                  -8.975
REMARK INTRA:                  -3.224
REMARK UNBOUND:                -3.673
REMARK SMILES CCCCCCCCCCCCCCCCCCCCCCCC(=O)[O-]
REMARK SMILES IDX 13 1 14 2 15 3 16 4 17 5 18 6 19 7 20 8 21 9 22 10 23 11
REMARK SMILES IDX 24 12 25 13 26 14 12 15 11 16 10 17 9 18 8 19 7 20 6 21 5 22
REMARK SMILES IDX 4 23 3 24 2 25 1 26
REMARK H PARENT
REMARK Flexibility Score: inf
ROOT
ATOM      1  C   UNL     1      11.694 -16.990 -23.913  1.00  0.00     0.000 C 
ENDROOT
BRANCH   1   2
ATOM      2  C   UNL     1      10.700 -17.164 -22.749  1.00  0.00     0.000 C 
BRANCH   2   3
ATOM      3  C   UNL     1       9.555 -18.157 -23.051  1.00  0.00     0.000 C 
BRANCH   3   4
ATOM      4  C   UNL     1       8.232 -17.488 -23.466  1.00  0.00     0.000 C 
BRANCH   4   5
ATOM      5  C   UNL     1       8.230 -15.972 -23.202  1.00  0.00     0.000 C 
BRANCH   5   6
ATOM      6  C   UNL     1       8.112 -15.144 -24.492  1.00  0.00     0.000 C 
BRANCH   6   7
ATOM      7  C   UNL     1       9.337 -14.244 -24.760  1.00  0.00     0.000 C 
BRANCH   7   8
ATOM      8  C   UNL     1       9.188 -12.856 -24.119  1.00  0.00     0.000 C 
BRANCH   8   9
ATOM      9  C   UNL     1      10.451 -12.474 -23.332  1.00  0.00     0.000 C 
BRANCH   9  10
ATOM     10  C   UNL     1      10.798 -13.491 -22.232  1.00  0.00     0.006 C 
BRANCH  10  11
ATOM     11  C   UNL     1      10.086 -13.199 -20.905  1.00  0.00     0.053 C 
BRANCH  11  12
ATOM     12  C   UNL     1      10.125 -14.399 -20.014  1.00  0.00     0.041 C 
ATOM     13  O   UNL     1       9.101 -15.118 -19.874  1.00  0.00    -0.550 OA
ATOM     14  O   UNL     1      11.281 -14.702 -19.303  1.00  0.00    -0.550 OA
ENDBRANCH  11  12
ENDBRANCH  10  11
ENDBRANCH   9  10
ENDBRANCH   8   9
ENDBRANCH   7   8
ENDBRANCH   6   7
ENDBRANCH   5   6
ENDBRANCH   4   5
ENDBRANCH   3   4
ENDBRANCH   2   3
ENDBRANCH   1   2
BRANCH   1  15
ATOM     15  C   UNL     1      11.384 -17.832 -25.165  1.00  0.00     0.000 C 
BRANCH  15  16
ATOM     16  C   UNL     1      10.970 -17.028 -26.412  1.00  0.00     0.000 C 
BRANCH  16  17
ATOM     17  C   UNL     1      11.394 -17.693 -27.730  1.00  0.00     0.000 C 
BRANCH  17  18
ATOM     18  C   UNL     1      11.672 -19.189 -27.522  1.00  0.00    -0.000 C 
BRANCH  18  19
ATOM     19  C   UNL     1      12.772 -19.722 -28.452  1.00  0.00    -0.000 C 
BRANCH  19  20
ATOM     20  C   UNL     1      12.858 -18.938 -29.775  1.00  0.00    -0.000 C 
BRANCH  20  21
ATOM     21  C   UNL     1      14.220 -18.255 -29.968  1.00  0.00    -0.000 C 
BRANCH  21  22
ATOM     22  C   UNL     1      14.090 -16.752 -30.270  1.00  0.00    -0.000 C 
BRANCH  22  23
ATOM     23  C   UNL     1      14.607 -15.866 -29.123  1.00  0.00    -0.000 C 
BRANCH  23  24
ATOM     24  C   UNL     1      14.870 -16.607 -27.795  1.00  0.00    -0.000 C 
BRANCH  24  25
ATOM     25  C   UNL     1      16.291 -16.439 -27.230  1.00  0.00    -0.003 C 
ATOM     26  C   UNL     1      17.263 -17.501 -27.742  1.00  0.00     0.004 C 
ENDBRANCH  24  25
ENDBRANCH  23  24
ENDBRANCH  22  23
ENDBRANCH  21  22
ENDBRANCH  20  21
ENDBRANCH  19  20
ENDBRANCH  18  19
ENDBRANCH  17  18
ENDBRANCH  16  17
ENDBRANCH  15  16
ENDBRANCH   1  15
TORSDOF 22
ENDMDL
MODEL 8
REMARK VINA RESULT:    -3.643     14.183     17.921
REMARK INTER + INTRA:         -12.001
REMARK INTER:                  -7.895
REMARK INTRA:                  -4.106
REMARK UNBOUND:                -3.673
REMARK SMILES CCCCCCCCCCCCCCCCCCCCCCCC(=O)[O-]
REMARK SMILES IDX 13 1 14 2 15 3 16 4 17 5 18 6 19 7 20 8 21 9 22 10 23 11
REMARK SMILES IDX 24 12 25 13 26 14 12 15 11 16 10 17 9 18 8 19 7 20 6 21 5 22
REMARK SMILES IDX 4 23 3 24 2 25 1 26
REMARK H PARENT
REMARK Flexibility Score: inf
ROOT
ATOM      1  C   UNL     1      23.031  -6.151 -26.510  1.00  0.00     0.000 C 
ENDROOT
BRANCH   1   2
ATOM      2  C   UNL     1      23.483  -7.614 -26.688  1.00  0.00     0.000 C 
BRANCH   2   3
ATOM      3  C   UNL     1      23.659  -8.036 -28.164  1.00  0.00     0.000 C 
BRANCH   3   4
ATOM      4  C   UNL     1      24.964  -8.800 -28.450  1.00  0.00     0.000 C 
BRANCH   4   5
ATOM      5  C   UNL     1      25.725  -8.234 -29.662  1.00  0.00     0.000 C 
BRANCH   5   6
ATOM      6  C   UNL     1      25.120  -6.919 -30.182  1.00  0.00     0.000 C 
BRANCH   6   7
ATOM      7  C   UNL     1      24.773  -6.953 -31.685  1.00  0.00     0.000 C 
BRANCH   7   8
ATOM      8  C   UNL     1      24.634  -8.388 -32.216  1.00  0.00     0.000 C 
BRANCH   8   9
ATOM      9  C   UNL     1      23.158  -8.749 -32.447  1.00  0.00     0.000 C 
BRANCH   9  10
ATOM     10  C   UNL     1      22.560  -9.573 -31.296  1.00  0.00     0.006 C 
BRANCH  10  11
ATOM     11  C   UNL     1      23.350 -10.857 -31.008  1.00  0.00     0.053 C 
BRANCH  11  12
ATOM     12  C   UNL     1      22.510 -11.827 -30.240  1.00  0.00     0.041 C 
ATOM     13  O   UNL     1      22.965 -12.375 -29.201  1.00  0.00    -0.550 OA
ATOM     14  O   UNL     1      21.239 -12.161 -30.694  1.00  0.00    -0.550 OA
ENDBRANCH  11  12
ENDBRANCH  10  11
ENDBRANCH   9  10
ENDBRANCH   8   9
ENDBRANCH   7   8
ENDBRANCH   6   7
ENDBRANCH   5   6
ENDBRANCH   4   5
ENDBRANCH   3   4
ENDBRANCH   2   3
ENDBRANCH   1   2
BRANCH   1  15
ATOM     15  C   UNL     1      23.248  -5.249 -27.739  1.00  0.00     0.000 C 
BRANCH  15  16
ATOM     16  C   UNL     1      24.296  -4.135 -27.560  1.00  0.00     0.000 C 
BRANCH  16  17
ATOM     17  C   UNL     1      24.001  -2.885 -28.403  1.00  0.00     0.000 C 
BRANCH  17  18
ATOM     18  C   UNL     1      23.260  -3.260 -29.695  1.00  0.00    -0.000 C 
BRANCH  18  19
ATOM     19  C   UNL     1      24.191  -3.330 -30.914  1.00  0.00    -0.000 C 
BRANCH  19  20
ATOM     20  C   UNL     1      23.504  -2.862 -32.210  1.00  0.00    -0.000 C 
BRANCH  20  21
ATOM     21  C   UNL     1      23.502  -3.944 -33.301  1.00  0.00    -0.000 C 
BRANCH  21  22
ATOM     22  C   UNL     1      22.203  -3.950 -34.125  1.00  0.00    -0.000 C 
BRANCH  22  23
ATOM     23  C   UNL     1      20.973  -3.529 -33.302  1.00  0.00    -0.000 C 
BRANCH  23  24
ATOM     24  C   UNL     1      20.145  -4.696 -32.725  1.00  0.00    -0.000 C 
BRANCH  24  25
ATOM     25  C   UNL     1      20.285  -4.901 -31.207  1.00  0.00    -0.003 C 
ATOM     26  C   UNL     1      21.235  -6.043 -30.847  1.00  0.00     0.004 C 
ENDBRANCH  24  25
ENDBRANCH  23  24
ENDBRANCH  22  23
ENDBRANCH  21  22
ENDBRANCH  20  21
ENDBRANCH  19  20
ENDBRANCH  18  19
ENDBRANCH  17  18
ENDBRANCH  16  17
ENDBRANCH  15  16
ENDBRANCH   1  15
TORSDOF 22
ENDMDL
MODEL 9
REMARK VINA RESULT:    -3.530     16.032     19.971
REMARK INTER + INTRA:         -11.742
REMARK INTER:                  -7.298
REMARK INTRA:                  -4.444
REMARK UNBOUND:                -3.673
REMARK SMILES CCCCCCCCCCCCCCCCCCCCCCCC(=O)[O-]
REMARK SMILES IDX 13 1 14 2 15 3 16 4 17 5 18 6 19 7 20 8 21 9 22 10 23 11
REMARK SMILES IDX 24 12 25 13 26 14 12 15 11 16 10 17 9 18 8 19 7 20 6 21 5 22
REMARK SMILES IDX 4 23 3 24 2 25 1 26
REMARK H PARENT
REMARK Flexibility Score: inf
ROOT
ATOM      1  C   UNL     1      27.383  -3.038 -28.934  1.00  0.00     0.000 C 
ENDROOT
BRANCH   1   2
ATOM      2  C   UNL     1      27.393  -2.634 -30.420  1.00  0.00     0.000 C 
BRANCH   2   3
ATOM      3  C   UNL     1      26.554  -1.374 -30.729  1.00  0.00     0.000 C 
BRANCH   3   4
ATOM      4  C   UNL     1      25.843  -1.408 -32.094  1.00  0.00     0.000 C 
BRANCH   4   5
ATOM      5  C   UNL     1      25.634  -2.841 -32.614  1.00  0.00     0.000 C 
BRANCH   5   6
ATOM      6  C   UNL     1      24.302  -3.013 -33.362  1.00  0.00     0.000 C 
BRANCH   6   7
ATOM      7  C   UNL     1      23.094  -2.406 -32.618  1.00  0.00     0.000 C 
BRANCH   7   8
ATOM      8  C   UNL     1      21.794  -3.175 -32.899  1.00  0.00     0.000 C 
BRANCH   8   9
ATOM      9  C   UNL     1      21.358  -3.988 -31.669  1.00  0.00     0.000 C 
BRANCH   9  10
ATOM     10  C   UNL     1      21.234  -5.491 -31.963  1.00  0.00     0.006 C 
BRANCH  10  11
ATOM     11  C   UNL     1      21.984  -5.915 -33.232  1.00  0.00     0.053 C 
BRANCH  11  12
ATOM     12  C   UNL     1      23.053  -6.908 -32.902  1.00  0.00     0.041 C 
ATOM     13  O   UNL     1      24.229  -6.736 -33.317  1.00  0.00    -0.550 OA
ATOM     14  O   UNL     1      22.741  -8.048 -32.171  1.00  0.00    -0.550 OA
ENDBRANCH  11  12
ENDBRANCH  10  11
ENDBRANCH   9  10
ENDBRANCH   8   9
ENDBRANCH   7   8
ENDBRANCH   6   7
ENDBRANCH   5   6
ENDBRANCH   4   5
ENDBRANCH   3   4
ENDBRANCH   2   3
ENDBRANCH   1   2
BRANCH   1  15
ATOM     15  C   UNL     1      27.017  -1.907 -27.955  1.00  0.00     0.000 C 
BRANCH  15  16
ATOM     16  C   UNL     1      26.398  -2.366 -26.621  1.00  0.00     0.000 C 
BRANCH  16  17
ATOM     17  C   UNL     1      24.877  -2.566 -26.696  1.00  0.00     0.000 C 
BRANCH  17  18
ATOM     18  C   UNL     1      24.255  -1.634 -27.746  1.00  0.00    -0.000 C 
BRANCH  18  19
ATOM     19  C   UNL     1      23.576  -2.401 -28.891  1.00  0.00    -0.000 C 
BRANCH  19  20
ATOM     20  C   UNL     1      23.623  -3.927 -28.688  1.00  0.00    -0.000 C 
BRANCH  20  21
ATOM     21  C   UNL     1      24.238  -4.662 -29.888  1.00  0.00    -0.000 C 
BRANCH  21  22
ATOM     22  C   UNL     1      24.506  -6.149 -29.597  1.00  0.00    -0.000 C 
BRANCH  22  23
ATOM     23  C   UNL     1      23.318  -6.845 -28.911  1.00  0.00    -0.000 C 
BRANCH  23  24
ATOM     24  C   UNL     1      23.694  -8.043 -28.014  1.00  0.00    -0.000 C 
BRANCH  24  25
ATOM     25  C   UNL     1      23.331  -7.879 -26.528  1.00  0.00    -0.003 C 
ATOM     26  C   UNL     1      23.330  -6.419 -26.075  1.00  0.00     0.004 C 
ENDBRANCH  24  25
ENDBRANCH  23  24
ENDBRANCH  22  23
ENDBRANCH  21  22
ENDBRANCH  20  21
ENDBRANCH  19  20
ENDBRANCH  18  19
ENDBRANCH  17  18
ENDBRANCH  16  17
ENDBRANCH  15  16
ENDBRANCH   1  15
TORSDOF 22
ENDMDL
