MODEL 1
REMARK VINA RESULT:    17.478      0.000      0.000
REMARK INTER + INTRA:          31.624
REMARK INTER:                  32.804
REMARK INTRA:                  -1.180
REMARK UNBOUND:                -1.180
REMARK SMILES CCCCCCCCC=CCCCCCCCC(=O)[O-]
REMARK SMILES IDX 10 1 9 2 11 3 12 4 13 5 14 6 15 7 16 8 17 9 18 10 19 11
REMARK SMILES IDX 20 12 8 13 7 14 6 15 5 16 4 17 3 18 2 19 1 20
REMARK H PARENT
REMARK Flexibility Score: inf
ROOT
ATOM      1  C   UNL     1      14.243   6.225   8.130  1.00  0.00    -0.031 C 
ATOM      2  C   UNL     1      14.959   5.249   7.544  1.00  0.00    -0.031 C 
ENDROOT
BRANCH   1   3
ATOM      3  C   UNL     1      14.062   7.612   7.566  1.00  0.00     0.027 C 
BRANCH   3   4
ATOM      4  C   UNL     1      12.575   7.975   7.486  1.00  0.00     0.004 C 
BRANCH   4   5
ATOM      5  C   UNL     1      11.696   6.783   7.882  1.00  0.00     0.000 C 
BRANCH   5   6
ATOM      6  C   UNL     1      10.951   6.221   6.663  1.00  0.00     0.000 C 
BRANCH   6   7
ATOM      7  C   UNL     1      10.229   4.898   6.966  1.00  0.00     0.000 C 
BRANCH   7   8
ATOM      8  C   UNL     1      11.206   3.751   7.281  1.00  0.00     0.006 C 
BRANCH   8   9
ATOM      9  C   UNL     1      10.531   2.616   8.064  1.00  0.00     0.053 C 
BRANCH   9  10
ATOM     10  C   UNL     1      10.564   2.864   9.541  1.00  0.00     0.041 C 
ATOM     11  O   UNL     1      11.346   2.209  10.278  1.00  0.00    -0.550 OA
ATOM     12  O   UNL     1       9.707   3.801  10.107  1.00  0.00    -0.550 OA
ENDBRANCH   9  10
ENDBRANCH   8   9
ENDBRANCH   7   8
ENDBRANCH   6   7
ENDBRANCH   5   6
ENDBRANCH   4   5
ENDBRANCH   3   4
ENDBRANCH   1   3
BRANCH   2  13
ATOM     13  C   UNL     1      15.771   5.419   6.282  1.00  0.00     0.027 C 
BRANCH  13  14
ATOM     14  C   UNL     1      16.740   4.247   6.060  1.00  0.00     0.004 C 
BRANCH  14  15
ATOM     15  C   UNL     1      18.073   4.451   6.796  1.00  0.00     0.000 C 
BRANCH  15  16
ATOM     16  C   UNL     1      18.123   5.832   7.467  1.00  0.00     0.000 C 
BRANCH  16  17
ATOM     17  C   UNL     1      18.108   5.754   9.004  1.00  0.00    -0.000 C 
BRANCH  17  18
ATOM     18  C   UNL     1      17.163   6.753   9.698  1.00  0.00    -0.000 C 
BRANCH  18  19
ATOM     19  C   UNL     1      17.894   7.990  10.240  1.00  0.00    -0.003 C 
ATOM     20  C   UNL     1      17.437   9.256   9.522  1.00  0.00     0.004 C 
ENDBRANCH  18  19
ENDBRANCH  17  18
ENDBRANCH  16  17
ENDBRANCH  15  16
ENDBRANCH  14  15
ENDBRANCH  13  14
ENDBRANCH   2  13
TORSDOF 15
ENDMDL
MODEL 2
REMARK VINA RESULT:    18.741      0.989      1.612
REMARK INTER + INTRA:          33.995
REMARK INTER:                  34.448
REMARK INTRA:                  -0.452
REMARK UNBOUND:                -1.180
REMARK SMILES CCCCCCCCC=CCCCCCCCC(=O)[O-]
REMARK SMILES IDX 10 1 9 2 11 3 12 4 13 5 14 6 15 7 16 8 17 9 18 10 19 11
REMARK SMILES IDX 20 12 8 13 7 14 6 15 5 16 4 17 3 18 2 19 1 20
REMARK H PARENT
REMARK Flexibility Score: inf
ROOT
ATOM      1  C   UNL     1      14.396   5.798   7.793  1.00  0.00    -0.031 C 
ATOM      2  C   UNL     1      15.338   4.952   7.338  1.00  0.00    -0.031 C 
ENDROOT
BRANCH   1   3
ATOM      3  C   UNL     1      14.373   7.281   7.523  1.00  0.00     0.027 C 
BRANCH   3   4
ATOM      4  C   UNL     1      12.934   7.807   7.512  1.00  0.00     0.004 C 
BRANCH   4   5
ATOM      5  C   UNL     1      11.925   6.652   7.503  1.00  0.00     0.000 C 
BRANCH   5   6
ATOM      6  C   UNL     1      10.978   6.741   8.709  1.00  0.00     0.000 C 
BRANCH   6   7
ATOM      7  C   UNL     1       9.827   5.724   8.636  1.00  0.00     0.000 C 
BRANCH   7   8
ATOM      8  C   UNL     1      10.196   4.471   7.823  1.00  0.00     0.006 C 
BRANCH   8   9
ATOM      9  C   UNL     1      11.344   3.682   8.467  1.00  0.00     0.053 C 
BRANCH   9  10
ATOM     10  C   UNL     1      10.843   2.695   9.478  1.00  0.00     0.041 C 
ATOM     11  O   UNL     1      11.617   2.245  10.362  1.00  0.00    -0.550 OA
ATOM     12  O   UNL     1       9.527   2.253   9.423  1.00  0.00    -0.550 OA
ENDBRANCH   9  10
ENDBRANCH   8   9
ENDBRANCH   7   8
ENDBRANCH   6   7
ENDBRANCH   5   6
ENDBRANCH   4   5
ENDBRANCH   3   4
ENDBRANCH   1   3
BRANCH   2  13
ATOM     13  C   UNL     1      16.568   5.370   6.569  1.00  0.00     0.027 C 
BRANCH  13  14
ATOM     14  C   UNL     1      17.846   5.230   7.410  1.00  0.00     0.004 C 
BRANCH  14  15
ATOM     15  C   UNL     1      18.053   6.426   8.352  1.00  0.00     0.000 C 
BRANCH  15  16
ATOM     16  C   UNL     1      17.081   6.363   9.540  1.00  0.00     0.000 C 
BRANCH  16  17
ATOM     17  C   UNL     1      17.142   7.616  10.433  1.00  0.00    -0.000 C 
BRANCH  17  18
ATOM     18  C   UNL     1      16.878   8.947   9.707  1.00  0.00    -0.000 C 
BRANCH  18  19
ATOM     19  C   UNL     1      18.124   9.504   9.005  1.00  0.00    -0.003 C 
ATOM     20  C   UNL     1      18.096  11.029   8.965  1.00  0.00     0.004 C 
ENDBRANCH  18  19
ENDBRANCH  17  18
ENDBRANCH  16  17
ENDBRANCH  15  16
ENDBRANCH  14  15
ENDBRANCH  13  14
ENDBRANCH   2  13
TORSDOF 15
ENDMDL
MODEL 3
REMARK VINA RESULT:    20.218      2.829      7.030
REMARK INTER + INTRA:          36.768
REMARK INTER:                  35.406
REMARK INTRA:                   1.362
REMARK UNBOUND:                -1.180
REMARK SMILES CCCCCCCCC=CCCCCCCCC(=O)[O-]
REMARK SMILES IDX 10 1 9 2 11 3 12 4 13 5 14 6 15 7 16 8 17 9 18 10 19 11
REMARK SMILES IDX 20 12 8 13 7 14 6 15 5 16 4 17 3 18 2 19 1 20
REMARK H PARENT
REMARK Flexibility Score: inf
ROOT
ATOM      1  C   UNL     1      14.714   6.778   8.117  1.00  0.00    -0.031 C 
ATOM      2  C   UNL     1      13.511   7.308   8.405  1.00  0.00    -0.031 C 
ENDROOT
BRANCH   1   3
ATOM      3  C   UNL     1      15.090   6.177   6.786  1.00  0.00     0.027 C 
BRANCH   3   4
ATOM      4  C   UNL     1      15.113   4.647   6.869  1.00  0.00     0.004 C 
BRANCH   4   5
ATOM      5  C   UNL     1      16.335   4.075   6.141  1.00  0.00     0.000 C 
BRANCH   5   6
ATOM      6  C   UNL     1      17.551   5.000   6.297  1.00  0.00     0.000 C 
BRANCH   6   7
ATOM      7  C   UNL     1      18.122   4.994   7.725  1.00  0.00     0.000 C 
BRANCH   7   8
ATOM      8  C   UNL     1      18.124   6.392   8.367  1.00  0.00     0.006 C 
BRANCH   8   9
ATOM      9  C   UNL     1      17.117   6.501   9.519  1.00  0.00     0.053 C 
BRANCH   9  10
ATOM     10  C   UNL     1      16.893   7.924   9.930  1.00  0.00     0.041 C 
ATOM     11  O   UNL     1      15.768   8.292  10.357  1.00  0.00    -0.550 OA
ATOM     12  O   UNL     1      17.922   8.851   9.815  1.00  0.00    -0.550 OA
ENDBRANCH   9  10
ENDBRANCH   8   9
ENDBRANCH   7   8
ENDBRANCH   6   7
ENDBRANCH   5   6
ENDBRANCH   4   5
ENDBRANCH   3   4
ENDBRANCH   1   3
BRANCH   2  13
ATOM     13  C   UNL     1      12.323   7.298   7.473  1.00  0.00     0.027 C 
BRANCH  13  14
ATOM     14  C   UNL     1      10.994   7.222   8.239  1.00  0.00     0.004 C 
BRANCH  14  15
ATOM     15  C   UNL     1      10.220   5.931   7.929  1.00  0.00     0.000 C 
BRANCH  15  16
ATOM     16  C   UNL     1      10.892   4.717   8.588  1.00  0.00     0.000 C 
BRANCH  16  17
ATOM     17  C   UNL     1      11.318   3.641   7.572  1.00  0.00    -0.000 C 
BRANCH  17  18
ATOM     18  C   UNL     1      10.594   2.290   7.713  1.00  0.00    -0.000 C 
BRANCH  18  19
ATOM     19  C   UNL     1      10.093   2.024   9.139  1.00  0.00    -0.003 C 
ATOM     20  C   UNL     1      11.133   2.444  10.174  1.00  0.00     0.004 C 
ENDBRANCH  18  19
ENDBRANCH  17  18
ENDBRANCH  16  17
ENDBRANCH  15  16
ENDBRANCH  14  15
ENDBRANCH  13  14
ENDBRANCH   2  13
TORSDOF 15
ENDMDL
