MODEL 1
REMARK VINA RESULT:    -5.872      0.000      0.000
REMARK INTER + INTRA:          -9.027
REMARK INTER:                  -7.761
REMARK INTRA:                  -1.266
REMARK UNBOUND:                -1.266
REMARK SMILES CC[C@H](C=C[C@H](C)[C@H]1CC[C@H]2[C@H]3CC=C4C[C@H](O)CC[C@@]4(C)[C@H]3CC[C@]12C)C(C)C
REMARK SMILES IDX 6 1 7 2 5 3 4 4 3 5 2 6 1 7 28 8 29 9 30 10 8 11 9 12 26 13
REMARK SMILES IDX 10 14 11 15 25 16 27 17 12 18 24 19 23 20 13 21 21 22 14 23
REMARK SMILES IDX 15 24 20 25 22 26 16 27 19 28 17 29 18 30
REMARK H PARENT 18 31
REMARK Flexibility Score: inf
ROOT
ATOM      1  C   UNL     1      -7.569 -11.173 -42.928  1.00  0.00     0.012 C 
ATOM      2  C   UNL     1      -8.989 -11.384 -42.376  1.00  0.00     0.012 C 
ENDROOT
BRANCH   1   3
ATOM      3  C   UNL     1      -7.651 -10.392 -44.224  1.00  0.00    -0.028 C 
ATOM      4  C   UNL     1      -7.201 -10.883 -45.395  1.00  0.00    -0.027 C 
BRANCH   4   5
ATOM      5  C   UNL     1      -7.117 -10.070 -46.678  1.00  0.00     0.014 C 
BRANCH   5   6
ATOM      6  C   UNL     1      -8.298  -9.062 -46.797  1.00  0.00     0.004 C 
ATOM      7  C   UNL     1      -9.676  -9.720 -46.875  1.00  0.00     0.004 C 
ENDBRANCH   5   6
BRANCH   5   8
ATOM      8  C   UNL     1      -5.673  -9.495 -46.870  1.00  0.00    -0.011 C 
ATOM      9  C   UNL     1      -5.252  -9.389 -48.350  1.00  0.00     0.008 C 
ATOM     10  C   UNL     1      -5.427  -8.162 -46.147  1.00  0.00     0.008 C 
ENDBRANCH   5   8
ENDBRANCH   4   5
ENDBRANCH   1   3
BRANCH   1  11
ATOM     11  C   UNL     1      -6.639 -10.496 -41.873  1.00  0.00     0.002 C 
ATOM     12  C   UNL     1      -6.979 -10.914 -40.419  1.00  0.00     0.005 C 
ATOM     13  C   UNL     1      -5.104 -10.758 -41.980  1.00  0.00    -0.026 C 
ATOM     14  C   UNL     1      -5.676 -10.833 -39.608  1.00  0.00     0.005 C 
ATOM     15  C   UNL     1      -4.666 -10.262 -40.593  1.00  0.00    -0.001 C 
ATOM     16  C   UNL     1      -4.363  -9.897 -43.019  1.00  0.00     0.007 C 
ATOM     17  C   UNL     1      -4.826 -12.266 -42.254  1.00  0.00     0.012 C 
ATOM     18  C   UNL     1      -3.154 -10.340 -40.276  1.00  0.00     0.000 C 
ATOM     19  C   UNL     1      -2.830  -9.947 -42.826  1.00  0.00     0.005 C 
ATOM     20  C   UNL     1      -2.338  -9.592 -41.381  1.00  0.00     0.003 C 
ATOM     21  C   UNL     1      -2.621 -11.754 -39.906  1.00  0.00     0.031 C 
ATOM     22  C   UNL     1      -0.785  -9.790 -41.162  1.00  0.00    -0.008 C 
ATOM     23  C   UNL     1      -1.327 -12.155 -40.571  1.00  0.00    -0.027 C 
ATOM     24  C   UNL     1      -0.459 -11.282 -41.124  1.00  0.00    -0.065 C 
ATOM     25  C   UNL     1       0.038  -9.071 -42.287  1.00  0.00     0.014 C 
ATOM     26  C   UNL     1      -0.370  -9.171 -39.797  1.00  0.00     0.016 C 
ATOM     27  C   UNL     1       0.955 -11.763 -41.405  1.00  0.00     0.063 C 
ATOM     28  C   UNL     1       1.508  -9.497 -42.349  1.00  0.00     0.033 C 
ATOM     29  C   UNL     1       1.605 -11.009 -42.567  1.00  0.00     0.118 C 
BRANCH  29  30
ATOM     30  O   UNL     1       2.953 -11.388 -42.667  1.00  0.00    -0.393 OA
ATOM     31  H   UNL     1       3.353 -10.821 -43.377  1.00  0.00     0.210 HD
ENDBRANCH  29  30
ENDBRANCH   1  11
TORSDOF 6
ENDMDL
MODEL 2
REMARK VINA RESULT:    -5.682      4.520      7.121
REMARK INTER + INTRA:          -8.775
REMARK INTER:                  -7.196
REMARK INTRA:                  -1.579
REMARK UNBOUND:                -1.266
REMARK SMILES CC[C@H](C=C[C@H](C)[C@H]1CC[C@H]2[C@H]3CC=C4C[C@H](O)CC[C@@]4(C)[C@H]3CC[C@]12C)C(C)C
REMARK SMILES IDX 6 1 7 2 5 3 4 4 3 5 2 6 1 7 28 8 29 9 30 10 8 11 9 12 26 13
REMARK SMILES IDX 10 14 11 15 25 16 27 17 12 18 24 19 23 20 13 21 21 22 14 23
REMARK SMILES IDX 15 24 20 25 22 26 16 27 19 28 17 29 18 30
REMARK H PARENT 18 31
REMARK Flexibility Score: inf
ROOT
ATOM      1  C   UNL     1      -4.147 -12.068 -40.818  1.00  0.00     0.012 C 
ATOM      2  C   UNL     1      -5.411 -12.111 -41.693  1.00  0.00     0.012 C 
ENDROOT
BRANCH   1   3
ATOM      3  C   UNL     1      -3.383 -10.792 -41.112  1.00  0.00    -0.028 C 
ATOM      4  C   UNL     1      -2.053 -10.777 -41.320  1.00  0.00    -0.027 C 
BRANCH   4   5
ATOM      5  C   UNL     1      -1.231  -9.503 -41.454  1.00  0.00     0.014 C 
BRANCH   5   6
ATOM      6  C   UNL     1      -1.779  -8.367 -40.539  1.00  0.00     0.004 C 
ATOM      7  C   UNL     1      -1.130  -8.311 -39.156  1.00  0.00     0.004 C 
ENDBRANCH   5   6
BRANCH   5   8
ATOM      8  C   UNL     1       0.298  -9.822 -41.348  1.00  0.00    -0.011 C 
ATOM      9  C   UNL     1       0.588 -11.289 -40.973  1.00  0.00     0.008 C 
ATOM     10  C   UNL     1       1.113  -9.414 -42.584  1.00  0.00     0.008 C 
ENDBRANCH   5   8
ENDBRANCH   4   5
ENDBRANCH   1   3
BRANCH   1  11
ATOM     11  C   UNL     1      -4.491 -12.231 -39.304  1.00  0.00     0.002 C 
ATOM     12  C   UNL     1      -5.651 -13.231 -39.058  1.00  0.00     0.005 C 
ATOM     13  C   UNL     1      -3.363 -12.736 -38.351  1.00  0.00    -0.026 C 
ATOM     14  C   UNL     1      -5.424 -13.855 -37.672  1.00  0.00     0.005 C 
ATOM     15  C   UNL     1      -4.215 -13.108 -37.127  1.00  0.00    -0.001 C 
ATOM     16  C   UNL     1      -2.363 -11.659 -37.891  1.00  0.00     0.007 C 
ATOM     17  C   UNL     1      -2.593 -13.925 -38.998  1.00  0.00     0.012 C 
ATOM     18  C   UNL     1      -3.456 -13.664 -35.899  1.00  0.00     0.000 C 
ATOM     19  C   UNL     1      -1.509 -12.135 -36.694  1.00  0.00     0.005 C 
ATOM     20  C   UNL     1      -2.331 -12.666 -35.470  1.00  0.00     0.003 C 
ATOM     21  C   UNL     1      -3.013 -15.151 -36.005  1.00  0.00     0.031 C 
ATOM     22  C   UNL     1      -1.445 -13.282 -34.316  1.00  0.00    -0.008 C 
ATOM     23  C   UNL     1      -1.599 -15.441 -35.563  1.00  0.00    -0.027 C 
ATOM     24  C   UNL     1      -0.873 -14.624 -34.770  1.00  0.00    -0.065 C 
ATOM     25  C   UNL     1      -0.293 -12.301 -33.905  1.00  0.00     0.014 C 
ATOM     26  C   UNL     1      -2.327 -13.535 -33.061  1.00  0.00     0.016 C 
ATOM     27  C   UNL     1       0.360 -15.198 -34.095  1.00  0.00     0.063 C 
ATOM     28  C   UNL     1       0.804 -12.950 -33.055  1.00  0.00     0.033 C 
ATOM     29  C   UNL     1       1.419 -14.130 -33.812  1.00  0.00     0.118 C 
BRANCH  29  30
ATOM     30  O   UNL     1       2.452 -14.696 -33.048  1.00  0.00    -0.393 OA
ATOM     31  H   UNL     1       2.664 -15.571 -33.466  1.00  0.00     0.210 HD
ENDBRANCH  29  30
ENDBRANCH   1  11
TORSDOF 6
ENDMDL
MODEL 3
REMARK VINA RESULT:    -5.586      2.599      7.292
REMARK INTER + INTRA:          -8.649
REMARK INTER:                  -7.310
REMARK INTRA:                  -1.339
REMARK UNBOUND:                -1.266
REMARK SMILES CC[C@H](C=C[C@H](C)[C@H]1CC[C@H]2[C@H]3CC=C4C[C@H](O)CC[C@@]4(C)[C@H]3CC[C@]12C)C(C)C
REMARK SMILES IDX 6 1 7 2 5 3 4 4 3 5 2 6 1 7 28 8 29 9 30 10 8 11 9 12 26 13
REMARK SMILES IDX 10 14 11 15 25 16 27 17 12 18 24 19 23 20 13 21 21 22 14 23
REMARK SMILES IDX 15 24 20 25 22 26 16 27 19 28 17 29 18 30
REMARK H PARENT 18 31
REMARK Flexibility Score: inf
ROOT
ATOM      1  C   UNL     1      -1.664 -12.580 -39.338  1.00  0.00     0.012 C 
ATOM      2  C   UNL     1      -1.069 -13.678 -38.440  1.00  0.00     0.012 C 
ENDROOT
BRANCH   1   3
ATOM      3  C   UNL     1      -0.674 -12.246 -40.436  1.00  0.00    -0.028 C 
ATOM      4  C   UNL     1      -0.126 -11.024 -40.569  1.00  0.00    -0.027 C 
BRANCH   4   5
ATOM      5  C   UNL     1       0.740 -10.608 -41.749  1.00  0.00     0.014 C 
BRANCH   5   6
ATOM      6  C   UNL     1       0.823 -11.732 -42.825  1.00  0.00     0.004 C 
ATOM      7  C   UNL     1       2.247 -12.075 -43.263  1.00  0.00     0.004 C 
ENDBRANCH   5   6
BRANCH   5   8
ATOM      8  C   UNL     1       0.339  -9.179 -42.249  1.00  0.00    -0.011 C 
ATOM      9  C   UNL     1       1.142  -8.717 -43.481  1.00  0.00     0.008 C 
ATOM     10  C   UNL     1      -1.167  -8.999 -42.494  1.00  0.00     0.008 C 
ENDBRANCH   5   8
ENDBRANCH   4   5
ENDBRANCH   1   3
BRANCH   1  11
ATOM     11  C   UNL     1      -3.065 -12.988 -39.891  1.00  0.00     0.002 C 
ATOM     12  C   UNL     1      -4.096 -13.263 -38.765  1.00  0.00     0.005 C 
ATOM     13  C   UNL     1      -3.803 -11.978 -40.825  1.00  0.00    -0.026 C 
ATOM     14  C   UNL     1      -5.485 -12.927 -39.332  1.00  0.00     0.005 C 
ATOM     15  C   UNL     1      -5.214 -12.586 -40.790  1.00  0.00    -0.001 C 
ATOM     16  C   UNL     1      -3.344 -11.991 -42.295  1.00  0.00     0.007 C 
ATOM     17  C   UNL     1      -3.699 -10.532 -40.255  1.00  0.00     0.012 C 
ATOM     18  C   UNL     1      -6.298 -11.867 -41.627  1.00  0.00     0.000 C 
ATOM     19  C   UNL     1      -4.336 -11.246 -43.217  1.00  0.00     0.005 C 
ATOM     20  C   UNL     1      -5.823 -11.730 -43.111  1.00  0.00     0.003 C 
ATOM     21  C   UNL     1      -6.875 -10.567 -40.997  1.00  0.00     0.031 C 
ATOM     22  C   UNL     1      -6.845 -10.864 -43.950  1.00  0.00    -0.008 C 
ATOM     23  C   UNL     1      -7.010  -9.394 -41.937  1.00  0.00    -0.027 C 
ATOM     24  C   UNL     1      -7.030  -9.502 -43.282  1.00  0.00    -0.065 C 
ATOM     25  C   UNL     1      -6.357 -10.694 -45.430  1.00  0.00     0.014 C 
ATOM     26  C   UNL     1      -8.226 -11.577 -43.981  1.00  0.00     0.016 C 
ATOM     27  C   UNL     1      -7.551  -8.322 -44.085  1.00  0.00     0.063 C 
ATOM     28  C   UNL     1      -7.094  -9.597 -46.205  1.00  0.00     0.033 C 
ATOM     29  C   UNL     1      -6.939  -8.255 -45.485  1.00  0.00     0.118 C 
BRANCH  29  30
ATOM     30  O   UNL     1      -7.579  -7.246 -46.221  1.00  0.00    -0.393 OA
ATOM     31  H   UNL     1      -8.404  -7.651 -46.595  1.00  0.00     0.210 HD
ENDBRANCH  29  30
ENDBRANCH   1  11
TORSDOF 6
ENDMDL
MODEL 4
REMARK VINA RESULT:    -5.537      9.831     15.140
REMARK INTER + INTRA:          -8.583
REMARK INTER:                  -7.209
REMARK INTRA:                  -1.375
REMARK UNBOUND:                -1.266
REMARK SMILES CC[C@H](C=C[C@H](C)[C@H]1CC[C@H]2[C@H]3CC=C4C[C@H](O)CC[C@@]4(C)[C@H]3CC[C@]12C)C(C)C
REMARK SMILES IDX 6 1 7 2 5 3 4 4 3 5 2 6 1 7 28 8 29 9 30 10 8 11 9 12 26 13
REMARK SMILES IDX 10 14 11 15 25 16 27 17 12 18 24 19 23 20 13 21 21 22 14 23
REMARK SMILES IDX 15 24 20 25 22 26 16 27 19 28 17 29 18 30
REMARK H PARENT 18 31
REMARK Flexibility Score: inf
ROOT
ATOM      1  C   UNL     1       8.237 -18.244 -37.047  1.00  0.00     0.012 C 
ATOM      2  C   UNL     1       9.671 -18.014 -37.553  1.00  0.00     0.012 C 
ENDROOT
BRANCH   1   3
ATOM      3  C   UNL     1       8.194 -18.002 -35.552  1.00  0.00    -0.028 C 
ATOM      4  C   UNL     1       7.098 -18.252 -34.810  1.00  0.00    -0.027 C 
BRANCH   4   5
ATOM      5  C   UNL     1       6.963 -17.870 -33.343  1.00  0.00     0.014 C 
BRANCH   5   6
ATOM      6  C   UNL     1       7.891 -16.674 -32.974  1.00  0.00     0.004 C 
ATOM      7  C   UNL     1       8.912 -16.989 -31.880  1.00  0.00     0.004 C 
ENDBRANCH   5   6
BRANCH   5   8
ATOM      8  C   UNL     1       5.454 -17.745 -32.944  1.00  0.00    -0.011 C 
ATOM      9  C   UNL     1       5.178 -16.585 -31.967  1.00  0.00     0.008 C 
ATOM     10  C   UNL     1       4.492 -17.677 -34.140  1.00  0.00     0.008 C 
ENDBRANCH   5   8
ENDBRANCH   4   5
ENDBRANCH   1   3
BRANCH   1  11
ATOM     11  C   UNL     1       7.206 -17.371 -37.830  1.00  0.00     0.002 C 
ATOM     12  C   UNL     1       7.862 -16.542 -38.965  1.00  0.00     0.005 C 
ATOM     13  C   UNL     1       6.027 -18.103 -38.545  1.00  0.00    -0.026 C 
ATOM     14  C   UNL     1       6.798 -16.347 -40.056  1.00  0.00     0.005 C 
ATOM     15  C   UNL     1       5.542 -16.966 -39.459  1.00  0.00    -0.001 C 
ATOM     16  C   UNL     1       4.844 -18.483 -37.636  1.00  0.00     0.007 C 
ATOM     17  C   UNL     1       6.543 -19.369 -39.292  1.00  0.00     0.012 C 
ATOM     18  C   UNL     1       4.331 -17.279 -40.369  1.00  0.00     0.000 C 
ATOM     19  C   UNL     1       3.588 -18.869 -38.450  1.00  0.00     0.005 C 
ATOM     20  C   UNL     1       3.136 -17.802 -39.506  1.00  0.00     0.003 C 
ATOM     21  C   UNL     1       4.648 -18.123 -41.637  1.00  0.00     0.031 C 
ATOM     22  C   UNL     1       1.942 -18.273 -40.428  1.00  0.00    -0.008 C 
ATOM     23  C   UNL     1       3.687 -19.251 -41.923  1.00  0.00    -0.027 C 
ATOM     24  C   UNL     1       2.441 -19.330 -41.412  1.00  0.00    -0.065 C 
ATOM     25  C   UNL     1       0.754 -18.832 -39.570  1.00  0.00     0.014 C 
ATOM     26  C   UNL     1       1.411 -17.064 -41.248  1.00  0.00     0.016 C 
ATOM     27  C   UNL     1       1.460 -20.286 -42.070  1.00  0.00     0.063 C 
ATOM     28  C   UNL     1      -0.281 -19.619 -40.380  1.00  0.00     0.033 C 
ATOM     29  C   UNL     1       0.397 -20.792 -41.093  1.00  0.00     0.118 C 
BRANCH  29  30
ATOM     30  O   UNL     1      -0.561 -21.536 -41.798  1.00  0.00    -0.393 OA
ATOM     31  H   UNL     1      -1.296 -20.907 -42.022  1.00  0.00     0.210 HD
ENDBRANCH  29  30
ENDBRANCH   1  11
TORSDOF 6
ENDMDL
MODEL 5
REMARK VINA RESULT:    -5.533      3.331      8.604
REMARK INTER + INTRA:          -8.578
REMARK INTER:                  -7.555
REMARK INTRA:                  -1.023
REMARK UNBOUND:                -1.266
REMARK SMILES CC[C@H](C=C[C@H](C)[C@H]1CC[C@H]2[C@H]3CC=C4C[C@H](O)CC[C@@]4(C)[C@H]3CC[C@]12C)C(C)C
REMARK SMILES IDX 6 1 7 2 5 3 4 4 3 5 2 6 1 7 28 8 29 9 30 10 8 11 9 12 26 13
REMARK SMILES IDX 10 14 11 15 25 16 27 17 12 18 24 19 23 20 13 21 21 22 14 23
REMARK SMILES IDX 15 24 20 25 22 26 16 27 19 28 17 29 18 30
REMARK H PARENT 18 31
REMARK Flexibility Score: inf
ROOT
ATOM      1  C   UNL     1      -1.368 -10.770 -39.883  1.00  0.00     0.012 C 
ATOM      2  C   UNL     1      -0.128  -9.868 -39.767  1.00  0.00     0.012 C 
ENDROOT
BRANCH   1   3
ATOM      3  C   UNL     1      -1.491 -11.609 -38.627  1.00  0.00    -0.028 C 
ATOM      4  C   UNL     1      -1.754 -11.072 -37.421  1.00  0.00    -0.027 C 
BRANCH   4   5
ATOM      5  C   UNL     1      -1.723 -11.858 -36.118  1.00  0.00     0.014 C 
BRANCH   5   6
ATOM      6  C   UNL     1      -1.514 -13.381 -36.373  1.00  0.00     0.004 C 
ATOM      7  C   UNL     1      -0.334 -13.986 -35.612  1.00  0.00     0.004 C 
ENDBRANCH   5   6
BRANCH   5   8
ATOM      8  C   UNL     1      -0.762 -11.175 -35.087  1.00  0.00    -0.011 C 
ATOM      9  C   UNL     1      -0.171  -9.845 -35.596  1.00  0.00     0.008 C 
ATOM     10  C   UNL     1      -1.371 -10.990 -33.689  1.00  0.00     0.008 C 
ENDBRANCH   5   8
ENDBRANCH   4   5
ENDBRANCH   1   3
BRANCH   1  11
ATOM     11  C   UNL     1      -2.655  -9.938 -40.182  1.00  0.00     0.002 C 
ATOM     12  C   UNL     1      -2.509  -8.445 -39.789  1.00  0.00     0.005 C 
ATOM     13  C   UNL     1      -3.160  -9.881 -41.658  1.00  0.00    -0.026 C 
ATOM     14  C   UNL     1      -3.418  -7.638 -40.729  1.00  0.00     0.005 C 
ATOM     15  C   UNL     1      -4.139  -8.702 -41.545  1.00  0.00    -0.001 C 
ATOM     16  C   UNL     1      -3.977 -11.102 -42.119  1.00  0.00     0.007 C 
ATOM     17  C   UNL     1      -1.967  -9.650 -42.633  1.00  0.00     0.012 C 
ATOM     18  C   UNL     1      -4.894  -8.303 -42.835  1.00  0.00     0.000 C 
ATOM     19  C   UNL     1      -4.734 -10.827 -43.439  1.00  0.00     0.005 C 
ATOM     20  C   UNL     1      -5.637  -9.546 -43.425  1.00  0.00     0.003 C 
ATOM     21  C   UNL     1      -4.067  -7.479 -43.864  1.00  0.00     0.031 C 
ATOM     22  C   UNL     1      -6.287  -9.200 -44.823  1.00  0.00    -0.008 C 
ATOM     23  C   UNL     1      -4.197  -7.919 -45.302  1.00  0.00    -0.027 C 
ATOM     24  C   UNL     1      -5.210  -8.676 -45.773  1.00  0.00    -0.065 C 
ATOM     25  C   UNL     1      -7.004 -10.452 -45.437  1.00  0.00     0.014 C 
ATOM     26  C   UNL     1      -7.352  -8.082 -44.638  1.00  0.00     0.016 C 
ATOM     27  C   UNL     1      -5.428  -8.721 -47.275  1.00  0.00     0.063 C 
ATOM     28  C   UNL     1      -7.352 -10.304 -46.921  1.00  0.00     0.033 C 
ATOM     29  C   UNL     1      -6.081 -10.028 -47.729  1.00  0.00     0.118 C 
BRANCH  29  30
ATOM     30  O   UNL     1      -6.398  -9.936 -49.094  1.00  0.00    -0.393 OA
ATOM     31  H   UNL     1      -6.941 -10.738 -49.311  1.00  0.00     0.210 HD
ENDBRANCH  29  30
ENDBRANCH   1  11
TORSDOF 6
ENDMDL
MODEL 6
REMARK VINA RESULT:    -5.488      8.977     14.211
REMARK INTER + INTRA:          -8.519
REMARK INTER:                  -7.377
REMARK INTRA:                  -1.142
REMARK UNBOUND:                -1.266
REMARK SMILES CC[C@H](C=C[C@H](C)[C@H]1CC[C@H]2[C@H]3CC=C4C[C@H](O)CC[C@@]4(C)[C@H]3CC[C@]12C)C(C)C
REMARK SMILES IDX 6 1 7 2 5 3 4 4 3 5 2 6 1 7 28 8 29 9 30 10 8 11 9 12 26 13
REMARK SMILES IDX 10 14 11 15 25 16 27 17 12 18 24 19 23 20 13 21 21 22 14 23
REMARK SMILES IDX 15 24 20 25 22 26 16 27 19 28 17 29 18 30
REMARK H PARENT 18 31
REMARK Flexibility Score: inf
ROOT
ATOM      1  C   UNL     1       3.592 -17.976 -33.622  1.00  0.00     0.012 C 
ATOM      2  C   UNL     1       3.544 -19.455 -34.041  1.00  0.00     0.012 C 
ENDROOT
BRANCH   1   3
ATOM      3  C   UNL     1       5.019 -17.605 -33.272  1.00  0.00    -0.028 C 
ATOM      4  C   UNL     1       5.999 -17.550 -34.194  1.00  0.00    -0.027 C 
BRANCH   4   5
ATOM      5  C   UNL     1       7.469 -17.343 -33.857  1.00  0.00     0.014 C 
BRANCH   5   6
ATOM      6  C   UNL     1       7.656 -16.836 -32.396  1.00  0.00     0.004 C 
ATOM      7  C   UNL     1       9.090 -16.944 -31.876  1.00  0.00     0.004 C 
ENDBRANCH   5   6
BRANCH   5   8
ATOM      8  C   UNL     1       8.312 -18.591 -34.287  1.00  0.00    -0.011 C 
ATOM      9  C   UNL     1       7.562 -19.925 -34.099  1.00  0.00     0.008 C 
ATOM     10  C   UNL     1       8.892 -18.498 -35.706  1.00  0.00     0.008 C 
ENDBRANCH   5   8
ENDBRANCH   4   5
ENDBRANCH   1   3
BRANCH   1  11
ATOM     11  C   UNL     1       2.979 -17.050 -34.719  1.00  0.00     0.002 C 
ATOM     12  C   UNL     1       2.585 -17.823 -36.005  1.00  0.00     0.005 C 
ATOM     13  C   UNL     1       1.686 -16.252 -34.360  1.00  0.00    -0.026 C 
ATOM     14  C   UNL     1       1.410 -17.068 -36.644  1.00  0.00     0.005 C 
ATOM     15  C   UNL     1       1.249 -15.831 -35.772  1.00  0.00    -0.001 C 
ATOM     16  C   UNL     1       1.915 -14.960 -33.556  1.00  0.00     0.007 C 
ATOM     17  C   UNL     1       0.673 -17.166 -33.607  1.00  0.00     0.012 C 
ATOM     18  C   UNL     1      -0.039 -14.980 -35.872  1.00  0.00     0.000 C 
ATOM     19  C   UNL     1       0.662 -14.054 -33.546  1.00  0.00     0.005 C 
ATOM     20  C   UNL     1       0.086 -13.713 -34.963  1.00  0.00     0.003 C 
ATOM     21  C   UNL     1      -1.373 -15.767 -35.727  1.00  0.00     0.031 C 
ATOM     22  C   UNL     1      -1.275 -12.910 -34.930  1.00  0.00    -0.008 C 
ATOM     23  C   UNL     1      -2.405 -15.135 -34.826  1.00  0.00    -0.027 C 
ATOM     24  C   UNL     1      -2.403 -13.833 -34.471  1.00  0.00    -0.065 C 
ATOM     25  C   UNL     1      -1.167 -11.658 -33.992  1.00  0.00     0.014 C 
ATOM     26  C   UNL     1      -1.616 -12.407 -36.361  1.00  0.00     0.016 C 
ATOM     27  C   UNL     1      -3.681 -13.249 -33.894  1.00  0.00     0.063 C 
ATOM     28  C   UNL     1      -2.518 -11.033 -33.633  1.00  0.00     0.033 C 
ATOM     29  C   UNL     1      -3.411 -12.074 -32.952  1.00  0.00     0.118 C 
BRANCH  29  30
ATOM     30  O   UNL     1      -4.631 -11.486 -32.586  1.00  0.00    -0.393 OA
ATOM     31  H   UNL     1      -5.346 -12.083 -32.930  1.00  0.00     0.210 HD
ENDBRANCH  29  30
ENDBRANCH   1  11
TORSDOF 6
ENDMDL
MODEL 7
REMARK VINA RESULT:    -5.462      3.254      7.383
REMARK INTER + INTRA:          -8.484
REMARK INTER:                  -7.118
REMARK INTRA:                  -1.365
REMARK UNBOUND:                -1.266
REMARK SMILES CC[C@H](C=C[C@H](C)[C@H]1CC[C@H]2[C@H]3CC=C4C[C@H](O)CC[C@@]4(C)[C@H]3CC[C@]12C)C(C)C
REMARK SMILES IDX 6 1 7 2 5 3 4 4 3 5 2 6 1 7 28 8 29 9 30 10 8 11 9 12 26 13
REMARK SMILES IDX 10 14 11 15 25 16 27 17 12 18 24 19 23 20 13 21 21 22 14 23
REMARK SMILES IDX 15 24 20 25 22 26 16 27 19 28 17 29 18 30
REMARK H PARENT 18 31
REMARK Flexibility Score: inf
ROOT
ATOM      1  C   UNL     1      -3.627  -9.046 -43.361  1.00  0.00     0.012 C 
ATOM      2  C   UNL     1      -3.828  -8.100 -44.557  1.00  0.00     0.012 C 
ENDROOT
BRANCH   1   3
ATOM      3  C   UNL     1      -2.277  -8.767 -42.730  1.00  0.00    -0.028 C 
ATOM      4  C   UNL     1      -1.416  -9.749 -42.401  1.00  0.00    -0.027 C 
BRANCH   4   5
ATOM      5  C   UNL     1      -0.129  -9.521 -41.621  1.00  0.00     0.014 C 
BRANCH   5   6
ATOM      6  C   UNL     1      -0.202 -10.150 -40.198  1.00  0.00     0.004 C 
ATOM      7  C   UNL     1      -0.937  -9.288 -39.171  1.00  0.00     0.004 C 
ENDBRANCH   5   6
BRANCH   5   8
ATOM      8  C   UNL     1       1.116  -9.891 -42.495  1.00  0.00    -0.011 C 
ATOM      9  C   UNL     1       1.471  -8.811 -43.537  1.00  0.00     0.008 C 
ATOM     10  C   UNL     1       2.360 -10.281 -41.683  1.00  0.00     0.008 C 
ENDBRANCH   5   8
ENDBRANCH   4   5
ENDBRANCH   1   3
BRANCH   1  11
ATOM     11  C   UNL     1      -4.804  -8.939 -42.341  1.00  0.00     0.002 C 
ATOM     12  C   UNL     1      -6.130  -8.480 -43.003  1.00  0.00     0.005 C 
ATOM     13  C   UNL     1      -5.210 -10.228 -41.560  1.00  0.00    -0.026 C 
ATOM     14  C   UNL     1      -7.279  -9.090 -42.184  1.00  0.00     0.005 C 
ATOM     15  C   UNL     1      -6.576  -9.776 -41.020  1.00  0.00    -0.001 C 
ATOM     16  C   UNL     1      -4.332 -10.559 -40.340  1.00  0.00     0.007 C 
ATOM     17  C   UNL     1      -5.259 -11.454 -42.520  1.00  0.00     0.012 C 
ATOM     18  C   UNL     1      -7.348 -10.794 -40.148  1.00  0.00     0.000 C 
ATOM     19  C   UNL     1      -4.990 -11.616 -39.423  1.00  0.00     0.005 C 
ATOM     20  C   UNL     1      -6.447 -11.271 -38.961  1.00  0.00     0.003 C 
ATOM     21  C   UNL     1      -8.067 -11.932 -40.929  1.00  0.00     0.031 C 
ATOM     22  C   UNL     1      -7.157 -12.425 -38.147  1.00  0.00    -0.008 C 
ATOM     23  C   UNL     1      -7.895 -13.319 -40.359  1.00  0.00    -0.027 C 
ATOM     24  C   UNL     1      -7.511 -13.574 -39.091  1.00  0.00    -0.065 C 
ATOM     25  C   UNL     1      -6.244 -12.931 -36.977  1.00  0.00     0.014 C 
ATOM     26  C   UNL     1      -8.476 -11.887 -37.526  1.00  0.00     0.016 C 
ATOM     27  C   UNL     1      -7.749 -14.969 -38.540  1.00  0.00     0.063 C 
ATOM     28  C   UNL     1      -6.697 -14.261 -36.366  1.00  0.00     0.033 C 
ATOM     29  C   UNL     1      -6.743 -15.343 -37.449  1.00  0.00     0.118 C 
BRANCH  29  30
ATOM     30  O   UNL     1      -7.117 -16.569 -36.877  1.00  0.00    -0.393 OA
ATOM     31  H   UNL     1      -7.921 -16.388 -36.324  1.00  0.00     0.210 HD
ENDBRANCH  29  30
ENDBRANCH   1  11
TORSDOF 6
ENDMDL
MODEL 8
REMARK VINA RESULT:    -5.438      2.743      4.543
REMARK INTER + INTRA:          -8.453
REMARK INTER:                  -7.370
REMARK INTRA:                  -1.083
REMARK UNBOUND:                -1.266
REMARK SMILES CC[C@H](C=C[C@H](C)[C@H]1CC[C@H]2[C@H]3CC=C4C[C@H](O)CC[C@@]4(C)[C@H]3CC[C@]12C)C(C)C
REMARK SMILES IDX 6 1 7 2 5 3 4 4 3 5 2 6 1 7 28 8 29 9 30 10 8 11 9 12 26 13
REMARK SMILES IDX 10 14 11 15 25 16 27 17 12 18 24 19 23 20 13 21 21 22 14 23
REMARK SMILES IDX 15 24 20 25 22 26 16 27 19 28 17 29 18 30
REMARK H PARENT 18 31
REMARK Flexibility Score: inf
ROOT
ATOM      1  C   UNL     1      -4.796  -8.781 -43.375  1.00  0.00     0.012 C 
ATOM      2  C   UNL     1      -4.627  -7.253 -43.434  1.00  0.00     0.012 C 
ENDROOT
BRANCH   1   3
ATOM      3  C   UNL     1      -5.448  -9.257 -44.657  1.00  0.00    -0.028 C 
ATOM      4  C   UNL     1      -4.862  -9.118 -45.862  1.00  0.00    -0.027 C 
BRANCH   4   5
ATOM      5  C   UNL     1      -5.552  -9.434 -47.181  1.00  0.00     0.014 C 
BRANCH   5   6
ATOM      6  C   UNL     1      -7.094  -9.561 -47.005  1.00  0.00     0.004 C 
ATOM      7  C   UNL     1      -7.598 -11.002 -46.921  1.00  0.00     0.004 C 
ENDBRANCH   5   6
BRANCH   5   8
ATOM      8  C   UNL     1      -5.044  -8.474 -48.309  1.00  0.00    -0.011 C 
ATOM      9  C   UNL     1      -5.218  -6.982 -47.962  1.00  0.00     0.008 C 
ATOM     10  C   UNL     1      -3.606  -8.752 -48.771  1.00  0.00     0.008 C 
ENDBRANCH   5   8
ENDBRANCH   4   5
ENDBRANCH   1   3
BRANCH   1  11
ATOM     11  C   UNL     1      -3.439  -9.497 -43.084  1.00  0.00     0.002 C 
ATOM     12  C   UNL     1      -2.269  -8.500 -42.876  1.00  0.00     0.005 C 
ATOM     13  C   UNL     1      -3.359 -10.425 -41.832  1.00  0.00    -0.026 C 
ATOM     14  C   UNL     1      -1.263  -9.176 -41.930  1.00  0.00     0.005 C 
ATOM     15  C   UNL     1      -1.833 -10.572 -41.725  1.00  0.00    -0.001 C 
ATOM     16  C   UNL     1      -3.935 -11.839 -42.026  1.00  0.00     0.007 C 
ATOM     17  C   UNL     1      -4.039  -9.746 -40.605  1.00  0.00     0.012 C 
ATOM     18  C   UNL     1      -1.303 -11.458 -40.573  1.00  0.00     0.000 C 
ATOM     19  C   UNL     1      -3.508 -12.799 -40.892  1.00  0.00     0.005 C 
ATOM     20  C   UNL     1      -1.962 -12.875 -40.642  1.00  0.00     0.003 C 
ATOM     21  C   UNL     1      -1.307 -10.797 -39.165  1.00  0.00     0.031 C 
ATOM     22  C   UNL     1      -1.554 -13.746 -39.388  1.00  0.00    -0.008 C 
ATOM     23  C   UNL     1      -1.833 -11.660 -38.044  1.00  0.00    -0.027 C 
ATOM     24  C   UNL     1      -1.928 -13.004 -38.105  1.00  0.00    -0.065 C 
ATOM     25  C   UNL     1      -2.240 -15.155 -39.433  1.00  0.00     0.014 C 
ATOM     26  C   UNL     1      -0.015 -13.964 -39.386  1.00  0.00     0.016 C 
ATOM     27  C   UNL     1      -2.100 -13.768 -36.804  1.00  0.00     0.063 C 
ATOM     28  C   UNL     1      -2.180 -15.919 -38.107  1.00  0.00     0.033 C 
ATOM     29  C   UNL     1      -2.839 -15.093 -36.999  1.00  0.00     0.118 C 
BRANCH  29  30
ATOM     30  O   UNL     1      -2.821 -15.814 -35.795  1.00  0.00    -0.393 OA
ATOM     31  H   UNL     1      -2.469 -16.716 -36.013  1.00  0.00     0.210 HD
ENDBRANCH  29  30
ENDBRANCH   1  11
TORSDOF 6
ENDMDL
MODEL 9
REMARK VINA RESULT:    -5.259      3.407      8.732
REMARK INTER + INTRA:          -8.217
REMARK INTER:                  -6.981
REMARK INTRA:                  -1.236
REMARK UNBOUND:                -1.266
REMARK SMILES CC[C@H](C=C[C@H](C)[C@H]1CC[C@H]2[C@H]3CC=C4C[C@H](O)CC[C@@]4(C)[C@H]3CC[C@]12C)C(C)C
REMARK SMILES IDX 6 1 7 2 5 3 4 4 3 5 2 6 1 7 28 8 29 9 30 10 8 11 9 12 26 13
REMARK SMILES IDX 10 14 11 15 25 16 27 17 12 18 24 19 23 20 13 21 21 22 14 23
REMARK SMILES IDX 15 24 20 25 22 26 16 27 19 28 17 29 18 30
REMARK H PARENT 18 31
REMARK Flexibility Score: inf
ROOT
ATOM      1  C   UNL     1      -1.467 -11.615 -40.132  1.00  0.00     0.012 C 
ATOM      2  C   UNL     1      -0.044 -11.160 -40.496  1.00  0.00     0.012 C 
ENDROOT
BRANCH   1   3
ATOM      3  C   UNL     1      -1.483 -12.090 -38.692  1.00  0.00    -0.028 C 
ATOM      4  C   UNL     1      -1.984 -11.343 -37.690  1.00  0.00    -0.027 C 
BRANCH   4   5
ATOM      5  C   UNL     1      -1.870 -11.715 -36.218  1.00  0.00     0.014 C 
BRANCH   5   6
ATOM      6  C   UNL     1      -1.739 -13.255 -36.024  1.00  0.00     0.004 C 
ATOM      7  C   UNL     1      -3.063 -13.963 -35.735  1.00  0.00     0.004 C 
ENDBRANCH   5   6
BRANCH   5   8
ATOM      8  C   UNL     1      -0.800 -10.818 -35.507  1.00  0.00    -0.011 C 
ATOM      9  C   UNL     1      -0.583  -9.461 -36.206  1.00  0.00     0.008 C 
ATOM     10  C   UNL     1      -1.050 -10.613 -34.005  1.00  0.00     0.008 C 
ENDBRANCH   5   8
ENDBRANCH   4   5
ENDBRANCH   1   3
BRANCH   1  11
ATOM     11  C   UNL     1      -2.516 -10.492 -40.409  1.00  0.00     0.002 C 
ATOM     12  C   UNL     1      -1.866  -9.174 -40.903  1.00  0.00     0.005 C 
ATOM     13  C   UNL     1      -3.623 -10.776 -41.472  1.00  0.00    -0.026 C 
ATOM     14  C   UNL     1      -2.897  -8.468 -41.797  1.00  0.00     0.005 C 
ATOM     15  C   UNL     1      -4.137  -9.344 -41.689  1.00  0.00    -0.001 C 
ATOM     16  C   UNL     1      -4.816 -11.610 -40.969  1.00  0.00     0.007 C 
ATOM     17  C   UNL     1      -3.008 -11.449 -42.734  1.00  0.00     0.012 C 
ATOM     18  C   UNL     1      -5.293  -9.170 -42.702  1.00  0.00     0.000 C 
ATOM     19  C   UNL     1      -6.016 -11.549 -41.942  1.00  0.00     0.005 C 
ATOM     20  C   UNL     1      -6.488 -10.102 -42.314  1.00  0.00     0.003 C 
ATOM     21  C   UNL     1      -4.880  -9.217 -44.201  1.00  0.00     0.031 C 
ATOM     22  C   UNL     1      -7.617 -10.056 -43.419  1.00  0.00    -0.008 C 
ATOM     23  C   UNL     1      -5.763 -10.057 -45.092  1.00  0.00    -0.027 C 
ATOM     24  C   UNL     1      -7.021 -10.428 -44.776  1.00  0.00    -0.065 C 
ATOM     25  C   UNL     1      -8.802 -11.015 -43.053  1.00  0.00     0.014 C 
ATOM     26  C   UNL     1      -8.185  -8.612 -43.521  1.00  0.00     0.016 C 
ATOM     27  C   UNL     1      -7.920 -10.927 -45.894  1.00  0.00     0.063 C 
ATOM     28  C   UNL     1      -9.759 -11.293 -44.216  1.00  0.00     0.033 C 
ATOM     29  C   UNL     1      -8.989 -11.900 -45.392  1.00  0.00     0.118 C 
BRANCH  29  30
ATOM     30  O   UNL     1      -9.875 -12.193 -46.439  1.00  0.00    -0.393 OA
ATOM     31  H   UNL     1      -9.463 -11.831 -47.267  1.00  0.00     0.210 HD
ENDBRANCH  29  30
ENDBRANCH   1  11
TORSDOF 6
ENDMDL
