MODEL 1
REMARK VINA RESULT:    -4.554      0.000      0.000
REMARK INTER + INTRA:          -4.820
REMARK INTER:                  -4.820
REMARK INTRA:                   0.000
REMARK UNBOUND:                 0.000
REMARK SMILES O=c1ccc2cc(O)c(O)cc2o1
REMARK SMILES IDX 4 1 3 2 2 3 1 4 13 5 12 6 11 7 9 8 7 9 6 10 5 11 8 12 10 14
REMARK H PARENT 8 13 10 15
REMARK Flexibility Score: inf
ROOT
ATOM      1  C   UNL     1       3.231  -0.385   6.177  1.00  0.00     0.019 A 
ATOM      2  C   UNL     1       2.092   0.397   6.366  1.00  0.00     0.094 A 
ATOM      3  C   UNL     1       1.085  -0.068   7.218  1.00  0.00     0.336 A 
ATOM      4  O   UNL     1       0.049   0.623   7.402  1.00  0.00    -0.246 OA
ATOM      5  O   UNL     1       1.214  -1.238   7.837  1.00  0.00    -0.423 OA
ATOM      6  C   UNL     1       2.284  -2.015   7.685  1.00  0.00     0.142 A 
ATOM      7  C   UNL     1       2.364  -3.236   8.362  1.00  0.00     0.098 A 
ATOM      8  C   UNL     1       3.489  -4.059   8.205  1.00  0.00     0.161 A 
ATOM      9  C   UNL     1       4.542  -3.656   7.364  1.00  0.00     0.158 A 
ATOM     10  C   UNL     1       4.464  -2.433   6.685  1.00  0.00     0.062 A 
ATOM     11  C   UNL     1       3.340  -1.611   6.840  1.00  0.00     0.022 A 
ENDROOT
BRANCH   9  12
ATOM     12  O   UNL     1       5.671  -4.455   7.190  1.00  0.00    -0.504 OA
ATOM     13  H   UNL     1       6.167  -4.863   7.974  1.00  0.00     0.293 HD
ENDBRANCH   9  12
BRANCH   8  14
ATOM     14  O   UNL     1       3.565  -5.275   8.883  1.00  0.00    -0.504 OA
ATOM     15  H   UNL     1       4.107  -6.051   8.521  1.00  0.00     0.293 HD
ENDBRANCH   8  14
TORSDOF 2
ENDMDL
MODEL 2
REMARK VINA RESULT:    -4.524      1.170      5.049
REMARK INTER + INTRA:          -4.789
REMARK INTER:                  -4.789
REMARK INTRA:                   0.000
REMARK UNBOUND:                 0.000
REMARK SMILES O=c1ccc2cc(O)c(O)cc2o1
REMARK SMILES IDX 4 1 3 2 2 3 1 4 13 5 12 6 11 7 9 8 7 9 6 10 5 11 8 12 10 14
REMARK H PARENT 8 13 10 15
REMARK Flexibility Score: inf
ROOT
ATOM      1  C   UNL     1       2.317  -3.125   8.551  1.00  0.00     0.019 A 
ATOM      2  C   UNL     1       3.374  -4.028   8.432  1.00  0.00     0.094 A 
ATOM      3  C   UNL     1       4.405  -3.748   7.528  1.00  0.00     0.336 A 
ATOM      4  O   UNL     1       5.367  -4.550   7.405  1.00  0.00    -0.246 OA
ATOM      5  O   UNL     1       4.375  -2.639   6.795  1.00  0.00    -0.423 OA
ATOM      6  C   UNL     1       3.386  -1.751   6.878  1.00  0.00     0.142 A 
ATOM      7  C   UNL     1       3.408  -0.602   6.082  1.00  0.00     0.098 A 
ATOM      8  C   UNL     1       2.369   0.337   6.166  1.00  0.00     0.161 A 
ATOM      9  C   UNL     1       1.299   0.122   7.054  1.00  0.00     0.158 A 
ATOM     10  C   UNL     1       1.275  -1.029   7.852  1.00  0.00     0.062 A 
ATOM     11  C   UNL     1       2.312  -1.967   7.768  1.00  0.00     0.022 A 
ENDROOT
BRANCH   9  12
ATOM     12  O   UNL     1       0.254   1.038   7.156  1.00  0.00    -0.504 OA
ATOM     13  H   UNL     1       0.391   2.031   7.003  1.00  0.00     0.293 HD
ENDBRANCH   9  12
BRANCH   8  14
ATOM     14  O   UNL     1       2.396   1.482   5.371  1.00  0.00    -0.504 OA
ATOM     15  H   UNL     1       3.270   1.900   5.072  1.00  0.00     0.293 HD
ENDBRANCH   8  14
TORSDOF 2
ENDMDL
MODEL 3
REMARK VINA RESULT:    -4.519      1.102      4.498
REMARK INTER + INTRA:          -4.784
REMARK INTER:                  -4.784
REMARK INTRA:                   0.000
REMARK UNBOUND:                 0.000
REMARK SMILES O=c1ccc2cc(O)c(O)cc2o1
REMARK SMILES IDX 4 1 3 2 2 3 1 4 13 5 12 6 11 7 9 8 7 9 6 10 5 11 8 12 10 14
REMARK H PARENT 8 13 10 15
REMARK Flexibility Score: inf
ROOT
ATOM      1  C   UNL     1       4.681  -2.789   6.639  1.00  0.00     0.019 A 
ATOM      2  C   UNL     1       4.767  -3.953   7.401  1.00  0.00     0.094 A 
ATOM      3  C   UNL     1       3.776  -4.214   8.354  1.00  0.00     0.336 A 
ATOM      4  O   UNL     1       3.836  -5.259   9.052  1.00  0.00    -0.246 OA
ATOM      5  O   UNL     1       2.769  -3.362   8.528  1.00  0.00    -0.423 OA
ATOM      6  C   UNL     1       2.650  -2.240   7.822  1.00  0.00     0.142 A 
ATOM      7  C   UNL     1       1.569  -1.382   8.049  1.00  0.00     0.098 A 
ATOM      8  C   UNL     1       1.438  -0.199   7.308  1.00  0.00     0.161 A 
ATOM      9  C   UNL     1       2.397   0.128   6.332  1.00  0.00     0.158 A 
ATOM     10  C   UNL     1       3.480  -0.730   6.103  1.00  0.00     0.062 A 
ATOM     11  C   UNL     1       3.612  -1.912   6.843  1.00  0.00     0.022 A 
ENDROOT
BRANCH   9  12
ATOM     12  O   UNL     1       2.290   1.298   5.582  1.00  0.00    -0.504 OA
ATOM     13  H   UNL     1       3.048   1.968   5.518  1.00  0.00     0.293 HD
ENDBRANCH   9  12
BRANCH   8  14
ATOM     14  O   UNL     1       0.358   0.653   7.537  1.00  0.00    -0.504 OA
ATOM     15  H   UNL     1      -0.594   0.368   7.339  1.00  0.00     0.293 HD
ENDBRANCH   8  14
TORSDOF 2
ENDMDL
MODEL 4
REMARK VINA RESULT:    -4.482      7.154      9.498
REMARK INTER + INTRA:          -4.744
REMARK INTER:                  -4.744
REMARK INTRA:                   0.000
REMARK UNBOUND:                 0.000
REMARK SMILES O=c1ccc2cc(O)c(O)cc2o1
REMARK SMILES IDX 4 1 3 2 2 3 1 4 13 5 12 6 11 7 9 8 7 9 6 10 5 11 8 12 10 14
REMARK H PARENT 8 13 10 15
REMARK Flexibility Score: inf
ROOT
ATOM      1  C   UNL     1       4.065   8.635   6.682  1.00  0.00     0.019 A 
ATOM      2  C   UNL     1       5.396   8.883   7.015  1.00  0.00     0.094 A 
ATOM      3  C   UNL     1       6.303   7.817   7.021  1.00  0.00     0.336 A 
ATOM      4  O   UNL     1       7.509   8.020   7.319  1.00  0.00    -0.246 OA
ATOM      5  O   UNL     1       5.899   6.588   6.713  1.00  0.00    -0.423 OA
ATOM      6  C   UNL     1       4.638   6.308   6.389  1.00  0.00     0.142 A 
ATOM      7  C   UNL     1       4.271   4.996   6.074  1.00  0.00     0.098 A 
ATOM      8  C   UNL     1       2.944   4.695   5.732  1.00  0.00     0.161 A 
ATOM      9  C   UNL     1       1.978   5.718   5.705  1.00  0.00     0.158 A 
ATOM     10  C   UNL     1       2.343   7.032   6.020  1.00  0.00     0.062 A 
ATOM     11  C   UNL     1       3.668   7.333   6.363  1.00  0.00     0.022 A 
ENDROOT
BRANCH   9  12
ATOM     12  O   UNL     1       0.653   5.446   5.369  1.00  0.00    -0.504 OA
ATOM     13  H   UNL     1       0.198   4.578   5.629  1.00  0.00     0.293 HD
ENDBRANCH   9  12
BRANCH   8  14
ATOM     14  O   UNL     1       2.583   3.386   5.418  1.00  0.00    -0.504 OA
ATOM     15  H   UNL     1       1.616   3.123   5.268  1.00  0.00     0.293 HD
ENDBRANCH   8  14
TORSDOF 2
ENDMDL
MODEL 5
REMARK VINA RESULT:    -4.361      1.799      3.023
REMARK INTER + INTRA:          -4.616
REMARK INTER:                  -4.616
REMARK INTRA:                   0.000
REMARK UNBOUND:                 0.000
REMARK SMILES O=c1ccc2cc(O)c(O)cc2o1
REMARK SMILES IDX 4 1 3 2 2 3 1 4 13 5 12 6 11 7 9 8 7 9 6 10 5 11 8 12 10 14
REMARK H PARENT 8 13 10 15
REMARK Flexibility Score: inf
ROOT
ATOM      1  C   UNL     1       0.753  -0.627   9.064  1.00  0.00     0.019 A 
ATOM      2  C   UNL     1       0.205   0.655   9.112  1.00  0.00     0.094 A 
ATOM      3  C   UNL     1       0.595   1.595   8.151  1.00  0.00     0.336 A 
ATOM      4  O   UNL     1       0.111   2.756   8.177  1.00  0.00    -0.246 OA
ATOM      5  O   UNL     1       1.475   1.268   7.209  1.00  0.00    -0.423 OA
ATOM      6  C   UNL     1       2.022   0.057   7.127  1.00  0.00     0.142 A 
ATOM      7  C   UNL     1       2.942  -0.229   6.114  1.00  0.00     0.098 A 
ATOM      8  C   UNL     1       3.521  -1.503   6.023  1.00  0.00     0.161 A 
ATOM      9  C   UNL     1       3.176  -2.498   6.955  1.00  0.00     0.158 A 
ATOM     10  C   UNL     1       2.255  -2.214   7.971  1.00  0.00     0.062 A 
ATOM     11  C   UNL     1       1.676  -0.942   8.063  1.00  0.00     0.022 A 
ENDROOT
BRANCH   9  12
ATOM     12  O   UNL     1       3.737  -3.773   6.888  1.00  0.00    -0.504 OA
ATOM     13  H   UNL     1       3.284  -4.583   7.294  1.00  0.00     0.293 HD
ENDBRANCH   9  12
BRANCH   8  14
ATOM     14  O   UNL     1       4.437  -1.783   5.011  1.00  0.00    -0.504 OA
ATOM     15  H   UNL     1       5.304  -1.265   4.920  1.00  0.00     0.293 HD
ENDBRANCH   8  14
TORSDOF 2
ENDMDL
MODEL 6
REMARK VINA RESULT:    -4.329      1.331      2.367
REMARK INTER + INTRA:          -4.582
REMARK INTER:                  -4.582
REMARK INTRA:                   0.000
REMARK UNBOUND:                 0.000
REMARK SMILES O=c1ccc2cc(O)c(O)cc2o1
REMARK SMILES IDX 4 1 3 2 2 3 1 4 13 5 12 6 11 7 9 8 7 9 6 10 5 11 8 12 10 14
REMARK H PARENT 8 13 10 15
REMARK Flexibility Score: inf
ROOT
ATOM      1  C   UNL     1       1.655  -1.517   8.058  1.00  0.00     0.019 A 
ATOM      2  C   UNL     1       1.578  -0.374   7.263  1.00  0.00     0.094 A 
ATOM      3  C   UNL     1       2.601  -0.120   6.342  1.00  0.00     0.336 A 
ATOM      4  O   UNL     1       2.550   0.906   5.615  1.00  0.00    -0.246 OA
ATOM      5  O   UNL     1       3.628  -0.956   6.229  1.00  0.00    -0.423 OA
ATOM      6  C   UNL     1       3.740  -2.058   6.968  1.00  0.00     0.142 A 
ATOM      7  C   UNL     1       4.844  -2.901   6.805  1.00  0.00     0.098 A 
ATOM      8  C   UNL     1       4.968  -4.062   7.581  1.00  0.00     0.161 A 
ATOM      9  C   UNL     1       3.977  -4.382   8.528  1.00  0.00     0.158 A 
ATOM     10  C   UNL     1       2.871  -3.540   8.693  1.00  0.00     0.062 A 
ATOM     11  C   UNL     1       2.747  -2.379   7.918  1.00  0.00     0.022 A 
ENDROOT
BRANCH   9  12
ATOM     12  O   UNL     1       4.075  -5.531   9.312  1.00  0.00    -0.504 OA
ATOM     13  H   UNL     1       4.931  -5.784   9.792  1.00  0.00     0.293 HD
ENDBRANCH   9  12
BRANCH   8  14
ATOM     14  O   UNL     1       6.069  -4.900   7.415  1.00  0.00    -0.504 OA
ATOM     15  H   UNL     1       6.275  -5.644   8.072  1.00  0.00     0.293 HD
ENDBRANCH   8  14
TORSDOF 2
ENDMDL
MODEL 7
REMARK VINA RESULT:    -4.304      1.449      4.703
REMARK INTER + INTRA:          -4.555
REMARK INTER:                  -4.555
REMARK INTRA:                   0.000
REMARK UNBOUND:                 0.000
REMARK SMILES O=c1ccc2cc(O)c(O)cc2o1
REMARK SMILES IDX 4 1 3 2 2 3 1 4 13 5 12 6 11 7 9 8 7 9 6 10 5 11 8 12 10 14
REMARK H PARENT 8 13 10 15
REMARK Flexibility Score: inf
ROOT
ATOM      1  C   UNL     1       3.270  -0.756   5.779  1.00  0.00     0.019 A 
ATOM      2  C   UNL     1       4.077  -1.882   5.941  1.00  0.00     0.094 A 
ATOM      3  C   UNL     1       3.876  -2.705   7.055  1.00  0.00     0.336 A 
ATOM      4  O   UNL     1       4.593  -3.725   7.219  1.00  0.00    -0.246 OA
ATOM      5  O   UNL     1       2.929  -2.415   7.943  1.00  0.00    -0.423 OA
ATOM      6  C   UNL     1       2.137  -1.351   7.826  1.00  0.00     0.142 A 
ATOM      7  C   UNL     1       1.159  -1.098   8.792  1.00  0.00     0.098 A 
ATOM      8  C   UNL     1       0.322   0.022   8.675  1.00  0.00     0.161 A 
ATOM      9  C   UNL     1       0.467   0.894   7.580  1.00  0.00     0.158 A 
ATOM     10  C   UNL     1       1.446   0.641   6.611  1.00  0.00     0.062 A 
ATOM     11  C   UNL     1       2.283  -0.476   6.729  1.00  0.00     0.022 A 
ENDROOT
BRANCH   9  12
ATOM     12  O   UNL     1      -0.352   2.013   7.439  1.00  0.00    -0.504 OA
ATOM     13  H   UNL     1       0.023   2.954   7.407  1.00  0.00     0.293 HD
ENDBRANCH   9  12
BRANCH   8  14
ATOM     14  O   UNL     1      -0.653   0.270   9.640  1.00  0.00    -0.504 OA
ATOM     15  H   UNL     1      -1.135  -0.484  10.115  1.00  0.00     0.293 HD
ENDBRANCH   8  14
TORSDOF 2
ENDMDL
MODEL 8
REMARK VINA RESULT:    -4.296      7.126      9.325
REMARK INTER + INTRA:          -4.547
REMARK INTER:                  -4.547
REMARK INTRA:                   0.000
REMARK UNBOUND:                 0.000
REMARK SMILES O=c1ccc2cc(O)c(O)cc2o1
REMARK SMILES IDX 4 1 3 2 2 3 1 4 13 5 12 6 11 7 9 8 7 9 6 10 5 11 8 12 10 14
REMARK H PARENT 8 13 10 15
REMARK Flexibility Score: inf
ROOT
ATOM      1  C   UNL     1       5.872   6.495   6.753  1.00  0.00     0.019 A 
ATOM      2  C   UNL     1       6.155   7.768   7.244  1.00  0.00     0.094 A 
ATOM      3  C   UNL     1       5.115   8.698   7.357  1.00  0.00     0.336 A 
ATOM      4  O   UNL     1       5.350   9.853   7.799  1.00  0.00    -0.246 OA
ATOM      5  O   UNL     1       3.877   8.369   7.000  1.00  0.00    -0.423 OA
ATOM      6  C   UNL     1       3.564   7.165   6.526  1.00  0.00     0.142 A 
ATOM      7  C   UNL     1       2.244   6.876   6.166  1.00  0.00     0.098 A 
ATOM      8  C   UNL     1       1.908   5.609   5.666  1.00  0.00     0.161 A 
ATOM      9  C   UNL     1       2.903   4.624   5.526  1.00  0.00     0.158 A 
ATOM     10  C   UNL     1       4.226   4.911   5.886  1.00  0.00     0.062 A 
ATOM     11  C   UNL     1       4.562   6.177   6.384  1.00  0.00     0.022 A 
ENDROOT
BRANCH   9  12
ATOM     12  O   UNL     1       2.596   3.357   5.032  1.00  0.00    -0.504 OA
ATOM     13  H   UNL     1       3.055   2.973   4.214  1.00  0.00     0.293 HD
ENDBRANCH   9  12
BRANCH   8  14
ATOM     14  O   UNL     1       0.591   5.326   5.309  1.00  0.00    -0.504 OA
ATOM     15  H   UNL     1       0.369   4.802   4.470  1.00  0.00     0.293 HD
ENDBRANCH   8  14
TORSDOF 2
ENDMDL
MODEL 9
REMARK VINA RESULT:    -4.270      1.904      5.558
REMARK INTER + INTRA:          -4.520
REMARK INTER:                  -4.520
REMARK INTRA:                   0.000
REMARK UNBOUND:                 0.000
REMARK SMILES O=c1ccc2cc(O)c(O)cc2o1
REMARK SMILES IDX 4 1 3 2 2 3 1 4 13 5 12 6 11 7 9 8 7 9 6 10 5 11 8 12 10 14
REMARK H PARENT 8 13 10 15
REMARK Flexibility Score: inf
ROOT
ATOM      1  C   UNL     1       1.577  -2.169   9.666  1.00  0.00     0.019 A 
ATOM      2  C   UNL     1       2.539  -2.901   8.971  1.00  0.00     0.094 A 
ATOM      3  C   UNL     1       2.899  -2.495   7.681  1.00  0.00     0.336 A 
ATOM      4  O   UNL     1       3.766  -3.142   7.038  1.00  0.00    -0.246 OA
ATOM      5  O   UNL     1       2.330  -1.427   7.128  1.00  0.00    -0.423 OA
ATOM      6  C   UNL     1       1.408  -0.701   7.756  1.00  0.00     0.142 A 
ATOM      7  C   UNL     1       0.844   0.412   7.125  1.00  0.00     0.098 A 
ATOM      8  C   UNL     1      -0.128   1.181   7.781  1.00  0.00     0.161 A 
ATOM      9  C   UNL     1      -0.539   0.832   9.081  1.00  0.00     0.158 A 
ATOM     10  C   UNL     1       0.025  -0.282   9.715  1.00  0.00     0.062 A 
ATOM     11  C   UNL     1       0.995  -1.051   9.060  1.00  0.00     0.022 A 
ENDROOT
BRANCH   9  12
ATOM     12  O   UNL     1      -1.503   1.579   9.756  1.00  0.00    -0.504 OA
ATOM     13  H   UNL     1      -1.258   2.359  10.355  1.00  0.00     0.293 HD
ENDBRANCH   9  12
BRANCH   8  14
ATOM     14  O   UNL     1      -0.687   2.290   7.148  1.00  0.00    -0.504 OA
ATOM     15  H   UNL     1      -0.216   2.757   6.382  1.00  0.00     0.293 HD
ENDBRANCH   8  14
TORSDOF 2
ENDMDL
