MODEL 1
REMARK VINA RESULT:    -4.496      0.000      0.000
REMARK INTER + INTRA:         -15.839
REMARK INTER:                 -11.856
REMARK INTRA:                  -3.983
REMARK UNBOUND:                -3.983
REMARK SMILES CCCCCCCCCCCCCCCCCCCCCCCCCCCCCC(=O)[O-]
REMARK SMILES IDX 16 1 17 2 18 3 19 4 20 5 21 6 22 7 23 8 24 9 25 10 26 11
REMARK SMILES IDX 27 12 28 13 29 14 30 15 31 16 32 17 15 18 14 19 13 20 12 21
REMARK SMILES IDX 11 22 10 23 9 24 8 25 7 26 6 27 5 28 4 29 3 30 2 31 1 32
REMARK H PARENT
REMARK Flexibility Score: inf
ROOT
ATOM      1  C   UNL     1      33.809  10.676  43.976  1.00  0.00     0.000 C 
ENDROOT
BRANCH   1   2
ATOM      2  C   UNL     1      34.318  12.120  44.147  1.00  0.00     0.000 C 
BRANCH   2   3
ATOM      3  C   UNL     1      35.339  12.267  45.289  1.00  0.00     0.000 C 
BRANCH   3   4
ATOM      4  C   UNL     1      35.612  13.737  45.651  1.00  0.00     0.000 C 
BRANCH   4   5
ATOM      5  C   UNL     1      36.750  13.888  46.675  1.00  0.00     0.000 C 
BRANCH   5   6
ATOM      6  C   UNL     1      38.137  13.919  46.015  1.00  0.00     0.000 C 
BRANCH   6   7
ATOM      7  C   UNL     1      38.716  15.342  45.922  1.00  0.00     0.000 C 
BRANCH   7   8
ATOM      8  C   UNL     1      38.240  16.091  44.667  1.00  0.00     0.000 C 
BRANCH   8   9
ATOM      9  C   UNL     1      37.732  17.509  44.978  1.00  0.00     0.000 C 
BRANCH   9  10
ATOM     10  C   UNL     1      36.338  17.512  45.631  1.00  0.00     0.000 C 
BRANCH  10  11
ATOM     11  C   UNL     1      36.325  18.133  47.043  1.00  0.00     0.000 C 
BRANCH  11  12
ATOM     12  C   UNL     1      35.999  17.097  48.132  1.00  0.00     0.000 C 
BRANCH  12  13
ATOM     13  C   UNL     1      34.516  16.686  48.152  1.00  0.00     0.006 C 
BRANCH  13  14
ATOM     14  C   UNL     1      33.627  17.592  49.023  1.00  0.00     0.053 C 
BRANCH  14  15
ATOM     15  C   UNL     1      32.219  17.091  49.130  1.00  0.00     0.041 C 
ATOM     16  O   UNL     1      31.977  15.976  49.666  1.00  0.00    -0.550 OA
ATOM     17  O   UNL     1      31.167  17.872  48.668  1.00  0.00    -0.550 OA
ENDBRANCH  14  15
ENDBRANCH  13  14
ENDBRANCH  12  13
ENDBRANCH  11  12
ENDBRANCH  10  11
ENDBRANCH   9  10
ENDBRANCH   8   9
ENDBRANCH   7   8
ENDBRANCH   6   7
ENDBRANCH   5   6
ENDBRANCH   4   5
ENDBRANCH   3   4
ENDBRANCH   2   3
ENDBRANCH   1   2
BRANCH   1  18
ATOM     18  C   UNL     1      34.818   9.575  44.350  1.00  0.00     0.000 C 
BRANCH  18  19
ATOM     19  C   UNL     1      34.272   8.156  44.118  1.00  0.00     0.000 C 
BRANCH  19  20
ATOM     20  C   UNL     1      33.981   7.411  45.430  1.00  0.00     0.000 C 
BRANCH  20  21
ATOM     21  C   UNL     1      34.086   5.885  45.287  1.00  0.00     0.000 C 
BRANCH  21  22
ATOM     22  C   UNL     1      35.030   5.300  46.348  1.00  0.00     0.000 C 
BRANCH  22  23
ATOM     23  C   UNL     1      34.297   4.905  47.641  1.00  0.00     0.000 C 
BRANCH  23  24
ATOM     24  C   UNL     1      34.452   5.954  48.752  1.00  0.00    -0.000 C 
BRANCH  24  25
ATOM     25  C   UNL     1      33.079   6.408  49.274  1.00  0.00    -0.000 C 
BRANCH  25  26
ATOM     26  C   UNL     1      31.942   6.125  48.279  1.00  0.00    -0.000 C 
BRANCH  26  27
ATOM     27  C   UNL     1      31.143   7.391  47.919  1.00  0.00    -0.000 C 
BRANCH  27  28
ATOM     28  C   UNL     1      30.813   8.250  49.149  1.00  0.00    -0.000 C 
BRANCH  28  29
ATOM     29  C   UNL     1      31.527   9.610  49.135  1.00  0.00    -0.000 C 
BRANCH  29  30
ATOM     30  C   UNL     1      32.404   9.754  47.881  1.00  0.00    -0.000 C 
BRANCH  30  31
ATOM     31  C   UNL     1      33.900   9.855  48.215  1.00  0.00    -0.003 C 
ATOM     32  C   UNL     1      34.331  11.275  48.579  1.00  0.00     0.004 C 
ENDBRANCH  30  31
ENDBRANCH  29  30
ENDBRANCH  28  29
ENDBRANCH  27  28
ENDBRANCH  26  27
ENDBRANCH  25  26
ENDBRANCH  24  25
ENDBRANCH  23  24
ENDBRANCH  22  23
ENDBRANCH  21  22
ENDBRANCH  20  21
ENDBRANCH  19  20
ENDBRANCH  18  19
ENDBRANCH   1  18
TORSDOF 28
ENDMDL
MODEL 2
REMARK VINA RESULT:    -4.328      3.191      9.110
REMARK INTER + INTRA:         -15.396
REMARK INTER:                 -10.195
REMARK INTRA:                  -5.201
REMARK UNBOUND:                -3.983
REMARK SMILES CCCCCCCCCCCCCCCCCCCCCCCCCCCCCC(=O)[O-]
REMARK SMILES IDX 16 1 17 2 18 3 19 4 20 5 21 6 22 7 23 8 24 9 25 10 26 11
REMARK SMILES IDX 27 12 28 13 29 14 30 15 31 16 32 17 15 18 14 19 13 20 12 21
REMARK SMILES IDX 11 22 10 23 9 24 8 25 7 26 6 27 5 28 4 29 3 30 2 31 1 32
REMARK H PARENT
REMARK Flexibility Score: inf
ROOT
ATOM      1  C   UNL     1      34.521  11.423  44.442  1.00  0.00     0.000 C 
ENDROOT
BRANCH   1   2
ATOM      2  C   UNL     1      35.000  10.405  45.494  1.00  0.00     0.000 C 
BRANCH   2   3
ATOM      3  C   UNL     1      33.889   9.981  46.471  1.00  0.00     0.000 C 
BRANCH   3   4
ATOM      4  C   UNL     1      34.269  10.229  47.941  1.00  0.00     0.000 C 
BRANCH   4   5
ATOM      5  C   UNL     1      33.069  10.680  48.791  1.00  0.00     0.000 C 
BRANCH   5   6
ATOM      6  C   UNL     1      31.834   9.788  48.586  1.00  0.00     0.000 C 
BRANCH   6   7
ATOM      7  C   UNL     1      31.554   8.879  49.795  1.00  0.00     0.000 C 
BRANCH   7   8
ATOM      8  C   UNL     1      30.209   8.145  49.682  1.00  0.00     0.000 C 
BRANCH   8   9
ATOM      9  C   UNL     1      30.051   7.397  48.347  1.00  0.00     0.000 C 
BRANCH   9  10
ATOM     10  C   UNL     1      30.182   5.872  48.500  1.00  0.00     0.000 C 
BRANCH  10  11
ATOM     11  C   UNL     1      31.569   5.333  48.090  1.00  0.00     0.000 C 
BRANCH  11  12
ATOM     12  C   UNL     1      32.304   6.286  47.132  1.00  0.00     0.000 C 
BRANCH  12  13
ATOM     13  C   UNL     1      33.771   6.530  47.529  1.00  0.00     0.006 C 
BRANCH  13  14
ATOM     14  C   UNL     1      34.062   6.298  49.021  1.00  0.00     0.053 C 
BRANCH  14  15
ATOM     15  C   UNL     1      35.442   5.767  49.266  1.00  0.00     0.041 C 
ATOM     16  O   UNL     1      35.765   4.619  48.858  1.00  0.00    -0.550 OA
ATOM     17  O   UNL     1      36.385   6.554  49.914  1.00  0.00    -0.550 OA
ENDBRANCH  14  15
ENDBRANCH  13  14
ENDBRANCH  12  13
ENDBRANCH  11  12
ENDBRANCH  10  11
ENDBRANCH   9  10
ENDBRANCH   8   9
ENDBRANCH   7   8
ENDBRANCH   6   7
ENDBRANCH   5   6
ENDBRANCH   4   5
ENDBRANCH   3   4
ENDBRANCH   2   3
ENDBRANCH   1   2
BRANCH   1  18
ATOM     18  C   UNL     1      34.991  12.872  44.668  1.00  0.00     0.000 C 
BRANCH  18  19
ATOM     19  C   UNL     1      35.740  13.061  45.998  1.00  0.00     0.000 C 
BRANCH  19  20
ATOM     20  C   UNL     1      37.121  13.710  45.814  1.00  0.00     0.000 C 
BRANCH  20  21
ATOM     21  C   UNL     1      38.140  13.255  46.869  1.00  0.00     0.000 C 
BRANCH  21  22
ATOM     22  C   UNL     1      37.731  11.907  47.480  1.00  0.00     0.000 C 
BRANCH  22  23
ATOM     23  C   UNL     1      37.710  11.935  49.017  1.00  0.00     0.000 C 
BRANCH  23  24
ATOM     24  C   UNL     1      37.274  13.297  49.578  1.00  0.00    -0.000 C 
BRANCH  24  25
ATOM     25  C   UNL     1      35.835  13.237  50.113  1.00  0.00    -0.000 C 
BRANCH  25  26
ATOM     26  C   UNL     1      34.883  14.183  49.363  1.00  0.00    -0.000 C 
BRANCH  26  27
ATOM     27  C   UNL     1      35.603  15.421  48.798  1.00  0.00    -0.000 C 
BRANCH  27  28
ATOM     28  C   UNL     1      34.653  16.364  48.044  1.00  0.00    -0.000 C 
BRANCH  28  29
ATOM     29  C   UNL     1      35.181  16.756  46.656  1.00  0.00    -0.000 C 
BRANCH  29  30
ATOM     30  C   UNL     1      36.577  17.390  46.760  1.00  0.00    -0.000 C 
BRANCH  30  31
ATOM     31  C   UNL     1      37.257  17.549  45.392  1.00  0.00    -0.003 C 
ATOM     32  C   UNL     1      38.620  16.861  45.324  1.00  0.00     0.004 C 
ENDBRANCH  30  31
ENDBRANCH  29  30
ENDBRANCH  28  29
ENDBRANCH  27  28
ENDBRANCH  26  27
ENDBRANCH  25  26
ENDBRANCH  24  25
ENDBRANCH  23  24
ENDBRANCH  22  23
ENDBRANCH  21  22
ENDBRANCH  20  21
ENDBRANCH  19  20
ENDBRANCH  18  19
ENDBRANCH   1  18
TORSDOF 28
ENDMDL
MODEL 3
REMARK VINA RESULT:    -4.325      1.265      2.841
REMARK INTER + INTRA:         -15.388
REMARK INTER:                 -10.908
REMARK INTRA:                  -4.480
REMARK UNBOUND:                -3.983
REMARK SMILES CCCCCCCCCCCCCCCCCCCCCCCCCCCCCC(=O)[O-]
REMARK SMILES IDX 16 1 17 2 18 3 19 4 20 5 21 6 22 7 23 8 24 9 25 10 26 11
REMARK SMILES IDX 27 12 28 13 29 14 30 15 31 16 32 17 15 18 14 19 13 20 12 21
REMARK SMILES IDX 11 22 10 23 9 24 8 25 7 26 6 27 5 28 4 29 3 30 2 31 1 32
REMARK H PARENT
REMARK Flexibility Score: inf
ROOT
ATOM      1  C   UNL     1      34.216   9.199  43.751  1.00  0.00     0.000 C 
ENDROOT
BRANCH   1   2
ATOM      2  C   UNL     1      34.359  10.724  43.911  1.00  0.00     0.000 C 
BRANCH   2   3
ATOM      3  C   UNL     1      34.973  11.131  45.262  1.00  0.00     0.000 C 
BRANCH   3   4
ATOM      4  C   UNL     1      35.306  12.632  45.331  1.00  0.00     0.000 C 
BRANCH   4   5
ATOM      5  C   UNL     1      35.893  13.042  46.693  1.00  0.00     0.000 C 
BRANCH   5   6
ATOM      6  C   UNL     1      37.159  12.248  47.052  1.00  0.00     0.000 C 
BRANCH   6   7
ATOM      7  C   UNL     1      38.444  12.915  46.530  1.00  0.00     0.000 C 
BRANCH   7   8
ATOM      8  C   UNL     1      38.341  14.448  46.501  1.00  0.00     0.000 C 
BRANCH   8   9
ATOM      9  C   UNL     1      38.961  15.062  45.234  1.00  0.00     0.000 C 
BRANCH   9  10
ATOM     10  C   UNL     1      38.020  16.057  44.534  1.00  0.00     0.000 C 
BRANCH  10  11
ATOM     11  C   UNL     1      36.739  16.359  45.339  1.00  0.00     0.000 C 
BRANCH  11  12
ATOM     12  C   UNL     1      36.710  17.802  45.870  1.00  0.00     0.000 C 
BRANCH  12  13
ATOM     13  C   UNL     1      36.005  17.933  47.231  1.00  0.00     0.006 C 
BRANCH  13  14
ATOM     14  C   UNL     1      36.054  16.655  48.087  1.00  0.00     0.053 C 
BRANCH  14  15
ATOM     15  C   UNL     1      34.713  16.275  48.638  1.00  0.00     0.041 C 
ATOM     16  O   UNL     1      33.672  16.866  48.245  1.00  0.00    -0.550 OA
ATOM     17  O   UNL     1      34.609  15.241  49.560  1.00  0.00    -0.550 OA
ENDBRANCH  14  15
ENDBRANCH  13  14
ENDBRANCH  12  13
ENDBRANCH  11  12
ENDBRANCH  10  11
ENDBRANCH   9  10
ENDBRANCH   8   9
ENDBRANCH   7   8
ENDBRANCH   6   7
ENDBRANCH   5   6
ENDBRANCH   4   5
ENDBRANCH   3   4
ENDBRANCH   2   3
ENDBRANCH   1   2
BRANCH   1  18
ATOM     18  C   UNL     1      34.297   8.389  45.058  1.00  0.00     0.000 C 
BRANCH  18  19
ATOM     19  C   UNL     1      33.910   6.912  44.875  1.00  0.00     0.000 C 
BRANCH  19  20
ATOM     20  C   UNL     1      33.290   6.301  46.141  1.00  0.00     0.000 C 
BRANCH  20  21
ATOM     21  C   UNL     1      34.298   6.159  47.292  1.00  0.00     0.000 C 
BRANCH  21  22
ATOM     22  C   UNL     1      33.607   5.651  48.566  1.00  0.00     0.000 C 
BRANCH  22  23
ATOM     23  C   UNL     1      33.795   6.600  49.761  1.00  0.00     0.000 C 
BRANCH  23  24
ATOM     24  C   UNL     1      34.806   7.720  49.473  1.00  0.00    -0.000 C 
BRANCH  24  25
ATOM     25  C   UNL     1      34.186   9.102  49.734  1.00  0.00    -0.000 C 
BRANCH  25  26
ATOM     26  C   UNL     1      33.823   9.845  48.438  1.00  0.00    -0.000 C 
BRANCH  26  27
ATOM     27  C   UNL     1      32.366   9.603  48.006  1.00  0.00    -0.000 C 
BRANCH  27  28
ATOM     28  C   UNL     1      31.378   9.708  49.178  1.00  0.00    -0.000 C 
BRANCH  28  29
ATOM     29  C   UNL     1      30.562   8.423  49.385  1.00  0.00    -0.000 C 
BRANCH  29  30
ATOM     30  C   UNL     1      30.610   7.536  48.132  1.00  0.00    -0.000 C 
BRANCH  30  31
ATOM     31  C   UNL     1      29.502   6.472  48.118  1.00  0.00    -0.003 C 
ATOM     32  C   UNL     1      29.318   5.791  49.474  1.00  0.00     0.004 C 
ENDBRANCH  30  31
ENDBRANCH  29  30
ENDBRANCH  28  29
ENDBRANCH  27  28
ENDBRANCH  26  27
ENDBRANCH  25  26
ENDBRANCH  24  25
ENDBRANCH  23  24
ENDBRANCH  22  23
ENDBRANCH  21  22
ENDBRANCH  20  21
ENDBRANCH  19  20
ENDBRANCH  18  19
ENDBRANCH   1  18
TORSDOF 28
ENDMDL
MODEL 4
REMARK VINA RESULT:    -4.244      3.125      8.663
REMARK INTER + INTRA:         -15.173
REMARK INTER:                 -11.084
REMARK INTRA:                  -4.088
REMARK UNBOUND:                -3.983
REMARK SMILES CCCCCCCCCCCCCCCCCCCCCCCCCCCCCC(=O)[O-]
REMARK SMILES IDX 16 1 17 2 18 3 19 4 20 5 21 6 22 7 23 8 24 9 25 10 26 11
REMARK SMILES IDX 27 12 28 13 29 14 30 15 31 16 32 17 15 18 14 19 13 20 12 21
REMARK SMILES IDX 11 22 10 23 9 24 8 25 7 26 6 27 5 28 4 29 3 30 2 31 1 32
REMARK H PARENT
REMARK Flexibility Score: inf
ROOT
ATOM      1  C   UNL     1      34.236   7.761  44.239  1.00  0.00     0.000 C 
ENDROOT
BRANCH   1   2
ATOM      2  C   UNL     1      33.685   6.759  45.271  1.00  0.00     0.000 C 
BRANCH   2   3
ATOM      3  C   UNL     1      34.642   5.584  45.538  1.00  0.00     0.000 C 
BRANCH   3   4
ATOM      4  C   UNL     1      35.016   5.454  47.025  1.00  0.00     0.000 C 
BRANCH   4   5
ATOM      5  C   UNL     1      33.795   5.163  47.915  1.00  0.00     0.000 C 
BRANCH   5   6
ATOM      6  C   UNL     1      33.533   6.280  48.938  1.00  0.00     0.000 C 
BRANCH   6   7
ATOM      7  C   UNL     1      34.818   7.019  49.349  1.00  0.00     0.000 C 
BRANCH   7   8
ATOM      8  C   UNL     1      34.596   8.528  49.535  1.00  0.00     0.000 C 
BRANCH   8   9
ATOM      9  C   UNL     1      34.119   9.222  48.247  1.00  0.00     0.000 C 
BRANCH   9  10
ATOM     10  C   UNL     1      32.959  10.201  48.493  1.00  0.00     0.000 C 
BRANCH  10  11
ATOM     11  C   UNL     1      31.878   9.643  49.443  1.00  0.00     0.000 C 
BRANCH  11  12
ATOM     12  C   UNL     1      30.899   8.701  48.722  1.00  0.00     0.000 C 
BRANCH  12  13
ATOM     13  C   UNL     1      29.811   8.133  49.651  1.00  0.00     0.006 C 
BRANCH  13  14
ATOM     14  C   UNL     1      29.916   6.616  49.884  1.00  0.00     0.053 C 
BRANCH  14  15
ATOM     15  C   UNL     1      29.587   5.818  48.659  1.00  0.00     0.041 C 
ATOM     16  O   UNL     1      30.507   5.389  47.912  1.00  0.00    -0.550 OA
ATOM     17  O   UNL     1      28.264   5.516  48.362  1.00  0.00    -0.550 OA
ENDBRANCH  14  15
ENDBRANCH  13  14
ENDBRANCH  12  13
ENDBRANCH  11  12
ENDBRANCH  10  11
ENDBRANCH   9  10
ENDBRANCH   8   9
ENDBRANCH   7   8
ENDBRANCH   6   7
ENDBRANCH   5   6
ENDBRANCH   4   5
ENDBRANCH   3   4
ENDBRANCH   2   3
ENDBRANCH   1   2
BRANCH   1  18
ATOM     18  C   UNL     1      34.626   9.139  44.803  1.00  0.00     0.000 C 
BRANCH  18  19
ATOM     19  C   UNL     1      34.246  10.300  43.869  1.00  0.00     0.000 C 
BRANCH  19  20
ATOM     20  C   UNL     1      34.624  11.674  44.446  1.00  0.00     0.000 C 
BRANCH  20  21
ATOM     21  C   UNL     1      35.535  11.573  45.679  1.00  0.00     0.000 C 
BRANCH  21  22
ATOM     22  C   UNL     1      35.388  12.816  46.570  1.00  0.00     0.000 C 
BRANCH  22  23
ATOM     23  C   UNL     1      36.246  12.736  47.843  1.00  0.00     0.000 C 
BRANCH  23  24
ATOM     24  C   UNL     1      35.581  13.418  49.048  1.00  0.00    -0.000 C 
BRANCH  24  25
ATOM     25  C   UNL     1      35.832  14.934  49.030  1.00  0.00    -0.000 C 
BRANCH  25  26
ATOM     26  C   UNL     1      34.533  15.749  48.916  1.00  0.00    -0.000 C 
BRANCH  26  27
ATOM     27  C   UNL     1      34.580  16.781  47.775  1.00  0.00    -0.000 C 
BRANCH  27  28
ATOM     28  C   UNL     1      36.012  17.064  47.294  1.00  0.00    -0.000 C 
BRANCH  28  29
ATOM     29  C   UNL     1      36.125  17.123  45.763  1.00  0.00    -0.000 C 
BRANCH  29  30
ATOM     30  C   UNL     1      36.640  15.790  45.200  1.00  0.00    -0.000 C 
BRANCH  30  31
ATOM     31  C   UNL     1      38.174  15.713  45.169  1.00  0.00    -0.003 C 
ATOM     32  C   UNL     1      38.708  14.358  45.631  1.00  0.00     0.004 C 
ENDBRANCH  30  31
ENDBRANCH  29  30
ENDBRANCH  28  29
ENDBRANCH  27  28
ENDBRANCH  26  27
ENDBRANCH  25  26
ENDBRANCH  24  25
ENDBRANCH  23  24
ENDBRANCH  22  23
ENDBRANCH  21  22
ENDBRANCH  20  21
ENDBRANCH  19  20
ENDBRANCH  18  19
ENDBRANCH   1  18
TORSDOF 28
ENDMDL
MODEL 5
REMARK VINA RESULT:    -4.188      1.806      9.089
REMARK INTER + INTRA:         -15.027
REMARK INTER:                 -11.058
REMARK INTRA:                  -3.968
REMARK UNBOUND:                -3.983
REMARK SMILES CCCCCCCCCCCCCCCCCCCCCCCCCCCCCC(=O)[O-]
REMARK SMILES IDX 16 1 17 2 18 3 19 4 20 5 21 6 22 7 23 8 24 9 25 10 26 11
REMARK SMILES IDX 27 12 28 13 29 14 30 15 31 16 32 17 15 18 14 19 13 20 12 21
REMARK SMILES IDX 11 22 10 23 9 24 8 25 7 26 6 27 5 28 4 29 3 30 2 31 1 32
REMARK H PARENT
REMARK Flexibility Score: inf
ROOT
ATOM      1  C   UNL     1      35.869  11.500  46.030  1.00  0.00     0.000 C 
ENDROOT
BRANCH   1   2
ATOM      2  C   UNL     1      34.905  11.929  44.908  1.00  0.00     0.000 C 
BRANCH   2   3
ATOM      3  C   UNL     1      34.278  10.736  44.166  1.00  0.00     0.000 C 
BRANCH   3   4
ATOM      4  C   UNL     1      34.276   9.450  45.011  1.00  0.00     0.000 C 
BRANCH   4   5
ATOM      5  C   UNL     1      34.296   8.178  44.146  1.00  0.00     0.000 C 
BRANCH   5   6
ATOM      6  C   UNL     1      33.931   6.916  44.945  1.00  0.00     0.000 C 
BRANCH   6   7
ATOM      7  C   UNL     1      33.546   7.230  46.402  1.00  0.00     0.000 C 
BRANCH   7   8
ATOM      8  C   UNL     1      33.820   6.053  47.350  1.00  0.00     0.000 C 
BRANCH   8   9
ATOM      9  C   UNL     1      32.537   5.491  47.986  1.00  0.00     0.000 C 
BRANCH   9  10
ATOM     10  C   UNL     1      31.267   6.206  47.495  1.00  0.00     0.000 C 
BRANCH  10  11
ATOM     11  C   UNL     1      30.207   6.398  48.600  1.00  0.00     0.000 C 
BRANCH  11  12
ATOM     12  C   UNL     1      30.032   7.876  48.988  1.00  0.00     0.000 C 
BRANCH  12  13
ATOM     13  C   UNL     1      31.337   8.533  49.473  1.00  0.00     0.006 C 
BRANCH  13  14
ATOM     14  C   UNL     1      31.738   9.789  48.680  1.00  0.00     0.053 C 
BRANCH  14  15
ATOM     15  C   UNL     1      32.818  10.579  49.355  1.00  0.00     0.041 C 
ATOM     16  O   UNL     1      32.662  11.809  49.580  1.00  0.00    -0.550 OA
ATOM     17  O   UNL     1      33.985   9.948  49.770  1.00  0.00    -0.550 OA
ENDBRANCH  14  15
ENDBRANCH  13  14
ENDBRANCH  12  13
ENDBRANCH  11  12
ENDBRANCH  10  11
ENDBRANCH   9  10
ENDBRANCH   8   9
ENDBRANCH   7   8
ENDBRANCH   6   7
ENDBRANCH   5   6
ENDBRANCH   4   5
ENDBRANCH   3   4
ENDBRANCH   2   3
ENDBRANCH   1   2
BRANCH   1  18
ATOM     18  C   UNL     1      35.594  12.127  47.409  1.00  0.00     0.000 C 
BRANCH  18  19
ATOM     19  C   UNL     1      36.871  12.325  48.244  1.00  0.00     0.000 C 
BRANCH  19  20
ATOM     20  C   UNL     1      36.911  13.689  48.952  1.00  0.00     0.000 C 
BRANCH  20  21
ATOM     21  C   UNL     1      37.677  14.754  48.153  1.00  0.00     0.000 C 
BRANCH  21  22
ATOM     22  C   UNL     1      38.180  14.181  46.820  1.00  0.00     0.000 C 
BRANCH  22  23
ATOM     23  C   UNL     1      37.609  14.925  45.602  1.00  0.00     0.000 C 
BRANCH  23  24
ATOM     24  C   UNL     1      36.195  15.471  45.852  1.00  0.00    -0.000 C 
BRANCH  24  25
ATOM     25  C   UNL     1      36.135  16.985  45.591  1.00  0.00    -0.000 C 
BRANCH  25  26
ATOM     26  C   UNL     1      37.436  17.707  45.983  1.00  0.00    -0.000 C 
BRANCH  26  27
ATOM     27  C   UNL     1      37.326  18.427  47.339  1.00  0.00    -0.000 C 
BRANCH  27  28
ATOM     28  C   UNL     1      35.893  18.429  47.892  1.00  0.00    -0.000 C 
BRANCH  28  29
ATOM     29  C   UNL     1      35.780  17.731  49.256  1.00  0.00    -0.000 C 
BRANCH  29  30
ATOM     30  C   UNL     1      34.689  16.649  49.229  1.00  0.00    -0.000 C 
BRANCH  30  31
ATOM     31  C   UNL     1      33.375  17.150  48.611  1.00  0.00    -0.003 C 
ATOM     32  C   UNL     1      32.618  18.110  49.527  1.00  0.00     0.004 C 
ENDBRANCH  30  31
ENDBRANCH  29  30
ENDBRANCH  28  29
ENDBRANCH  27  28
ENDBRANCH  26  27
ENDBRANCH  25  26
ENDBRANCH  24  25
ENDBRANCH  23  24
ENDBRANCH  22  23
ENDBRANCH  21  22
ENDBRANCH  20  21
ENDBRANCH  19  20
ENDBRANCH  18  19
ENDBRANCH   1  18
TORSDOF 28
ENDMDL
MODEL 6
REMARK VINA RESULT:    -4.067      2.468      3.961
REMARK INTER + INTRA:         -14.706
REMARK INTER:                 -10.512
REMARK INTRA:                  -4.194
REMARK UNBOUND:                -3.983
REMARK SMILES CCCCCCCCCCCCCCCCCCCCCCCCCCCCCC(=O)[O-]
REMARK SMILES IDX 16 1 17 2 18 3 19 4 20 5 21 6 22 7 23 8 24 9 25 10 26 11
REMARK SMILES IDX 27 12 28 13 29 14 30 15 31 16 32 17 15 18 14 19 13 20 12 21
REMARK SMILES IDX 11 22 10 23 9 24 8 25 7 26 6 27 5 28 4 29 3 30 2 31 1 32
REMARK H PARENT
REMARK Flexibility Score: inf
ROOT
ATOM      1  C   UNL     1      34.453   8.692  43.835  1.00  0.00     0.000 C 
ENDROOT
BRANCH   1   2
ATOM      2  C   UNL     1      34.610  10.223  43.761  1.00  0.00     0.000 C 
BRANCH   2   3
ATOM      3  C   UNL     1      34.254  10.928  45.081  1.00  0.00     0.000 C 
BRANCH   3   4
ATOM      4  C   UNL     1      35.499  11.352  45.879  1.00  0.00     0.000 C 
BRANCH   4   5
ATOM      5  C   UNL     1      35.721  12.874  45.859  1.00  0.00     0.000 C 
BRANCH   5   6
ATOM      6  C   UNL     1      37.130  13.270  46.329  1.00  0.00     0.000 C 
BRANCH   6   7
ATOM      7  C   UNL     1      37.474  12.694  47.714  1.00  0.00     0.000 C 
BRANCH   7   8
ATOM      8  C   UNL     1      36.790  13.460  48.857  1.00  0.00     0.000 C 
BRANCH   8   9
ATOM      9  C   UNL     1      37.567  14.719  49.278  1.00  0.00     0.000 C 
BRANCH   9  10
ATOM     10  C   UNL     1      36.851  16.021  48.882  1.00  0.00     0.000 C 
BRANCH  10  11
ATOM     11  C   UNL     1      35.343  15.833  48.614  1.00  0.00     0.000 C 
BRANCH  11  12
ATOM     12  C   UNL     1      34.934  16.327  47.215  1.00  0.00     0.000 C 
BRANCH  12  13
ATOM     13  C   UNL     1      35.977  17.258  46.573  1.00  0.00     0.006 C 
BRANCH  13  14
ATOM     14  C   UNL     1      36.535  16.745  45.234  1.00  0.00     0.053 C 
BRANCH  14  15
ATOM     15  C   UNL     1      38.002  17.009  45.079  1.00  0.00     0.041 C 
ATOM     16  O   UNL     1      38.406  17.937  44.328  1.00  0.00    -0.550 OA
ATOM     17  O   UNL     1      38.923  16.253  45.793  1.00  0.00    -0.550 OA
ENDBRANCH  14  15
ENDBRANCH  13  14
ENDBRANCH  12  13
ENDBRANCH  11  12
ENDBRANCH  10  11
ENDBRANCH   9  10
ENDBRANCH   8   9
ENDBRANCH   7   8
ENDBRANCH   6   7
ENDBRANCH   5   6
ENDBRANCH   4   5
ENDBRANCH   3   4
ENDBRANCH   2   3
ENDBRANCH   1   2
BRANCH   1  18
ATOM     18  C   UNL     1      34.249   8.120  45.250  1.00  0.00     0.000 C 
BRANCH  18  19
ATOM     19  C   UNL     1      33.885   6.626  45.246  1.00  0.00     0.000 C 
BRANCH  19  20
ATOM     20  C   UNL     1      33.423   6.125  46.624  1.00  0.00     0.000 C 
BRANCH  20  21
ATOM     21  C   UNL     1      34.561   5.498  47.443  1.00  0.00     0.000 C 
BRANCH  21  22
ATOM     22  C   UNL     1      34.366   5.764  48.944  1.00  0.00     0.000 C 
BRANCH  22  23
ATOM     23  C   UNL     1      35.668   6.186  49.644  1.00  0.00     0.000 C 
BRANCH  23  24
ATOM     24  C   UNL     1      35.678   7.673  50.029  1.00  0.00    -0.000 C 
BRANCH  24  25
ATOM     25  C   UNL     1      34.274   8.284  49.898  1.00  0.00    -0.000 C 
BRANCH  25  26
ATOM     26  C   UNL     1      34.189   9.342  48.785  1.00  0.00    -0.000 C 
BRANCH  26  27
ATOM     27  C   UNL     1      32.769   9.477  48.206  1.00  0.00    -0.000 C 
BRANCH  27  28
ATOM     28  C   UNL     1      31.684   9.454  49.293  1.00  0.00    -0.000 C 
BRANCH  28  29
ATOM     29  C   UNL     1      30.521   8.510  48.953  1.00  0.00    -0.000 C 
BRANCH  29  30
ATOM     30  C   UNL     1      30.901   7.048  49.236  1.00  0.00    -0.000 C 
BRANCH  30  31
ATOM     31  C   UNL     1      30.305   6.073  48.210  1.00  0.00    -0.003 C 
ATOM     32  C   UNL     1      28.860   5.690  48.528  1.00  0.00     0.004 C 
ENDBRANCH  30  31
ENDBRANCH  29  30
ENDBRANCH  28  29
ENDBRANCH  27  28
ENDBRANCH  26  27
ENDBRANCH  25  26
ENDBRANCH  24  25
ENDBRANCH  23  24
ENDBRANCH  22  23
ENDBRANCH  21  22
ENDBRANCH  20  21
ENDBRANCH  19  20
ENDBRANCH  18  19
ENDBRANCH   1  18
TORSDOF 28
ENDMDL
MODEL 7
REMARK VINA RESULT:    -3.991      2.255      9.203
REMARK INTER + INTRA:         -14.507
REMARK INTER:                 -10.542
REMARK INTRA:                  -3.965
REMARK UNBOUND:                -3.983
REMARK SMILES CCCCCCCCCCCCCCCCCCCCCCCCCCCCCC(=O)[O-]
REMARK SMILES IDX 16 1 17 2 18 3 19 4 20 5 21 6 22 7 23 8 24 9 25 10 26 11
REMARK SMILES IDX 27 12 28 13 29 14 30 15 31 16 32 17 15 18 14 19 13 20 12 21
REMARK SMILES IDX 11 22 10 23 9 24 8 25 7 26 6 27 5 28 4 29 3 30 2 31 1 32
REMARK H PARENT
REMARK Flexibility Score: inf
ROOT
ATOM      1  C   UNL     1      33.973   9.427  49.589  1.00  0.00     0.000 C 
ENDROOT
BRANCH   1   2
ATOM      2  C   UNL     1      33.158  10.056  48.443  1.00  0.00     0.000 C 
BRANCH   2   3
ATOM      3  C   UNL     1      31.643   9.829  48.588  1.00  0.00     0.000 C 
BRANCH   3   4
ATOM      4  C   UNL     1      31.295   8.900  49.765  1.00  0.00     0.000 C 
BRANCH   4   5
ATOM      5  C   UNL     1      29.977   8.138  49.543  1.00  0.00     0.000 C 
BRANCH   5   6
ATOM      6  C   UNL     1      30.134   6.621  49.740  1.00  0.00     0.000 C 
BRANCH   6   7
ATOM      7  C   UNL     1      29.983   5.836  48.425  1.00  0.00     0.000 C 
BRANCH   7   8
ATOM      8  C   UNL     1      31.002   6.269  47.360  1.00  0.00     0.000 C 
BRANCH   8   9
ATOM      9  C   UNL     1      32.448   5.902  47.736  1.00  0.00     0.000 C 
BRANCH   9  10
ATOM     10  C   UNL     1      33.489   6.796  47.042  1.00  0.00     0.000 C 
BRANCH  10  11
ATOM     11  C   UNL     1      33.811   6.354  45.599  1.00  0.00     0.000 C 
BRANCH  11  12
ATOM     12  C   UNL     1      33.716   7.518  44.598  1.00  0.00     0.000 C 
BRANCH  12  13
ATOM     13  C   UNL     1      34.579   8.729  44.995  1.00  0.00     0.006 C 
BRANCH  13  14
ATOM     14  C   UNL     1      34.574   9.868  43.961  1.00  0.00     0.053 C 
BRANCH  14  15
ATOM     15  C   UNL     1      34.649  11.225  44.593  1.00  0.00     0.041 C 
ATOM     16  O   UNL     1      35.099  11.359  45.762  1.00  0.00    -0.550 OA
ATOM     17  O   UNL     1      34.256  12.348  43.876  1.00  0.00    -0.550 OA
ENDBRANCH  14  15
ENDBRANCH  13  14
ENDBRANCH  12  13
ENDBRANCH  11  12
ENDBRANCH  10  11
ENDBRANCH   9  10
ENDBRANCH   8   9
ENDBRANCH   7   8
ENDBRANCH   6   7
ENDBRANCH   5   6
ENDBRANCH   4   5
ENDBRANCH   3   4
ENDBRANCH   2   3
ENDBRANCH   1   2
BRANCH   1  18
ATOM     18  C   UNL     1      35.436   9.895  49.689  1.00  0.00     0.000 C 
BRANCH  18  19
ATOM     19  C   UNL     1      35.568  11.398  49.984  1.00  0.00     0.000 C 
BRANCH  19  20
ATOM     20  C   UNL     1      36.515  12.114  49.008  1.00  0.00     0.000 C 
BRANCH  20  21
ATOM     21  C   UNL     1      37.581  11.179  48.417  1.00  0.00     0.000 C 
BRANCH  21  22
ATOM     22  C   UNL     1      38.578  11.964  47.551  1.00  0.00     0.000 C 
BRANCH  22  23
ATOM     23  C   UNL     1      38.202  13.449  47.413  1.00  0.00     0.000 C 
BRANCH  23  24
ATOM     24  C   UNL     1      37.869  13.843  45.966  1.00  0.00    -0.000 C 
BRANCH  24  25
ATOM     25  C   UNL     1      36.437  14.388  45.860  1.00  0.00    -0.000 C 
BRANCH  25  26
ATOM     26  C   UNL     1      36.374  15.759  45.164  1.00  0.00    -0.000 C 
BRANCH  26  27
ATOM     27  C   UNL     1      37.690  16.546  45.289  1.00  0.00    -0.000 C 
BRANCH  27  28
ATOM     28  C   UNL     1      37.697  17.498  46.495  1.00  0.00    -0.000 C 
BRANCH  28  29
ATOM     29  C   UNL     1      36.335  18.169  46.731  1.00  0.00    -0.000 C 
BRANCH  29  30
ATOM     30  C   UNL     1      35.895  18.015  48.196  1.00  0.00    -0.000 C 
BRANCH  30  31
ATOM     31  C   UNL     1      34.623  17.168  48.345  1.00  0.00    -0.003 C 
ATOM     32  C   UNL     1      34.911  15.749  48.835  1.00  0.00     0.004 C 
ENDBRANCH  30  31
ENDBRANCH  29  30
ENDBRANCH  28  29
ENDBRANCH  27  28
ENDBRANCH  26  27
ENDBRANCH  25  26
ENDBRANCH  24  25
ENDBRANCH  23  24
ENDBRANCH  22  23
ENDBRANCH  21  22
ENDBRANCH  20  21
ENDBRANCH  19  20
ENDBRANCH  18  19
ENDBRANCH   1  18
TORSDOF 28
ENDMDL
MODEL 8
REMARK VINA RESULT:    -2.406      3.625      8.957
REMARK INTER + INTRA:         -10.328
REMARK INTER:                  -6.013
REMARK INTRA:                  -4.316
REMARK UNBOUND:                -3.983
REMARK SMILES CCCCCCCCCCCCCCCCCCCCCCCCCCCCCC(=O)[O-]
REMARK SMILES IDX 16 1 17 2 18 3 19 4 20 5 21 6 22 7 23 8 24 9 25 10 26 11
REMARK SMILES IDX 27 12 28 13 29 14 30 15 31 16 32 17 15 18 14 19 13 20 12 21
REMARK SMILES IDX 11 22 10 23 9 24 8 25 7 26 6 27 5 28 4 29 3 30 2 31 1 32
REMARK H PARENT
REMARK Flexibility Score: inf
ROOT
ATOM      1  C   UNL     1      34.244  11.182  44.126  1.00  0.00     0.000 C 
ENDROOT
BRANCH   1   2
ATOM      2  C   UNL     1      34.845  10.194  45.144  1.00  0.00     0.000 C 
BRANCH   2   3
ATOM      3  C   UNL     1      33.911   9.916  46.335  1.00  0.00     0.000 C 
BRANCH   3   4
ATOM      4  C   UNL     1      34.654   9.927  47.683  1.00  0.00     0.000 C 
BRANCH   4   5
ATOM      5  C   UNL     1      34.294  11.150  48.543  1.00  0.00     0.000 C 
BRANCH   5   6
ATOM      6  C   UNL     1      33.986  10.775  50.002  1.00  0.00     0.000 C 
BRANCH   6   7
ATOM      7  C   UNL     1      33.283   9.411  50.125  1.00  0.00     0.000 C 
BRANCH   7   8
ATOM      8  C   UNL     1      31.764   9.511  49.920  1.00  0.00     0.000 C 
BRANCH   8   9
ATOM      9  C   UNL     1      31.280   8.744  48.678  1.00  0.00     0.000 C 
BRANCH   9  10
ATOM     10  C   UNL     1      30.149   7.749  48.995  1.00  0.00     0.000 C 
BRANCH  10  11
ATOM     11  C   UNL     1      30.481   6.297  48.595  1.00  0.00     0.000 C 
BRANCH  11  12
ATOM     12  C   UNL     1      31.574   6.226  47.513  1.00  0.00     0.000 C 
BRANCH  12  13
ATOM     13  C   UNL     1      32.715   5.258  47.870  1.00  0.00     0.006 C 
BRANCH  13  14
ATOM     14  C   UNL     1      33.949   5.943  48.484  1.00  0.00     0.053 C 
BRANCH  14  15
ATOM     15  C   UNL     1      35.197   5.125  48.340  1.00  0.00     0.041 C 
ATOM     16  O   UNL     1      35.814   4.720  49.361  1.00  0.00    -0.550 OA
ATOM     17  O   UNL     1      35.659   4.781  47.076  1.00  0.00    -0.550 OA
ENDBRANCH  14  15
ENDBRANCH  13  14
ENDBRANCH  12  13
ENDBRANCH  11  12
ENDBRANCH  10  11
ENDBRANCH   9  10
ENDBRANCH   8   9
ENDBRANCH   7   8
ENDBRANCH   6   7
ENDBRANCH   5   6
ENDBRANCH   4   5
ENDBRANCH   3   4
ENDBRANCH   2   3
ENDBRANCH   1   2
BRANCH   1  18
ATOM     18  C   UNL     1      34.695  12.645  44.284  1.00  0.00     0.000 C 
BRANCH  18  19
ATOM     19  C   UNL     1      35.368  12.924  45.639  1.00  0.00     0.000 C 
BRANCH  19  20
ATOM     20  C   UNL     1      36.401  14.060  45.565  1.00  0.00     0.000 C 
BRANCH  20  21
ATOM     21  C   UNL     1      37.742  13.690  46.216  1.00  0.00     0.000 C 
BRANCH  21  22
ATOM     22  C   UNL     1      37.709  12.254  46.761  1.00  0.00     0.000 C 
BRANCH  22  23
ATOM     23  C   UNL     1      37.931  12.192  48.281  1.00  0.00     0.000 C 
BRANCH  23  24
ATOM     24  C   UNL     1      37.966  13.583  48.932  1.00  0.00    -0.000 C 
BRANCH  24  25
ATOM     25  C   UNL     1      36.729  13.809  49.815  1.00  0.00    -0.000 C 
BRANCH  25  26
ATOM     26  C   UNL     1      36.104  15.201  49.616  1.00  0.00    -0.000 C 
BRANCH  26  27
ATOM     27  C   UNL     1      34.885  15.173  48.677  1.00  0.00    -0.000 C 
BRANCH  27  28
ATOM     28  C   UNL     1      34.759  16.452  47.835  1.00  0.00    -0.000 C 
BRANCH  28  29
ATOM     29  C   UNL     1      34.422  17.690  48.680  1.00  0.00    -0.000 C 
BRANCH  29  30
ATOM     30  C   UNL     1      33.211  17.421  49.587  1.00  0.00    -0.000 C 
BRANCH  30  31
ATOM     31  C   UNL     1      31.873  17.605  48.856  1.00  0.00    -0.003 C 
ATOM     32  C   UNL     1      30.746  16.771  49.465  1.00  0.00     0.004 C 
ENDBRANCH  30  31
ENDBRANCH  29  30
ENDBRANCH  28  29
ENDBRANCH  27  28
ENDBRANCH  26  27
ENDBRANCH  25  26
ENDBRANCH  24  25
ENDBRANCH  23  24
ENDBRANCH  22  23
ENDBRANCH  21  22
ENDBRANCH  20  21
ENDBRANCH  19  20
ENDBRANCH  18  19
ENDBRANCH   1  18
TORSDOF 28
ENDMDL
