MODEL 1
REMARK VINA RESULT:    -4.347      0.000      0.000
REMARK INTER + INTRA:          -4.474
REMARK INTER:                  -4.474
REMARK INTRA:                   0.000
REMARK UNBOUND:                 0.000
REMARK SMILES O=c1ccc2ccc(O)cc2o1
REMARK SMILES IDX 6 1 7 2 8 3 10 4 11 5 5 6 4 7 3 8 2 9 1 10 12 11 9 12
REMARK H PARENT 9 13
REMARK Flexibility Score: inf
ROOT
ATOM      1  C   UNL     1      14.754  17.585  31.353  1.00  0.00     0.016 A 
ATOM      2  C   UNL     1      16.085  17.415  30.953  1.00  0.00     0.047 A 
ATOM      3  C   UNL     1      16.430  16.387  30.063  1.00  0.00     0.119 A 
ATOM      4  C   UNL     1      15.440  15.528  29.569  1.00  0.00     0.094 A 
ATOM      5  C   UNL     1      14.107  15.691  29.963  1.00  0.00     0.142 A 
ATOM      6  C   UNL     1      13.762  16.727  30.860  1.00  0.00     0.018 A 
ATOM      7  C   UNL     1      12.423  16.864  31.235  1.00  0.00     0.019 A 
ATOM      8  C   UNL     1      11.473  15.983  30.717  1.00  0.00     0.094 A 
ATOM      9  C   UNL     1      11.888  14.982  29.833  1.00  0.00     0.336 A 
ATOM     10  O   UNL     1      11.046  14.178  29.354  1.00  0.00    -0.246 OA
ATOM     11  O   UNL     1      13.170  14.872  29.492  1.00  0.00    -0.423 OA
ENDROOT
BRANCH   3  12
ATOM     12  O   UNL     1      17.752  16.212  29.661  1.00  0.00    -0.508 OA
ATOM     13  H   UNL     1      18.070  16.506  28.744  1.00  0.00     0.293 HD
ENDBRANCH   3  12
TORSDOF 1
ENDMDL
MODEL 2
REMARK VINA RESULT:    -4.326      1.496      4.615
REMARK INTER + INTRA:          -4.453
REMARK INTER:                  -4.453
REMARK INTRA:                   0.000
REMARK UNBOUND:                 0.000
REMARK SMILES O=c1ccc2ccc(O)cc2o1
REMARK SMILES IDX 6 1 7 2 8 3 10 4 11 5 5 6 4 7 3 8 2 9 1 10 12 11 9 12
REMARK H PARENT 9 13
REMARK Flexibility Score: inf
ROOT
ATOM      1  C   UNL     1      14.106  16.768  31.621  1.00  0.00     0.016 A 
ATOM      2  C   UNL     1      13.528  15.810  30.781  1.00  0.00     0.047 A 
ATOM      3  C   UNL     1      14.128  15.489  29.554  1.00  0.00     0.119 A 
ATOM      4  C   UNL     1      15.311  16.130  29.167  1.00  0.00     0.094 A 
ATOM      5  C   UNL     1      15.897  17.089  30.000  1.00  0.00     0.142 A 
ATOM      6  C   UNL     1      15.292  17.410  31.235  1.00  0.00     0.018 A 
ATOM      7  C   UNL     1      15.900  18.373  32.046  1.00  0.00     0.019 A 
ATOM      8  C   UNL     1      17.078  18.983  31.616  1.00  0.00     0.094 A 
ATOM      9  C   UNL     1      17.621  18.615  30.381  1.00  0.00     0.336 A 
ATOM     10  O   UNL     1      18.684  19.154  29.976  1.00  0.00    -0.246 OA
ATOM     11  O   UNL     1      17.022  17.696  29.628  1.00  0.00    -0.423 OA
ENDROOT
BRANCH   3  12
ATOM     12  O   UNL     1      13.557  14.536  28.714  1.00  0.00    -0.508 OA
ATOM     13  H   UNL     1      14.005  14.260  27.847  1.00  0.00     0.293 HD
ENDBRANCH   3  12
TORSDOF 1
ENDMDL
MODEL 3
REMARK VINA RESULT:    -4.268      2.288      2.873
REMARK INTER + INTRA:          -4.393
REMARK INTER:                  -4.393
REMARK INTRA:                   0.000
REMARK UNBOUND:                 0.000
REMARK SMILES O=c1ccc2ccc(O)cc2o1
REMARK SMILES IDX 6 1 7 2 8 3 10 4 11 5 5 6 4 7 3 8 2 9 1 10 12 11 9 12
REMARK H PARENT 9 13
REMARK Flexibility Score: inf
ROOT
ATOM      1  C   UNL     1      16.274  18.063  31.885  1.00  0.00     0.016 A 
ATOM      2  C   UNL     1      16.554  17.998  30.516  1.00  0.00     0.047 A 
ATOM      3  C   UNL     1      15.624  17.438  29.628  1.00  0.00     0.119 A 
ATOM      4  C   UNL     1      14.407  16.942  30.113  1.00  0.00     0.094 A 
ATOM      5  C   UNL     1      14.118  17.002  31.480  1.00  0.00     0.142 A 
ATOM      6  C   UNL     1      15.056  17.567  32.373  1.00  0.00     0.018 A 
ATOM      7  C   UNL     1      14.739  17.612  33.733  1.00  0.00     0.019 A 
ATOM      8  C   UNL     1      13.515  17.104  34.167  1.00  0.00     0.094 A 
ATOM      9  C   UNL     1      12.634  16.560  33.227  1.00  0.00     0.336 A 
ATOM     10  O   UNL     1      11.525  16.098  33.599  1.00  0.00    -0.246 OA
ATOM     11  O   UNL     1      12.961  16.529  31.937  1.00  0.00    -0.423 OA
ENDROOT
BRANCH   3  12
ATOM     12  O   UNL     1      15.896  17.371  28.264  1.00  0.00    -0.508 OA
ATOM     13  H   UNL     1      15.184  17.574  27.571  1.00  0.00     0.293 HD
ENDBRANCH   3  12
TORSDOF 1
ENDMDL
MODEL 4
REMARK VINA RESULT:    -4.266      1.334      1.515
REMARK INTER + INTRA:          -4.390
REMARK INTER:                  -4.390
REMARK INTRA:                   0.000
REMARK UNBOUND:                 0.000
REMARK SMILES O=c1ccc2ccc(O)cc2o1
REMARK SMILES IDX 6 1 7 2 8 3 10 4 11 5 5 6 4 7 3 8 2 9 1 10 12 11 9 12
REMARK H PARENT 9 13
REMARK Flexibility Score: inf
ROOT
ATOM      1  C   UNL     1      15.510  17.663  32.209  1.00  0.00     0.016 A 
ATOM      2  C   UNL     1      16.456  17.837  31.192  1.00  0.00     0.047 A 
ATOM      3  C   UNL     1      16.166  17.438  29.879  1.00  0.00     0.119 A 
ATOM      4  C   UNL     1      14.923  16.864  29.582  1.00  0.00     0.094 A 
ATOM      5  C   UNL     1      13.971  16.686  30.592  1.00  0.00     0.142 A 
ATOM      6  C   UNL     1      14.265  17.089  31.913  1.00  0.00     0.018 A 
ATOM      7  C   UNL     1      13.295  16.899  32.900  1.00  0.00     0.019 A 
ATOM      8  C   UNL     1      12.072  16.322  32.555  1.00  0.00     0.094 A 
ATOM      9  C   UNL     1      11.850  15.948  31.227  1.00  0.00     0.336 A 
ATOM     10  O   UNL     1      10.753  15.427  30.895  1.00  0.00    -0.246 OA
ATOM     11  O   UNL     1      12.792  16.140  30.305  1.00  0.00    -0.423 OA
ENDROOT
BRANCH   3  12
ATOM     12  O   UNL     1      17.103  17.608  28.863  1.00  0.00    -0.508 OA
ATOM     13  H   UNL     1      17.963  17.072  28.841  1.00  0.00     0.293 HD
ENDBRANCH   3  12
TORSDOF 1
ENDMDL
MODEL 5
REMARK VINA RESULT:    -4.245      2.870      4.653
REMARK INTER + INTRA:          -4.369
REMARK INTER:                  -4.369
REMARK INTRA:                   0.000
REMARK UNBOUND:                 0.000
REMARK SMILES O=c1ccc2ccc(O)cc2o1
REMARK SMILES IDX 6 1 7 2 8 3 10 4 11 5 5 6 4 7 3 8 2 9 1 10 12 11 9 12
REMARK H PARENT 9 13
REMARK Flexibility Score: inf
ROOT
ATOM      1  C   UNL     1      13.986  16.525  31.363  1.00  0.00     0.016 A 
ATOM      2  C   UNL     1      14.406  16.554  30.029  1.00  0.00     0.047 A 
ATOM      3  C   UNL     1      15.504  17.340  29.649  1.00  0.00     0.119 A 
ATOM      4  C   UNL     1      16.185  18.098  30.609  1.00  0.00     0.094 A 
ATOM      5  C   UNL     1      15.772  18.076  31.946  1.00  0.00     0.142 A 
ATOM      6  C   UNL     1      14.667  17.284  32.326  1.00  0.00     0.018 A 
ATOM      7  C   UNL     1      14.278  17.282  33.668  1.00  0.00     0.019 A 
ATOM      8  C   UNL     1      14.988  18.055  34.587  1.00  0.00     0.094 A 
ATOM      9  C   UNL     1      16.073  18.814  34.139  1.00  0.00     0.336 A 
ATOM     10  O   UNL     1      16.726  19.518  34.953  1.00  0.00    -0.246 OA
ATOM     11  O   UNL     1      16.422  18.799  32.855  1.00  0.00    -0.423 OA
ENDROOT
BRANCH   3  12
ATOM     12  O   UNL     1      15.927  17.373  28.323  1.00  0.00    -0.508 OA
ATOM     13  H   UNL     1      16.716  17.939  28.033  1.00  0.00     0.293 HD
ENDBRANCH   3  12
TORSDOF 1
ENDMDL
MODEL 6
REMARK VINA RESULT:    -4.116      2.278      2.957
REMARK INTER + INTRA:          -4.237
REMARK INTER:                  -4.237
REMARK INTRA:                   0.000
REMARK UNBOUND:                 0.000
REMARK SMILES O=c1ccc2ccc(O)cc2o1
REMARK SMILES IDX 6 1 7 2 8 3 10 4 11 5 5 6 4 7 3 8 2 9 1 10 12 11 9 12
REMARK H PARENT 9 13
REMARK Flexibility Score: inf
ROOT
ATOM      1  C   UNL     1      13.456  14.696  29.629  1.00  0.00     0.016 A 
ATOM      2  C   UNL     1      14.511  15.331  28.965  1.00  0.00     0.047 A 
ATOM      3  C   UNL     1      14.954  16.594  29.386  1.00  0.00     0.119 A 
ATOM      4  C   UNL     1      14.340  17.222  30.477  1.00  0.00     0.094 A 
ATOM      5  C   UNL     1      13.284  16.594  31.147  1.00  0.00     0.142 A 
ATOM      6  C   UNL     1      12.840  15.322  30.721  1.00  0.00     0.018 A 
ATOM      7  C   UNL     1      11.783  14.720  31.409  1.00  0.00     0.019 A 
ATOM      8  C   UNL     1      11.203  15.385  32.489  1.00  0.00     0.094 A 
ATOM      9  C   UNL     1      11.695  16.642  32.856  1.00  0.00     0.336 A 
ATOM     10  O   UNL     1      11.185  17.258  33.827  1.00  0.00    -0.246 OA
ATOM     11  O   UNL     1      12.702  17.194  32.182  1.00  0.00    -0.423 OA
ENDROOT
BRANCH   3  12
ATOM     12  O   UNL     1      16.004  17.232  28.730  1.00  0.00    -0.508 OA
ATOM     13  H   UNL     1      15.835  17.898  27.985  1.00  0.00     0.293 HD
ENDBRANCH   3  12
TORSDOF 1
ENDMDL
MODEL 7
REMARK VINA RESULT:    -4.029      1.611      4.746
REMARK INTER + INTRA:          -4.147
REMARK INTER:                  -4.147
REMARK INTRA:                   0.000
REMARK UNBOUND:                 0.000
REMARK SMILES O=c1ccc2ccc(O)cc2o1
REMARK SMILES IDX 6 1 7 2 8 3 10 4 11 5 5 6 4 7 3 8 2 9 1 10 12 11 9 12
REMARK H PARENT 9 13
REMARK Flexibility Score: inf
ROOT
ATOM      1  C   UNL     1      13.108  14.674  29.309  1.00  0.00     0.016 A 
ATOM      2  C   UNL     1      11.815  14.586  29.836  1.00  0.00     0.047 A 
ATOM      3  C   UNL     1      11.391  15.485  30.825  1.00  0.00     0.119 A 
ATOM      4  C   UNL     1      12.263  16.478  31.287  1.00  0.00     0.094 A 
ATOM      5  C   UNL     1      13.558  16.575  30.767  1.00  0.00     0.142 A 
ATOM      6  C   UNL     1      13.984  15.668  29.770  1.00  0.00     0.018 A 
ATOM      7  C   UNL     1      15.283  15.789  29.269  1.00  0.00     0.019 A 
ATOM      8  C   UNL     1      16.115  16.794  29.762  1.00  0.00     0.094 A 
ATOM      9  C   UNL     1      15.626  17.656  30.748  1.00  0.00     0.336 A 
ATOM     10  O   UNL     1      16.362  18.570  31.205  1.00  0.00    -0.246 OA
ATOM     11  O   UNL     1      14.385  17.519  31.209  1.00  0.00    -0.423 OA
ENDROOT
BRANCH   3  12
ATOM     12  O   UNL     1      10.105  15.403  31.354  1.00  0.00    -0.508 OA
ATOM     13  H   UNL     1       9.671  16.195  31.815  1.00  0.00     0.293 HD
ENDBRANCH   3  12
TORSDOF 1
ENDMDL
MODEL 8
REMARK VINA RESULT:    -4.022      1.735      2.683
REMARK INTER + INTRA:          -4.139
REMARK INTER:                  -4.139
REMARK INTRA:                   0.000
REMARK UNBOUND:                 0.000
REMARK SMILES O=c1ccc2ccc(O)cc2o1
REMARK SMILES IDX 6 1 7 2 8 3 10 4 11 5 5 6 4 7 3 8 2 9 1 10 12 11 9 12
REMARK H PARENT 9 13
REMARK Flexibility Score: inf
ROOT
ATOM      1  C   UNL     1      14.027  15.092  29.167  1.00  0.00     0.016 A 
ATOM      2  C   UNL     1      14.938  16.067  29.590  1.00  0.00     0.047 A 
ATOM      3  C   UNL     1      14.575  16.992  30.580  1.00  0.00     0.119 A 
ATOM      4  C   UNL     1      13.297  16.940  31.150  1.00  0.00     0.094 A 
ATOM      5  C   UNL     1      12.380  15.970  30.733  1.00  0.00     0.142 A 
ATOM      6  C   UNL     1      12.747  15.039  29.736  1.00  0.00     0.018 A 
ATOM      7  C   UNL     1      11.810  14.081  29.341  1.00  0.00     0.019 A 
ATOM      8  C   UNL     1      10.549  14.070  29.937  1.00  0.00     0.094 A 
ATOM      9  C   UNL     1      10.255  15.022  30.919  1.00  0.00     0.336 A 
ATOM     10  O   UNL     1       9.123  15.029  31.469  1.00  0.00    -0.246 OA
ATOM     11  O   UNL     1      11.166  15.924  31.277  1.00  0.00    -0.423 OA
ENDROOT
BRANCH   3  12
ATOM     12  O   UNL     1      15.477  17.965  31.006  1.00  0.00    -0.508 OA
ATOM     13  H   UNL     1      16.464  17.904  30.784  1.00  0.00     0.293 HD
ENDBRANCH   3  12
TORSDOF 1
ENDMDL
MODEL 9
REMARK VINA RESULT:    -4.000      2.557      4.920
REMARK INTER + INTRA:          -4.117
REMARK INTER:                  -4.117
REMARK INTRA:                   0.000
REMARK UNBOUND:                 0.000
REMARK SMILES O=c1ccc2ccc(O)cc2o1
REMARK SMILES IDX 6 1 7 2 8 3 10 4 11 5 5 6 4 7 3 8 2 9 1 10 12 11 9 12
REMARK H PARENT 9 13
REMARK Flexibility Score: inf
ROOT
ATOM      1  C   UNL     1      12.697  16.877  30.854  1.00  0.00     0.016 A 
ATOM      2  C   UNL     1      11.940  16.678  32.013  1.00  0.00     0.047 A 
ATOM      3  C   UNL     1      12.548  16.741  33.276  1.00  0.00     0.119 A 
ATOM      4  C   UNL     1      13.919  17.006  33.378  1.00  0.00     0.094 A 
ATOM      5  C   UNL     1      14.685  17.207  32.224  1.00  0.00     0.142 A 
ATOM      6  C   UNL     1      14.070  17.143  30.954  1.00  0.00     0.018 A 
ATOM      7  C   UNL     1      14.860  17.348  29.819  1.00  0.00     0.019 A 
ATOM      8  C   UNL     1      16.222  17.608  29.972  1.00  0.00     0.094 A 
ATOM      9  C   UNL     1      16.763  17.657  31.261  1.00  0.00     0.336 A 
ATOM     10  O   UNL     1      17.989  17.891  31.420  1.00  0.00    -0.246 OA
ATOM     11  O   UNL     1      15.988  17.458  32.325  1.00  0.00    -0.423 OA
ENDROOT
BRANCH   3  12
ATOM     12  O   UNL     1      11.800  16.544  34.434  1.00  0.00    -0.508 OA
ATOM     13  H   UNL     1      10.832  16.839  34.495  1.00  0.00     0.293 HD
ENDBRANCH   3  12
TORSDOF 1
ENDMDL
