MODEL 1
REMARK VINA RESULT:    -5.056      0.000      0.000
REMARK INTER + INTRA:         -11.871
REMARK INTER:                  -9.786
REMARK INTRA:                  -2.086
REMARK UNBOUND:                -2.086
REMARK SMILES CCCCCCCCCCCCCCCCCC(=O)[O-]
REMARK SMILES IDX 10 1 11 2 12 3 13 4 14 5 15 6 16 7 17 8 18 9 19 10 20 11
REMARK SMILES IDX 9 12 8 13 7 14 6 15 5 16 4 17 3 18 2 19 1 20
REMARK H PARENT
REMARK Flexibility Score: inf
ROOT
ATOM      1  C   UNL     1      17.142 -45.611 -23.168  1.00  0.00     0.000 C 
ENDROOT
BRANCH   1   2
ATOM      2  C   UNL     1      17.982 -46.329 -24.235  1.00  0.00     0.000 C 
BRANCH   2   3
ATOM      3  C   UNL     1      19.088 -45.435 -24.819  1.00  0.00     0.000 C 
BRANCH   3   4
ATOM      4  C   UNL     1      18.716 -44.849 -26.189  1.00  0.00     0.000 C 
BRANCH   4   5
ATOM      5  C   UNL     1      17.755 -45.781 -26.944  1.00  0.00     0.000 C 
BRANCH   5   6
ATOM      6  C   UNL     1      17.614 -45.394 -28.431  1.00  0.00     0.000 C 
BRANCH   6   7
ATOM      7  C   UNL     1      17.758 -46.584 -29.395  1.00  0.00     0.006 C 
BRANCH   7   8
ATOM      8  C   UNL     1      19.010 -46.493 -30.274  1.00  0.00     0.053 C 
BRANCH   8   9
ATOM      9  C   UNL     1      19.033 -47.610 -31.268  1.00  0.00     0.041 C 
ATOM     10  O   UNL     1      18.497 -48.716 -30.993  1.00  0.00    -0.550 OA
ATOM     11  O   UNL     1      19.688 -47.447 -32.482  1.00  0.00    -0.550 OA
ENDBRANCH   8   9
ENDBRANCH   7   8
ENDBRANCH   6   7
ENDBRANCH   5   6
ENDBRANCH   4   5
ENDBRANCH   3   4
ENDBRANCH   2   3
ENDBRANCH   1   2
BRANCH   1  12
ATOM     12  C   UNL     1      17.948 -45.416 -21.874  1.00  0.00     0.000 C 
BRANCH  12  13
ATOM     13  C   UNL     1      17.991 -43.948 -21.420  1.00  0.00    -0.000 C 
BRANCH  13  14
ATOM     14  C   UNL     1      19.425 -43.391 -21.350  1.00  0.00    -0.000 C 
BRANCH  14  15
ATOM     15  C   UNL     1      19.572 -42.045 -22.076  1.00  0.00    -0.000 C 
BRANCH  15  16
ATOM     16  C   UNL     1      19.645 -42.203 -23.603  1.00  0.00    -0.000 C 
BRANCH  16  17
ATOM     17  C   UNL     1      18.563 -41.360 -24.294  1.00  0.00    -0.000 C 
BRANCH  17  18
ATOM     18  C   UNL     1      17.182 -42.039 -24.290  1.00  0.00    -0.000 C 
BRANCH  18  19
ATOM     19  C   UNL     1      16.146 -41.398 -23.350  1.00  0.00    -0.003 C 
ATOM     20  C   UNL     1      14.917 -42.278 -23.124  1.00  0.00     0.004 C 
ENDBRANCH  18  19
ENDBRANCH  17  18
ENDBRANCH  16  17
ENDBRANCH  15  16
ENDBRANCH  14  15
ENDBRANCH  13  14
ENDBRANCH  12  13
ENDBRANCH   1  12
TORSDOF 16
ENDMDL
MODEL 2
REMARK VINA RESULT:    -5.048      3.671      6.924
REMARK INTER + INTRA:         -11.855
REMARK INTER:                  -9.869
REMARK INTRA:                  -1.986
REMARK UNBOUND:                -2.086
REMARK SMILES CCCCCCCCCCCCCCCCCC(=O)[O-]
REMARK SMILES IDX 10 1 11 2 12 3 13 4 14 5 15 6 16 7 17 8 18 9 19 10 20 11
REMARK SMILES IDX 9 12 8 13 7 14 6 15 5 16 4 17 3 18 2 19 1 20
REMARK H PARENT
REMARK Flexibility Score: inf
ROOT
ATOM      1  C   UNL     1      17.986 -45.056 -21.732  1.00  0.00     0.000 C 
ENDROOT
BRANCH   1   2
ATOM      2  C   UNL     1      19.374 -44.407 -21.637  1.00  0.00     0.000 C 
BRANCH   2   3
ATOM      3  C   UNL     1      19.306 -42.907 -21.308  1.00  0.00     0.000 C 
BRANCH   3   4
ATOM      4  C   UNL     1      20.065 -42.041 -22.324  1.00  0.00     0.000 C 
BRANCH   4   5
ATOM      5  C   UNL     1      19.936 -42.616 -23.743  1.00  0.00     0.000 C 
BRANCH   5   6
ATOM      6  C   UNL     1      19.140 -41.684 -24.681  1.00  0.00     0.000 C 
BRANCH   6   7
ATOM      7  C   UNL     1      17.777 -41.254 -24.112  1.00  0.00     0.006 C 
BRANCH   7   8
ATOM      8  C   UNL     1      16.775 -42.410 -24.022  1.00  0.00     0.053 C 
BRANCH   8   9
ATOM      9  C   UNL     1      15.712 -42.104 -23.015  1.00  0.00     0.041 C 
ATOM     10  O   UNL     1      16.027 -41.732 -21.855  1.00  0.00    -0.550 OA
ATOM     11  O   UNL     1      14.374 -42.276 -23.343  1.00  0.00    -0.550 OA
ENDBRANCH   8   9
ENDBRANCH   7   8
ENDBRANCH   6   7
ENDBRANCH   5   6
ENDBRANCH   4   5
ENDBRANCH   3   4
ENDBRANCH   2   3
ENDBRANCH   1   2
BRANCH   1  12
ATOM     12  C   UNL     1      18.103 -46.560 -22.028  1.00  0.00     0.000 C 
BRANCH  12  13
ATOM     13  C   UNL     1      18.430 -46.848 -23.501  1.00  0.00    -0.000 C 
BRANCH  13  14
ATOM     14  C   UNL     1      17.628 -45.961 -24.471  1.00  0.00    -0.000 C 
BRANCH  14  15
ATOM     15  C   UNL     1      18.503 -45.355 -25.579  1.00  0.00    -0.000 C 
BRANCH  15  16
ATOM     16  C   UNL     1      17.728 -45.132 -26.887  1.00  0.00    -0.000 C 
BRANCH  16  17
ATOM     17  C   UNL     1      18.235 -46.070 -27.992  1.00  0.00    -0.000 C 
BRANCH  17  18
ATOM     18  C   UNL     1      17.221 -46.250 -29.137  1.00  0.00    -0.000 C 
BRANCH  18  19
ATOM     19  C   UNL     1      17.206 -47.650 -29.775  1.00  0.00    -0.003 C 
ATOM     20  C   UNL     1      18.329 -47.856 -30.791  1.00  0.00     0.004 C 
ENDBRANCH  18  19
ENDBRANCH  17  18
ENDBRANCH  16  17
ENDBRANCH  15  16
ENDBRANCH  14  15
ENDBRANCH  13  14
ENDBRANCH  12  13
ENDBRANCH   1  12
TORSDOF 16
ENDMDL
MODEL 3
REMARK VINA RESULT:    -5.035      1.206      3.277
REMARK INTER + INTRA:         -11.830
REMARK INTER:                  -9.945
REMARK INTRA:                  -1.885
REMARK UNBOUND:                -2.086
REMARK SMILES CCCCCCCCCCCCCCCCCC(=O)[O-]
REMARK SMILES IDX 10 1 11 2 12 3 13 4 14 5 15 6 16 7 17 8 18 9 19 10 20 11
REMARK SMILES IDX 9 12 8 13 7 14 6 15 5 16 4 17 3 18 2 19 1 20
REMARK H PARENT
REMARK Flexibility Score: inf
ROOT
ATOM      1  C   UNL     1      19.929 -42.786 -24.353  1.00  0.00     0.000 C 
ENDROOT
BRANCH   1   2
ATOM      2  C   UNL     1      19.744 -44.022 -25.247  1.00  0.00     0.000 C 
BRANCH   2   3
ATOM      3  C   UNL     1      18.292 -44.203 -25.715  1.00  0.00     0.000 C 
BRANCH   3   4
ATOM      4  C   UNL     1      18.056 -45.552 -26.411  1.00  0.00     0.000 C 
BRANCH   4   5
ATOM      5  C   UNL     1      17.415 -45.355 -27.793  1.00  0.00     0.000 C 
BRANCH   5   6
ATOM      6  C   UNL     1      18.365 -45.761 -28.940  1.00  0.00     0.000 C 
BRANCH   6   7
ATOM      7  C   UNL     1      17.647 -46.422 -30.130  1.00  0.00     0.006 C 
BRANCH   7   8
ATOM      8  C   UNL     1      17.931 -47.923 -30.241  1.00  0.00     0.053 C 
BRANCH   8   9
ATOM      9  C   UNL     1      18.815 -48.204 -31.414  1.00  0.00     0.041 C 
ATOM     10  O   UNL     1      19.196 -47.264 -32.159  1.00  0.00    -0.550 OA
ATOM     11  O   UNL     1      19.180 -49.510 -31.713  1.00  0.00    -0.550 OA
ENDBRANCH   8   9
ENDBRANCH   7   8
ENDBRANCH   6   7
ENDBRANCH   5   6
ENDBRANCH   4   5
ENDBRANCH   3   4
ENDBRANCH   2   3
ENDBRANCH   1   2
BRANCH   1  12
ATOM     12  C   UNL     1      18.901 -41.699 -24.701  1.00  0.00     0.000 C 
BRANCH  12  13
ATOM     13  C   UNL     1      18.028 -41.304 -23.500  1.00  0.00    -0.000 C 
BRANCH  13  14
ATOM     14  C   UNL     1      16.545 -41.666 -23.702  1.00  0.00    -0.000 C 
BRANCH  14  15
ATOM     15  C   UNL     1      16.062 -42.747 -22.723  1.00  0.00    -0.000 C 
BRANCH  15  16
ATOM     16  C   UNL     1      17.136 -43.134 -21.694  1.00  0.00    -0.000 C 
BRANCH  16  17
ATOM     17  C   UNL     1      17.567 -44.597 -21.874  1.00  0.00    -0.000 C 
BRANCH  17  18
ATOM     18  C   UNL     1      16.645 -45.379 -22.826  1.00  0.00    -0.000 C 
BRANCH  18  19
ATOM     19  C   UNL     1      16.886 -46.899 -22.858  1.00  0.00    -0.003 C 
ATOM     20  C   UNL     1      16.140 -47.646 -21.753  1.00  0.00     0.004 C 
ENDBRANCH  18  19
ENDBRANCH  17  18
ENDBRANCH  16  17
ENDBRANCH  15  16
ENDBRANCH  14  15
ENDBRANCH  13  14
ENDBRANCH  12  13
ENDBRANCH   1  12
TORSDOF 16
ENDMDL
MODEL 4
REMARK VINA RESULT:    -5.027      1.321      2.508
REMARK INTER + INTRA:         -11.814
REMARK INTER:                  -9.400
REMARK INTRA:                  -2.414
REMARK UNBOUND:                -2.086
REMARK SMILES CCCCCCCCCCCCCCCCCC(=O)[O-]
REMARK SMILES IDX 10 1 11 2 12 3 13 4 14 5 15 6 16 7 17 8 18 9 19 10 20 11
REMARK SMILES IDX 9 12 8 13 7 14 6 15 5 16 4 17 3 18 2 19 1 20
REMARK H PARENT
REMARK Flexibility Score: inf
ROOT
ATOM      1  C   UNL     1      19.159 -45.375 -22.000  1.00  0.00     0.000 C 
ENDROOT
BRANCH   1   2
ATOM      2  C   UNL     1      17.648 -45.120 -21.898  1.00  0.00     0.000 C 
BRANCH   2   3
ATOM      3  C   UNL     1      16.895 -45.491 -23.186  1.00  0.00     0.000 C 
BRANCH   3   4
ATOM      4  C   UNL     1      17.826 -46.023 -24.286  1.00  0.00     0.000 C 
BRANCH   4   5
ATOM      5  C   UNL     1      17.795 -45.110 -25.521  1.00  0.00     0.000 C 
BRANCH   5   6
ATOM      6  C   UNL     1      18.237 -45.848 -26.803  1.00  0.00     0.000 C 
BRANCH   6   7
ATOM      7  C   UNL     1      17.495 -45.385 -28.069  1.00  0.00     0.006 C 
BRANCH   7   8
ATOM      8  C   UNL     1      17.303 -46.508 -29.093  1.00  0.00     0.053 C 
BRANCH   8   9
ATOM      9  C   UNL     1      18.524 -46.654 -29.944  1.00  0.00     0.041 C 
ATOM     10  O   UNL     1      19.338 -45.700 -30.053  1.00  0.00    -0.550 OA
ATOM     11  O   UNL     1      18.740 -47.827 -30.655  1.00  0.00    -0.550 OA
ENDBRANCH   8   9
ENDBRANCH   7   8
ENDBRANCH   6   7
ENDBRANCH   5   6
ENDBRANCH   4   5
ENDBRANCH   3   4
ENDBRANCH   2   3
ENDBRANCH   1   2
BRANCH   1  12
ATOM     12  C   UNL     1      19.951 -44.080 -21.766  1.00  0.00     0.000 C 
BRANCH  12  13
ATOM     13  C   UNL     1      20.197 -43.294 -23.064  1.00  0.00    -0.000 C 
BRANCH  13  14
ATOM     14  C   UNL     1      19.497 -41.924 -23.068  1.00  0.00    -0.000 C 
BRANCH  14  15
ATOM     15  C   UNL     1      18.673 -41.684 -24.344  1.00  0.00    -0.000 C 
BRANCH  15  16
ATOM     16  C   UNL     1      17.165 -41.874 -24.116  1.00  0.00    -0.000 C 
BRANCH  16  17
ATOM     17  C   UNL     1      16.705 -41.139 -22.849  1.00  0.00    -0.000 C 
BRANCH  17  18
ATOM     18  C   UNL     1      15.756 -41.982 -21.978  1.00  0.00    -0.000 C 
BRANCH  18  19
ATOM     19  C   UNL     1      15.831 -41.690 -20.469  1.00  0.00    -0.003 C 
ATOM     20  C   UNL     1      17.117 -42.204 -19.823  1.00  0.00     0.004 C 
ENDBRANCH  18  19
ENDBRANCH  17  18
ENDBRANCH  16  17
ENDBRANCH  15  16
ENDBRANCH  14  15
ENDBRANCH  13  14
ENDBRANCH  12  13
ENDBRANCH   1  12
TORSDOF 16
ENDMDL
MODEL 5
REMARK VINA RESULT:    -5.013      3.309      7.256
REMARK INTER + INTRA:         -11.788
REMARK INTER:                 -10.065
REMARK INTRA:                  -1.723
REMARK UNBOUND:                -2.086
REMARK SMILES CCCCCCCCCCCCCCCCCC(=O)[O-]
REMARK SMILES IDX 10 1 11 2 12 3 13 4 14 5 15 6 16 7 17 8 18 9 19 10 20 11
REMARK SMILES IDX 9 12 8 13 7 14 6 15 5 16 4 17 3 18 2 19 1 20
REMARK H PARENT
REMARK Flexibility Score: inf
ROOT
ATOM      1  C   UNL     1      20.085 -42.145 -24.781  1.00  0.00     0.000 C 
ENDROOT
BRANCH   1   2
ATOM      2  C   UNL     1      18.787 -41.325 -24.725  1.00  0.00     0.000 C 
BRANCH   2   3
ATOM      3  C   UNL     1      17.978 -41.583 -23.443  1.00  0.00     0.000 C 
BRANCH   3   4
ATOM      4  C   UNL     1      16.535 -42.022 -23.731  1.00  0.00     0.000 C 
BRANCH   4   5
ATOM      5  C   UNL     1      16.093 -43.130 -22.762  1.00  0.00     0.000 C 
BRANCH   5   6
ATOM      6  C   UNL     1      17.153 -43.413 -21.676  1.00  0.00     0.000 C 
BRANCH   6   7
ATOM      7  C   UNL     1      17.658 -44.867 -21.672  1.00  0.00     0.006 C 
BRANCH   7   8
ATOM      8  C   UNL     1      16.853 -45.781 -22.601  1.00  0.00     0.053 C 
BRANCH   8   9
ATOM      9  C   UNL     1      16.831 -47.179 -22.068  1.00  0.00     0.041 C 
ATOM     10  O   UNL     1      15.754 -47.684 -21.659  1.00  0.00    -0.550 OA
ATOM     11  O   UNL     1      18.010 -47.907 -21.979  1.00  0.00    -0.550 OA
ENDBRANCH   8   9
ENDBRANCH   7   8
ENDBRANCH   6   7
ENDBRANCH   5   6
ENDBRANCH   4   5
ENDBRANCH   3   4
ENDBRANCH   2   3
ENDBRANCH   1   2
BRANCH   1  12
ATOM     12  C   UNL     1      19.917 -43.487 -24.051  1.00  0.00     0.000 C 
BRANCH  12  13
ATOM     13  C   UNL     1      19.662 -44.657 -25.015  1.00  0.00    -0.000 C 
BRANCH  13  14
ATOM     14  C   UNL     1      18.337 -44.511 -25.785  1.00  0.00    -0.000 C 
BRANCH  14  15
ATOM     15  C   UNL     1      18.007 -45.748 -26.634  1.00  0.00    -0.000 C 
BRANCH  15  16
ATOM     16  C   UNL     1      17.642 -45.388 -28.083  1.00  0.00    -0.000 C 
BRANCH  16  17
ATOM     17  C   UNL     1      17.798 -46.606 -29.006  1.00  0.00    -0.000 C 
BRANCH  17  18
ATOM     18  C   UNL     1      18.867 -46.400 -30.094  1.00  0.00    -0.000 C 
BRANCH  18  19
ATOM     19  C   UNL     1      19.146 -47.633 -30.972  1.00  0.00    -0.003 C 
ATOM     20  C   UNL     1      19.215 -47.304 -32.463  1.00  0.00     0.004 C 
ENDBRANCH  18  19
ENDBRANCH  17  18
ENDBRANCH  16  17
ENDBRANCH  15  16
ENDBRANCH  14  15
ENDBRANCH  13  14
ENDBRANCH  12  13
ENDBRANCH   1  12
TORSDOF 16
ENDMDL
MODEL 6
REMARK VINA RESULT:    -4.997      3.383      7.765
REMARK INTER + INTRA:         -11.756
REMARK INTER:                  -9.897
REMARK INTRA:                  -1.859
REMARK UNBOUND:                -2.086
REMARK SMILES CCCCCCCCCCCCCCCCCC(=O)[O-]
REMARK SMILES IDX 10 1 11 2 12 3 13 4 14 5 15 6 16 7 17 8 18 9 19 10 20 11
REMARK SMILES IDX 9 12 8 13 7 14 6 15 5 16 4 17 3 18 2 19 1 20
REMARK H PARENT
REMARK Flexibility Score: inf
ROOT
ATOM      1  C   UNL     1      19.458 -44.922 -25.017  1.00  0.00     0.000 C 
ENDROOT
BRANCH   1   2
ATOM      2  C   UNL     1      19.356 -43.448 -25.435  1.00  0.00     0.000 C 
BRANCH   2   3
ATOM      3  C   UNL     1      19.139 -42.506 -24.239  1.00  0.00     0.000 C 
BRANCH   3   4
ATOM      4  C   UNL     1      17.737 -41.880 -24.224  1.00  0.00     0.000 C 
BRANCH   4   5
ATOM      5  C   UNL     1      17.012 -42.184 -22.904  1.00  0.00     0.000 C 
BRANCH   5   6
ATOM      6  C   UNL     1      15.807 -43.127 -23.103  1.00  0.00     0.000 C 
BRANCH   6   7
ATOM      7  C   UNL     1      16.180 -44.620 -23.068  1.00  0.00     0.006 C 
BRANCH   7   8
ATOM      8  C   UNL     1      17.261 -44.941 -22.032  1.00  0.00     0.053 C 
BRANCH   8   9
ATOM      9  C   UNL     1      17.429 -46.421 -21.893  1.00  0.00     0.041 C 
ATOM     10  O   UNL     1      16.426 -47.159 -21.711  1.00  0.00    -0.550 OA
ATOM     11  O   UNL     1      18.700 -46.982 -21.919  1.00  0.00    -0.550 OA
ENDBRANCH   8   9
ENDBRANCH   7   8
ENDBRANCH   6   7
ENDBRANCH   5   6
ENDBRANCH   4   5
ENDBRANCH   3   4
ENDBRANCH   2   3
ENDBRANCH   1   2
BRANCH   1  12
ATOM     12  C   UNL     1      18.415 -45.775 -25.756  1.00  0.00     0.000 C 
BRANCH  12  13
ATOM     13  C   UNL     1      17.657 -44.980 -26.831  1.00  0.00    -0.000 C 
BRANCH  13  14
ATOM     14  C   UNL     1      17.986 -45.452 -28.259  1.00  0.00    -0.000 C 
BRANCH  14  15
ATOM     15  C   UNL     1      17.757 -46.959 -28.451  1.00  0.00    -0.000 C 
BRANCH  15  16
ATOM     16  C   UNL     1      17.072 -47.286 -29.788  1.00  0.00    -0.000 C 
BRANCH  16  17
ATOM     17  C   UNL     1      17.702 -46.485 -30.937  1.00  0.00    -0.000 C 
BRANCH  17  18
ATOM     18  C   UNL     1      18.954 -47.163 -31.523  1.00  0.00    -0.000 C 
BRANCH  18  19
ATOM     19  C   UNL     1      18.949 -48.700 -31.459  1.00  0.00    -0.003 C 
ATOM     20  C   UNL     1      20.079 -49.336 -32.268  1.00  0.00     0.004 C 
ENDBRANCH  18  19
ENDBRANCH  17  18
ENDBRANCH  16  17
ENDBRANCH  15  16
ENDBRANCH  14  15
ENDBRANCH  13  14
ENDBRANCH  12  13
ENDBRANCH   1  12
TORSDOF 16
ENDMDL
MODEL 7
REMARK VINA RESULT:    -4.927      3.760      7.888
REMARK INTER + INTRA:         -11.622
REMARK INTER:                 -10.078
REMARK INTRA:                  -1.543
REMARK UNBOUND:                -2.086
REMARK SMILES CCCCCCCCCCCCCCCCCC(=O)[O-]
REMARK SMILES IDX 10 1 11 2 12 3 13 4 14 5 15 6 16 7 17 8 18 9 19 10 20 11
REMARK SMILES IDX 9 12 8 13 7 14 6 15 5 16 4 17 3 18 2 19 1 20
REMARK H PARENT
REMARK Flexibility Score: inf
ROOT
ATOM      1  C   UNL     1      18.387 -46.319 -23.388  1.00  0.00     0.000 C 
ENDROOT
BRANCH   1   2
ATOM      2  C   UNL     1      17.619 -46.029 -22.090  1.00  0.00     0.000 C 
BRANCH   2   3
ATOM      3  C   UNL     1      17.828 -44.592 -21.585  1.00  0.00     0.000 C 
BRANCH   3   4
ATOM      4  C   UNL     1      19.274 -44.105 -21.763  1.00  0.00     0.000 C 
BRANCH   4   5
ATOM      5  C   UNL     1      19.311 -42.618 -22.147  1.00  0.00     0.000 C 
BRANCH   5   6
ATOM      6  C   UNL     1      19.079 -42.399 -23.658  1.00  0.00     0.000 C 
BRANCH   6   7
ATOM      7  C   UNL     1      17.727 -41.741 -23.985  1.00  0.00     0.006 C 
BRANCH   7   8
ATOM      8  C   UNL     1      17.115 -41.006 -22.787  1.00  0.00     0.053 C 
BRANCH   8   9
ATOM      9  C   UNL     1      15.786 -41.594 -22.437  1.00  0.00     0.041 C 
ATOM     10  O   UNL     1      15.418 -41.661 -21.235  1.00  0.00    -0.550 OA
ATOM     11  O   UNL     1      14.971 -42.114 -23.435  1.00  0.00    -0.550 OA
ENDBRANCH   8   9
ENDBRANCH   7   8
ENDBRANCH   6   7
ENDBRANCH   5   6
ENDBRANCH   4   5
ENDBRANCH   3   4
ENDBRANCH   2   3
ENDBRANCH   1   2
BRANCH   1  12
ATOM     12  C   UNL     1      17.654 -45.727 -24.603  1.00  0.00     0.000 C 
BRANCH  12  13
ATOM     13  C   UNL     1      18.604 -45.410 -25.769  1.00  0.00    -0.000 C 
BRANCH  13  14
ATOM     14  C   UNL     1      17.853 -45.026 -27.057  1.00  0.00    -0.000 C 
BRANCH  14  15
ATOM     15  C   UNL     1      17.879 -46.144 -28.112  1.00  0.00    -0.000 C 
BRANCH  15  16
ATOM     16  C   UNL     1      17.301 -45.692 -29.463  1.00  0.00    -0.000 C 
BRANCH  16  17
ATOM     17  C   UNL     1      18.093 -46.303 -30.629  1.00  0.00    -0.000 C 
BRANCH  17  18
ATOM     18  C   UNL     1      18.209 -47.835 -30.536  1.00  0.00    -0.000 C 
BRANCH  18  19
ATOM     19  C   UNL     1      19.233 -48.467 -31.495  1.00  0.00    -0.003 C 
ATOM     20  C   UNL     1      19.532 -47.593 -32.712  1.00  0.00     0.004 C 
ENDBRANCH  18  19
ENDBRANCH  17  18
ENDBRANCH  16  17
ENDBRANCH  15  16
ENDBRANCH  14  15
ENDBRANCH  13  14
ENDBRANCH  12  13
ENDBRANCH   1  12
TORSDOF 16
ENDMDL
MODEL 8
REMARK VINA RESULT:    -4.926      3.032      7.900
REMARK INTER + INTRA:         -11.619
REMARK INTER:                  -9.998
REMARK INTRA:                  -1.622
REMARK UNBOUND:                -2.086
REMARK SMILES CCCCCCCCCCCCCCCCCC(=O)[O-]
REMARK SMILES IDX 10 1 11 2 12 3 13 4 14 5 15 6 16 7 17 8 18 9 19 10 20 11
REMARK SMILES IDX 9 12 8 13 7 14 6 15 5 16 4 17 3 18 2 19 1 20
REMARK H PARENT
REMARK Flexibility Score: inf
ROOT
ATOM      1  C   UNL     1      19.429 -43.441 -25.173  1.00  0.00     0.000 C 
ENDROOT
BRANCH   1   2
ATOM      2  C   UNL     1      19.366 -42.102 -24.423  1.00  0.00     0.000 C 
BRANCH   2   3
ATOM      3  C   UNL     1      17.940 -41.535 -24.340  1.00  0.00     0.000 C 
BRANCH   3   4
ATOM      4  C   UNL     1      17.496 -41.253 -22.898  1.00  0.00     0.000 C 
BRANCH   4   5
ATOM      5  C   UNL     1      18.298 -42.101 -21.898  1.00  0.00     0.000 C 
BRANCH   5   6
ATOM      6  C   UNL     1      17.423 -43.167 -21.204  1.00  0.00     0.000 C 
BRANCH   6   7
ATOM      7  C   UNL     1      17.733 -44.606 -21.650  1.00  0.00     0.006 C 
BRANCH   7   8
ATOM      8  C   UNL     1      19.236 -44.895 -21.733  1.00  0.00     0.053 C 
BRANCH   8   9
ATOM      9  C   UNL     1      19.476 -46.244 -22.334  1.00  0.00     0.041 C 
ATOM     10  O   UNL     1      20.178 -46.359 -23.372  1.00  0.00    -0.550 OA
ATOM     11  O   UNL     1      18.885 -47.369 -21.775  1.00  0.00    -0.550 OA
ENDBRANCH   8   9
ENDBRANCH   7   8
ENDBRANCH   6   7
ENDBRANCH   5   6
ENDBRANCH   4   5
ENDBRANCH   3   4
ENDBRANCH   2   3
ENDBRANCH   1   2
BRANCH   1  12
ATOM     12  C   UNL     1      18.034 -44.075 -25.283  1.00  0.00     0.000 C 
BRANCH  12  13
ATOM     13  C   UNL     1      18.044 -45.394 -26.072  1.00  0.00    -0.000 C 
BRANCH  13  14
ATOM     14  C   UNL     1      17.451 -45.243 -27.485  1.00  0.00    -0.000 C 
BRANCH  14  15
ATOM     15  C   UNL     1      18.186 -46.098 -28.529  1.00  0.00    -0.000 C 
BRANCH  15  16
ATOM     16  C   UNL     1      17.248 -46.621 -29.628  1.00  0.00    -0.000 C 
BRANCH  16  17
ATOM     17  C   UNL     1      17.817 -47.894 -30.274  1.00  0.00    -0.000 C 
BRANCH  17  18
ATOM     18  C   UNL     1      19.077 -47.626 -31.116  1.00  0.00    -0.000 C 
BRANCH  18  19
ATOM     19  C   UNL     1      19.702 -48.875 -31.763  1.00  0.00    -0.003 C 
ATOM     20  C   UNL     1      20.167 -48.635 -33.199  1.00  0.00     0.004 C 
ENDBRANCH  18  19
ENDBRANCH  17  18
ENDBRANCH  16  17
ENDBRANCH  15  16
ENDBRANCH  14  15
ENDBRANCH  13  14
ENDBRANCH  12  13
ENDBRANCH   1  12
TORSDOF 16
ENDMDL
MODEL 9
REMARK VINA RESULT:    -4.896      6.052      8.069
REMARK INTER + INTRA:         -11.561
REMARK INTER:                  -9.240
REMARK INTRA:                  -2.321
REMARK UNBOUND:                -2.086
REMARK SMILES CCCCCCCCCCCCCCCCCC(=O)[O-]
REMARK SMILES IDX 10 1 11 2 12 3 13 4 14 5 15 6 16 7 17 8 18 9 19 10 20 11
REMARK SMILES IDX 9 12 8 13 7 14 6 15 5 16 4 17 3 18 2 19 1 20
REMARK H PARENT
REMARK Flexibility Score: inf
ROOT
ATOM      1  C   UNL     1      16.862 -45.495 -22.082  1.00  0.00     0.000 C 
ENDROOT
BRANCH   1   2
ATOM      2  C   UNL     1      16.505 -44.739 -23.371  1.00  0.00     0.000 C 
BRANCH   2   3
ATOM      3  C   UNL     1      15.726 -43.441 -23.100  1.00  0.00     0.000 C 
BRANCH   3   4
ATOM      4  C   UNL     1      16.469 -42.190 -23.591  1.00  0.00     0.000 C 
BRANCH   4   5
ATOM      5  C   UNL     1      16.827 -41.266 -22.416  1.00  0.00     0.000 C 
BRANCH   5   6
ATOM      6  C   UNL     1      16.096 -41.664 -21.116  1.00  0.00     0.000 C 
BRANCH   6   7
ATOM      7  C   UNL     1      17.013 -42.324 -20.071  1.00  0.00     0.006 C 
BRANCH   7   8
ATOM      8  C   UNL     1      17.287 -41.422 -18.863  1.00  0.00     0.053 C 
BRANCH   8   9
ATOM      9  C   UNL     1      16.485 -41.872 -17.683  1.00  0.00     0.041 C 
ATOM     10  O   UNL     1      15.262 -42.137 -17.811  1.00  0.00    -0.550 OA
ATOM     11  O   UNL     1      17.079 -41.954 -16.430  1.00  0.00    -0.550 OA
ENDBRANCH   8   9
ENDBRANCH   7   8
ENDBRANCH   6   7
ENDBRANCH   5   6
ENDBRANCH   4   5
ENDBRANCH   3   4
ENDBRANCH   2   3
ENDBRANCH   1   2
BRANCH   1  12
ATOM     12  C   UNL     1      16.877 -47.013 -22.324  1.00  0.00     0.000 C 
BRANCH  12  13
ATOM     13  C   UNL     1      18.274 -47.627 -22.135  1.00  0.00    -0.000 C 
BRANCH  13  14
ATOM     14  C   UNL     1      19.402 -46.684 -22.591  1.00  0.00    -0.000 C 
BRANCH  14  15
ATOM     15  C   UNL     1      20.359 -46.311 -21.447  1.00  0.00    -0.000 C 
BRANCH  15  16
ATOM     16  C   UNL     1      20.973 -44.913 -21.625  1.00  0.00    -0.000 C 
BRANCH  16  17
ATOM     17  C   UNL     1      19.878 -43.838 -21.692  1.00  0.00    -0.000 C 
BRANCH  17  18
ATOM     18  C   UNL     1      20.217 -42.699 -22.670  1.00  0.00    -0.000 C 
BRANCH  18  19
ATOM     19  C   UNL     1      20.054 -43.052 -24.159  1.00  0.00    -0.003 C 
ATOM     20  C   UNL     1      19.834 -41.826 -25.044  1.00  0.00     0.004 C 
ENDBRANCH  18  19
ENDBRANCH  17  18
ENDBRANCH  16  17
ENDBRANCH  15  16
ENDBRANCH  14  15
ENDBRANCH  13  14
ENDBRANCH  12  13
ENDBRANCH   1  12
TORSDOF 16
ENDMDL
