MODEL 1
REMARK VINA RESULT:     1.232      0.000      0.000
REMARK INTER + INTRA:           4.409
REMARK INTER:                   3.248
REMARK INTRA:                   1.161
REMARK UNBOUND:                 1.161
REMARK SMILES CCCCCCCCCCCCCCCCCCCCCCCCCCCCCC(=O)[O-]
REMARK SMILES IDX 16 1 17 2 18 3 19 4 20 5 21 6 22 7 23 8 24 9 25 10 26 11
REMARK SMILES IDX 27 12 28 13 29 14 30 15 31 16 32 17 15 18 14 19 13 20 12 21
REMARK SMILES IDX 11 22 10 23 9 24 8 25 7 26 6 27 5 28 4 29 3 30 2 31 1 32
REMARK H PARENT
REMARK Flexibility Score: inf
ROOT
ATOM      1  C   UNL     1      34.686  28.793  17.264  1.00  0.00     0.000 C 
ENDROOT
BRANCH   1   2
ATOM      2  C   UNL     1      34.993  27.897  18.479  1.00  0.00     0.000 C 
BRANCH   2   3
ATOM      3  C   UNL     1      36.396  28.071  19.089  1.00  0.00     0.000 C 
BRANCH   3   4
ATOM      4  C   UNL     1      36.686  27.072  20.223  1.00  0.00     0.000 C 
BRANCH   4   5
ATOM      5  C   UNL     1      37.097  27.766  21.531  1.00  0.00     0.000 C 
BRANCH   5   6
ATOM      6  C   UNL     1      36.892  26.875  22.768  1.00  0.00     0.000 C 
BRANCH   6   7
ATOM      7  C   UNL     1      36.572  27.726  24.005  1.00  0.00     0.000 C 
BRANCH   7   8
ATOM      8  C   UNL     1      36.995  29.196  23.841  1.00  0.00     0.000 C 
BRANCH   8   9
ATOM      9  C   UNL     1      36.654  30.105  25.041  1.00  0.00     0.000 C 
BRANCH   9  10
ATOM     10  C   UNL     1      36.987  31.598  24.847  1.00  0.00     0.000 C 
BRANCH  10  11
ATOM     11  C   UNL     1      36.261  32.278  23.672  1.00  0.00     0.000 C 
BRANCH  11  12
ATOM     12  C   UNL     1      36.965  32.055  22.325  1.00  0.00     0.000 C 
BRANCH  12  13
ATOM     13  C   UNL     1      36.489  30.757  21.664  1.00  0.00     0.006 C 
BRANCH  13  14
ATOM     14  C   UNL     1      35.273  31.015  20.767  1.00  0.00     0.053 C 
BRANCH  14  15
ATOM     15  C   UNL     1      34.186  30.023  21.048  1.00  0.00     0.041 C 
ATOM     16  O   UNL     1      33.295  29.801  20.187  1.00  0.00    -0.550 OA
ATOM     17  O   UNL     1      34.162  29.337  22.257  1.00  0.00    -0.550 OA
ENDBRANCH  14  15
ENDBRANCH  13  14
ENDBRANCH  12  13
ENDBRANCH  11  12
ENDBRANCH  10  11
ENDBRANCH   9  10
ENDBRANCH   8   9
ENDBRANCH   7   8
ENDBRANCH   6   7
ENDBRANCH   5   6
ENDBRANCH   4   5
ENDBRANCH   3   4
ENDBRANCH   2   3
ENDBRANCH   1   2
BRANCH   1  18
ATOM     18  C   UNL     1      35.872  29.687  16.861  1.00  0.00     0.000 C 
BRANCH  18  19
ATOM     19  C   UNL     1      36.681  29.100  15.693  1.00  0.00     0.000 C 
BRANCH  19  20
ATOM     20  C   UNL     1      36.947  27.592  15.850  1.00  0.00     0.000 C 
BRANCH  20  21
ATOM     21  C   UNL     1      37.058  26.878  14.485  1.00  0.00     0.000 C 
BRANCH  21  22
ATOM     22  C   UNL     1      35.957  27.281  13.489  1.00  0.00     0.000 C 
BRANCH  22  23
ATOM     23  C   UNL     1      36.350  27.017  12.026  1.00  0.00     0.000 C 
BRANCH  23  24
ATOM     24  C   UNL     1      35.129  26.875  11.104  1.00  0.00    -0.000 C 
BRANCH  24  25
ATOM     25  C   UNL     1      33.806  27.165  11.834  1.00  0.00    -0.000 C 
BRANCH  25  26
ATOM     26  C   UNL     1      33.984  28.112  13.035  1.00  0.00    -0.000 C 
BRANCH  26  27
ATOM     27  C   UNL     1      32.672  28.569  13.709  1.00  0.00    -0.000 C 
BRANCH  27  28
ATOM     28  C   UNL     1      32.525  30.090  13.898  1.00  0.00    -0.000 C 
BRANCH  28  29
ATOM     29  C   UNL     1      32.645  30.872  12.579  1.00  0.00    -0.000 C 
BRANCH  29  30
ATOM     30  C   UNL     1      31.583  31.978  12.449  1.00  0.00    -0.000 C 
BRANCH  30  31
ATOM     31  C   UNL     1      30.134  31.446  12.444  1.00  0.00    -0.003 C 
ATOM     32  C   UNL     1      29.105  32.576  12.508  1.00  0.00     0.004 C 
ENDBRANCH  30  31
ENDBRANCH  29  30
ENDBRANCH  28  29
ENDBRANCH  27  28
ENDBRANCH  26  27
ENDBRANCH  25  26
ENDBRANCH  24  25
ENDBRANCH  23  24
ENDBRANCH  22  23
ENDBRANCH  21  22
ENDBRANCH  20  21
ENDBRANCH  19  20
ENDBRANCH  18  19
ENDBRANCH   1  18
TORSDOF 28
ENDMDL
MODEL 2
REMARK VINA RESULT:     2.338      2.721     10.421
REMARK INTER + INTRA:           7.326
REMARK INTER:                   8.709
REMARK INTRA:                  -1.383
REMARK UNBOUND:                 1.161
REMARK SMILES CCCCCCCCCCCCCCCCCCCCCCCCCCCCCC(=O)[O-]
REMARK SMILES IDX 16 1 17 2 18 3 19 4 20 5 21 6 22 7 23 8 24 9 25 10 26 11
REMARK SMILES IDX 27 12 28 13 29 14 30 15 31 16 32 17 15 18 14 19 13 20 12 21
REMARK SMILES IDX 11 22 10 23 9 24 8 25 7 26 6 27 5 28 4 29 3 30 2 31 1 32
REMARK H PARENT
REMARK Flexibility Score: inf
ROOT
ATOM      1  C   UNL     1      35.551  29.264  17.938  1.00  0.00     0.000 C 
ENDROOT
BRANCH   1   2
ATOM      2  C   UNL     1      34.962  27.952  17.387  1.00  0.00     0.000 C 
BRANCH   2   3
ATOM      3  C   UNL     1      34.435  28.020  15.942  1.00  0.00     0.000 C 
BRANCH   3   4
ATOM      4  C   UNL     1      35.394  28.749  14.986  1.00  0.00     0.000 C 
BRANCH   4   5
ATOM      5  C   UNL     1      36.569  27.864  14.538  1.00  0.00     0.000 C 
BRANCH   5   6
ATOM      6  C   UNL     1      36.181  26.879  13.423  1.00  0.00     0.000 C 
BRANCH   6   7
ATOM      7  C   UNL     1      36.182  27.577  12.055  1.00  0.00     0.000 C 
BRANCH   7   8
ATOM      8  C   UNL     1      35.055  27.082  11.133  1.00  0.00     0.000 C 
BRANCH   8   9
ATOM      9  C   UNL     1      33.788  27.963  11.129  1.00  0.00     0.000 C 
BRANCH   9  10
ATOM     10  C   UNL     1      33.425  28.594  12.488  1.00  0.00     0.000 C 
BRANCH  10  11
ATOM     11  C   UNL     1      31.939  28.490  12.876  1.00  0.00     0.000 C 
BRANCH  11  12
ATOM     12  C   UNL     1      31.649  29.038  14.282  1.00  0.00     0.000 C 
BRANCH  12  13
ATOM     13  C   UNL     1      30.477  30.025  14.256  1.00  0.00     0.006 C 
BRANCH  13  14
ATOM     14  C   UNL     1      30.256  30.576  12.844  1.00  0.00     0.053 C 
BRANCH  14  15
ATOM     15  C   UNL     1      30.699  32.004  12.755  1.00  0.00     0.041 C 
ATOM     16  O   UNL     1      31.897  32.279  12.485  1.00  0.00    -0.550 OA
ATOM     17  O   UNL     1      29.785  33.032  12.960  1.00  0.00    -0.550 OA
ENDBRANCH  14  15
ENDBRANCH  13  14
ENDBRANCH  12  13
ENDBRANCH  11  12
ENDBRANCH  10  11
ENDBRANCH   9  10
ENDBRANCH   8   9
ENDBRANCH   7   8
ENDBRANCH   6   7
ENDBRANCH   5   6
ENDBRANCH   4   5
ENDBRANCH   3   4
ENDBRANCH   2   3
ENDBRANCH   1   2
BRANCH   1  18
ATOM     18  C   UNL     1      36.630  29.036  19.011  1.00  0.00     0.000 C 
BRANCH  18  19
ATOM     19  C   UNL     1      36.742  27.560  19.427  1.00  0.00     0.000 C 
BRANCH  19  20
ATOM     20  C   UNL     1      36.733  27.369  20.954  1.00  0.00     0.000 C 
BRANCH  20  21
ATOM     21  C   UNL     1      35.348  27.673  21.567  1.00  0.00     0.000 C 
BRANCH  21  22
ATOM     22  C   UNL     1      35.305  27.508  23.096  1.00  0.00     0.000 C 
BRANCH  22  23
ATOM     23  C   UNL     1      36.687  27.224  23.706  1.00  0.00     0.000 C 
BRANCH  23  24
ATOM     24  C   UNL     1      36.864  27.866  25.091  1.00  0.00    -0.000 C 
BRANCH  24  25
ATOM     25  C   UNL     1      37.120  29.381  25.007  1.00  0.00    -0.000 C 
BRANCH  25  26
ATOM     26  C   UNL     1      36.223  30.080  23.971  1.00  0.00    -0.000 C 
BRANCH  26  27
ATOM     27  C   UNL     1      35.022  30.852  24.558  1.00  0.00    -0.000 C 
BRANCH  27  28
ATOM     28  C   UNL     1      35.321  32.293  25.008  1.00  0.00    -0.000 C 
BRANCH  28  29
ATOM     29  C   UNL     1      36.749  32.745  24.660  1.00  0.00    -0.000 C 
BRANCH  29  30
ATOM     30  C   UNL     1      36.794  34.168  24.078  1.00  0.00    -0.000 C 
BRANCH  30  31
ATOM     31  C   UNL     1      37.122  35.254  25.125  1.00  0.00    -0.003 C 
ATOM     32  C   UNL     1      36.093  36.385  25.125  1.00  0.00     0.004 C 
ENDBRANCH  30  31
ENDBRANCH  29  30
ENDBRANCH  28  29
ENDBRANCH  27  28
ENDBRANCH  26  27
ENDBRANCH  25  26
ENDBRANCH  24  25
ENDBRANCH  23  24
ENDBRANCH  22  23
ENDBRANCH  21  22
ENDBRANCH  20  21
ENDBRANCH  19  20
ENDBRANCH  18  19
ENDBRANCH   1  18
TORSDOF 28
ENDMDL
MODEL 3
REMARK VINA RESULT:     3.274      2.845      3.697
REMARK INTER + INTRA:           9.794
REMARK INTER:                  10.823
REMARK INTRA:                  -1.029
REMARK UNBOUND:                 1.161
REMARK SMILES CCCCCCCCCCCCCCCCCCCCCCCCCCCCCC(=O)[O-]
REMARK SMILES IDX 16 1 17 2 18 3 19 4 20 5 21 6 22 7 23 8 24 9 25 10 26 11
REMARK SMILES IDX 27 12 28 13 29 14 30 15 31 16 32 17 15 18 14 19 13 20 12 21
REMARK SMILES IDX 11 22 10 23 9 24 8 25 7 26 6 27 5 28 4 29 3 30 2 31 1 32
REMARK H PARENT
REMARK Flexibility Score: inf
ROOT
ATOM      1  C   UNL     1      34.352  28.991  19.414  1.00  0.00     0.000 C 
ENDROOT
BRANCH   1   2
ATOM      2  C   UNL     1      34.095  28.379  20.804  1.00  0.00     0.000 C 
BRANCH   2   3
ATOM      3  C   UNL     1      35.315  27.715  21.468  1.00  0.00     0.000 C 
BRANCH   3   4
ATOM      4  C   UNL     1      34.946  26.882  22.707  1.00  0.00     0.000 C 
BRANCH   4   5
ATOM      5  C   UNL     1      34.856  27.730  23.986  1.00  0.00     0.000 C 
BRANCH   5   6
ATOM      6  C   UNL     1      35.879  27.310  25.053  1.00  0.00     0.000 C 
BRANCH   6   7
ATOM      7  C   UNL     1      37.124  28.207  24.997  1.00  0.00     0.000 C 
BRANCH   7   8
ATOM      8  C   UNL     1      36.785  29.703  25.117  1.00  0.00     0.000 C 
BRANCH   8   9
ATOM      9  C   UNL     1      36.214  30.342  23.834  1.00  0.00     0.000 C 
BRANCH   9  10
ATOM     10  C   UNL     1      36.646  31.801  23.580  1.00  0.00     0.000 C 
BRANCH  10  11
ATOM     11  C   UNL     1      37.008  32.600  24.845  1.00  0.00     0.000 C 
BRANCH  11  12
ATOM     12  C   UNL     1      36.029  33.750  25.125  1.00  0.00     0.000 C 
BRANCH  12  13
ATOM     13  C   UNL     1      36.163  34.855  24.071  1.00  0.00     0.006 C 
BRANCH  13  14
ATOM     14  C   UNL     1      37.125  35.950  24.545  1.00  0.00     0.053 C 
BRANCH  14  15
ATOM     15  C   UNL     1      36.387  37.224  24.819  1.00  0.00     0.041 C 
ATOM     16  O   UNL     1      35.128  37.242  24.801  1.00  0.00    -0.550 OA
ATOM     17  O   UNL     1      37.089  38.388  25.106  1.00  0.00    -0.550 OA
ENDBRANCH  14  15
ENDBRANCH  13  14
ENDBRANCH  12  13
ENDBRANCH  11  12
ENDBRANCH  10  11
ENDBRANCH   9  10
ENDBRANCH   8   9
ENDBRANCH   7   8
ENDBRANCH   6   7
ENDBRANCH   5   6
ENDBRANCH   4   5
ENDBRANCH   3   4
ENDBRANCH   2   3
ENDBRANCH   1   2
BRANCH   1  18
ATOM     18  C   UNL     1      34.733  27.941  18.356  1.00  0.00     0.000 C 
BRANCH  18  19
ATOM     19  C   UNL     1      36.252  27.713  18.276  1.00  0.00     0.000 C 
BRANCH  19  20
ATOM     20  C   UNL     1      36.738  27.437  16.841  1.00  0.00     0.000 C 
BRANCH  20  21
ATOM     21  C   UNL     1      37.097  28.739  16.091  1.00  0.00     0.000 C 
BRANCH  21  22
ATOM     22  C   UNL     1      36.610  28.761  14.632  1.00  0.00     0.000 C 
BRANCH  22  23
ATOM     23  C   UNL     1      36.240  27.364  14.105  1.00  0.00     0.000 C 
BRANCH  23  24
ATOM     24  C   UNL     1      34.734  27.077  14.204  1.00  0.00    -0.000 C 
BRANCH  24  25
ATOM     25  C   UNL     1      34.069  26.950  12.822  1.00  0.00    -0.000 C 
BRANCH  25  26
ATOM     26  C   UNL     1      34.535  28.035  11.836  1.00  0.00    -0.000 C 
BRANCH  26  27
ATOM     27  C   UNL     1      33.870  29.416  12.018  1.00  0.00    -0.000 C 
BRANCH  27  28
ATOM     28  C   UNL     1      32.992  29.564  13.274  1.00  0.00    -0.000 C 
BRANCH  28  29
ATOM     29  C   UNL     1      32.350  30.956  13.395  1.00  0.00    -0.000 C 
BRANCH  29  30
ATOM     30  C   UNL     1      30.813  30.901  13.387  1.00  0.00    -0.000 C 
BRANCH  30  31
ATOM     31  C   UNL     1      30.151  32.167  12.801  1.00  0.00    -0.003 C 
ATOM     32  C   UNL     1      30.936  32.733  11.617  1.00  0.00     0.004 C 
ENDBRANCH  30  31
ENDBRANCH  29  30
ENDBRANCH  28  29
ENDBRANCH  27  28
ENDBRANCH  26  27
ENDBRANCH  25  26
ENDBRANCH  24  25
ENDBRANCH  23  24
ENDBRANCH  22  23
ENDBRANCH  21  22
ENDBRANCH  20  21
ENDBRANCH  19  20
ENDBRANCH  18  19
ENDBRANCH   1  18
TORSDOF 28
ENDMDL
MODEL 4
REMARK VINA RESULT:     3.511      1.332      2.051
REMARK INTER + INTRA:          10.420
REMARK INTER:                   9.967
REMARK INTRA:                   0.453
REMARK UNBOUND:                 1.161
REMARK SMILES CCCCCCCCCCCCCCCCCCCCCCCCCCCCCC(=O)[O-]
REMARK SMILES IDX 16 1 17 2 18 3 19 4 20 5 21 6 22 7 23 8 24 9 25 10 26 11
REMARK SMILES IDX 27 12 28 13 29 14 30 15 31 16 32 17 15 18 14 19 13 20 12 21
REMARK SMILES IDX 11 22 10 23 9 24 8 25 7 26 6 27 5 28 4 29 3 30 2 31 1 32
REMARK H PARENT
REMARK Flexibility Score: inf
ROOT
ATOM      1  C   UNL     1      34.877  29.391  16.428  1.00  0.00     0.000 C 
ENDROOT
BRANCH   1   2
ATOM      2  C   UNL     1      34.845  29.084  17.936  1.00  0.00     0.000 C 
BRANCH   2   3
ATOM      3  C   UNL     1      35.678  27.868  18.381  1.00  0.00     0.000 C 
BRANCH   3   4
ATOM      4  C   UNL     1      34.881  26.876  19.245  1.00  0.00     0.000 C 
BRANCH   4   5
ATOM      5  C   UNL     1      35.279  26.931  20.728  1.00  0.00     0.000 C 
BRANCH   5   6
ATOM      6  C   UNL     1      36.643  27.604  20.954  1.00  0.00     0.000 C 
BRANCH   6   7
ATOM      7  C   UNL     1      37.125  27.387  22.396  1.00  0.00     0.000 C 
BRANCH   7   8
ATOM      8  C   UNL     1      35.988  26.979  23.348  1.00  0.00     0.000 C 
BRANCH   8   9
ATOM      9  C   UNL     1      35.976  27.723  24.700  1.00  0.00     0.000 C 
BRANCH   9  10
ATOM     10  C   UNL     1      37.047  28.822  24.851  1.00  0.00     0.000 C 
BRANCH  10  11
ATOM     11  C   UNL     1      36.525  30.263  24.702  1.00  0.00     0.000 C 
BRANCH  11  12
ATOM     12  C   UNL     1      35.651  30.455  23.454  1.00  0.00     0.000 C 
BRANCH  12  13
ATOM     13  C   UNL     1      36.461  31.064  22.304  1.00  0.00     0.006 C 
BRANCH  13  14
ATOM     14  C   UNL     1      35.964  30.545  20.950  1.00  0.00     0.053 C 
BRANCH  14  15
ATOM     15  C   UNL     1      34.474  30.395  20.952  1.00  0.00     0.041 C 
ATOM     16  O   UNL     1      33.943  29.367  21.449  1.00  0.00    -0.550 OA
ATOM     17  O   UNL     1      33.672  31.395  20.416  1.00  0.00    -0.550 OA
ENDBRANCH  14  15
ENDBRANCH  13  14
ENDBRANCH  12  13
ENDBRANCH  11  12
ENDBRANCH  10  11
ENDBRANCH   9  10
ENDBRANCH   8   9
ENDBRANCH   7   8
ENDBRANCH   6   7
ENDBRANCH   5   6
ENDBRANCH   4   5
ENDBRANCH   3   4
ENDBRANCH   2   3
ENDBRANCH   1   2
BRANCH   1  18
ATOM     18  C   UNL     1      33.853  28.570  15.625  1.00  0.00     0.000 C 
BRANCH  18  19
ATOM     19  C   UNL     1      34.402  27.197  15.203  1.00  0.00     0.000 C 
BRANCH  19  20
ATOM     20  C   UNL     1      35.933  27.103  15.327  1.00  0.00     0.000 C 
BRANCH  20  21
ATOM     21  C   UNL     1      36.613  26.877  13.959  1.00  0.00     0.000 C 
BRANCH  21  22
ATOM     22  C   UNL     1      35.941  27.641  12.806  1.00  0.00     0.000 C 
BRANCH  22  23
ATOM     23  C   UNL     1      34.719  26.904  12.234  1.00  0.00     0.000 C 
BRANCH  23  24
ATOM     24  C   UNL     1      34.134  27.604  10.997  1.00  0.00    -0.000 C 
BRANCH  24  25
ATOM     25  C   UNL     1      33.849  29.095  11.246  1.00  0.00    -0.000 C 
BRANCH  25  26
ATOM     26  C   UNL     1      32.910  29.329  12.444  1.00  0.00    -0.000 C 
BRANCH  26  27
ATOM     27  C   UNL     1      33.134  30.655  13.202  1.00  0.00    -0.000 C 
BRANCH  27  28
ATOM     28  C   UNL     1      32.294  31.847  12.708  1.00  0.00    -0.000 C 
BRANCH  28  29
ATOM     29  C   UNL     1      30.907  31.427  12.190  1.00  0.00    -0.000 C 
BRANCH  29  30
ATOM     30  C   UNL     1      30.012  30.847  13.298  1.00  0.00    -0.000 C 
BRANCH  30  31
ATOM     31  C   UNL     1      30.432  29.434  13.756  1.00  0.00    -0.003 C 
ATOM     32  C   UNL     1      29.730  29.014  15.048  1.00  0.00     0.004 C 
ENDBRANCH  30  31
ENDBRANCH  29  30
ENDBRANCH  28  29
ENDBRANCH  27  28
ENDBRANCH  26  27
ENDBRANCH  25  26
ENDBRANCH  24  25
ENDBRANCH  23  24
ENDBRANCH  22  23
ENDBRANCH  21  22
ENDBRANCH  20  21
ENDBRANCH  19  20
ENDBRANCH  18  19
ENDBRANCH   1  18
TORSDOF 28
ENDMDL
MODEL 5
REMARK VINA RESULT:     3.753      1.490      2.469
REMARK INTER + INTRA:          11.057
REMARK INTER:                   8.218
REMARK INTRA:                   2.839
REMARK UNBOUND:                 1.161
REMARK SMILES CCCCCCCCCCCCCCCCCCCCCCCCCCCCCC(=O)[O-]
REMARK SMILES IDX 16 1 17 2 18 3 19 4 20 5 21 6 22 7 23 8 24 9 25 10 26 11
REMARK SMILES IDX 27 12 28 13 29 14 30 15 31 16 32 17 15 18 14 19 13 20 12 21
REMARK SMILES IDX 11 22 10 23 9 24 8 25 7 26 6 27 5 28 4 29 3 30 2 31 1 32
REMARK H PARENT
REMARK Flexibility Score: inf
ROOT
ATOM      1  C   UNL     1      34.317  29.281  16.917  1.00  0.00     0.000 C 
ENDROOT
BRANCH   1   2
ATOM      2  C   UNL     1      35.196  29.576  18.147  1.00  0.00     0.000 C 
BRANCH   2   3
ATOM      3  C   UNL     1      35.045  28.589  19.319  1.00  0.00     0.000 C 
BRANCH   3   4
ATOM      4  C   UNL     1      36.394  28.157  19.919  1.00  0.00     0.000 C 
BRANCH   4   5
ATOM      5  C   UNL     1      36.234  27.144  21.064  1.00  0.00     0.000 C 
BRANCH   5   6
ATOM      6  C   UNL     1      36.887  27.618  22.374  1.00  0.00     0.000 C 
BRANCH   6   7
ATOM      7  C   UNL     1      37.058  29.144  22.375  1.00  0.00     0.000 C 
BRANCH   7   8
ATOM      8  C   UNL     1      35.848  29.879  21.775  1.00  0.00     0.000 C 
BRANCH   8   9
ATOM      9  C   UNL     1      36.085  31.372  21.465  1.00  0.00     0.000 C 
BRANCH   9  10
ATOM     10  C   UNL     1      36.432  32.247  22.687  1.00  0.00     0.000 C 
BRANCH  10  11
ATOM     11  C   UNL     1      37.123  31.503  23.843  1.00  0.00     0.000 C 
BRANCH  11  12
ATOM     12  C   UNL     1      36.153  31.121  24.972  1.00  0.00     0.000 C 
BRANCH  12  13
ATOM     13  C   UNL     1      34.706  31.448  24.586  1.00  0.00     0.006 C 
BRANCH  13  14
ATOM     14  C   UNL     1      33.743  30.383  25.124  1.00  0.00     0.053 C 
BRANCH  14  15
ATOM     15  C   UNL     1      34.290  29.008  24.895  1.00  0.00     0.041 C 
ATOM     16  O   UNL     1      33.508  28.027  24.786  1.00  0.00    -0.550 OA
ATOM     17  O   UNL     1      35.662  28.811  24.790  1.00  0.00    -0.550 OA
ENDBRANCH  14  15
ENDBRANCH  13  14
ENDBRANCH  12  13
ENDBRANCH  11  12
ENDBRANCH  10  11
ENDBRANCH   9  10
ENDBRANCH   8   9
ENDBRANCH   7   8
ENDBRANCH   6   7
ENDBRANCH   5   6
ENDBRANCH   4   5
ENDBRANCH   3   4
ENDBRANCH   2   3
ENDBRANCH   1   2
BRANCH   1  18
ATOM     18  C   UNL     1      34.508  27.855  16.370  1.00  0.00     0.000 C 
BRANCH  18  19
ATOM     19  C   UNL     1      35.577  27.787  15.267  1.00  0.00     0.000 C 
BRANCH  19  20
ATOM     20  C   UNL     1      35.163  26.884  14.091  1.00  0.00     0.000 C 
BRANCH  20  21
ATOM     21  C   UNL     1      36.213  26.890  12.958  1.00  0.00     0.000 C 
BRANCH  21  22
ATOM     22  C   UNL     1      35.598  27.014  11.553  1.00  0.00     0.000 C 
BRANCH  22  23
ATOM     23  C   UNL     1      34.062  26.970  11.568  1.00  0.00     0.000 C 
BRANCH  23  24
ATOM     24  C   UNL     1      33.430  28.312  11.165  1.00  0.00    -0.000 C 
BRANCH  24  25
ATOM     25  C   UNL     1      33.746  29.434  12.169  1.00  0.00    -0.000 C 
BRANCH  25  26
ATOM     26  C   UNL     1      33.006  29.262  13.507  1.00  0.00    -0.000 C 
BRANCH  26  27
ATOM     27  C   UNL     1      32.042  30.410  13.874  1.00  0.00    -0.000 C 
BRANCH  27  28
ATOM     28  C   UNL     1      32.300  31.744  13.151  1.00  0.00    -0.000 C 
BRANCH  28  29
ATOM     29  C   UNL     1      31.255  32.048  12.064  1.00  0.00    -0.000 C 
BRANCH  29  30
ATOM     30  C   UNL     1      29.960  32.648  12.640  1.00  0.00    -0.000 C 
BRANCH  30  31
ATOM     31  C   UNL     1      28.682  32.169  11.920  1.00  0.00    -0.003 C 
ATOM     32  C   UNL     1      28.808  30.730  11.418  1.00  0.00     0.004 C 
ENDBRANCH  30  31
ENDBRANCH  29  30
ENDBRANCH  28  29
ENDBRANCH  27  28
ENDBRANCH  26  27
ENDBRANCH  25  26
ENDBRANCH  24  25
ENDBRANCH  23  24
ENDBRANCH  22  23
ENDBRANCH  21  22
ENDBRANCH  20  21
ENDBRANCH  19  20
ENDBRANCH  18  19
ENDBRANCH   1  18
TORSDOF 28
ENDMDL
