MODEL 1
REMARK VINA RESULT:    -6.935      0.000      0.000
REMARK INTER + INTRA:         -12.998
REMARK INTER:                 -11.394
REMARK INTRA:                  -1.604
REMARK UNBOUND:                -1.604
REMARK SMILES C[C@H]1O[C@@H](OC[C@H]2O[C@@H](Oc3c(-c4ccc(O)c(O)c4)oc4cc(O)cc(O)c4c3=O)[C@@H](O)[C@@H](O)[C@@H]2O)[C@H](O)[C@H](O)[C@H]1O
REMARK SMILES IDX 7 1 36 2 34 3 32 4 9 5 8 6 6 7 5 8 4 9 1 10 2 11 42 12 3 13
REMARK SMILES IDX 40 14 38 15 43 16 41 18 39 20 37 22 35 24 10 26 11 27 12 28
REMARK SMILES IDX 30 29 21 30 29 31 31 32 22 33 27 34 23 35 26 36 24 37 13 38
REMARK SMILES IDX 20 39 14 40 18 41 15 42 16 43 19 44 17 46 28 48 25 50 33 52
REMARK H PARENT 43 17 41 19 39 21 37 23 35 25 19 45 17 47 28 49 25 51 33 53
REMARK Flexibility Score: inf
ROOT
ATOM      1  C   UNL     1      54.061   9.021  81.505  1.00  0.00     0.180 C 
ATOM      2  C   UNL     1      54.954   9.520  82.666  1.00  0.00     0.177 C 
ATOM      3  C   UNL     1      55.746   8.356  83.265  1.00  0.00     0.180 C 
ATOM      4  C   UNL     1      54.786   7.232  83.668  1.00  0.00     0.214 C 
ATOM      5  C   UNL     1      53.753   6.868  82.553  1.00  0.00     0.339 C 
ATOM      6  O   UNL     1      53.154   7.997  81.917  1.00  0.00    -0.332 OA
ENDROOT
BRANCH   1   7
ATOM      7  C   UNL     1      54.826   8.665  80.207  1.00  0.00     0.198 C 
BRANCH   7   8
ATOM      8  O   UNL     1      54.147   9.177  79.077  1.00  0.00    -0.347 OA
BRANCH   8   9
ATOM      9  C   UNL     1      53.007   8.415  78.728  1.00  0.00     0.281 C 
ATOM     10  C   UNL     1      54.723   9.255  76.275  1.00  0.00     0.041 C 
ATOM     11  C   UNL     1      53.330   8.602  76.368  1.00  0.00     0.150 C 
ATOM     12  C   UNL     1      52.157   9.617  76.238  1.00  0.00     0.174 C 
ATOM     13  O   UNL     1      53.203   7.732  77.491  1.00  0.00    -0.344 OA
ATOM     14  C   UNL     1      51.916  10.359  77.555  1.00  0.00     0.179 C 
ATOM     15  C   UNL     1      51.774   9.342  78.694  1.00  0.00     0.202 C 
BRANCH  12  16
ATOM     16  O   UNL     1      52.409  10.547  75.214  1.00  0.00    -0.388 OA
ATOM     17  H   UNL     1      52.574  11.420  75.658  1.00  0.00     0.211 HD
ENDBRANCH  12  16
BRANCH  14  18
ATOM     18  O   UNL     1      50.738  11.125  77.461  1.00  0.00    -0.387 OA
ATOM     19  H   UNL     1      50.975  12.058  77.714  1.00  0.00     0.211 HD
ENDBRANCH  14  18
BRANCH  15  20
ATOM     20  O   UNL     1      50.596   8.586  78.520  1.00  0.00    -0.385 OA
ATOM     21  H   UNL     1      50.003   8.809  79.282  1.00  0.00     0.211 HD
ENDBRANCH  15  20
ENDBRANCH   8   9
ENDBRANCH   7   8
ENDBRANCH   1   7
BRANCH   2  22
ATOM     22  O   UNL     1      54.127  10.099  83.647  1.00  0.00    -0.387 OA
ATOM     23  H   UNL     1      53.974   9.409  84.342  1.00  0.00     0.211 HD
ENDBRANCH   2  22
BRANCH   3  24
ATOM     24  O   UNL     1      56.706   7.880  82.356  1.00  0.00    -0.387 OA
ATOM     25  H   UNL     1      57.588   8.218  82.675  1.00  0.00     0.211 HD
ENDBRANCH   3  24
BRANCH   5  26
ATOM     26  O   UNL     1      54.293   5.981  81.566  1.00  0.00    -0.454 OA
BRANCH  26  27
ATOM     27  C   UNL     1      53.549   5.367  80.539  1.00  0.00     0.214 A 
ATOM     28  C   UNL     1      54.202   4.992  79.358  1.00  0.00     0.180 A 
ATOM     29  C   UNL     1      52.179   5.070  80.673  1.00  0.00     0.239 A 
ATOM     30  O   UNL     1      53.547   4.348  78.402  1.00  0.00    -0.452 OA
ATOM     31  C   UNL     1      51.507   4.348  79.654  1.00  0.00     0.111 A 
ATOM     32  O   UNL     1      51.569   5.462  81.702  1.00  0.00    -0.285 OA
ATOM     33  C   UNL     1      52.264   4.020  78.495  1.00  0.00     0.146 A 
ATOM     34  C   UNL     1      50.141   3.932  79.711  1.00  0.00     0.134 A 
ATOM     35  C   UNL     1      51.667   3.353  77.424  1.00  0.00     0.094 A 
ATOM     36  C   UNL     1      49.572   3.277  78.613  1.00  0.00     0.093 A 
ATOM     37  C   UNL     1      50.326   2.984  77.474  1.00  0.00     0.123 A 
BRANCH  28  38
ATOM     38  C   UNL     1      55.611   5.336  79.134  1.00  0.00     0.025 A 
ATOM     39  C   UNL     1      56.596   4.827  79.988  1.00  0.00     0.062 A 
ATOM     40  C   UNL     1      55.971   6.194  78.087  1.00  0.00     0.016 A 
ATOM     41  C   UNL     1      57.935   5.189  79.815  1.00  0.00     0.158 A 
ATOM     42  C   UNL     1      57.312   6.531  77.890  1.00  0.00     0.051 A 
ATOM     43  C   UNL     1      58.302   6.029  78.747  1.00  0.00     0.157 A 
BRANCH  41  44
ATOM     44  O   UNL     1      58.888   4.717  80.719  1.00  0.00    -0.504 OA
ATOM     45  H   UNL     1      58.643   4.438  81.663  1.00  0.00     0.293 HD
ENDBRANCH  41  44
BRANCH  43  46
ATOM     46  O   UNL     1      59.644   6.359  78.544  1.00  0.00    -0.504 OA
ATOM     47  H   UNL     1      59.962   7.319  78.569  1.00  0.00     0.293 HD
ENDBRANCH  43  46
ENDBRANCH  28  38
BRANCH  34  48
ATOM     48  O   UNL     1      49.311   4.103  80.823  1.00  0.00    -0.507 OA
ATOM     49  H   UNL     1      49.527   4.641  81.645  1.00  0.00     0.293 HD
ENDBRANCH  34  48
BRANCH  37  50
ATOM     50  O   UNL     1      49.758   2.316  76.392  1.00  0.00    -0.508 OA
ATOM     51  H   UNL     1      48.983   1.676  76.515  1.00  0.00     0.293 HD
ENDBRANCH  37  50
ENDBRANCH  26  27
ENDBRANCH   5  26
BRANCH   4  52
ATOM     52  O   UNL     1      55.513   6.121  84.122  1.00  0.00    -0.384 OA
ATOM     53  H   UNL     1      56.470   6.307  83.975  1.00  0.00     0.211 HD
ENDBRANCH   4  52
TORSDOF 16
ENDMDL
MODEL 2
REMARK VINA RESULT:    -6.599      2.241      4.808
REMARK INTER + INTRA:         -12.446
REMARK INTER:                  -9.491
REMARK INTRA:                  -2.955
REMARK UNBOUND:                -1.604
REMARK SMILES C[C@H]1O[C@@H](OC[C@H]2O[C@@H](Oc3c(-c4ccc(O)c(O)c4)oc4cc(O)cc(O)c4c3=O)[C@@H](O)[C@@H](O)[C@@H]2O)[C@H](O)[C@H](O)[C@H]1O
REMARK SMILES IDX 7 1 36 2 34 3 32 4 9 5 8 6 6 7 5 8 4 9 1 10 2 11 42 12 3 13
REMARK SMILES IDX 40 14 38 15 43 16 41 18 39 20 37 22 35 24 10 26 11 27 12 28
REMARK SMILES IDX 30 29 21 30 29 31 31 32 22 33 27 34 23 35 26 36 24 37 13 38
REMARK SMILES IDX 20 39 14 40 18 41 15 42 16 43 19 44 17 46 28 48 25 50 33 52
REMARK H PARENT 43 17 41 19 39 21 37 23 35 25 19 45 17 47 28 49 25 51 33 53
REMARK Flexibility Score: inf
ROOT
ATOM      1  C   UNL     1      55.293   9.582  81.751  1.00  0.00     0.180 C 
ATOM      2  C   UNL     1      55.460   9.562  83.290  1.00  0.00     0.177 C 
ATOM      3  C   UNL     1      55.181   8.160  83.836  1.00  0.00     0.180 C 
ATOM      4  C   UNL     1      53.804   7.686  83.361  1.00  0.00     0.214 C 
ATOM      5  C   UNL     1      53.569   7.895  81.829  1.00  0.00     0.339 C 
ATOM      6  O   UNL     1      53.990   9.167  81.339  1.00  0.00    -0.332 OA
ENDROOT
BRANCH   1   7
ATOM      7  C   UNL     1      56.428   8.879  80.967  1.00  0.00     0.198 C 
BRANCH   7   8
ATOM      8  O   UNL     1      57.686   9.187  81.534  1.00  0.00    -0.347 OA
BRANCH   8   9
ATOM      9  C   UNL     1      58.688   8.250  81.192  1.00  0.00     0.281 C 
ATOM     10  C   UNL     1      58.903   9.264  84.123  1.00  0.00     0.041 C 
ATOM     11  C   UNL     1      59.859   8.409  83.268  1.00  0.00     0.150 C 
ATOM     12  C   UNL     1      61.010   9.229  82.614  1.00  0.00     0.174 C 
ATOM     13  O   UNL     1      59.171   7.566  82.347  1.00  0.00    -0.344 OA
ATOM     14  C   UNL     1      60.524   9.967  81.363  1.00  0.00     0.179 C 
ATOM     15  C   UNL     1      59.816   8.976  80.431  1.00  0.00     0.202 C 
BRANCH  12  16
ATOM     16  O   UNL     1      61.549  10.154  83.525  1.00  0.00    -0.388 OA
ATOM     17  H   UNL     1      62.281   9.687  84.005  1.00  0.00     0.211 HD
ENDBRANCH  12  16
BRANCH  14  18
ATOM     18  O   UNL     1      61.621  10.540  80.693  1.00  0.00    -0.387 OA
ATOM     19  H   UNL     1      61.489  10.374  79.721  1.00  0.00     0.211 HD
ENDBRANCH  14  18
BRANCH  15  20
ATOM     20  O   UNL     1      60.747   8.044  79.924  1.00  0.00    -0.385 OA
ATOM     21  H   UNL     1      60.466   7.155  80.258  1.00  0.00     0.211 HD
ENDBRANCH  15  20
ENDBRANCH   8   9
ENDBRANCH   7   8
ENDBRANCH   1   7
BRANCH   2  22
ATOM     22  O   UNL     1      54.558  10.487  83.848  1.00  0.00    -0.387 OA
ATOM     23  H   UNL     1      55.098  11.164  84.331  1.00  0.00     0.211 HD
ENDBRANCH   2  22
BRANCH   3  24
ATOM     24  O   UNL     1      56.178   7.255  83.432  1.00  0.00    -0.387 OA
ATOM     25  H   UNL     1      55.846   6.824  82.597  1.00  0.00     0.211 HD
ENDBRANCH   3  24
BRANCH   5  26
ATOM     26  O   UNL     1      54.144   6.851  81.034  1.00  0.00    -0.454 OA
BRANCH  26  27
ATOM     27  C   UNL     1      53.429   6.034  80.135  1.00  0.00     0.214 A 
ATOM     28  C   UNL     1      54.010   5.709  78.903  1.00  0.00     0.180 A 
ATOM     29  C   UNL     1      52.168   5.490  80.449  1.00  0.00     0.239 A 
ATOM     30  O   UNL     1      53.395   4.885  78.066  1.00  0.00    -0.452 OA
ATOM     31  C   UNL     1      51.545   4.582  79.555  1.00  0.00     0.111 A 
ATOM     32  O   UNL     1      51.609   5.830  81.524  1.00  0.00    -0.285 OA
ATOM     33  C   UNL     1      52.220   4.324  78.330  1.00  0.00     0.146 A 
ATOM     34  C   UNL     1      50.304   3.918  79.798  1.00  0.00     0.134 A 
ATOM     35  C   UNL     1      51.654   3.481  77.373  1.00  0.00     0.094 A 
ATOM     36  C   UNL     1      49.760   3.089  78.809  1.00  0.00     0.093 A 
ATOM     37  C   UNL     1      50.427   2.867  77.602  1.00  0.00     0.123 A 
BRANCH  28  38
ATOM     38  C   UNL     1      55.289   6.300  78.494  1.00  0.00     0.025 A 
ATOM     39  C   UNL     1      56.490   5.684  78.861  1.00  0.00     0.062 A 
ATOM     40  C   UNL     1      55.313   7.494  77.761  1.00  0.00     0.016 A 
ATOM     41  C   UNL     1      57.714   6.266  78.521  1.00  0.00     0.158 A 
ATOM     42  C   UNL     1      56.534   8.060  77.389  1.00  0.00     0.051 A 
ATOM     43  C   UNL     1      57.740   7.450  77.761  1.00  0.00     0.157 A 
BRANCH  41  44
ATOM     44  O   UNL     1      58.897   5.663  78.954  1.00  0.00    -0.504 OA
ATOM     45  H   UNL     1      59.738   5.663  78.387  1.00  0.00     0.293 HD
ENDBRANCH  41  44
BRANCH  43  46
ATOM     46  O   UNL     1      58.961   8.012  77.381  1.00  0.00    -0.504 OA
ATOM     47  H   UNL     1      59.682   7.458  76.936  1.00  0.00     0.293 HD
ENDBRANCH  43  46
ENDBRANCH  28  38
BRANCH  34  48
ATOM     48  O   UNL     1      49.584   4.004  80.993  1.00  0.00    -0.507 OA
ATOM     49  H   UNL     1      49.853   4.527  81.809  1.00  0.00     0.293 HD
ENDBRANCH  34  48
BRANCH  37  50
ATOM     50  O   UNL     1      49.888   2.027  76.631  1.00  0.00    -0.508 OA
ATOM     51  H   UNL     1      48.895   1.831  76.595  1.00  0.00     0.293 HD
ENDBRANCH  37  50
ENDBRANCH  26  27
ENDBRANCH   5  26
BRANCH   4  52
ATOM     52  O   UNL     1      53.585   6.363  83.771  1.00  0.00    -0.384 OA
ATOM     53  H   UNL     1      54.006   6.248  84.655  1.00  0.00     0.211 HD
ENDBRANCH   4  52
TORSDOF 16
ENDMDL
MODEL 3
REMARK VINA RESULT:    -6.404      2.743      7.210
REMARK INTER + INTRA:         -12.126
REMARK INTER:                  -9.700
REMARK INTRA:                  -2.426
REMARK UNBOUND:                -1.604
REMARK SMILES C[C@H]1O[C@@H](OC[C@H]2O[C@@H](Oc3c(-c4ccc(O)c(O)c4)oc4cc(O)cc(O)c4c3=O)[C@@H](O)[C@@H](O)[C@@H]2O)[C@H](O)[C@H](O)[C@H]1O
REMARK SMILES IDX 7 1 36 2 34 3 32 4 9 5 8 6 6 7 5 8 4 9 1 10 2 11 42 12 3 13
REMARK SMILES IDX 40 14 38 15 43 16 41 18 39 20 37 22 35 24 10 26 11 27 12 28
REMARK SMILES IDX 30 29 21 30 29 31 31 32 22 33 27 34 23 35 26 36 24 37 13 38
REMARK SMILES IDX 20 39 14 40 18 41 15 42 16 43 19 44 17 46 28 48 25 50 33 52
REMARK H PARENT 43 17 41 19 39 21 37 23 35 25 19 45 17 47 28 49 25 51 33 53
REMARK Flexibility Score: inf
ROOT
ATOM      1  C   UNL     1      54.628   3.358  81.949  1.00  0.00     0.180 C 
ATOM      2  C   UNL     1      53.484   3.876  82.854  1.00  0.00     0.177 C 
ATOM      3  C   UNL     1      53.565   5.398  82.992  1.00  0.00     0.180 C 
ATOM      4  C   UNL     1      54.962   5.799  83.476  1.00  0.00     0.214 C 
ATOM      5  C   UNL     1      56.116   5.112  82.677  1.00  0.00     0.339 C 
ATOM      6  O   UNL     1      55.919   3.719  82.441  1.00  0.00    -0.332 OA
ENDROOT
BRANCH   1   7
ATOM      7  C   UNL     1      54.448   3.663  80.441  1.00  0.00     0.198 C 
BRANCH   7   8
ATOM      8  O   UNL     1      53.090   3.536  80.069  1.00  0.00    -0.347 OA
BRANCH   8   9
ATOM      9  C   UNL     1      52.717   4.427  79.036  1.00  0.00     0.281 C 
ATOM     10  C   UNL     1      50.526   4.086  81.215  1.00  0.00     0.041 C 
ATOM     11  C   UNL     1      50.496   4.782  79.840  1.00  0.00     0.150 C 
ATOM     12  C   UNL     1      49.891   3.900  78.709  1.00  0.00     0.174 C 
ATOM     13  O   UNL     1      51.748   5.368  79.491  1.00  0.00    -0.344 OA
ATOM     14  C   UNL     1      50.913   2.884  78.191  1.00  0.00     0.179 C 
ATOM     15  C   UNL     1      52.214   3.611  77.827  1.00  0.00     0.202 C 
BRANCH  12  16
ATOM     16  O   UNL     1      48.743   3.223  79.158  1.00  0.00    -0.388 OA
ATOM     17  H   UNL     1      48.454   3.678  79.991  1.00  0.00     0.211 HD
ENDBRANCH  12  16
BRANCH  14  18
ATOM     18  O   UNL     1      50.403   2.235  77.050  1.00  0.00    -0.387 OA
ATOM     19  H   UNL     1      49.888   2.914  76.534  1.00  0.00     0.211 HD
ENDBRANCH  14  18
BRANCH  15  20
ATOM     20  O   UNL     1      51.998   4.457  76.718  1.00  0.00    -0.385 OA
ATOM     21  H   UNL     1      51.255   5.063  76.967  1.00  0.00     0.211 HD
ENDBRANCH  15  20
ENDBRANCH   8   9
ENDBRANCH   7   8
ENDBRANCH   1   7
BRANCH   2  22
ATOM     22  O   UNL     1      53.607   3.268  84.118  1.00  0.00    -0.387 OA
ATOM     23  H   UNL     1      53.261   2.344  84.031  1.00  0.00     0.211 HD
ENDBRANCH   2  22
BRANCH   3  24
ATOM     24  O   UNL     1      53.266   6.030  81.773  1.00  0.00    -0.387 OA
ATOM     25  H   UNL     1      53.693   6.930  81.810  1.00  0.00     0.211 HD
ENDBRANCH   3  24
BRANCH   5  26
ATOM     26  O   UNL     1      56.410   5.780  81.444  1.00  0.00    -0.454 OA
BRANCH  26  27
ATOM     27  C   UNL     1      57.421   6.745  81.269  1.00  0.00     0.214 A 
ATOM     28  C   UNL     1      57.347   7.617  80.175  1.00  0.00     0.180 A 
ATOM     29  C   UNL     1      58.483   6.900  82.181  1.00  0.00     0.239 A 
ATOM     30  O   UNL     1      58.243   8.582  80.021  1.00  0.00    -0.452 OA
ATOM     31  C   UNL     1      59.409   7.962  82.018  1.00  0.00     0.111 A 
ATOM     32  O   UNL     1      58.595   6.080  83.129  1.00  0.00    -0.285 OA
ATOM     33  C   UNL     1      59.243   8.786  80.870  1.00  0.00     0.146 A 
ATOM     34  C   UNL     1      60.481   8.257  82.915  1.00  0.00     0.134 A 
ATOM     35  C   UNL     1      60.139   9.824  80.608  1.00  0.00     0.094 A 
ATOM     36  C   UNL     1      61.368   9.297  82.613  1.00  0.00     0.093 A 
ATOM     37  C   UNL     1      61.202  10.080  81.468  1.00  0.00     0.123 A 
BRANCH  28  38
ATOM     38  C   UNL     1      56.303   7.460  79.156  1.00  0.00     0.025 A 
ATOM     39  C   UNL     1      55.014   7.945  79.399  1.00  0.00     0.062 A 
ATOM     40  C   UNL     1      56.585   6.800  77.952  1.00  0.00     0.016 A 
ATOM     41  C   UNL     1      53.999   7.755  78.457  1.00  0.00     0.158 A 
ATOM     42  C   UNL     1      55.582   6.639  76.993  1.00  0.00     0.051 A 
ATOM     43  C   UNL     1      54.287   7.117  77.235  1.00  0.00     0.157 A 
BRANCH  41  44
ATOM     44  O   UNL     1      52.707   8.194  78.752  1.00  0.00    -0.504 OA
ATOM     45  H   UNL     1      52.324   9.044  78.352  1.00  0.00     0.293 HD
ENDBRANCH  41  44
BRANCH  43  46
ATOM     46  O   UNL     1      53.287   6.964  76.273  1.00  0.00    -0.504 OA
ATOM     47  H   UNL     1      52.468   6.395  76.447  1.00  0.00     0.293 HD
ENDBRANCH  43  46
ENDBRANCH  28  38
BRANCH  34  48
ATOM     48  O   UNL     1      60.702   7.592  84.125  1.00  0.00    -0.507 OA
ATOM     49  H   UNL     1      60.022   7.446  84.852  1.00  0.00     0.293 HD
ENDBRANCH  34  48
BRANCH  37  50
ATOM     50  O   UNL     1      62.078  11.125  81.183  1.00  0.00    -0.508 OA
ATOM     51  H   UNL     1      61.751  12.081  81.104  1.00  0.00     0.293 HD
ENDBRANCH  37  50
ENDBRANCH  26  27
ENDBRANCH   5  26
BRANCH   4  52
ATOM     52  O   UNL     1      55.075   7.197  83.505  1.00  0.00    -0.384 OA
ATOM     53  H   UNL     1      54.927   7.531  82.589  1.00  0.00     0.211 HD
ENDBRANCH   4  52
TORSDOF 16
ENDMDL
MODEL 4
REMARK VINA RESULT:    -6.200      2.733      7.480
REMARK INTER + INTRA:         -11.792
REMARK INTER:                  -9.127
REMARK INTRA:                  -2.664
REMARK UNBOUND:                -1.604
REMARK SMILES C[C@H]1O[C@@H](OC[C@H]2O[C@@H](Oc3c(-c4ccc(O)c(O)c4)oc4cc(O)cc(O)c4c3=O)[C@@H](O)[C@@H](O)[C@@H]2O)[C@H](O)[C@H](O)[C@H]1O
REMARK SMILES IDX 7 1 36 2 34 3 32 4 9 5 8 6 6 7 5 8 4 9 1 10 2 11 42 12 3 13
REMARK SMILES IDX 40 14 38 15 43 16 41 18 39 20 37 22 35 24 10 26 11 27 12 28
REMARK SMILES IDX 30 29 21 30 29 31 31 32 22 33 27 34 23 35 26 36 24 37 13 38
REMARK SMILES IDX 20 39 14 40 18 41 15 42 16 43 19 44 17 46 28 48 25 50 33 52
REMARK H PARENT 43 17 41 19 39 21 37 23 35 25 19 45 17 47 28 49 25 51 33 53
REMARK Flexibility Score: inf
ROOT
ATOM      1  C   UNL     1      52.718   8.267  80.223  1.00  0.00     0.180 C 
ATOM      2  C   UNL     1      52.400   8.812  78.811  1.00  0.00     0.177 C 
ATOM      3  C   UNL     1      53.690   8.991  78.008  1.00  0.00     0.180 C 
ATOM      4  C   UNL     1      54.671   9.864  78.797  1.00  0.00     0.214 C 
ATOM      5  C   UNL     1      54.836   9.421  80.287  1.00  0.00     0.339 C 
ATOM      6  O   UNL     1      53.609   9.116  80.947  1.00  0.00    -0.332 OA
ENDROOT
BRANCH   1   7
ATOM      7  C   UNL     1      53.136   6.777  80.263  1.00  0.00     0.198 C 
BRANCH   7   8
ATOM      8  O   UNL     1      52.063   5.951  79.858  1.00  0.00    -0.347 OA
BRANCH   8   9
ATOM      9  C   UNL     1      52.121   4.656  80.426  1.00  0.00     0.281 C 
ATOM     10  C   UNL     1      52.733   4.691  77.377  1.00  0.00     0.041 C 
ATOM     11  C   UNL     1      52.497   3.524  78.355  1.00  0.00     0.150 C 
ATOM     12  C   UNL     1      51.039   2.978  78.332  1.00  0.00     0.174 C 
ATOM     13  O   UNL     1      52.976   3.800  79.670  1.00  0.00    -0.344 OA
ATOM     14  C   UNL     1      50.098   3.871  79.145  1.00  0.00     0.179 C 
ATOM     15  C   UNL     1      50.689   4.094  80.542  1.00  0.00     0.202 C 
BRANCH  12  16
ATOM     16  O   UNL     1      50.563   2.872  77.013  1.00  0.00    -0.388 OA
ATOM     17  H   UNL     1      51.240   3.306  76.431  1.00  0.00     0.211 HD
ENDBRANCH  12  16
BRANCH  14  18
ATOM     18  O   UNL     1      48.838   3.254  79.261  1.00  0.00    -0.387 OA
ATOM     19  H   UNL     1      48.975   2.280  79.105  1.00  0.00     0.211 HD
ENDBRANCH  14  18
BRANCH  15  20
ATOM     20  O   UNL     1      50.695   2.880  81.261  1.00  0.00    -0.385 OA
ATOM     21  H   UNL     1      51.396   2.966  81.956  1.00  0.00     0.211 HD
ENDBRANCH  15  20
ENDBRANCH   8   9
ENDBRANCH   7   8
ENDBRANCH   1   7
BRANCH   2  22
ATOM     22  O   UNL     1      51.740  10.048  78.949  1.00  0.00    -0.387 OA
ATOM     23  H   UNL     1      51.739  10.271  79.915  1.00  0.00     0.211 HD
ENDBRANCH   2  22
BRANCH   3  24
ATOM     24  O   UNL     1      54.271   7.748  77.705  1.00  0.00    -0.387 OA
ATOM     25  H   UNL     1      55.251   7.908  77.620  1.00  0.00     0.211 HD
ENDBRANCH   3  24
BRANCH   5  26
ATOM     26  O   UNL     1      55.758   8.336  80.443  1.00  0.00    -0.454 OA
BRANCH  26  27
ATOM     27  C   UNL     1      56.935   8.381  81.217  1.00  0.00     0.214 A 
ATOM     28  C   UNL     1      57.039   7.556  82.344  1.00  0.00     0.180 A 
ATOM     29  C   UNL     1      58.034   9.191  80.873  1.00  0.00     0.239 A 
ATOM     30  O   UNL     1      58.160   7.521  83.051  1.00  0.00    -0.452 OA
ATOM     31  C   UNL     1      59.236   9.111  81.621  1.00  0.00     0.111 A 
ATOM     32  O   UNL     1      57.925   9.984  79.901  1.00  0.00    -0.285 OA
ATOM     33  C   UNL     1      59.233   8.244  82.748  1.00  0.00     0.146 A 
ATOM     34  C   UNL     1      60.433   9.832  81.324  1.00  0.00     0.134 A 
ATOM     35  C   UNL     1      60.358   8.142  83.568  1.00  0.00     0.094 A 
ATOM     36  C   UNL     1      61.538   9.715  82.176  1.00  0.00     0.093 A 
ATOM     37  C   UNL     1      61.507   8.876  83.292  1.00  0.00     0.123 A 
BRANCH  28  38
ATOM     38  C   UNL     1      55.903   6.742  82.790  1.00  0.00     0.025 A 
ATOM     39  C   UNL     1      55.820   5.397  82.415  1.00  0.00     0.062 A 
ATOM     40  C   UNL     1      54.886   7.314  83.566  1.00  0.00     0.016 A 
ATOM     41  C   UNL     1      54.716   4.626  82.790  1.00  0.00     0.158 A 
ATOM     42  C   UNL     1      53.798   6.538  83.974  1.00  0.00     0.051 A 
ATOM     43  C   UNL     1      53.707   5.191  83.594  1.00  0.00     0.157 A 
BRANCH  41  44
ATOM     44  O   UNL     1      54.627   3.305  82.350  1.00  0.00    -0.504 OA
ATOM     45  H   UNL     1      53.755   2.905  82.021  1.00  0.00     0.293 HD
ENDBRANCH  41  44
BRANCH  43  46
ATOM     46  O   UNL     1      52.624   4.414  84.008  1.00  0.00    -0.504 OA
ATOM     47  H   UNL     1      52.758   3.546  84.512  1.00  0.00     0.293 HD
ENDBRANCH  43  46
ENDBRANCH  28  38
BRANCH  34  48
ATOM     48  O   UNL     1      60.608  10.642  80.198  1.00  0.00    -0.507 OA
ATOM     49  H   UNL     1      60.761  10.321  79.257  1.00  0.00     0.293 HD
ENDBRANCH  34  48
BRANCH  37  50
ATOM     50  O   UNL     1      62.616   8.751  84.125  1.00  0.00    -0.508 OA
ATOM     51  H   UNL     1      62.984   9.545  84.635  1.00  0.00     0.293 HD
ENDBRANCH  37  50
ENDBRANCH  26  27
ENDBRANCH   5  26
BRANCH   4  52
ATOM     52  O   UNL     1      55.894   9.947  78.114  1.00  0.00    -0.384 OA
ATOM     53  H   UNL     1      56.540  10.399  78.706  1.00  0.00     0.211 HD
ENDBRANCH   4  52
TORSDOF 16
ENDMDL
MODEL 5
REMARK VINA RESULT:    -6.094      2.743      6.202
REMARK INTER + INTRA:         -11.617
REMARK INTER:                 -10.271
REMARK INTRA:                  -1.346
REMARK UNBOUND:                -1.604
REMARK SMILES C[C@H]1O[C@@H](OC[C@H]2O[C@@H](Oc3c(-c4ccc(O)c(O)c4)oc4cc(O)cc(O)c4c3=O)[C@@H](O)[C@@H](O)[C@@H]2O)[C@H](O)[C@H](O)[C@H]1O
REMARK SMILES IDX 7 1 36 2 34 3 32 4 9 5 8 6 6 7 5 8 4 9 1 10 2 11 42 12 3 13
REMARK SMILES IDX 40 14 38 15 43 16 41 18 39 20 37 22 35 24 10 26 11 27 12 28
REMARK SMILES IDX 30 29 21 30 29 31 31 32 22 33 27 34 23 35 26 36 24 37 13 38
REMARK SMILES IDX 20 39 14 40 18 41 15 42 16 43 19 44 17 46 28 48 25 50 33 52
REMARK H PARENT 43 17 41 19 39 21 37 23 35 25 19 45 17 47 28 49 25 51 33 53
REMARK Flexibility Score: inf
ROOT
ATOM      1  C   UNL     1      56.501   4.720  81.654  1.00  0.00     0.180 C 
ATOM      2  C   UNL     1      57.311   4.473  82.948  1.00  0.00     0.177 C 
ATOM      3  C   UNL     1      57.815   5.799  83.521  1.00  0.00     0.180 C 
ATOM      4  C   UNL     1      58.594   6.563  82.445  1.00  0.00     0.214 C 
ATOM      5  C   UNL     1      57.847   6.637  81.074  1.00  0.00     0.339 C 
ATOM      6  O   UNL     1      57.261   5.405  80.657  1.00  0.00    -0.332 OA
ENDROOT
BRANCH   1   7
ATOM      7  C   UNL     1      55.099   5.339  81.876  1.00  0.00     0.198 C 
BRANCH   7   8
ATOM      8  O   UNL     1      54.205   4.914  80.866  1.00  0.00    -0.347 OA
BRANCH   8   9
ATOM      9  C   UNL     1      53.843   3.552  80.991  1.00  0.00     0.281 C 
ATOM     10  C   UNL     1      51.870   5.192  79.235  1.00  0.00     0.041 C 
ATOM     11  C   UNL     1      51.785   3.759  79.796  1.00  0.00     0.150 C 
ATOM     12  C   UNL     1      50.954   3.653  81.108  1.00  0.00     0.174 C 
ATOM     13  O   UNL     1      53.058   3.123  79.880  1.00  0.00    -0.344 OA
ATOM     14  C   UNL     1      51.774   4.097  82.323  1.00  0.00     0.179 C 
ATOM     15  C   UNL     1      53.112   3.347  82.334  1.00  0.00     0.202 C 
BRANCH  12  16
ATOM     16  O   UNL     1      49.782   4.426  81.025  1.00  0.00    -0.388 OA
ATOM     17  H   UNL     1      49.416   4.291  80.112  1.00  0.00     0.211 HD
ENDBRANCH  12  16
BRANCH  14  18
ATOM     18  O   UNL     1      51.066   3.813  83.505  1.00  0.00    -0.387 OA
ATOM     19  H   UNL     1      50.236   4.362  83.487  1.00  0.00     0.211 HD
ENDBRANCH  14  18
BRANCH  15  20
ATOM     20  O   UNL     1      52.891   1.974  82.570  1.00  0.00    -0.385 OA
ATOM     21  H   UNL     1      53.347   1.757  83.422  1.00  0.00     0.211 HD
ENDBRANCH  15  20
ENDBRANCH   8   9
ENDBRANCH   7   8
ENDBRANCH   1   7
BRANCH   2  22
ATOM     22  O   UNL     1      58.399   3.634  82.639  1.00  0.00    -0.387 OA
ATOM     23  H   UNL     1      58.193   2.740  83.015  1.00  0.00     0.211 HD
ENDBRANCH   2  22
BRANCH   3  24
ATOM     24  O   UNL     1      56.748   6.577  84.002  1.00  0.00    -0.387 OA
ATOM     25  H   UNL     1      57.155   7.387  84.417  1.00  0.00     0.211 HD
ENDBRANCH   3  24
BRANCH   5  26
ATOM     26  O   UNL     1      56.869   7.683  81.033  1.00  0.00    -0.454 OA
BRANCH  26  27
ATOM     27  C   UNL     1      56.510   8.408  79.879  1.00  0.00     0.214 A 
ATOM     28  C   UNL     1      57.398   9.367  79.376  1.00  0.00     0.180 A 
ATOM     29  C   UNL     1      55.310   8.172  79.181  1.00  0.00     0.239 A 
ATOM     30  O   UNL     1      57.123  10.016  78.253  1.00  0.00    -0.452 OA
ATOM     31  C   UNL     1      55.053   8.849  77.962  1.00  0.00     0.111 A 
ATOM     32  O   UNL     1      54.476   7.360  79.661  1.00  0.00    -0.285 OA
ATOM     33  C   UNL     1      56.020   9.806  77.544  1.00  0.00     0.146 A 
ATOM     34  C   UNL     1      53.906   8.641  77.136  1.00  0.00     0.134 A 
ATOM     35  C   UNL     1      55.822  10.553  76.382  1.00  0.00     0.094 A 
ATOM     36  C   UNL     1      53.734   9.417  75.984  1.00  0.00     0.093 A 
ATOM     37  C   UNL     1      54.684  10.368  75.603  1.00  0.00     0.123 A 
BRANCH  28  38
ATOM     38  C   UNL     1      58.631   9.705  80.097  1.00  0.00     0.025 A 
ATOM     39  C   UNL     1      59.806   8.991  79.840  1.00  0.00     0.062 A 
ATOM     40  C   UNL     1      58.628  10.719  81.064  1.00  0.00     0.016 A 
ATOM     41  C   UNL     1      60.972   9.269  80.558  1.00  0.00     0.158 A 
ATOM     42  C   UNL     1      59.801  11.024  81.759  1.00  0.00     0.051 A 
ATOM     43  C   UNL     1      60.979  10.306  81.509  1.00  0.00     0.157 A 
BRANCH  41  44
ATOM     44  O   UNL     1      62.114   8.500  80.324  1.00  0.00    -0.504 OA
ATOM     45  H   UNL     1      62.864   8.433  81.004  1.00  0.00     0.293 HD
ENDBRANCH  41  44
BRANCH  43  46
ATOM     46  O   UNL     1      62.154  10.617  82.198  1.00  0.00    -0.504 OA
ATOM     47  H   UNL     1      63.064  10.502  81.770  1.00  0.00     0.293 HD
ENDBRANCH  43  46
ENDBRANCH  28  38
BRANCH  34  48
ATOM     48  O   UNL     1      52.929   7.669  77.375  1.00  0.00    -0.507 OA
ATOM     49  H   UNL     1      52.905   7.034  78.155  1.00  0.00     0.293 HD
ENDBRANCH  34  48
BRANCH  37  50
ATOM     50  O   UNL     1      54.514  11.125  74.446  1.00  0.00    -0.508 OA
ATOM     51  H   UNL     1      54.434  10.687  73.537  1.00  0.00     0.293 HD
ENDBRANCH  37  50
ENDBRANCH  26  27
ENDBRANCH   5  26
BRANCH   4  52
ATOM     52  O   UNL     1      58.970   7.824  82.932  1.00  0.00    -0.384 OA
ATOM     53  H   UNL     1      59.431   8.302  82.203  1.00  0.00     0.211 HD
ENDBRANCH   4  52
TORSDOF 16
ENDMDL
MODEL 6
REMARK VINA RESULT:    -5.976      1.757      4.938
REMARK INTER + INTRA:         -11.422
REMARK INTER:                  -9.592
REMARK INTRA:                  -1.830
REMARK UNBOUND:                -1.604
REMARK SMILES C[C@H]1O[C@@H](OC[C@H]2O[C@@H](Oc3c(-c4ccc(O)c(O)c4)oc4cc(O)cc(O)c4c3=O)[C@@H](O)[C@@H](O)[C@@H]2O)[C@H](O)[C@H](O)[C@H]1O
REMARK SMILES IDX 7 1 36 2 34 3 32 4 9 5 8 6 6 7 5 8 4 9 1 10 2 11 42 12 3 13
REMARK SMILES IDX 40 14 38 15 43 16 41 18 39 20 37 22 35 24 10 26 11 27 12 28
REMARK SMILES IDX 30 29 21 30 29 31 31 32 22 33 27 34 23 35 26 36 24 37 13 38
REMARK SMILES IDX 20 39 14 40 18 41 15 42 16 43 19 44 17 46 28 48 25 50 33 52
REMARK H PARENT 43 17 41 19 39 21 37 23 35 25 19 45 17 47 28 49 25 51 33 53
REMARK Flexibility Score: inf
ROOT
ATOM      1  C   UNL     1      55.724   6.591  82.740  1.00  0.00     0.180 C 
ATOM      2  C   UNL     1      55.715   7.661  83.858  1.00  0.00     0.177 C 
ATOM      3  C   UNL     1      54.896   8.878  83.422  1.00  0.00     0.180 C 
ATOM      4  C   UNL     1      55.419   9.397  82.078  1.00  0.00     0.214 C 
ATOM      5  C   UNL     1      55.613   8.271  81.011  1.00  0.00     0.339 C 
ATOM      6  O   UNL     1      56.245   7.093  81.509  1.00  0.00    -0.332 OA
ENDROOT
BRANCH   1   7
ATOM      7  C   UNL     1      54.388   5.828  82.565  1.00  0.00     0.198 C 
BRANCH   7   8
ATOM      8  O   UNL     1      54.491   4.886  81.515  1.00  0.00    -0.347 OA
BRANCH   8   9
ATOM      9  C   UNL     1      53.412   3.971  81.490  1.00  0.00     0.281 C 
ATOM     10  C   UNL     1      55.146   3.901  78.910  1.00  0.00     0.041 C 
ATOM     11  C   UNL     1      53.794   3.241  79.247  1.00  0.00     0.150 C 
ATOM     12  C   UNL     1      52.564   4.039  78.724  1.00  0.00     0.174 C 
ATOM     13  O   UNL     1      53.687   2.874  80.621  1.00  0.00    -0.344 OA
ATOM     14  C   UNL     1      52.237   5.220  79.643  1.00  0.00     0.179 C 
ATOM     15  C   UNL     1      52.125   4.722  81.090  1.00  0.00     0.202 C 
BRANCH  12  16
ATOM     16  O   UNL     1      52.788   4.510  77.418  1.00  0.00    -0.388 OA
ATOM     17  H   UNL     1      53.081   5.454  77.503  1.00  0.00     0.211 HD
ENDBRANCH  12  16
BRANCH  14  18
ATOM     18  O   UNL     1      51.017   5.803  79.252  1.00  0.00    -0.387 OA
ATOM     19  H   UNL     1      50.304   5.128  79.418  1.00  0.00     0.211 HD
ENDBRANCH  14  18
BRANCH  15  20
ATOM     20  O   UNL     1      51.002   3.879  81.223  1.00  0.00    -0.385 OA
ATOM     21  H   UNL     1      51.208   3.052  80.716  1.00  0.00     0.211 HD
ENDBRANCH  15  20
ENDBRANCH   8   9
ENDBRANCH   7   8
ENDBRANCH   1   7
BRANCH   2  22
ATOM     22  O   UNL     1      57.045   8.041  84.120  1.00  0.00    -0.387 OA
ATOM     23  H   UNL     1      57.204   7.895  85.088  1.00  0.00     0.211 HD
ENDBRANCH   2  22
BRANCH   3  24
ATOM     24  O   UNL     1      53.531   8.559  83.328  1.00  0.00    -0.387 OA
ATOM     25  H   UNL     1      53.071   9.074  84.047  1.00  0.00     0.211 HD
ENDBRANCH   3  24
BRANCH   5  26
ATOM     26  O   UNL     1      54.393   7.925  80.343  1.00  0.00    -0.454 OA
BRANCH  26  27
ATOM     27  C   UNL     1      53.901   8.556  79.183  1.00  0.00     0.214 A 
ATOM     28  C   UNL     1      54.770   8.768  78.105  1.00  0.00     0.180 A 
ATOM     29  C   UNL     1      52.553   8.938  79.045  1.00  0.00     0.239 A 
ATOM     30  O   UNL     1      54.322   9.293  76.973  1.00  0.00    -0.452 OA
ATOM     31  C   UNL     1      52.087   9.463  77.813  1.00  0.00     0.111 A 
ATOM     32  O   UNL     1      51.781   8.812  80.031  1.00  0.00    -0.285 OA
ATOM     33  C   UNL     1      53.054   9.641  76.785  1.00  0.00     0.146 A 
ATOM     34  C   UNL     1      50.732   9.820  77.537  1.00  0.00     0.134 A 
ATOM     35  C   UNL     1      52.690  10.197  75.558  1.00  0.00     0.094 A 
ATOM     36  C   UNL     1      50.405  10.387  76.299  1.00  0.00     0.093 A 
ATOM     37  C   UNL     1      51.375  10.576  75.311  1.00  0.00     0.123 A 
BRANCH  28  38
ATOM     38  C   UNL     1      56.199   8.453  78.215  1.00  0.00     0.025 A 
ATOM     39  C   UNL     1      57.118   9.473  78.483  1.00  0.00     0.062 A 
ATOM     40  C   UNL     1      56.649   7.140  78.025  1.00  0.00     0.016 A 
ATOM     41  C   UNL     1      58.486   9.192  78.539  1.00  0.00     0.158 A 
ATOM     42  C   UNL     1      58.013   6.849  78.115  1.00  0.00     0.051 A 
ATOM     43  C   UNL     1      58.938   7.869  78.376  1.00  0.00     0.157 A 
BRANCH  41  44
ATOM     44  O   UNL     1      59.387  10.239  78.746  1.00  0.00    -0.504 OA
ATOM     45  H   UNL     1      60.079  10.497  78.051  1.00  0.00     0.293 HD
ENDBRANCH  41  44
BRANCH  43  46
ATOM     46  O   UNL     1      60.300   7.577  78.474  1.00  0.00    -0.504 OA
ATOM     47  H   UNL     1      60.641   6.624  78.441  1.00  0.00     0.293 HD
ENDBRANCH  43  46
ENDBRANCH  28  38
BRANCH  34  48
ATOM     48  O   UNL     1      49.666   9.610  78.417  1.00  0.00    -0.507 OA
ATOM     49  H   UNL     1      48.924   8.941  78.297  1.00  0.00     0.293 HD
ENDBRANCH  34  48
BRANCH  37  50
ATOM     50  O   UNL     1      51.040  11.125  74.075  1.00  0.00    -0.508 OA
ATOM     51  H   UNL     1      50.377  11.887  73.999  1.00  0.00     0.293 HD
ENDBRANCH  37  50
ENDBRANCH  26  27
ENDBRANCH   5  26
BRANCH   4  52
ATOM     52  O   UNL     1      54.608  10.447  81.622  1.00  0.00    -0.384 OA
ATOM     53  H   UNL     1      53.668  10.175  81.741  1.00  0.00     0.211 HD
ENDBRANCH   4  52
TORSDOF 16
ENDMDL
MODEL 7
REMARK VINA RESULT:    -5.938      3.305      7.335
REMARK INTER + INTRA:         -11.360
REMARK INTER:                  -9.698
REMARK INTRA:                  -1.663
REMARK UNBOUND:                -1.604
REMARK SMILES C[C@H]1O[C@@H](OC[C@H]2O[C@@H](Oc3c(-c4ccc(O)c(O)c4)oc4cc(O)cc(O)c4c3=O)[C@@H](O)[C@@H](O)[C@@H]2O)[C@H](O)[C@H](O)[C@H]1O
REMARK SMILES IDX 7 1 36 2 34 3 32 4 9 5 8 6 6 7 5 8 4 9 1 10 2 11 42 12 3 13
REMARK SMILES IDX 40 14 38 15 43 16 41 18 39 20 37 22 35 24 10 26 11 27 12 28
REMARK SMILES IDX 30 29 21 30 29 31 31 32 22 33 27 34 23 35 26 36 24 37 13 38
REMARK SMILES IDX 20 39 14 40 18 41 15 42 16 43 19 44 17 46 28 48 25 50 33 52
REMARK H PARENT 43 17 41 19 39 21 37 23 35 25 19 45 17 47 28 49 25 51 33 53
REMARK Flexibility Score: inf
ROOT
ATOM      1  C   UNL     1      58.904   8.604  78.082  1.00  0.00     0.180 C 
ATOM      2  C   UNL     1      58.906   9.964  77.344  1.00  0.00     0.177 C 
ATOM      3  C   UNL     1      57.586  10.701  77.585  1.00  0.00     0.180 C 
ATOM      4  C   UNL     1      56.413   9.795  77.200  1.00  0.00     0.214 C 
ATOM      5  C   UNL     1      56.521   8.352  77.793  1.00  0.00     0.339 C 
ATOM      6  O   UNL     1      57.818   7.768  77.680  1.00  0.00    -0.332 OA
ENDROOT
BRANCH   1   7
ATOM      7  C   UNL     1      59.056   8.701  79.620  1.00  0.00     0.198 C 
BRANCH   7   8
ATOM      8  O   UNL     1      60.335   9.198  79.960  1.00  0.00    -0.347 OA
BRANCH   8   9
ATOM      9  C   UNL     1      60.280  10.286  80.862  1.00  0.00     0.281 C 
ATOM     10  C   UNL     1      63.057   8.890  80.786  1.00  0.00     0.041 C 
ATOM     11  C   UNL     1      62.483   9.966  81.729  1.00  0.00     0.150 C 
ATOM     12  C   UNL     1      61.928   9.390  83.065  1.00  0.00     0.174 C 
ATOM     13  O   UNL     1      61.574  10.847  81.072  1.00  0.00    -0.344 OA
ATOM     14  C   UNL     1      60.533   8.789  82.873  1.00  0.00     0.179 C 
ATOM     15  C   UNL     1      59.628   9.815  82.179  1.00  0.00     0.202 C 
BRANCH  12  16
ATOM     16  O   UNL     1      62.792   8.413  83.589  1.00  0.00    -0.388 OA
ATOM     17  H   UNL     1      62.257   7.873  84.227  1.00  0.00     0.211 HD
ENDBRANCH  12  16
BRANCH  14  18
ATOM     18  O   UNL     1      59.984   8.452  84.125  1.00  0.00    -0.387 OA
ATOM     19  H   UNL     1      60.004   7.459  84.194  1.00  0.00     0.211 HD
ENDBRANCH  14  18
BRANCH  15  20
ATOM     20  O   UNL     1      59.400  10.913  83.035  1.00  0.00    -0.385 OA
ATOM     21  H   UNL     1      58.470  11.211  82.870  1.00  0.00     0.211 HD
ENDBRANCH  15  20
ENDBRANCH   8   9
ENDBRANCH   7   8
ENDBRANCH   1   7
BRANCH   2  22
ATOM     22  O   UNL     1      59.083   9.724  75.968  1.00  0.00    -0.387 OA
ATOM     23  H   UNL     1      58.857  10.565  75.495  1.00  0.00     0.211 HD
ENDBRANCH   2  22
BRANCH   3  24
ATOM     24  O   UNL     1      57.475  11.108  78.925  1.00  0.00    -0.387 OA
ATOM     25  H   UNL     1      57.326  10.280  79.459  1.00  0.00     0.211 HD
ENDBRANCH   3  24
BRANCH   5  26
ATOM     26  O   UNL     1      56.067   8.276  79.149  1.00  0.00    -0.454 OA
BRANCH  26  27
ATOM     27  C   UNL     1      55.435   7.157  79.728  1.00  0.00     0.214 A 
ATOM     28  C   UNL     1      54.164   6.784  79.273  1.00  0.00     0.180 A 
ATOM     29  C   UNL     1      56.054   6.367  80.716  1.00  0.00     0.239 A 
ATOM     30  O   UNL     1      53.573   5.695  79.745  1.00  0.00    -0.452 OA
ATOM     31  C   UNL     1      55.420   5.186  81.180  1.00  0.00     0.111 A 
ATOM     32  O   UNL     1      57.167   6.731  81.178  1.00  0.00    -0.285 OA
ATOM     33  C   UNL     1      54.129   4.903  80.654  1.00  0.00     0.146 A 
ATOM     34  C   UNL     1      55.981   4.274  82.125  1.00  0.00     0.134 A 
ATOM     35  C   UNL     1      53.414   3.787  81.093  1.00  0.00     0.094 A 
ATOM     36  C   UNL     1      55.230   3.173  82.552  1.00  0.00     0.093 A 
ATOM     37  C   UNL     1      53.954   2.925  82.041  1.00  0.00     0.123 A 
BRANCH  28  38
ATOM     38  C   UNL     1      53.442   7.607  78.295  1.00  0.00     0.025 A 
ATOM     39  C   UNL     1      52.582   8.618  78.736  1.00  0.00     0.062 A 
ATOM     40  C   UNL     1      53.589   7.365  76.923  1.00  0.00     0.016 A 
ATOM     41  C   UNL     1      51.850   9.373  77.815  1.00  0.00     0.158 A 
ATOM     42  C   UNL     1      52.886   8.141  75.998  1.00  0.00     0.051 A 
ATOM     43  C   UNL     1      52.017   9.150  76.435  1.00  0.00     0.157 A 
BRANCH  41  44
ATOM     44  O   UNL     1      50.952  10.333  78.285  1.00  0.00    -0.504 OA
ATOM     45  H   UNL     1      49.948  10.209  78.215  1.00  0.00     0.293 HD
ENDBRANCH  41  44
BRANCH  43  46
ATOM     46  O   UNL     1      51.322   9.932  75.510  1.00  0.00    -0.504 OA
ATOM     47  H   UNL     1      51.360  10.943  75.537  1.00  0.00     0.293 HD
ENDBRANCH  43  46
ENDBRANCH  28  38
BRANCH  34  48
ATOM     48  O   UNL     1      57.273   4.377  82.649  1.00  0.00    -0.507 OA
ATOM     49  H   UNL     1      57.533   4.247  83.612  1.00  0.00     0.293 HD
ENDBRANCH  34  48
BRANCH  37  50
ATOM     50  O   UNL     1      53.219   1.817  82.458  1.00  0.00    -0.508 OA
ATOM     51  H   UNL     1      52.356   1.554  81.998  1.00  0.00     0.293 HD
ENDBRANCH  37  50
ENDBRANCH  26  27
ENDBRANCH   5  26
BRANCH   4  52
ATOM     52  O   UNL     1      55.199  10.424  77.515  1.00  0.00    -0.384 OA
ATOM     53  H   UNL     1      54.859  10.850  76.693  1.00  0.00     0.211 HD
ENDBRANCH   4  52
TORSDOF 16
ENDMDL
MODEL 8
REMARK VINA RESULT:    -5.883      2.677      5.366
REMARK INTER + INTRA:         -11.270
REMARK INTER:                  -9.668
REMARK INTRA:                  -1.602
REMARK UNBOUND:                -1.604
REMARK SMILES C[C@H]1O[C@@H](OC[C@H]2O[C@@H](Oc3c(-c4ccc(O)c(O)c4)oc4cc(O)cc(O)c4c3=O)[C@@H](O)[C@@H](O)[C@@H]2O)[C@H](O)[C@H](O)[C@H]1O
REMARK SMILES IDX 7 1 36 2 34 3 32 4 9 5 8 6 6 7 5 8 4 9 1 10 2 11 42 12 3 13
REMARK SMILES IDX 40 14 38 15 43 16 41 18 39 20 37 22 35 24 10 26 11 27 12 28
REMARK SMILES IDX 30 29 21 30 29 31 31 32 22 33 27 34 23 35 26 36 24 37 13 38
REMARK SMILES IDX 20 39 14 40 18 41 15 42 16 43 19 44 17 46 28 48 25 50 33 52
REMARK H PARENT 43 17 41 19 39 21 37 23 35 25 19 45 17 47 28 49 25 51 33 53
REMARK Flexibility Score: inf
ROOT
ATOM      1  C   UNL     1      56.959   7.441  83.042  1.00  0.00     0.180 C 
ATOM      2  C   UNL     1      58.066   6.370  82.897  1.00  0.00     0.177 C 
ATOM      3  C   UNL     1      57.707   5.382  81.785  1.00  0.00     0.180 C 
ATOM      4  C   UNL     1      56.316   4.796  82.045  1.00  0.00     0.214 C 
ATOM      5  C   UNL     1      55.241   5.879  82.387  1.00  0.00     0.339 C 
ATOM      6  O   UNL     1      55.680   6.869  83.315  1.00  0.00    -0.332 OA
ENDROOT
BRANCH   1   7
ATOM      7  C   UNL     1      56.922   8.491  81.905  1.00  0.00     0.198 C 
BRANCH   7   8
ATOM      8  O   UNL     1      58.227   8.752  81.429  1.00  0.00    -0.347 OA
BRANCH   8   9
ATOM      9  C   UNL     1      58.716  10.017  81.830  1.00  0.00     0.281 C 
ATOM     10  C   UNL     1      60.442   8.677  79.618  1.00  0.00     0.041 C 
ATOM     11  C   UNL     1      60.684   9.933  80.478  1.00  0.00     0.150 C 
ATOM     12  C   UNL     1      61.587   9.672  81.719  1.00  0.00     0.174 C 
ATOM     13  O   UNL     1      59.479  10.628  80.792  1.00  0.00    -0.344 OA
ATOM     14  C   UNL     1      60.792   9.025  82.858  1.00  0.00     0.179 C 
ATOM     15  C   UNL     1      59.530   9.852  83.131  1.00  0.00     0.202 C 
BRANCH  12  16
ATOM     16  O   UNL     1      62.678   8.852  81.384  1.00  0.00    -0.388 OA
ATOM     17  H   UNL     1      62.300   7.983  81.088  1.00  0.00     0.211 HD
ENDBRANCH  12  16
BRANCH  14  18
ATOM     18  O   UNL     1      61.582   8.977  84.021  1.00  0.00    -0.387 OA
ATOM     19  H   UNL     1      61.208   9.645  84.657  1.00  0.00     0.211 HD
ENDBRANCH  14  18
BRANCH  15  20
ATOM     20  O   UNL     1      59.885  11.114  83.652  1.00  0.00    -0.385 OA
ATOM     21  H   UNL     1      59.823  11.040  84.638  1.00  0.00     0.211 HD
ENDBRANCH  15  20
ENDBRANCH   8   9
ENDBRANCH   7   8
ENDBRANCH   1   7
BRANCH   2  22
ATOM     22  O   UNL     1      58.193   5.692  84.125  1.00  0.00    -0.387 OA
ATOM     23  H   UNL     1      58.295   4.728  83.916  1.00  0.00     0.211 HD
ENDBRANCH   2  22
BRANCH   3  24
ATOM     24  O   UNL     1      57.752   6.004  80.526  1.00  0.00    -0.387 OA
ATOM     25  H   UNL     1      58.445   6.718  80.589  1.00  0.00     0.211 HD
ENDBRANCH   3  24
BRANCH   5  26
ATOM     26  O   UNL     1      54.700   6.509  81.220  1.00  0.00    -0.454 OA
BRANCH  26  27
ATOM     27  C   UNL     1      53.843   5.887  80.289  1.00  0.00     0.214 A 
ATOM     28  C   UNL     1      54.126   6.003  78.922  1.00  0.00     0.180 A 
ATOM     29  C   UNL     1      52.737   5.110  80.683  1.00  0.00     0.239 A 
ATOM     30  O   UNL     1      53.382   5.370  78.025  1.00  0.00    -0.452 OA
ATOM     31  C   UNL     1      51.978   4.412  79.710  1.00  0.00     0.111 A 
ATOM     32  O   UNL     1      52.436   5.054  81.904  1.00  0.00    -0.285 OA
ATOM     33  C   UNL     1      52.349   4.603  78.350  1.00  0.00     0.146 A 
ATOM     34  C   UNL     1      50.881   3.543  79.997  1.00  0.00     0.134 A 
ATOM     35  C   UNL     1      51.624   3.992  77.325  1.00  0.00     0.094 A 
ATOM     36  C   UNL     1      50.169   2.958  78.943  1.00  0.00     0.093 A 
ATOM     37  C   UNL     1      50.535   3.176  77.613  1.00  0.00     0.123 A 
BRANCH  28  38
ATOM     38  C   UNL     1      55.224   6.854  78.450  1.00  0.00     0.025 A 
ATOM     39  C   UNL     1      55.137   8.244  78.588  1.00  0.00     0.062 A 
ATOM     40  C   UNL     1      56.346   6.283  77.835  1.00  0.00     0.016 A 
ATOM     41  C   UNL     1      56.153   9.067  78.094  1.00  0.00     0.158 A 
ATOM     42  C   UNL     1      57.380   7.100  77.372  1.00  0.00     0.051 A 
ATOM     43  C   UNL     1      57.294   8.494  77.501  1.00  0.00     0.157 A 
BRANCH  41  44
ATOM     44  O   UNL     1      56.012  10.452  78.189  1.00  0.00    -0.504 OA
ATOM     45  H   UNL     1      55.508  10.990  77.492  1.00  0.00     0.293 HD
ENDBRANCH  41  44
BRANCH  43  46
ATOM     46  O   UNL     1      58.332   9.310  77.046  1.00  0.00    -0.504 OA
ATOM     47  H   UNL     1      59.300   9.029  77.128  1.00  0.00     0.293 HD
ENDBRANCH  43  46
ENDBRANCH  28  38
BRANCH  34  48
ATOM     48  O   UNL     1      50.471   3.191  81.287  1.00  0.00    -0.507 OA
ATOM     49  H   UNL     1      50.048   3.806  81.961  1.00  0.00     0.293 HD
ENDBRANCH  34  48
BRANCH  37  50
ATOM     50  O   UNL     1      49.832   2.577  76.570  1.00  0.00    -0.508 OA
ATOM     51  H   UNL     1      49.945   1.594  76.355  1.00  0.00     0.293 HD
ENDBRANCH  37  50
ENDBRANCH  26  27
ENDBRANCH   5  26
BRANCH   4  52
ATOM     52  O   UNL     1      55.937   3.969  80.977  1.00  0.00    -0.384 OA
ATOM     53  H   UNL     1      56.347   3.084  81.121  1.00  0.00     0.211 HD
ENDBRANCH   4  52
TORSDOF 16
ENDMDL
MODEL 9
REMARK VINA RESULT:    -5.798      2.120      5.027
REMARK INTER + INTRA:         -11.131
REMARK INTER:                  -8.786
REMARK INTRA:                  -2.345
REMARK UNBOUND:                -1.604
REMARK SMILES C[C@H]1O[C@@H](OC[C@H]2O[C@@H](Oc3c(-c4ccc(O)c(O)c4)oc4cc(O)cc(O)c4c3=O)[C@@H](O)[C@@H](O)[C@@H]2O)[C@H](O)[C@H](O)[C@H]1O
REMARK SMILES IDX 7 1 36 2 34 3 32 4 9 5 8 6 6 7 5 8 4 9 1 10 2 11 42 12 3 13
REMARK SMILES IDX 40 14 38 15 43 16 41 18 39 20 37 22 35 24 10 26 11 27 12 28
REMARK SMILES IDX 30 29 21 30 29 31 31 32 22 33 27 34 23 35 26 36 24 37 13 38
REMARK SMILES IDX 20 39 14 40 18 41 15 42 16 43 19 44 17 46 28 48 25 50 33 52
REMARK H PARENT 43 17 41 19 39 21 37 23 35 25 19 45 17 47 28 49 25 51 33 53
REMARK Flexibility Score: inf
ROOT
ATOM      1  C   UNL     1      54.029   9.365  78.286  1.00  0.00     0.180 C 
ATOM      2  C   UNL     1      52.878   9.210  77.263  1.00  0.00     0.177 C 
ATOM      3  C   UNL     1      52.032   7.980  77.599  1.00  0.00     0.180 C 
ATOM      4  C   UNL     1      52.933   6.746  77.702  1.00  0.00     0.214 C 
ATOM      5  C   UNL     1      54.203   6.977  78.583  1.00  0.00     0.339 C 
ATOM      6  O   UNL     1      54.871   8.213  78.338  1.00  0.00    -0.332 OA
ENDROOT
BRANCH   1   7
ATOM      7  C   UNL     1      53.588   9.855  79.687  1.00  0.00     0.198 C 
BRANCH   7   8
ATOM      8  O   UNL     1      54.645   9.713  80.616  1.00  0.00    -0.347 OA
BRANCH   8   9
ATOM      9  C   UNL     1      54.318  10.207  81.901  1.00  0.00     0.281 C 
ATOM     10  C   UNL     1      57.366  10.285  81.292  1.00  0.00     0.041 C 
ATOM     11  C   UNL     1      56.580  10.531  82.595  1.00  0.00     0.150 C 
ATOM     12  C   UNL     1      56.524   9.289  83.532  1.00  0.00     0.174 C 
ATOM     13  O   UNL     1      55.304  11.125  82.366  1.00  0.00    -0.344 OA
ATOM     14  C   UNL     1      55.464   8.288  83.063  1.00  0.00     0.179 C 
ATOM     15  C   UNL     1      54.130   9.016  82.864  1.00  0.00     0.202 C 
BRANCH  12  16
ATOM     16  O   UNL     1      57.775   8.652  83.598  1.00  0.00    -0.388 OA
ATOM     17  H   UNL     1      57.627   7.706  83.337  1.00  0.00     0.211 HD
ENDBRANCH  12  16
BRANCH  14  18
ATOM     18  O   UNL     1      55.307   7.276  84.029  1.00  0.00    -0.387 OA
ATOM     19  H   UNL     1      55.672   7.629  84.885  1.00  0.00     0.211 HD
ENDBRANCH  14  18
BRANCH  15  20
ATOM     20  O   UNL     1      53.635   9.462  84.107  1.00  0.00    -0.385 OA
ATOM     21  H   UNL     1      53.720   8.701  84.735  1.00  0.00     0.211 HD
ENDBRANCH  15  20
ENDBRANCH   8   9
ENDBRANCH   7   8
ENDBRANCH   1   7
BRANCH   2  22
ATOM     22  O   UNL     1      53.439   9.076  75.979  1.00  0.00    -0.387 OA
ATOM     23  H   UNL     1      52.846   9.561  75.350  1.00  0.00     0.211 HD
ENDBRANCH   2  22
BRANCH   3  24
ATOM     24  O   UNL     1      51.320   8.171  78.796  1.00  0.00    -0.387 OA
ATOM     25  H   UNL     1      50.458   8.605  78.545  1.00  0.00     0.211 HD
ENDBRANCH   3  24
BRANCH   5  26
ATOM     26  O   UNL     1      53.938   6.835  79.984  1.00  0.00    -0.454 OA
BRANCH  26  27
ATOM     27  C   UNL     1      53.873   5.607  80.673  1.00  0.00     0.214 A 
ATOM     28  C   UNL     1      55.059   4.911  80.935  1.00  0.00     0.180 A 
ATOM     29  C   UNL     1      52.661   5.074  81.152  1.00  0.00     0.239 A 
ATOM     30  O   UNL     1      55.039   3.790  81.643  1.00  0.00    -0.452 OA
ATOM     31  C   UNL     1      52.666   3.894  81.939  1.00  0.00     0.111 A 
ATOM     32  O   UNL     1      51.583   5.658  80.865  1.00  0.00    -0.285 OA
ATOM     33  C   UNL     1      53.926   3.265  82.141  1.00  0.00     0.146 A 
ATOM     34  C   UNL     1      51.510   3.302  82.534  1.00  0.00     0.134 A 
ATOM     35  C   UNL     1      54.016   2.073  82.862  1.00  0.00     0.094 A 
ATOM     36  C   UNL     1      51.636   2.100  83.239  1.00  0.00     0.093 A 
ATOM     37  C   UNL     1      52.879   1.485  83.407  1.00  0.00     0.123 A 
BRANCH  28  38
ATOM     38  C   UNL     1      56.343   5.382  80.402  1.00  0.00     0.025 A 
ATOM     39  C   UNL     1      57.183   6.164  81.201  1.00  0.00     0.062 A 
ATOM     40  C   UNL     1      56.717   5.075  79.087  1.00  0.00     0.016 A 
ATOM     41  C   UNL     1      58.384   6.661  80.686  1.00  0.00     0.158 A 
ATOM     42  C   UNL     1      57.933   5.541  78.580  1.00  0.00     0.051 A 
ATOM     43  C   UNL     1      58.775   6.331  79.375  1.00  0.00     0.157 A 
BRANCH  41  44
ATOM     44  O   UNL     1      59.174   7.491  81.484  1.00  0.00    -0.504 OA
ATOM     45  H   UNL     1      59.743   8.232  81.090  1.00  0.00     0.293 HD
ENDBRANCH  41  44
BRANCH  43  46
ATOM     46  O   UNL     1      59.994   6.789  78.871  1.00  0.00    -0.504 OA
ATOM     47  H   UNL     1      60.249   6.655  77.901  1.00  0.00     0.293 HD
ENDBRANCH  43  46
ENDBRANCH  28  38
BRANCH  34  48
ATOM     48  O   UNL     1      50.230   3.863  82.497  1.00  0.00    -0.507 OA
ATOM     49  H   UNL     1      49.626   3.904  81.693  1.00  0.00     0.293 HD
ENDBRANCH  34  48
BRANCH  37  50
ATOM     50  O   UNL     1      52.999   0.297  84.125  1.00  0.00    -0.508 OA
ATOM     51  H   UNL     1      52.211  -0.329  84.245  1.00  0.00     0.293 HD
ENDBRANCH  37  50
ENDBRANCH  26  27
ENDBRANCH   5  26
BRANCH   4  52
ATOM     52  O   UNL     1      52.179   5.636  78.111  1.00  0.00    -0.384 OA
ATOM     53  H   UNL     1      51.827   5.196  77.301  1.00  0.00     0.211 HD
ENDBRANCH   4  52
TORSDOF 16
ENDMDL
