MODEL 1
REMARK VINA RESULT:    -3.382      0.000      0.000
REMARK INTER + INTRA:         -14.227
REMARK INTER:                  -8.521
REMARK INTRA:                  -5.705
REMARK UNBOUND:                -5.705
REMARK SMILES CCCCCCCCCCCCCCCCCCCCCCCCCCCC(=O)[O-]
REMARK SMILES IDX 15 1 16 2 17 3 18 4 19 5 20 6 21 7 22 8 23 9 24 10 25 11
REMARK SMILES IDX 26 12 27 13 28 14 29 15 30 16 14 17 13 18 12 19 11 20 10 21
REMARK SMILES IDX 9 22 8 23 7 24 6 25 5 26 4 27 3 28 2 29 1 30
REMARK H PARENT
REMARK Flexibility Score: inf
ROOT
ATOM      1  C   UNL     1     131.584 118.591 121.139  1.00  0.00     0.000 C 
ENDROOT
BRANCH   1   2
ATOM      2  C   UNL     1     132.416 118.330 119.873  1.00  0.00     0.000 C 
BRANCH   2   3
ATOM      3  C   UNL     1     132.651 119.629 119.088  1.00  0.00     0.000 C 
BRANCH   3   4
ATOM      4  C   UNL     1     132.034 119.601 117.677  1.00  0.00     0.000 C 
BRANCH   4   5
ATOM      5  C   UNL     1     130.726 120.397 117.523  1.00  0.00     0.000 C 
BRANCH   5   6
ATOM      6  C   UNL     1     130.358 121.196 118.785  1.00  0.00     0.000 C 
BRANCH   6   7
ATOM      7  C   UNL     1     128.861 121.097 119.124  1.00  0.00     0.000 C 
BRANCH   7   8
ATOM      8  C   UNL     1     128.557 121.535 120.568  1.00  0.00     0.000 C 
BRANCH   8   9
ATOM      9  C   UNL     1     127.098 121.275 120.978  1.00  0.00     0.000 C 
BRANCH   9  10
ATOM     10  C   UNL     1     126.848 119.915 121.663  1.00  0.00     0.000 C 
BRANCH  10  11
ATOM     11  C   UNL     1     125.392 119.409 121.610  1.00  0.00     0.000 C 
BRANCH  11  12
ATOM     12  C   UNL     1     124.795 118.998 122.968  1.00  0.00     0.006 C 
BRANCH  12  13
ATOM     13  C   UNL     1     123.666 119.928 123.432  1.00  0.00     0.053 C 
BRANCH  13  14
ATOM     14  C   UNL     1     124.231 121.196 123.992  1.00  0.00     0.041 C 
ATOM     15  O   UNL     1     123.722 122.309 123.680  1.00  0.00    -0.550 OA
ATOM     16  O   UNL     1     125.327 121.155 124.844  1.00  0.00    -0.550 OA
ENDBRANCH  13  14
ENDBRANCH  12  13
ENDBRANCH  11  12
ENDBRANCH  10  11
ENDBRANCH   9  10
ENDBRANCH   8   9
ENDBRANCH   7   8
ENDBRANCH   6   7
ENDBRANCH   5   6
ENDBRANCH   4   5
ENDBRANCH   3   4
ENDBRANCH   2   3
ENDBRANCH   1   2
BRANCH   1  17
ATOM     17  C   UNL     1     130.116 118.161 120.983  1.00  0.00     0.000 C 
BRANCH  17  18
ATOM     18  C   UNL     1     129.830 117.269 119.758  1.00  0.00     0.000 C 
BRANCH  18  19
ATOM     19  C   UNL     1     128.410 117.447 119.177  1.00  0.00     0.000 C 
BRANCH  19  20
ATOM     20  C   UNL     1     128.420 117.647 117.651  1.00  0.00     0.000 C 
BRANCH  20  21
ATOM     21  C   UNL     1     127.216 118.468 117.163  1.00  0.00     0.000 C 
BRANCH  21  22
ATOM     22  C   UNL     1     126.061 118.477 118.180  1.00  0.00    -0.000 C 
BRANCH  22  23
ATOM     23  C   UNL     1     124.899 119.383 117.739  1.00  0.00    -0.000 C 
BRANCH  23  24
ATOM     24  C   UNL     1     125.242 120.878 117.876  1.00  0.00    -0.000 C 
BRANCH  24  25
ATOM     25  C   UNL     1     124.169 121.793 117.266  1.00  0.00    -0.000 C 
BRANCH  25  26
ATOM     26  C   UNL     1     123.544 122.747 118.299  1.00  0.00    -0.000 C 
BRANCH  26  27
ATOM     27  C   UNL     1     123.662 122.210 119.740  1.00  0.00    -0.000 C 
BRANCH  27  28
ATOM     28  C   UNL     1     122.348 121.637 120.308  1.00  0.00    -0.000 C 
BRANCH  28  29
ATOM     29  C   UNL     1     122.177 120.122 120.077  1.00  0.00    -0.003 C 
ATOM     30  C   UNL     1     120.785 119.760 119.557  1.00  0.00     0.004 C 
ENDBRANCH  28  29
ENDBRANCH  27  28
ENDBRANCH  26  27
ENDBRANCH  25  26
ENDBRANCH  24  25
ENDBRANCH  23  24
ENDBRANCH  22  23
ENDBRANCH  21  22
ENDBRANCH  20  21
ENDBRANCH  19  20
ENDBRANCH  18  19
ENDBRANCH  17  18
ENDBRANCH   1  17
TORSDOF 26
ENDMDL
MODEL 2
REMARK VINA RESULT:    -3.342      9.855     12.516
REMARK INTER + INTRA:         -14.127
REMARK INTER:                  -9.802
REMARK INTRA:                  -4.324
REMARK UNBOUND:                -5.705
REMARK SMILES CCCCCCCCCCCCCCCCCCCCCCCCCCCC(=O)[O-]
REMARK SMILES IDX 15 1 16 2 17 3 18 4 19 5 20 6 21 7 22 8 23 9 24 10 25 11
REMARK SMILES IDX 26 12 27 13 28 14 29 15 30 16 14 17 13 18 12 19 11 20 10 21
REMARK SMILES IDX 9 22 8 23 7 24 6 25 5 26 4 27 3 28 2 29 1 30
REMARK H PARENT
REMARK Flexibility Score: inf
ROOT
ATOM      1  C   UNL     1     128.154 130.377 127.823  1.00  0.00     0.000 C 
ENDROOT
BRANCH   1   2
ATOM      2  C   UNL     1     129.398 130.068 126.975  1.00  0.00     0.000 C 
BRANCH   2   3
ATOM      3  C   UNL     1     129.559 131.089 125.838  1.00  0.00     0.000 C 
BRANCH   3   4
ATOM      4  C   UNL     1     129.292 130.487 124.445  1.00  0.00     0.000 C 
BRANCH   4   5
ATOM      5  C   UNL     1     128.097 131.097 123.692  1.00  0.00     0.000 C 
BRANCH   5   6
ATOM      6  C   UNL     1     126.784 130.333 123.930  1.00  0.00     0.000 C 
BRANCH   6   7
ATOM      7  C   UNL     1     125.822 131.095 124.857  1.00  0.00     0.000 C 
BRANCH   7   8
ATOM      8  C   UNL     1     124.352 130.703 124.627  1.00  0.00     0.000 C 
BRANCH   8   9
ATOM      9  C   UNL     1     124.081 130.202 123.198  1.00  0.00     0.000 C 
BRANCH   9  10
ATOM     10  C   UNL     1     123.504 131.261 122.236  1.00  0.00     0.000 C 
BRANCH  10  11
ATOM     11  C   UNL     1     123.707 130.967 120.736  1.00  0.00     0.000 C 
BRANCH  11  12
ATOM     12  C   UNL     1     125.118 130.488 120.351  1.00  0.00     0.006 C 
BRANCH  12  13
ATOM     13  C   UNL     1     125.846 131.460 119.413  1.00  0.00     0.053 C 
BRANCH  13  14
ATOM     14  C   UNL     1     126.136 130.801 118.100  1.00  0.00     0.041 C 
ATOM     15  O   UNL     1     125.727 129.628 117.875  1.00  0.00    -0.550 OA
ATOM     16  O   UNL     1     126.871 131.471 117.131  1.00  0.00    -0.550 OA
ENDBRANCH  13  14
ENDBRANCH  12  13
ENDBRANCH  11  12
ENDBRANCH  10  11
ENDBRANCH   9  10
ENDBRANCH   8   9
ENDBRANCH   7   8
ENDBRANCH   6   7
ENDBRANCH   5   6
ENDBRANCH   4   5
ENDBRANCH   3   4
ENDBRANCH   2   3
ENDBRANCH   1   2
BRANCH   1  17
ATOM     17  C   UNL     1     127.192 129.180 127.921  1.00  0.00     0.000 C 
BRANCH  17  18
ATOM     18  C   UNL     1     127.258 128.198 126.735  1.00  0.00     0.000 C 
BRANCH  18  19
ATOM     19  C   UNL     1     127.037 126.723 127.135  1.00  0.00     0.000 C 
BRANCH  19  20
ATOM     20  C   UNL     1     125.929 126.048 126.307  1.00  0.00     0.000 C 
BRANCH  20  21
ATOM     21  C   UNL     1     125.246 127.028 125.340  1.00  0.00     0.000 C 
BRANCH  21  22
ATOM     22  C   UNL     1     123.735 127.158 125.606  1.00  0.00    -0.000 C 
BRANCH  22  23
ATOM     23  C   UNL     1     123.430 128.027 126.837  1.00  0.00    -0.000 C 
BRANCH  23  24
ATOM     24  C   UNL     1     123.581 127.244 128.155  1.00  0.00    -0.000 C 
BRANCH  24  25
ATOM     25  C   UNL     1     123.789 128.160 129.371  1.00  0.00    -0.000 C 
BRANCH  25  26
ATOM     26  C   UNL     1     124.117 127.379 130.655  1.00  0.00    -0.000 C 
BRANCH  26  27
ATOM     27  C   UNL     1     124.878 126.068 130.365  1.00  0.00    -0.000 C 
BRANCH  27  28
ATOM     28  C   UNL     1     126.400 126.161 130.595  1.00  0.00    -0.000 C 
BRANCH  28  29
ATOM     29  C   UNL     1     126.843 127.438 131.335  1.00  0.00    -0.003 C 
ATOM     30  C   UNL     1     127.610 127.135 132.623  1.00  0.00     0.004 C 
ENDBRANCH  28  29
ENDBRANCH  27  28
ENDBRANCH  26  27
ENDBRANCH  25  26
ENDBRANCH  24  25
ENDBRANCH  23  24
ENDBRANCH  22  23
ENDBRANCH  21  22
ENDBRANCH  20  21
ENDBRANCH  19  20
ENDBRANCH  18  19
ENDBRANCH  17  18
ENDBRANCH   1  17
TORSDOF 26
ENDMDL
MODEL 3
REMARK VINA RESULT:    -3.323      1.434      4.602
REMARK INTER + INTRA:         -14.079
REMARK INTER:                  -8.808
REMARK INTRA:                  -5.270
REMARK UNBOUND:                -5.705
REMARK SMILES CCCCCCCCCCCCCCCCCCCCCCCCCCCC(=O)[O-]
REMARK SMILES IDX 15 1 16 2 17 3 18 4 19 5 20 6 21 7 22 8 23 9 24 10 25 11
REMARK SMILES IDX 26 12 27 13 28 14 29 15 30 16 14 17 13 18 12 19 11 20 10 21
REMARK SMILES IDX 9 22 8 23 7 24 6 25 5 26 4 27 3 28 2 29 1 30
REMARK H PARENT
REMARK Flexibility Score: inf
ROOT
ATOM      1  C   UNL     1     130.220 117.052 119.830  1.00  0.00     0.000 C 
ENDROOT
BRANCH   1   2
ATOM      2  C   UNL     1     129.871 117.292 118.353  1.00  0.00     0.000 C 
BRANCH   2   3
ATOM      3  C   UNL     1     129.423 118.743 118.119  1.00  0.00     0.000 C 
BRANCH   3   4
ATOM      4  C   UNL     1     127.931 118.861 117.752  1.00  0.00     0.000 C 
BRANCH   4   5
ATOM      5  C   UNL     1     127.376 120.296 117.745  1.00  0.00     0.000 C 
BRANCH   5   6
ATOM      6  C   UNL     1     125.944 120.388 118.300  1.00  0.00     0.000 C 
BRANCH   6   7
ATOM      7  C   UNL     1     124.924 119.657 117.413  1.00  0.00     0.000 C 
BRANCH   7   8
ATOM      8  C   UNL     1     123.737 120.555 117.020  1.00  0.00     0.000 C 
BRANCH   8   9
ATOM      9  C   UNL     1     124.044 122.054 117.173  1.00  0.00     0.000 C 
BRANCH   9  10
ATOM     10  C   UNL     1     123.106 122.816 118.132  1.00  0.00     0.000 C 
BRANCH  10  11
ATOM     11  C   UNL     1     123.508 122.773 119.620  1.00  0.00     0.000 C 
BRANCH  11  12
ATOM     12  C   UNL     1     122.994 121.549 120.399  1.00  0.00     0.006 C 
BRANCH  12  13
ATOM     13  C   UNL     1     122.073 121.926 121.567  1.00  0.00     0.053 C 
BRANCH  13  14
ATOM     14  C   UNL     1     122.855 122.025 122.839  1.00  0.00     0.041 C 
ATOM     15  O   UNL     1     123.339 123.133 123.201  1.00  0.00    -0.550 OA
ATOM     16  O   UNL     1     123.066 120.894 123.618  1.00  0.00    -0.550 OA
ENDBRANCH  13  14
ENDBRANCH  12  13
ENDBRANCH  11  12
ENDBRANCH  10  11
ENDBRANCH   9  10
ENDBRANCH   8   9
ENDBRANCH   7   8
ENDBRANCH   6   7
ENDBRANCH   5   6
ENDBRANCH   4   5
ENDBRANCH   3   4
ENDBRANCH   2   3
ENDBRANCH   1   2
BRANCH   1  17
ATOM     17  C   UNL     1     130.433 118.360 120.609  1.00  0.00     0.000 C 
BRANCH  17  18
ATOM     18  C   UNL     1     131.891 118.638 121.021  1.00  0.00     0.000 C 
BRANCH  18  19
ATOM     19  C   UNL     1     132.725 119.340 119.927  1.00  0.00     0.000 C 
BRANCH  19  20
ATOM     20  C   UNL     1     132.142 120.706 119.528  1.00  0.00     0.000 C 
BRANCH  20  21
ATOM     21  C   UNL     1     132.125 121.698 120.703  1.00  0.00     0.000 C 
BRANCH  21  22
ATOM     22  C   UNL     1     130.871 122.591 120.699  1.00  0.00    -0.000 C 
BRANCH  22  23
ATOM     23  C   UNL     1     129.674 121.917 120.009  1.00  0.00    -0.000 C 
BRANCH  23  24
ATOM     24  C   UNL     1     128.398 121.972 120.871  1.00  0.00    -0.000 C 
BRANCH  24  25
ATOM     25  C   UNL     1     128.035 120.611 121.485  1.00  0.00    -0.000 C 
BRANCH  25  26
ATOM     26  C   UNL     1     126.657 120.616 122.170  1.00  0.00    -0.000 C 
BRANCH  26  27
ATOM     27  C   UNL     1     125.800 119.396 121.774  1.00  0.00    -0.000 C 
BRANCH  27  28
ATOM     28  C   UNL     1     126.611 118.218 121.199  1.00  0.00    -0.000 C 
BRANCH  28  29
ATOM     29  C   UNL     1     125.784 117.262 120.316  1.00  0.00    -0.003 C 
ATOM     30  C   UNL     1     126.595 116.058 119.834  1.00  0.00     0.004 C 
ENDBRANCH  28  29
ENDBRANCH  27  28
ENDBRANCH  26  27
ENDBRANCH  25  26
ENDBRANCH  24  25
ENDBRANCH  23  24
ENDBRANCH  22  23
ENDBRANCH  21  22
ENDBRANCH  20  21
ENDBRANCH  19  20
ENDBRANCH  18  19
ENDBRANCH  17  18
ENDBRANCH   1  17
TORSDOF 26
ENDMDL
MODEL 4
REMARK VINA RESULT:    -3.317      9.598     13.208
REMARK INTER + INTRA:         -14.063
REMARK INTER:                  -9.731
REMARK INTRA:                  -4.332
REMARK UNBOUND:                -5.705
REMARK SMILES CCCCCCCCCCCCCCCCCCCCCCCCCCCC(=O)[O-]
REMARK SMILES IDX 15 1 16 2 17 3 18 4 19 5 20 6 21 7 22 8 23 9 24 10 25 11
REMARK SMILES IDX 26 12 27 13 28 14 29 15 30 16 14 17 13 18 12 19 11 20 10 21
REMARK SMILES IDX 9 22 8 23 7 24 6 25 5 26 4 27 3 28 2 29 1 30
REMARK H PARENT
REMARK Flexibility Score: inf
ROOT
ATOM      1  C   UNL     1     126.492 127.575 125.245  1.00  0.00     0.000 C 
ENDROOT
BRANCH   1   2
ATOM      2  C   UNL     1     126.304 129.082 125.005  1.00  0.00     0.000 C 
BRANCH   2   3
ATOM      3  C   UNL     1     126.683 129.893 126.253  1.00  0.00     0.000 C 
BRANCH   3   4
ATOM      4  C   UNL     1     125.458 130.386 127.046  1.00  0.00     0.000 C 
BRANCH   4   5
ATOM      5  C   UNL     1     124.867 129.364 128.033  1.00  0.00     0.000 C 
BRANCH   5   6
ATOM      6  C   UNL     1     123.485 128.844 127.604  1.00  0.00     0.000 C 
BRANCH   6   7
ATOM      7  C   UNL     1     122.880 129.669 126.457  1.00  0.00     0.000 C 
BRANCH   7   8
ATOM      8  C   UNL     1     122.155 128.791 125.421  1.00  0.00     0.000 C 
BRANCH   8   9
ATOM      9  C   UNL     1     122.543 129.130 123.972  1.00  0.00     0.000 C 
BRANCH   9  10
ATOM     10  C   UNL     1     123.097 130.554 123.762  1.00  0.00     0.000 C 
BRANCH  10  11
ATOM     11  C   UNL     1     123.960 130.746 122.499  1.00  0.00     0.000 C 
BRANCH  11  12
ATOM     12  C   UNL     1     123.283 130.336 121.179  1.00  0.00     0.006 C 
BRANCH  12  13
ATOM     13  C   UNL     1     123.878 131.044 119.955  1.00  0.00     0.053 C 
BRANCH  13  14
ATOM     14  C   UNL     1     124.893 130.170 119.287  1.00  0.00     0.041 C 
ATOM     15  O   UNL     1     124.543 129.377 118.370  1.00  0.00    -0.550 OA
ATOM     16  O   UNL     1     126.223 130.217 119.686  1.00  0.00    -0.550 OA
ENDBRANCH  13  14
ENDBRANCH  12  13
ENDBRANCH  11  12
ENDBRANCH  10  11
ENDBRANCH   9  10
ENDBRANCH   8   9
ENDBRANCH   7   8
ENDBRANCH   6   7
ENDBRANCH   5   6
ENDBRANCH   4   5
ENDBRANCH   3   4
ENDBRANCH   2   3
ENDBRANCH   1   2
BRANCH   1  17
ATOM     17  C   UNL     1     125.205 126.771 124.995  1.00  0.00     0.000 C 
BRANCH  17  18
ATOM     18  C   UNL     1     124.873 125.727 126.079  1.00  0.00     0.000 C 
BRANCH  18  19
ATOM     19  C   UNL     1     126.002 125.521 127.112  1.00  0.00     0.000 C 
BRANCH  19  20
ATOM     20  C   UNL     1     125.462 125.206 128.518  1.00  0.00     0.000 C 
BRANCH  20  21
ATOM     21  C   UNL     1     125.923 126.234 129.564  1.00  0.00     0.000 C 
BRANCH  21  22
ATOM     22  C   UNL     1     125.837 125.689 131.001  1.00  0.00    -0.000 C 
BRANCH  22  23
ATOM     23  C   UNL     1     125.978 126.798 132.057  1.00  0.00    -0.000 C 
BRANCH  23  24
ATOM     24  C   UNL     1     125.828 128.205 131.448  1.00  0.00    -0.000 C 
BRANCH  24  25
ATOM     25  C   UNL     1     125.454 129.269 132.493  1.00  0.00    -0.000 C 
BRANCH  25  26
ATOM     26  C   UNL     1     124.001 129.756 132.351  1.00  0.00    -0.000 C 
BRANCH  26  27
ATOM     27  C   UNL     1     123.228 128.986 131.260  1.00  0.00    -0.000 C 
BRANCH  27  28
ATOM     28  C   UNL     1     122.285 127.896 131.807  1.00  0.00    -0.000 C 
BRANCH  28  29
ATOM     29  C   UNL     1     121.039 128.451 132.525  1.00  0.00    -0.003 C 
ATOM     30  C   UNL     1     120.907 127.934 133.958  1.00  0.00     0.004 C 
ENDBRANCH  28  29
ENDBRANCH  27  28
ENDBRANCH  26  27
ENDBRANCH  25  26
ENDBRANCH  24  25
ENDBRANCH  23  24
ENDBRANCH  22  23
ENDBRANCH  21  22
ENDBRANCH  20  21
ENDBRANCH  19  20
ENDBRANCH  18  19
ENDBRANCH  17  18
ENDBRANCH   1  17
TORSDOF 26
ENDMDL
MODEL 5
REMARK VINA RESULT:    -3.291      9.970     13.398
REMARK INTER + INTRA:         -13.999
REMARK INTER:                  -9.037
REMARK INTRA:                  -4.962
REMARK UNBOUND:                -5.705
REMARK SMILES CCCCCCCCCCCCCCCCCCCCCCCCCCCC(=O)[O-]
REMARK SMILES IDX 15 1 16 2 17 3 18 4 19 5 20 6 21 7 22 8 23 9 24 10 25 11
REMARK SMILES IDX 26 12 27 13 28 14 29 15 30 16 14 17 13 18 12 19 11 20 10 21
REMARK SMILES IDX 9 22 8 23 7 24 6 25 5 26 4 27 3 28 2 29 1 30
REMARK H PARENT
REMARK Flexibility Score: inf
ROOT
ATOM      1  C   UNL     1     122.014 131.069 126.094  1.00  0.00     0.000 C 
ENDROOT
BRANCH   1   2
ATOM      2  C   UNL     1     122.776 132.402 126.165  1.00  0.00     0.000 C 
BRANCH   2   3
ATOM      3  C   UNL     1     124.015 132.284 127.065  1.00  0.00     0.000 C 
BRANCH   3   4
ATOM      4  C   UNL     1     125.298 132.816 126.397  1.00  0.00     0.000 C 
BRANCH   4   5
ATOM      5  C   UNL     1     125.464 132.438 124.915  1.00  0.00     0.000 C 
BRANCH   5   6
ATOM      6  C   UNL     1     125.915 130.981 124.714  1.00  0.00     0.000 C 
BRANCH   6   7
ATOM      7  C   UNL     1     125.484 130.417 123.350  1.00  0.00     0.000 C 
BRANCH   7   8
ATOM      8  C   UNL     1     124.085 130.900 122.931  1.00  0.00     0.000 C 
BRANCH   8   9
ATOM      9  C   UNL     1     123.180 129.760 122.435  1.00  0.00     0.000 C 
BRANCH   9  10
ATOM     10  C   UNL     1     123.245 129.491 120.917  1.00  0.00     0.000 C 
BRANCH  10  11
ATOM     11  C   UNL     1     123.854 130.629 120.073  1.00  0.00     0.000 C 
BRANCH  11  12
ATOM     12  C   UNL     1     125.179 130.282 119.371  1.00  0.00     0.006 C 
BRANCH  12  13
ATOM     13  C   UNL     1     126.166 131.456 119.340  1.00  0.00     0.053 C 
BRANCH  13  14
ATOM     14  C   UNL     1     126.889 131.498 118.031  1.00  0.00     0.041 C 
ATOM     15  O   UNL     1     128.006 132.080 117.940  1.00  0.00    -0.550 OA
ATOM     16  O   UNL     1     126.327 130.910 116.905  1.00  0.00    -0.550 OA
ENDBRANCH  13  14
ENDBRANCH  12  13
ENDBRANCH  11  12
ENDBRANCH  10  11
ENDBRANCH   9  10
ENDBRANCH   8   9
ENDBRANCH   7   8
ENDBRANCH   6   7
ENDBRANCH   5   6
ENDBRANCH   4   5
ENDBRANCH   3   4
ENDBRANCH   2   3
ENDBRANCH   1   2
BRANCH   1  17
ATOM     17  C   UNL     1     122.883 129.868 126.503  1.00  0.00     0.000 C 
BRANCH  17  18
ATOM     18  C   UNL     1     122.504 128.535 125.829  1.00  0.00     0.000 C 
BRANCH  18  19
ATOM     19  C   UNL     1     123.503 127.390 126.106  1.00  0.00     0.000 C 
BRANCH  19  20
ATOM     20  C   UNL     1     124.416 127.102 124.902  1.00  0.00     0.000 C 
BRANCH  20  21
ATOM     21  C   UNL     1     125.905 127.108 125.284  1.00  0.00     0.000 C 
BRANCH  21  22
ATOM     22  C   UNL     1     126.170 126.394 126.622  1.00  0.00    -0.000 C 
BRANCH  22  23
ATOM     23  C   UNL     1     127.148 127.173 127.517  1.00  0.00    -0.000 C 
BRANCH  23  24
ATOM     24  C   UNL     1     126.427 128.197 128.414  1.00  0.00    -0.000 C 
BRANCH  24  25
ATOM     25  C   UNL     1     126.641 129.648 127.952  1.00  0.00    -0.000 C 
BRANCH  25  26
ATOM     26  C   UNL     1     128.037 130.186 128.311  1.00  0.00    -0.000 C 
BRANCH  26  27
ATOM     27  C   UNL     1     128.592 131.140 127.233  1.00  0.00    -0.000 C 
BRANCH  27  28
ATOM     28  C   UNL     1     129.444 130.443 126.154  1.00  0.00    -0.000 C 
BRANCH  28  29
ATOM     29  C   UNL     1     129.447 131.170 124.795  1.00  0.00    -0.003 C 
ATOM     30  C   UNL     1     130.856 131.357 124.231  1.00  0.00     0.004 C 
ENDBRANCH  28  29
ENDBRANCH  27  28
ENDBRANCH  26  27
ENDBRANCH  25  26
ENDBRANCH  24  25
ENDBRANCH  23  24
ENDBRANCH  22  23
ENDBRANCH  21  22
ENDBRANCH  20  21
ENDBRANCH  19  20
ENDBRANCH  18  19
ENDBRANCH  17  18
ENDBRANCH   1  17
TORSDOF 26
ENDMDL
MODEL 6
REMARK VINA RESULT:    -3.287      1.595      6.052
REMARK INTER + INTRA:         -13.987
REMARK INTER:                  -9.472
REMARK INTRA:                  -4.515
REMARK UNBOUND:                -5.705
REMARK SMILES CCCCCCCCCCCCCCCCCCCCCCCCCCCC(=O)[O-]
REMARK SMILES IDX 15 1 16 2 17 3 18 4 19 5 20 6 21 7 22 8 23 9 24 10 25 11
REMARK SMILES IDX 26 12 27 13 28 14 29 15 30 16 14 17 13 18 12 19 11 20 10 21
REMARK SMILES IDX 9 22 8 23 7 24 6 25 5 26 4 27 3 28 2 29 1 30
REMARK H PARENT
REMARK Flexibility Score: inf
ROOT
ATOM      1  C   UNL     1     127.742 121.284 120.155  1.00  0.00     0.000 C 
ENDROOT
BRANCH   1   2
ATOM      2  C   UNL     1     128.015 120.774 118.731  1.00  0.00     0.000 C 
BRANCH   2   3
ATOM      3  C   UNL     1     126.707 120.597 117.946  1.00  0.00     0.000 C 
BRANCH   3   4
ATOM      4  C   UNL     1     126.253 119.128 117.853  1.00  0.00     0.000 C 
BRANCH   4   5
ATOM      5  C   UNL     1     124.751 118.894 118.096  1.00  0.00     0.000 C 
BRANCH   5   6
ATOM      6  C   UNL     1     123.871 119.403 116.941  1.00  0.00     0.000 C 
BRANCH   6   7
ATOM      7  C   UNL     1     122.945 120.551 117.373  1.00  0.00     0.000 C 
BRANCH   7   8
ATOM      8  C   UNL     1     123.557 121.935 117.096  1.00  0.00     0.000 C 
BRANCH   8   9
ATOM      9  C   UNL     1     123.125 122.999 118.119  1.00  0.00     0.000 C 
BRANCH   9  10
ATOM     10  C   UNL     1     122.903 122.471 119.551  1.00  0.00     0.000 C 
BRANCH  10  11
ATOM     11  C   UNL     1     124.186 122.237 120.374  1.00  0.00     0.000 C 
BRANCH  11  12
ATOM     12  C   UNL     1     124.188 120.957 121.228  1.00  0.00     0.006 C 
BRANCH  12  13
ATOM     13  C   UNL     1     124.217 121.241 122.735  1.00  0.00     0.053 C 
BRANCH  13  14
ATOM     14  C   UNL     1     123.166 122.243 123.099  1.00  0.00     0.041 C 
ATOM     15  O   UNL     1     123.497 123.368 123.566  1.00  0.00    -0.550 OA
ATOM     16  O   UNL     1     121.822 121.933 122.938  1.00  0.00    -0.550 OA
ENDBRANCH  13  14
ENDBRANCH  12  13
ENDBRANCH  11  12
ENDBRANCH  10  11
ENDBRANCH   9  10
ENDBRANCH   8   9
ENDBRANCH   7   8
ENDBRANCH   6   7
ENDBRANCH   5   6
ENDBRANCH   4   5
ENDBRANCH   3   4
ENDBRANCH   2   3
ENDBRANCH   1   2
BRANCH   1  17
ATOM     17  C   UNL     1     128.995 121.874 120.823  1.00  0.00     0.000 C 
BRANCH  17  18
ATOM     18  C   UNL     1     130.259 121.875 119.941  1.00  0.00     0.000 C 
BRANCH  18  19
ATOM     19  C   UNL     1     131.476 122.562 120.598  1.00  0.00     0.000 C 
BRANCH  19  20
ATOM     20  C   UNL     1     132.677 121.612 120.749  1.00  0.00     0.000 C 
BRANCH  20  21
ATOM     21  C   UNL     1     132.312 120.155 120.423  1.00  0.00     0.000 C 
BRANCH  21  22
ATOM     22  C   UNL     1     133.210 119.557 119.325  1.00  0.00    -0.000 C 
BRANCH  22  23
ATOM     23  C   UNL     1     132.633 119.770 117.916  1.00  0.00    -0.000 C 
BRANCH  23  24
ATOM     24  C   UNL     1     132.229 118.445 117.244  1.00  0.00    -0.000 C 
BRANCH  24  25
ATOM     25  C   UNL     1     130.721 118.357 116.957  1.00  0.00    -0.000 C 
BRANCH  25  26
ATOM     26  C   UNL     1     129.895 118.022 118.211  1.00  0.00    -0.000 C 
BRANCH  26  27
ATOM     27  C   UNL     1     130.493 116.845 119.010  1.00  0.00    -0.000 C 
BRANCH  27  28
ATOM     28  C   UNL     1     130.339 116.979 120.538  1.00  0.00    -0.000 C 
BRANCH  28  29
ATOM     29  C   UNL     1     129.401 118.122 120.973  1.00  0.00    -0.003 C 
ATOM     30  C   UNL     1     127.967 117.647 121.214  1.00  0.00     0.004 C 
ENDBRANCH  28  29
ENDBRANCH  27  28
ENDBRANCH  26  27
ENDBRANCH  25  26
ENDBRANCH  24  25
ENDBRANCH  23  24
ENDBRANCH  22  23
ENDBRANCH  21  22
ENDBRANCH  20  21
ENDBRANCH  19  20
ENDBRANCH  18  19
ENDBRANCH  17  18
ENDBRANCH   1  17
TORSDOF 26
ENDMDL
MODEL 7
REMARK VINA RESULT:    -3.233      9.661     12.266
REMARK INTER + INTRA:         -13.852
REMARK INTER:                  -9.080
REMARK INTRA:                  -4.773
REMARK UNBOUND:                -5.705
REMARK SMILES CCCCCCCCCCCCCCCCCCCCCCCCCCCC(=O)[O-]
REMARK SMILES IDX 15 1 16 2 17 3 18 4 19 5 20 6 21 7 22 8 23 9 24 10 25 11
REMARK SMILES IDX 26 12 27 13 28 14 29 15 30 16 14 17 13 18 12 19 11 20 10 21
REMARK SMILES IDX 9 22 8 23 7 24 6 25 5 26 4 27 3 28 2 29 1 30
REMARK H PARENT
REMARK Flexibility Score: inf
ROOT
ATOM      1  C   UNL     1     123.239 127.417 125.906  1.00  0.00     0.000 C 
ENDROOT
BRANCH   1   2
ATOM      2  C   UNL     1     124.359 127.365 124.855  1.00  0.00     0.000 C 
BRANCH   2   3
ATOM      3  C   UNL     1     125.619 126.694 125.421  1.00  0.00     0.000 C 
BRANCH   3   4
ATOM      4  C   UNL     1     125.304 125.510 126.355  1.00  0.00     0.000 C 
BRANCH   4   5
ATOM      5  C   UNL     1     126.128 125.469 127.654  1.00  0.00     0.000 C 
BRANCH   5   6
ATOM      6  C   UNL     1     125.263 125.245 128.906  1.00  0.00     0.000 C 
BRANCH   6   7
ATOM      7  C   UNL     1     125.050 126.539 129.709  1.00  0.00     0.000 C 
BRANCH   7   8
ATOM      8  C   UNL     1     123.699 127.206 129.400  1.00  0.00     0.000 C 
BRANCH   8   9
ATOM      9  C   UNL     1     123.783 128.741 129.356  1.00  0.00     0.000 C 
BRANCH   9  10
ATOM     10  C   UNL     1     125.123 129.304 128.839  1.00  0.00     0.000 C 
BRANCH  10  11
ATOM     11  C   UNL     1     125.007 130.346 127.708  1.00  0.00     0.000 C 
BRANCH  11  12
ATOM     12  C   UNL     1     126.010 130.170 126.555  1.00  0.00     0.006 C 
BRANCH  12  13
ATOM     13  C   UNL     1     127.346 129.564 127.008  1.00  0.00     0.053 C 
BRANCH  13  14
ATOM     14  C   UNL     1     128.379 130.636 127.165  1.00  0.00     0.041 C 
ATOM     15  O   UNL     1     129.543 130.342 127.557  1.00  0.00    -0.550 OA
ATOM     16  O   UNL     1     128.057 131.960 126.896  1.00  0.00    -0.550 OA
ENDBRANCH  13  14
ENDBRANCH  12  13
ENDBRANCH  11  12
ENDBRANCH  10  11
ENDBRANCH   9  10
ENDBRANCH   8   9
ENDBRANCH   7   8
ENDBRANCH   6   7
ENDBRANCH   5   6
ENDBRANCH   4   5
ENDBRANCH   3   4
ENDBRANCH   2   3
ENDBRANCH   1   2
BRANCH   1  17
ATOM     17  C   UNL     1     122.249 128.568 125.662  1.00  0.00     0.000 C 
BRANCH  17  18
ATOM     18  C   UNL     1     122.456 129.329 124.337  1.00  0.00     0.000 C 
BRANCH  18  19
ATOM     19  C   UNL     1     122.728 130.838 124.522  1.00  0.00     0.000 C 
BRANCH  19  20
ATOM     20  C   UNL     1     123.766 131.376 123.522  1.00  0.00     0.000 C 
BRANCH  20  21
ATOM     21  C   UNL     1     124.005 130.407 122.353  1.00  0.00     0.000 C 
BRANCH  21  22
ATOM     22  C   UNL     1     123.082 130.695 121.154  1.00  0.00    -0.000 C 
BRANCH  22  23
ATOM     23  C   UNL     1     123.864 131.142 119.908  1.00  0.00    -0.000 C 
BRANCH  23  24
ATOM     24  C   UNL     1     124.735 130.010 119.330  1.00  0.00    -0.000 C 
BRANCH  24  25
ATOM     25  C   UNL     1     126.065 130.518 118.750  1.00  0.00    -0.000 C 
BRANCH  25  26
ATOM     26  C   UNL     1     127.145 130.719 119.827  1.00  0.00    -0.000 C 
BRANCH  26  27
ATOM     27  C   UNL     1     127.095 132.128 120.453  1.00  0.00    -0.000 C 
BRANCH  27  28
ATOM     28  C   UNL     1     128.004 132.302 121.685  1.00  0.00    -0.000 C 
BRANCH  28  29
ATOM     29  C   UNL     1     127.374 131.803 123.001  1.00  0.00    -0.003 C 
ATOM     30  C   UNL     1     127.720 130.344 123.302  1.00  0.00     0.004 C 
ENDBRANCH  28  29
ENDBRANCH  27  28
ENDBRANCH  26  27
ENDBRANCH  25  26
ENDBRANCH  24  25
ENDBRANCH  23  24
ENDBRANCH  22  23
ENDBRANCH  21  22
ENDBRANCH  20  21
ENDBRANCH  19  20
ENDBRANCH  18  19
ENDBRANCH  17  18
ENDBRANCH   1  17
TORSDOF 26
ENDMDL
MODEL 8
REMARK VINA RESULT:    -3.205      9.498     13.036
REMARK INTER + INTRA:         -13.782
REMARK INTER:                  -8.788
REMARK INTRA:                  -4.994
REMARK UNBOUND:                -5.705
REMARK SMILES CCCCCCCCCCCCCCCCCCCCCCCCCCCC(=O)[O-]
REMARK SMILES IDX 15 1 16 2 17 3 18 4 19 5 20 6 21 7 22 8 23 9 24 10 25 11
REMARK SMILES IDX 26 12 27 13 28 14 29 15 30 16 14 17 13 18 12 19 11 20 10 21
REMARK SMILES IDX 9 22 8 23 7 24 6 25 5 26 4 27 3 28 2 29 1 30
REMARK H PARENT
REMARK Flexibility Score: inf
ROOT
ATOM      1  C   UNL     1     126.703 127.609 127.400  1.00  0.00     0.000 C 
ENDROOT
BRANCH   1   2
ATOM      2  C   UNL     1     126.611 126.083 127.241  1.00  0.00     0.000 C 
BRANCH   2   3
ATOM      3  C   UNL     1     125.380 125.685 126.414  1.00  0.00     0.000 C 
BRANCH   3   4
ATOM      4  C   UNL     1     125.293 126.429 125.067  1.00  0.00     0.000 C 
BRANCH   4   5
ATOM      5  C   UNL     1     124.002 127.239 124.853  1.00  0.00     0.000 C 
BRANCH   5   6
ATOM      6  C   UNL     1     123.175 127.400 126.140  1.00  0.00     0.000 C 
BRANCH   6   7
ATOM      7  C   UNL     1     122.059 128.447 125.991  1.00  0.00     0.000 C 
BRANCH   7   8
ATOM      8  C   UNL     1     122.610 129.876 125.845  1.00  0.00     0.000 C 
BRANCH   8   9
ATOM      9  C   UNL     1     122.372 130.471 124.447  1.00  0.00     0.000 C 
BRANCH   9  10
ATOM     10  C   UNL     1     123.169 131.757 124.143  1.00  0.00     0.000 C 
BRANCH  10  11
ATOM     11  C   UNL     1     123.680 131.888 122.694  1.00  0.00     0.000 C 
BRANCH  11  12
ATOM     12  C   UNL     1     124.235 130.591 122.079  1.00  0.00     0.006 C 
BRANCH  12  13
ATOM     13  C   UNL     1     123.500 130.172 120.799  1.00  0.00     0.053 C 
BRANCH  13  14
ATOM     14  C   UNL     1     124.426 130.223 119.624  1.00  0.00     0.041 C 
ATOM     15  O   UNL     1     124.310 129.384 118.688  1.00  0.00    -0.550 OA
ATOM     16  O   UNL     1     125.428 131.184 119.567  1.00  0.00    -0.550 OA
ENDBRANCH  13  14
ENDBRANCH  12  13
ENDBRANCH  11  12
ENDBRANCH  10  11
ENDBRANCH   9  10
ENDBRANCH   8   9
ENDBRANCH   7   8
ENDBRANCH   6   7
ENDBRANCH   5   6
ENDBRANCH   4   5
ENDBRANCH   3   4
ENDBRANCH   2   3
ENDBRANCH   1   2
BRANCH   1  17
ATOM     17  C   UNL     1     128.018 128.184 126.849  1.00  0.00     0.000 C 
BRANCH  17  18
ATOM     18  C   UNL     1     127.865 129.483 126.035  1.00  0.00     0.000 C 
BRANCH  18  19
ATOM     19  C   UNL     1     126.399 129.854 125.722  1.00  0.00     0.000 C 
BRANCH  19  20
ATOM     20  C   UNL     1     125.913 131.067 126.535  1.00  0.00     0.000 C 
BRANCH  20  21
ATOM     21  C   UNL     1     126.747 131.288 127.807  1.00  0.00     0.000 C 
BRANCH  21  22
ATOM     22  C   UNL     1     125.976 130.913 129.086  1.00  0.00    -0.000 C 
BRANCH  22  23
ATOM     23  C   UNL     1     124.500 131.340 129.027  1.00  0.00    -0.000 C 
BRANCH  23  24
ATOM     24  C   UNL     1     123.547 130.199 129.428  1.00  0.00    -0.000 C 
BRANCH  24  25
ATOM     25  C   UNL     1     124.171 128.807 129.238  1.00  0.00    -0.000 C 
BRANCH  25  26
ATOM     26  C   UNL     1     123.449 127.716 130.048  1.00  0.00    -0.000 C 
BRANCH  26  27
ATOM     27  C   UNL     1     124.337 127.133 131.168  1.00  0.00    -0.000 C 
BRANCH  27  28
ATOM     28  C   UNL     1     125.649 126.499 130.664  1.00  0.00    -0.000 C 
BRANCH  28  29
ATOM     29  C   UNL     1     126.917 127.098 131.304  1.00  0.00    -0.003 C 
ATOM     30  C   UNL     1     126.690 128.507 131.854  1.00  0.00     0.004 C 
ENDBRANCH  28  29
ENDBRANCH  27  28
ENDBRANCH  26  27
ENDBRANCH  25  26
ENDBRANCH  24  25
ENDBRANCH  23  24
ENDBRANCH  22  23
ENDBRANCH  21  22
ENDBRANCH  20  21
ENDBRANCH  19  20
ENDBRANCH  18  19
ENDBRANCH  17  18
ENDBRANCH   1  17
TORSDOF 26
ENDMDL
MODEL 9
REMARK VINA RESULT:    -3.164      9.773     12.772
REMARK INTER + INTRA:         -13.678
REMARK INTER:                  -8.254
REMARK INTRA:                  -5.425
REMARK UNBOUND:                -5.705
REMARK SMILES CCCCCCCCCCCCCCCCCCCCCCCCCCCC(=O)[O-]
REMARK SMILES IDX 15 1 16 2 17 3 18 4 19 5 20 6 21 7 22 8 23 9 24 10 25 11
REMARK SMILES IDX 26 12 27 13 28 14 29 15 30 16 14 17 13 18 12 19 11 20 10 21
REMARK SMILES IDX 9 22 8 23 7 24 6 25 5 26 4 27 3 28 2 29 1 30
REMARK H PARENT
REMARK Flexibility Score: inf
ROOT
ATOM      1  C   UNL     1     125.481 125.788 126.253  1.00  0.00     0.000 C 
ENDROOT
BRANCH   1   2
ATOM      2  C   UNL     1     125.183 126.865 125.198  1.00  0.00     0.000 C 
BRANCH   2   3
ATOM      3  C   UNL     1     126.293 127.927 125.163  1.00  0.00     0.000 C 
BRANCH   3   4
ATOM      4  C   UNL     1     125.836 129.293 125.709  1.00  0.00     0.000 C 
BRANCH   4   5
ATOM      5  C   UNL     1     126.953 130.152 126.328  1.00  0.00     0.000 C 
BRANCH   5   6
ATOM      6  C   UNL     1     128.228 129.348 126.634  1.00  0.00     0.000 C 
BRANCH   6   7
ATOM      7  C   UNL     1     129.507 130.179 126.436  1.00  0.00     0.000 C 
BRANCH   7   8
ATOM      8  C   UNL     1     129.728 130.575 124.966  1.00  0.00     0.000 C 
BRANCH   8   9
ATOM      9  C   UNL     1     129.686 132.096 124.741  1.00  0.00     0.000 C 
BRANCH   9  10
ATOM     10  C   UNL     1     129.157 132.535 123.361  1.00  0.00     0.000 C 
BRANCH  10  11
ATOM     11  C   UNL     1     127.732 133.125 123.358  1.00  0.00     0.000 C 
BRANCH  11  12
ATOM     12  C   UNL     1     126.597 132.085 123.348  1.00  0.00     0.006 C 
BRANCH  12  13
ATOM     13  C   UNL     1     126.905 130.870 122.463  1.00  0.00     0.053 C 
BRANCH  13  14
ATOM     14  C   UNL     1     126.434 131.111 121.062  1.00  0.00     0.041 C 
ATOM     15  O   UNL     1     127.269 131.316 120.138  1.00  0.00    -0.550 OA
ATOM     16  O   UNL     1     125.074 131.125 120.777  1.00  0.00    -0.550 OA
ENDBRANCH  13  14
ENDBRANCH  12  13
ENDBRANCH  11  12
ENDBRANCH  10  11
ENDBRANCH   9  10
ENDBRANCH   8   9
ENDBRANCH   7   8
ENDBRANCH   6   7
ENDBRANCH   5   6
ENDBRANCH   4   5
ENDBRANCH   3   4
ENDBRANCH   2   3
ENDBRANCH   1   2
BRANCH   1  17
ATOM     17  C   UNL     1     125.347 126.314 127.692  1.00  0.00     0.000 C 
BRANCH  17  18
ATOM     18  C   UNL     1     126.680 126.486 128.446  1.00  0.00     0.000 C 
BRANCH  18  19
ATOM     19  C   UNL     1     126.526 127.118 129.846  1.00  0.00     0.000 C 
BRANCH  19  20
ATOM     20  C   UNL     1     125.950 128.543 129.788  1.00  0.00     0.000 C 
BRANCH  20  21
ATOM     21  C   UNL     1     124.691 128.698 130.656  1.00  0.00     0.000 C 
BRANCH  21  22
ATOM     22  C   UNL     1     123.572 129.472 129.935  1.00  0.00    -0.000 C 
BRANCH  22  23
ATOM     23  C   UNL     1     123.948 129.831 128.488  1.00  0.00    -0.000 C 
BRANCH  23  24
ATOM     24  C   UNL     1     123.122 131.014 127.948  1.00  0.00    -0.000 C 
BRANCH  24  25
ATOM     25  C   UNL     1     123.999 132.168 127.438  1.00  0.00    -0.000 C 
BRANCH  25  26
ATOM     26  C   UNL     1     123.829 132.423 125.930  1.00  0.00    -0.000 C 
BRANCH  26  27
ATOM     27  C   UNL     1     122.694 131.577 125.317  1.00  0.00    -0.000 C 
BRANCH  27  28
ATOM     28  C   UNL     1     122.998 131.048 123.901  1.00  0.00    -0.000 C 
BRANCH  28  29
ATOM     29  C   UNL     1     122.750 129.536 123.733  1.00  0.00    -0.003 C 
ATOM     30  C   UNL     1     122.062 128.914 124.950  1.00  0.00     0.004 C 
ENDBRANCH  28  29
ENDBRANCH  27  28
ENDBRANCH  26  27
ENDBRANCH  25  26
ENDBRANCH  24  25
ENDBRANCH  23  24
ENDBRANCH  22  23
ENDBRANCH  21  22
ENDBRANCH  20  21
ENDBRANCH  19  20
ENDBRANCH  18  19
ENDBRANCH  17  18
ENDBRANCH   1  17
TORSDOF 26
ENDMDL
