MODEL 1
REMARK VINA RESULT:    -7.945      0.000      0.000
REMARK INTER + INTRA:         -12.700
REMARK INTER:                 -10.964
REMARK INTRA:                  -1.736
REMARK UNBOUND:                -1.736
REMARK SMILES CC[C@@H](CC[C@H](C)[C@@H]1CC[C@H]2[C@H]3CC=C4C[C@@H](O)CC[C@]4(C)[C@H]3CC[C@]21C)C(C)C
REMARK SMILES IDX 5 1 4 2 3 3 2 4 1 5 28 6 29 7 30 8 6 9 7 10 8 11 9 12 26 13
REMARK SMILES IDX 10 14 11 15 25 16 27 17 12 18 24 19 23 20 13 21 21 22 14 23
REMARK SMILES IDX 15 24 20 25 22 26 16 27 19 28 17 29 18 30
REMARK H PARENT 18 31
REMARK Flexibility Score: inf
ROOT
ATOM      1  C   UNL     1     261.801 -26.052  58.887  1.00  0.00     0.004 C 
ENDROOT
BRANCH   1   2
ATOM      2  C   UNL     1     261.137 -27.087  59.835  1.00  0.00     0.004 C 
BRANCH   2   3
ATOM      3  C   UNL     1     260.348 -28.194  59.083  1.00  0.00    -0.009 C 
BRANCH   3   4
ATOM      4  C   UNL     1     259.638 -27.599  57.833  1.00  0.00     0.000 C 
ATOM      5  C   UNL     1     259.868 -28.429  56.568  1.00  0.00     0.004 C 
ENDBRANCH   3   4
BRANCH   3   6
ATOM      6  C   UNL     1     259.348 -28.960  60.015  1.00  0.00    -0.014 C 
ATOM      7  C   UNL     1     257.868 -28.642  59.734  1.00  0.00     0.007 C 
ATOM      8  C   UNL     1     259.663 -28.722  61.500  1.00  0.00     0.007 C 
ENDBRANCH   3   6
ENDBRANCH   2   3
ENDBRANCH   1   2
BRANCH   1   9
ATOM      9  C   UNL     1     263.336 -26.206  58.670  1.00  0.00    -0.011 C 
ATOM     10  C   UNL     1     264.111 -24.992  59.216  1.00  0.00     0.008 C 
BRANCH   9  11
ATOM     11  C   UNL     1     263.806 -26.582  57.218  1.00  0.00    -0.002 C 
ATOM     12  C   UNL     1     262.844 -26.268  56.077  1.00  0.00     0.005 C 
ATOM     13  C   UNL     1     264.288 -28.052  56.955  1.00  0.00    -0.026 C 
ATOM     14  C   UNL     1     263.490 -26.925  54.873  1.00  0.00     0.005 C 
ATOM     15  C   UNL     1     264.082 -28.236  55.411  1.00  0.00    -0.001 C 
ATOM     16  C   UNL     1     265.772 -28.213  57.386  1.00  0.00     0.007 C 
ATOM     17  C   UNL     1     263.436 -29.109  57.710  1.00  0.00     0.012 C 
ATOM     18  C   UNL     1     265.292 -28.816  54.615  1.00  0.00     0.000 C 
ATOM     19  C   UNL     1     266.506 -29.429  56.776  1.00  0.00     0.005 C 
ATOM     20  C   UNL     1     265.942 -29.962  55.421  1.00  0.00     0.003 C 
ATOM     21  C   UNL     1     266.368 -27.810  54.155  1.00  0.00     0.031 C 
ATOM     22  C   UNL     1     267.008 -30.748  54.556  1.00  0.00    -0.008 C 
ATOM     23  C   UNL     1     267.555 -28.496  53.531  1.00  0.00    -0.027 C 
ATOM     24  C   UNL     1     267.877 -29.796  53.728  1.00  0.00    -0.065 C 
ATOM     25  C   UNL     1     266.286 -31.704  53.548  1.00  0.00     0.014 C 
ATOM     26  C   UNL     1     267.903 -31.620  55.489  1.00  0.00     0.016 C 
ATOM     27  C   UNL     1     268.886 -30.434  52.801  1.00  0.00     0.063 C 
ATOM     28  C   UNL     1     267.236 -32.364  52.520  1.00  0.00     0.033 C 
ATOM     29  C   UNL     1     268.134 -31.332  51.802  1.00  0.00     0.118 C 
BRANCH  29  30
ATOM     30  O   UNL     1     269.034 -31.976  50.937  1.00  0.00    -0.393 OA
ATOM     31  H   UNL     1     268.542 -32.199  50.103  1.00  0.00     0.210 HD
ENDBRANCH  29  30
ENDBRANCH   9  11
ENDBRANCH   1   9
TORSDOF 7
ENDMDL
MODEL 2
REMARK VINA RESULT:    -7.578      1.416      2.405
REMARK INTER + INTRA:         -12.194
REMARK INTER:                 -10.370
REMARK INTRA:                  -1.824
REMARK UNBOUND:                -1.736
REMARK SMILES CC[C@@H](CC[C@H](C)[C@@H]1CC[C@H]2[C@H]3CC=C4C[C@@H](O)CC[C@]4(C)[C@H]3CC[C@]21C)C(C)C
REMARK SMILES IDX 5 1 4 2 3 3 2 4 1 5 28 6 29 7 30 8 6 9 7 10 8 11 9 12 26 13
REMARK SMILES IDX 10 14 11 15 25 16 27 17 12 18 24 19 23 20 13 21 21 22 14 23
REMARK SMILES IDX 15 24 20 25 22 26 16 27 19 28 17 29 18 30
REMARK H PARENT 18 31
REMARK Flexibility Score: inf
ROOT
ATOM      1  C   UNL     1     264.147 -26.559  59.066  1.00  0.00     0.004 C 
ENDROOT
BRANCH   1   2
ATOM      2  C   UNL     1     262.972 -27.424  59.596  1.00  0.00     0.004 C 
BRANCH   2   3
ATOM      3  C   UNL     1     261.615 -27.108  58.909  1.00  0.00    -0.009 C 
BRANCH   3   4
ATOM      4  C   UNL     1     260.432 -27.472  59.852  1.00  0.00     0.000 C 
ATOM      5  C   UNL     1     260.869 -27.674  61.304  1.00  0.00     0.004 C 
ENDBRANCH   3   4
BRANCH   3   6
ATOM      6  C   UNL     1     261.477 -27.790  57.506  1.00  0.00    -0.014 C 
ATOM      7  C   UNL     1     260.843 -26.885  56.434  1.00  0.00     0.007 C 
ATOM      8  C   UNL     1     260.707 -29.117  57.593  1.00  0.00     0.007 C 
ENDBRANCH   3   6
ENDBRANCH   2   3
ENDBRANCH   1   2
BRANCH   1   9
ATOM      9  C   UNL     1     265.386 -27.339  58.533  1.00  0.00    -0.011 C 
ATOM     10  C   UNL     1     266.695 -26.816  59.155  1.00  0.00     0.008 C 
BRANCH   9  11
ATOM     11  C   UNL     1     265.509 -27.483  56.972  1.00  0.00    -0.002 C 
ATOM     12  C   UNL     1     264.576 -26.625  56.124  1.00  0.00     0.005 C 
ATOM     13  C   UNL     1     265.419 -28.922  56.354  1.00  0.00    -0.026 C 
ATOM     14  C   UNL     1     264.797 -27.141  54.716  1.00  0.00     0.005 C 
ATOM     15  C   UNL     1     264.967 -28.659  54.876  1.00  0.00    -0.001 C 
ATOM     16  C   UNL     1     266.800 -29.629  56.443  1.00  0.00     0.007 C 
ATOM     17  C   UNL     1     264.359 -29.814  57.057  1.00  0.00     0.012 C 
ATOM     18  C   UNL     1     265.791 -29.375  53.761  1.00  0.00     0.000 C 
ATOM     19  C   UNL     1     266.986 -30.829  55.487  1.00  0.00     0.005 C 
ATOM     20  C   UNL     1     266.106 -30.823  54.197  1.00  0.00     0.003 C 
ATOM     21  C   UNL     1     267.080 -28.669  53.288  1.00  0.00     0.031 C 
ATOM     22  C   UNL     1     266.717 -31.668  53.008  1.00  0.00    -0.008 C 
ATOM     23  C   UNL     1     267.868 -29.517  52.324  1.00  0.00    -0.027 C 
ATOM     24  C   UNL     1     267.746 -30.861  52.211  1.00  0.00    -0.065 C 
ATOM     25  C   UNL     1     265.588 -32.086  52.007  1.00  0.00     0.014 C 
ATOM     26  C   UNL     1     267.369 -32.969  53.568  1.00  0.00     0.016 C 
ATOM     27  C   UNL     1     268.348 -31.537  51.000  1.00  0.00     0.063 C 
ATOM     28  C   UNL     1     266.113 -32.740  50.707  1.00  0.00     0.033 C 
ATOM     29  C   UNL     1     267.211 -31.894  50.025  1.00  0.00     0.118 C 
BRANCH  29  30
ATOM     30  O   UNL     1     267.717 -32.557  48.894  1.00  0.00    -0.393 OA
ATOM     31  H   UNL     1     268.708 -32.498  48.930  1.00  0.00     0.210 HD
ENDBRANCH  29  30
ENDBRANCH   9  11
ENDBRANCH   1   9
TORSDOF 7
ENDMDL
MODEL 3
REMARK VINA RESULT:    -7.481      2.883      8.590
REMARK INTER + INTRA:         -12.060
REMARK INTER:                 -10.175
REMARK INTRA:                  -1.886
REMARK UNBOUND:                -1.736
REMARK SMILES CC[C@@H](CC[C@H](C)[C@@H]1CC[C@H]2[C@H]3CC=C4C[C@@H](O)CC[C@]4(C)[C@H]3CC[C@]21C)C(C)C
REMARK SMILES IDX 5 1 4 2 3 3 2 4 1 5 28 6 29 7 30 8 6 9 7 10 8 11 9 12 26 13
REMARK SMILES IDX 10 14 11 15 25 16 27 17 12 18 24 19 23 20 13 21 21 22 14 23
REMARK SMILES IDX 15 24 20 25 22 26 16 27 19 28 17 29 18 30
REMARK H PARENT 18 31
REMARK Flexibility Score: inf
ROOT
ATOM      1  C   UNL     1     269.262 -31.304  52.403  1.00  0.00     0.004 C 
ENDROOT
BRANCH   1   2
ATOM      2  C   UNL     1     268.748 -31.784  51.018  1.00  0.00     0.004 C 
BRANCH   2   3
ATOM      3  C   UNL     1     267.863 -33.058  51.097  1.00  0.00    -0.009 C 
BRANCH   3   4
ATOM      4  C   UNL     1     266.441 -32.767  50.535  1.00  0.00     0.000 C 
ATOM      5  C   UNL     1     266.362 -32.916  49.014  1.00  0.00     0.004 C 
ENDBRANCH   3   4
BRANCH   3   6
ATOM      6  C   UNL     1     267.808 -33.664  52.541  1.00  0.00    -0.014 C 
ATOM      7  C   UNL     1     268.381 -35.090  52.639  1.00  0.00     0.007 C 
ATOM      8  C   UNL     1     266.383 -33.631  53.117  1.00  0.00     0.007 C 
ENDBRANCH   3   6
ENDBRANCH   2   3
ENDBRANCH   1   2
BRANCH   1   9
ATOM      9  C   UNL     1     268.726 -29.926  52.893  1.00  0.00    -0.011 C 
ATOM     10  C   UNL     1     269.793 -28.823  52.761  1.00  0.00     0.008 C 
BRANCH   9  11
ATOM     11  C   UNL     1     268.046 -29.901  54.311  1.00  0.00    -0.002 C 
ATOM     12  C   UNL     1     268.224 -31.138  55.185  1.00  0.00     0.005 C 
ATOM     13  C   UNL     1     266.516 -29.559  54.389  1.00  0.00    -0.026 C 
ATOM     14  C   UNL     1     267.299 -30.882  56.359  1.00  0.00     0.005 C 
ATOM     15  C   UNL     1     266.066 -30.201  55.747  1.00  0.00    -0.001 C 
ATOM     16  C   UNL     1     266.310 -28.019  54.356  1.00  0.00     0.007 C 
ATOM     17  C   UNL     1     265.697 -30.194  53.232  1.00  0.00     0.012 C 
ATOM     18  C   UNL     1     265.244 -29.288  56.707  1.00  0.00     0.000 C 
ATOM     19  C   UNL     1     264.942 -27.528  54.881  1.00  0.00     0.005 C 
ATOM     20  C   UNL     1     264.216 -28.470  55.893  1.00  0.00     0.003 C 
ATOM     21  C   UNL     1     266.049 -28.355  57.638  1.00  0.00     0.031 C 
ATOM     22  C   UNL     1     263.192 -27.719  56.837  1.00  0.00    -0.008 C 
ATOM     23  C   UNL     1     265.157 -27.417  58.409  1.00  0.00    -0.027 C 
ATOM     24  C   UNL     1     263.893 -27.094  58.046  1.00  0.00    -0.065 C 
ATOM     25  C   UNL     1     262.132 -28.728  57.393  1.00  0.00     0.014 C 
ATOM     26  C   UNL     1     262.436 -26.624  56.026  1.00  0.00     0.016 C 
ATOM     27  C   UNL     1     263.007 -26.410  59.063  1.00  0.00     0.063 C 
ATOM     28  C   UNL     1     261.211 -28.131  58.484  1.00  0.00     0.033 C 
ATOM     29  C   UNL     1     262.008 -27.443  59.614  1.00  0.00     0.118 C 
BRANCH  29  30
ATOM     30  O   UNL     1     261.137 -26.847  60.542  1.00  0.00    -0.393 OA
ATOM     31  H   UNL     1     261.424 -27.132  61.449  1.00  0.00     0.210 HD
ENDBRANCH  29  30
ENDBRANCH   9  11
ENDBRANCH   1   9
TORSDOF 7
ENDMDL
MODEL 4
REMARK VINA RESULT:    -7.442      1.929      3.261
REMARK INTER + INTRA:         -12.006
REMARK INTER:                 -11.161
REMARK INTRA:                  -0.844
REMARK UNBOUND:                -1.736
REMARK SMILES CC[C@@H](CC[C@H](C)[C@@H]1CC[C@H]2[C@H]3CC=C4C[C@@H](O)CC[C@]4(C)[C@H]3CC[C@]21C)C(C)C
REMARK SMILES IDX 5 1 4 2 3 3 2 4 1 5 28 6 29 7 30 8 6 9 7 10 8 11 9 12 26 13
REMARK SMILES IDX 10 14 11 15 25 16 27 17 12 18 24 19 23 20 13 21 21 22 14 23
REMARK SMILES IDX 15 24 20 25 22 26 16 27 19 28 17 29 18 30
REMARK H PARENT 18 31
REMARK Flexibility Score: inf
ROOT
ATOM      1  C   UNL     1     261.764 -26.216  59.392  1.00  0.00     0.004 C 
ENDROOT
BRANCH   1   2
ATOM      2  C   UNL     1     260.491 -26.969  58.921  1.00  0.00     0.004 C 
BRANCH   2   3
ATOM      3  C   UNL     1     260.487 -28.474  59.304  1.00  0.00    -0.009 C 
BRANCH   3   4
ATOM      4  C   UNL     1     260.288 -29.356  58.038  1.00  0.00     0.000 C 
ATOM      5  C   UNL     1     259.586 -28.612  56.900  1.00  0.00     0.004 C 
ENDBRANCH   3   4
BRANCH   3   6
ATOM      6  C   UNL     1     259.441 -28.809  60.421  1.00  0.00    -0.014 C 
ATOM      7  C   UNL     1     258.133 -28.006  60.309  1.00  0.00     0.007 C 
ATOM      8  C   UNL     1     260.040 -28.643  61.827  1.00  0.00     0.007 C 
ENDBRANCH   3   6
ENDBRANCH   2   3
ENDBRANCH   1   2
BRANCH   1   9
ATOM      9  C   UNL     1     262.952 -27.107  59.863  1.00  0.00    -0.011 C 
ATOM     10  C   UNL     1     263.522 -26.626  61.211  1.00  0.00     0.008 C 
BRANCH   9  11
ATOM     11  C   UNL     1     264.095 -27.367  58.815  1.00  0.00    -0.002 C 
ATOM     12  C   UNL     1     265.517 -27.021  59.245  1.00  0.00     0.005 C 
ATOM     13  C   UNL     1     263.937 -26.749  57.382  1.00  0.00    -0.026 C 
ATOM     14  C   UNL     1     266.325 -27.186  57.972  1.00  0.00     0.005 C 
ATOM     15  C   UNL     1     265.411 -26.660  56.855  1.00  0.00    -0.001 C 
ATOM     16  C   UNL     1     263.039 -27.663  56.502  1.00  0.00     0.007 C 
ATOM     17  C   UNL     1     263.320 -25.323  57.405  1.00  0.00     0.012 C 
ATOM     18  C   UNL     1     265.674 -27.238  55.430  1.00  0.00     0.000 C 
ATOM     19  C   UNL     1     263.169 -27.441  54.978  1.00  0.00     0.005 C 
ATOM     20  C   UNL     1     264.521 -26.833  54.485  1.00  0.00     0.003 C 
ATOM     21  C   UNL     1     265.936 -28.756  55.332  1.00  0.00     0.031 C 
ATOM     22  C   UNL     1     264.857 -27.175  52.978  1.00  0.00    -0.008 C 
ATOM     23  C   UNL     1     266.027 -29.223  53.903  1.00  0.00    -0.027 C 
ATOM     24  C   UNL     1     265.520 -28.549  52.844  1.00  0.00    -0.065 C 
ATOM     25  C   UNL     1     265.862 -26.124  52.398  1.00  0.00     0.014 C 
ATOM     26  C   UNL     1     263.556 -27.118  52.123  1.00  0.00     0.016 C 
ATOM     27  C   UNL     1     265.957 -28.958  51.456  1.00  0.00     0.063 C 
ATOM     28  C   UNL     1     266.410 -26.486  50.997  1.00  0.00     0.033 C 
ATOM     29  C   UNL     1     266.973 -27.924  50.940  1.00  0.00     0.118 C 
BRANCH  29  30
ATOM     30  O   UNL     1     267.387 -28.241  49.635  1.00  0.00    -0.393 OA
ATOM     31  H   UNL     1     267.672 -29.193  49.634  1.00  0.00     0.210 HD
ENDBRANCH  29  30
ENDBRANCH   9  11
ENDBRANCH   1   9
TORSDOF 7
ENDMDL
MODEL 5
REMARK VINA RESULT:    -7.349      2.883      8.695
REMARK INTER + INTRA:         -11.877
REMARK INTER:                  -9.799
REMARK INTRA:                  -2.078
REMARK UNBOUND:                -1.736
REMARK SMILES CC[C@@H](CC[C@H](C)[C@@H]1CC[C@H]2[C@H]3CC=C4C[C@@H](O)CC[C@]4(C)[C@H]3CC[C@]21C)C(C)C
REMARK SMILES IDX 5 1 4 2 3 3 2 4 1 5 28 6 29 7 30 8 6 9 7 10 8 11 9 12 26 13
REMARK SMILES IDX 10 14 11 15 25 16 27 17 12 18 24 19 23 20 13 21 21 22 14 23
REMARK SMILES IDX 15 24 20 25 22 26 16 27 19 28 17 29 18 30
REMARK H PARENT 18 31
REMARK Flexibility Score: inf
ROOT
ATOM      1  C   UNL     1     269.706 -30.887  52.579  1.00  0.00     0.004 C 
ENDROOT
BRANCH   1   2
ATOM      2  C   UNL     1     269.392 -31.910  51.453  1.00  0.00     0.004 C 
BRANCH   2   3
ATOM      3  C   UNL     1     267.871 -32.141  51.237  1.00  0.00    -0.009 C 
BRANCH   3   4
ATOM      4  C   UNL     1     267.476 -33.585  51.661  1.00  0.00     0.000 C 
ATOM      5  C   UNL     1     266.758 -33.631  53.012  1.00  0.00     0.004 C 
ENDBRANCH   3   4
BRANCH   3   6
ATOM      6  C   UNL     1     267.415 -31.816  49.773  1.00  0.00    -0.014 C 
ATOM      7  C   UNL     1     266.975 -30.355  49.569  1.00  0.00     0.007 C 
ATOM      8  C   UNL     1     266.306 -32.769  49.300  1.00  0.00     0.007 C 
ENDBRANCH   3   6
ENDBRANCH   2   3
ENDBRANCH   1   2
BRANCH   1   9
ATOM      9  C   UNL     1     268.631 -29.785  52.822  1.00  0.00    -0.011 C 
ATOM     10  C   UNL     1     269.143 -28.393  52.408  1.00  0.00     0.008 C 
BRANCH   9  11
ATOM     11  C   UNL     1     267.967 -29.754  54.247  1.00  0.00    -0.002 C 
ATOM     12  C   UNL     1     268.185 -30.972  55.138  1.00  0.00     0.005 C 
ATOM     13  C   UNL     1     266.431 -29.446  54.339  1.00  0.00    -0.026 C 
ATOM     14  C   UNL     1     267.268 -30.720  56.319  1.00  0.00     0.005 C 
ATOM     15  C   UNL     1     266.012 -30.078  55.712  1.00  0.00    -0.001 C 
ATOM     16  C   UNL     1     266.188 -27.912  54.285  1.00  0.00     0.007 C 
ATOM     17  C   UNL     1     265.613 -30.118  53.201  1.00  0.00     0.012 C 
ATOM     18  C   UNL     1     265.181 -29.168  56.668  1.00  0.00     0.000 C 
ATOM     19  C   UNL     1     264.816 -27.445  54.819  1.00  0.00     0.005 C 
ATOM     20  C   UNL     1     264.124 -28.388  55.854  1.00  0.00     0.003 C 
ATOM     21  C   UNL     1     265.974 -28.203  57.575  1.00  0.00     0.031 C 
ATOM     22  C   UNL     1     263.095 -27.646  56.798  1.00  0.00    -0.008 C 
ATOM     23  C   UNL     1     265.070 -27.274  58.342  1.00  0.00    -0.027 C 
ATOM     24  C   UNL     1     263.795 -26.985  57.990  1.00  0.00    -0.065 C 
ATOM     25  C   UNL     1     262.064 -28.670  57.383  1.00  0.00     0.014 C 
ATOM     26  C   UNL     1     262.303 -26.581  55.980  1.00  0.00     0.016 C 
ATOM     27  C   UNL     1     262.906 -26.307  59.007  1.00  0.00     0.063 C 
ATOM     28  C   UNL     1     261.143 -28.078  58.476  1.00  0.00     0.033 C 
ATOM     29  C   UNL     1     261.937 -27.354  59.585  1.00  0.00     0.118 C 
BRANCH  29  30
ATOM     30  O   UNL     1     261.064 -26.764  60.514  1.00  0.00    -0.393 OA
ATOM     31  H   UNL     1     261.478 -26.851  61.413  1.00  0.00     0.210 HD
ENDBRANCH  29  30
ENDBRANCH   9  11
ENDBRANCH   1   9
TORSDOF 7
ENDMDL
MODEL 6
REMARK VINA RESULT:    -7.329      1.296      3.175
REMARK INTER + INTRA:         -11.849
REMARK INTER:                 -11.124
REMARK INTRA:                  -0.725
REMARK UNBOUND:                -1.736
REMARK SMILES CC[C@@H](CC[C@H](C)[C@@H]1CC[C@H]2[C@H]3CC=C4C[C@@H](O)CC[C@]4(C)[C@H]3CC[C@]21C)C(C)C
REMARK SMILES IDX 5 1 4 2 3 3 2 4 1 5 28 6 29 7 30 8 6 9 7 10 8 11 9 12 26 13
REMARK SMILES IDX 10 14 11 15 25 16 27 17 12 18 24 19 23 20 13 21 21 22 14 23
REMARK SMILES IDX 15 24 20 25 22 26 16 27 19 28 17 29 18 30
REMARK H PARENT 18 31
REMARK Flexibility Score: inf
ROOT
ATOM      1  C   UNL     1     261.554 -26.031  59.630  1.00  0.00     0.004 C 
ENDROOT
BRANCH   1   2
ATOM      2  C   UNL     1     261.048 -27.489  59.803  1.00  0.00     0.004 C 
BRANCH   2   3
ATOM      3  C   UNL     1     259.563 -27.679  59.388  1.00  0.00    -0.009 C 
BRANCH   3   4
ATOM      4  C   UNL     1     258.825 -28.590  60.411  1.00  0.00     0.000 C 
ATOM      5  C   UNL     1     259.622 -28.800  61.701  1.00  0.00     0.004 C 
ENDBRANCH   3   4
BRANCH   3   6
ATOM      6  C   UNL     1     259.410 -28.205  57.920  1.00  0.00    -0.014 C 
ATOM      7  C   UNL     1     260.357 -29.368  57.574  1.00  0.00     0.007 C 
ATOM      8  C   UNL     1     259.574 -27.073  56.892  1.00  0.00     0.007 C 
ENDBRANCH   3   6
ENDBRANCH   2   3
ENDBRANCH   1   2
BRANCH   1   9
ATOM      9  C   UNL     1     263.038 -25.770  60.024  1.00  0.00    -0.011 C 
ATOM     10  C   UNL     1     263.375 -24.267  60.003  1.00  0.00     0.008 C 
BRANCH   9  11
ATOM     11  C   UNL     1     264.126 -26.613  59.264  1.00  0.00    -0.002 C 
ATOM     12  C   UNL     1     265.553 -26.542  59.799  1.00  0.00     0.005 C 
ATOM     13  C   UNL     1     264.259 -26.420  57.712  1.00  0.00    -0.026 C 
ATOM     14  C   UNL     1     266.365 -27.277  58.749  1.00  0.00     0.005 C 
ATOM     15  C   UNL     1     265.728 -26.878  57.409  1.00  0.00    -0.001 C 
ATOM     16  C   UNL     1     263.198 -27.281  56.974  1.00  0.00     0.007 C 
ATOM     17  C   UNL     1     264.089 -24.939  57.273  1.00  0.00     0.012 C 
ATOM     18  C   UNL     1     265.910 -27.892  56.239  1.00  0.00     0.000 C 
ATOM     19  C   UNL     1     263.495 -27.554  55.482  1.00  0.00     0.005 C 
ATOM     20  C   UNL     1     264.997 -27.492  55.059  1.00  0.00     0.003 C 
ATOM     21  C   UNL     1     265.721 -29.386  56.577  1.00  0.00     0.031 C 
ATOM     22  C   UNL     1     265.325 -28.333  53.759  1.00  0.00    -0.008 C 
ATOM     23  C   UNL     1     265.772 -30.256  55.348  1.00  0.00    -0.027 C 
ATOM     24  C   UNL     1     265.561 -29.810  54.087  1.00  0.00    -0.065 C 
ATOM     25  C   UNL     1     266.633 -27.798  53.086  1.00  0.00     0.014 C 
ATOM     26  C   UNL     1     264.161 -28.188  52.732  1.00  0.00     0.016 C 
ATOM     27  C   UNL     1     265.957 -30.705  52.934  1.00  0.00     0.063 C 
ATOM     28  C   UNL     1     267.148 -28.682  51.925  1.00  0.00     0.033 C 
ATOM     29  C   UNL     1     267.267 -30.169  52.328  1.00  0.00     0.118 C 
BRANCH  29  30
ATOM     30  O   UNL     1     267.660 -30.949  51.227  1.00  0.00    -0.393 OA
ATOM     31  H   UNL     1     268.433 -31.505  51.514  1.00  0.00     0.210 HD
ENDBRANCH  29  30
ENDBRANCH   9  11
ENDBRANCH   1   9
TORSDOF 7
ENDMDL
MODEL 7
REMARK VINA RESULT:    -7.156     13.394     17.067
REMARK INTER + INTRA:         -11.611
REMARK INTER:                 -10.578
REMARK INTRA:                  -1.033
REMARK UNBOUND:                -1.736
REMARK SMILES CC[C@@H](CC[C@H](C)[C@@H]1CC[C@H]2[C@H]3CC=C4C[C@@H](O)CC[C@]4(C)[C@H]3CC[C@]21C)C(C)C
REMARK SMILES IDX 5 1 4 2 3 3 2 4 1 5 28 6 29 7 30 8 6 9 7 10 8 11 9 12 26 13
REMARK SMILES IDX 10 14 11 15 25 16 27 17 12 18 24 19 23 20 13 21 21 22 14 23
REMARK SMILES IDX 15 24 20 25 22 26 16 27 19 28 17 29 18 30
REMARK H PARENT 18 31
REMARK Flexibility Score: inf
ROOT
ATOM      1  C   UNL     1     252.025 -23.227  42.413  1.00  0.00     0.004 C 
ENDROOT
BRANCH   1   2
ATOM      2  C   UNL     1     253.323 -24.078  42.399  1.00  0.00     0.004 C 
BRANCH   2   3
ATOM      3  C   UNL     1     254.544 -23.349  43.024  1.00  0.00    -0.009 C 
BRANCH   3   4
ATOM      4  C   UNL     1     255.191 -22.386  41.987  1.00  0.00     0.000 C 
ATOM      5  C   UNL     1     255.400 -20.973  42.538  1.00  0.00     0.004 C 
ENDBRANCH   3   4
BRANCH   3   6
ATOM      6  C   UNL     1     255.592 -24.342  43.632  1.00  0.00    -0.014 C 
ATOM      7  C   UNL     1     255.965 -25.504  42.694  1.00  0.00     0.007 C 
ATOM      8  C   UNL     1     255.129 -24.893  44.991  1.00  0.00     0.007 C 
ENDBRANCH   3   6
ENDBRANCH   2   3
ENDBRANCH   1   2
BRANCH   1   9
ATOM      9  C   UNL     1     251.529 -22.755  43.813  1.00  0.00    -0.011 C 
ATOM     10  C   UNL     1     251.930 -21.294  44.093  1.00  0.00     0.008 C 
BRANCH   9  11
ATOM     11  C   UNL     1     251.872 -23.689  45.031  1.00  0.00    -0.002 C 
ATOM     12  C   UNL     1     251.375 -25.129  44.957  1.00  0.00     0.005 C 
ATOM     13  C   UNL     1     251.490 -23.195  46.470  1.00  0.00    -0.026 C 
ATOM     14  C   UNL     1     251.680 -25.683  46.336  1.00  0.00     0.005 C 
ATOM     15  C   UNL     1     251.388 -24.522  47.299  1.00  0.00    -0.001 C 
ATOM     16  C   UNL     1     252.581 -22.231  47.012  1.00  0.00     0.007 C 
ATOM     17  C   UNL     1     250.119 -22.465  46.512  1.00  0.00     0.012 C 
ATOM     18  C   UNL     1     252.157 -24.552  48.656  1.00  0.00     0.000 C 
ATOM     19  C   UNL     1     252.585 -22.037  48.545  1.00  0.00     0.005 C 
ATOM     20  C   UNL     1     251.975 -23.203  49.386  1.00  0.00     0.003 C 
ATOM     21  C   UNL     1     253.653 -24.930  48.600  1.00  0.00     0.031 C 
ATOM     22  C   UNL     1     252.519 -23.266  50.870  1.00  0.00    -0.008 C 
ATOM     23  C   UNL     1     254.325 -24.781  49.939  1.00  0.00    -0.027 C 
ATOM     24  C   UNL     1     253.853 -24.015  50.951  1.00  0.00    -0.065 C 
ATOM     25  C   UNL     1     251.507 -24.035  51.783  1.00  0.00     0.014 C 
ATOM     26  C   UNL     1     252.676 -21.822  51.435  1.00  0.00     0.016 C 
ATOM     27  C   UNL     1     254.439 -24.207  52.331  1.00  0.00     0.063 C 
ATOM     28  C   UNL     1     252.042 -24.328  53.205  1.00  0.00     0.033 C 
ATOM     29  C   UNL     1     253.433 -25.001  53.183  1.00  0.00     0.118 C 
BRANCH  29  30
ATOM     30  O   UNL     1     253.918 -25.177  54.490  1.00  0.00    -0.393 OA
ATOM     31  H   UNL     1     253.159 -25.028  55.114  1.00  0.00     0.210 HD
ENDBRANCH  29  30
ENDBRANCH   9  11
ENDBRANCH   1   9
TORSDOF 7
ENDMDL
MODEL 8
REMARK VINA RESULT:    -7.137      1.114      2.447
REMARK INTER + INTRA:         -11.584
REMARK INTER:                 -10.493
REMARK INTRA:                  -1.091
REMARK UNBOUND:                -1.736
REMARK SMILES CC[C@@H](CC[C@H](C)[C@@H]1CC[C@H]2[C@H]3CC=C4C[C@@H](O)CC[C@]4(C)[C@H]3CC[C@]21C)C(C)C
REMARK SMILES IDX 5 1 4 2 3 3 2 4 1 5 28 6 29 7 30 8 6 9 7 10 8 11 9 12 26 13
REMARK SMILES IDX 10 14 11 15 25 16 27 17 12 18 24 19 23 20 13 21 21 22 14 23
REMARK SMILES IDX 15 24 20 25 22 26 16 27 19 28 17 29 18 30
REMARK H PARENT 18 31
REMARK Flexibility Score: inf
ROOT
ATOM      1  C   UNL     1     261.496 -26.013  57.690  1.00  0.00     0.004 C 
ENDROOT
BRANCH   1   2
ATOM      2  C   UNL     1     260.235 -26.897  57.891  1.00  0.00     0.004 C 
BRANCH   2   3
ATOM      3  C   UNL     1     260.558 -28.314  58.439  1.00  0.00    -0.009 C 
BRANCH   3   4
ATOM      4  C   UNL     1     260.342 -29.386  57.332  1.00  0.00     0.000 C 
ATOM      5  C   UNL     1     259.622 -28.832  56.101  1.00  0.00     0.004 C 
ENDBRANCH   3   4
BRANCH   3   6
ATOM      6  C   UNL     1     259.760 -28.651  59.744  1.00  0.00    -0.014 C 
ATOM      7  C   UNL     1     258.231 -28.629  59.562  1.00  0.00     0.007 C 
ATOM      8  C   UNL     1     260.162 -27.732  60.908  1.00  0.00     0.007 C 
ENDBRANCH   3   6
ENDBRANCH   2   3
ENDBRANCH   1   2
BRANCH   1   9
ATOM      9  C   UNL     1     262.652 -26.225  58.712  1.00  0.00    -0.011 C 
ATOM     10  C   UNL     1     263.209 -24.884  59.225  1.00  0.00     0.008 C 
BRANCH   9  11
ATOM     11  C   UNL     1     263.808 -27.198  58.274  1.00  0.00    -0.002 C 
ATOM     12  C   UNL     1     265.045 -27.244  59.165  1.00  0.00     0.005 C 
ATOM     13  C   UNL     1     264.360 -27.077  56.811  1.00  0.00    -0.026 C 
ATOM     14  C   UNL     1     266.022 -28.093  58.375  1.00  0.00     0.005 C 
ATOM     15  C   UNL     1     265.801 -27.686  56.910  1.00  0.00    -0.001 C 
ATOM     16  C   UNL     1     263.444 -27.860  55.828  1.00  0.00     0.007 C 
ATOM     17  C   UNL     1     264.463 -25.605  56.325  1.00  0.00     0.012 C 
ATOM     18  C   UNL     1     266.177 -28.757  55.841  1.00  0.00     0.000 C 
ATOM     19  C   UNL     1     264.091 -28.217  54.471  1.00  0.00     0.005 C 
ATOM     20  C   UNL     1     265.649 -28.317  54.457  1.00  0.00     0.003 C 
ATOM     21  C   UNL     1     265.752 -30.212  56.134  1.00  0.00     0.031 C 
ATOM     22  C   UNL     1     266.215 -29.234  53.300  1.00  0.00    -0.008 C 
ATOM     23  C   UNL     1     266.032 -31.129  54.972  1.00  0.00    -0.027 C 
ATOM     24  C   UNL     1     266.205 -30.714  53.695  1.00  0.00    -0.065 C 
ATOM     25  C   UNL     1     267.702 -28.853  52.988  1.00  0.00     0.014 C 
ATOM     26  C   UNL     1     265.381 -29.017  52.001  1.00  0.00     0.016 C 
ATOM     27  C   UNL     1     266.793 -31.685  52.698  1.00  0.00     0.063 C 
ATOM     28  C   UNL     1     268.407 -29.827  52.014  1.00  0.00     0.033 C 
ATOM     29  C   UNL     1     268.263 -31.302  52.451  1.00  0.00     0.118 C 
BRANCH  29  30
ATOM     30  O   UNL     1     268.848 -32.158  51.502  1.00  0.00    -0.393 OA
ATOM     31  H   UNL     1     269.167 -32.966  51.983  1.00  0.00     0.210 HD
ENDBRANCH  29  30
ENDBRANCH   9  11
ENDBRANCH   1   9
TORSDOF 7
ENDMDL
MODEL 9
REMARK VINA RESULT:    -7.136      1.760      2.671
REMARK INTER + INTRA:         -11.584
REMARK INTER:                  -9.931
REMARK INTRA:                  -1.653
REMARK UNBOUND:                -1.736
REMARK SMILES CC[C@@H](CC[C@H](C)[C@@H]1CC[C@H]2[C@H]3CC=C4C[C@@H](O)CC[C@]4(C)[C@H]3CC[C@]21C)C(C)C
REMARK SMILES IDX 5 1 4 2 3 3 2 4 1 5 28 6 29 7 30 8 6 9 7 10 8 11 9 12 26 13
REMARK SMILES IDX 10 14 11 15 25 16 27 17 12 18 24 19 23 20 13 21 21 22 14 23
REMARK SMILES IDX 15 24 20 25 22 26 16 27 19 28 17 29 18 30
REMARK H PARENT 18 31
REMARK Flexibility Score: inf
ROOT
ATOM      1  C   UNL     1     261.734 -26.109  59.504  1.00  0.00     0.004 C 
ENDROOT
BRANCH   1   2
ATOM      2  C   UNL     1     261.311 -27.550  59.895  1.00  0.00     0.004 C 
BRANCH   2   3
ATOM      3  C   UNL     1     259.790 -27.815  59.719  1.00  0.00    -0.009 C 
BRANCH   3   4
ATOM      4  C   UNL     1     259.186 -28.403  61.027  1.00  0.00     0.000 C 
ATOM      5  C   UNL     1     260.241 -28.655  62.107  1.00  0.00     0.004 C 
ENDBRANCH   3   4
BRANCH   3   6
ATOM      6  C   UNL     1     259.475 -28.712  58.474  1.00  0.00    -0.014 C 
ATOM      7  C   UNL     1     260.671 -29.556  57.996  1.00  0.00     0.007 C 
ATOM      8  C   UNL     1     258.918 -27.884  57.305  1.00  0.00     0.007 C 
ENDBRANCH   3   6
ENDBRANCH   2   3
ENDBRANCH   1   2
BRANCH   1   9
ATOM      9  C   UNL     1     263.104 -25.971  58.774  1.00  0.00    -0.011 C 
ATOM     10  C   UNL     1     263.852 -24.696  59.209  1.00  0.00     0.008 C 
BRANCH   9  11
ATOM     11  C   UNL     1     263.084 -26.121  57.209  1.00  0.00    -0.002 C 
ATOM     12  C   UNL     1     261.718 -26.263  56.546  1.00  0.00     0.005 C 
ATOM     13  C   UNL     1     263.974 -27.240  56.563  1.00  0.00    -0.026 C 
ATOM     14  C   UNL     1     262.054 -26.589  55.103  1.00  0.00     0.005 C 
ATOM     15  C   UNL     1     263.281 -27.509  55.183  1.00  0.00    -0.001 C 
ATOM     16  C   UNL     1     265.437 -26.739  56.413  1.00  0.00     0.007 C 
ATOM     17  C   UNL     1     263.983 -28.555  57.392  1.00  0.00     0.012 C 
ATOM     18  C   UNL     1     264.210 -27.517  53.931  1.00  0.00     0.000 C 
ATOM     19  C   UNL     1     266.299 -27.525  55.399  1.00  0.00     0.005 C 
ATOM     20  C   UNL     1     265.523 -28.262  54.262  1.00  0.00     0.003 C 
ATOM     21  C   UNL     1     264.523 -26.149  53.288  1.00  0.00     0.031 C 
ATOM     22  C   UNL     1     266.390 -28.518  52.965  1.00  0.00    -0.008 C 
ATOM     23  C   UNL     1     265.543 -26.261  52.185  1.00  0.00    -0.027 C 
ATOM     24  C   UNL     1     266.409 -27.292  52.046  1.00  0.00    -0.065 C 
ATOM     25  C   UNL     1     265.786 -29.701  52.137  1.00  0.00     0.014 C 
ATOM     26  C   UNL     1     267.843 -28.909  53.371  1.00  0.00     0.016 C 
ATOM     27  C   UNL     1     267.145 -27.440  50.734  1.00  0.00     0.063 C 
ATOM     28  C   UNL     1     266.442 -29.896  50.749  1.00  0.00     0.033 C 
ATOM     29  C   UNL     1     266.496 -28.584  49.935  1.00  0.00     0.118 C 
BRANCH  29  30
ATOM     30  O   UNL     1     267.168 -28.784  48.718  1.00  0.00    -0.393 OA
ATOM     31  H   UNL     1     266.798 -29.608  48.302  1.00  0.00     0.210 HD
ENDBRANCH  29  30
ENDBRANCH   9  11
ENDBRANCH   1   9
TORSDOF 7
ENDMDL
