MODEL 1
REMARK VINA RESULT:     0.000      0.000      0.000
REMARK INTER + INTRA:          -2.542
REMARK INTER:                   0.000
REMARK INTRA:                  -2.542
REMARK UNBOUND:                -2.542
REMARK SMILES CCCCCCCCCCCCCC(=O)[O-]
REMARK SMILES IDX 8 1 9 2 10 3 11 4 12 5 13 6 14 7 15 8 16 9 7 10 6 11 5 12
REMARK SMILES IDX 4 13 3 14 2 15 1 16
REMARK H PARENT
REMARK Flexibility Score: inf
ROOT
ATOM      1  C   UNL     1     181.590 181.477 180.804  1.00  0.00     0.000 C 
ENDROOT
BRANCH   1   2
ATOM      2  C   UNL     1     181.635 181.013 182.275  1.00  0.00     0.000 C 
BRANCH   2   3
ATOM      3  C   UNL     1     180.861 181.902 183.263  1.00  0.00     0.000 C 
BRANCH   3   4
ATOM      4  C   UNL     1     181.785 182.687 184.208  1.00  0.00     0.000 C 
BRANCH   4   5
ATOM      5  C   UNL     1     181.357 184.154 184.368  1.00  0.00     0.006 C 
BRANCH   5   6
ATOM      6  C   UNL     1     180.042 184.466 183.640  1.00  0.00     0.053 C 
BRANCH   6   7
ATOM      7  C   UNL     1     180.081 185.844 183.060  1.00  0.00     0.041 C 
ATOM      8  O   UNL     1     179.298 186.162 182.128  1.00  0.00    -0.550 OA
ATOM      9  O   UNL     1     181.019 186.763 183.515  1.00  0.00    -0.550 OA
ENDBRANCH   6   7
ENDBRANCH   5   6
ENDBRANCH   4   5
ENDBRANCH   3   4
ENDBRANCH   2   3
ENDBRANCH   1   2
BRANCH   1  10
ATOM     10  C   UNL     1     180.532 182.551 180.493  1.00  0.00     0.000 C 
BRANCH  10  11
ATOM     11  C   UNL     1     181.153 183.890 180.059  1.00  0.00    -0.000 C 
BRANCH  11  12
ATOM     12  C   UNL     1     182.685 183.900 180.187  1.00  0.00    -0.000 C 
BRANCH  12  13
ATOM     13  C   UNL     1     183.183 184.927 181.220  1.00  0.00    -0.000 C 
BRANCH  13  14
ATOM     14  C   UNL     1     184.324 184.379 182.091  1.00  0.00    -0.000 C 
BRANCH  14  15
ATOM     15  C   UNL     1     184.857 183.028 181.592  1.00  0.00    -0.003 C 
ATOM     16  C   UNL     1     185.177 182.098 182.759  1.00  0.00     0.004 C 
ENDBRANCH  14  15
ENDBRANCH  13  14
ENDBRANCH  12  13
ENDBRANCH  11  12
ENDBRANCH  10  11
ENDBRANCH   1  10
TORSDOF 12
ENDMDL
MODEL 2
REMARK VINA RESULT:     0.004      5.087      6.994
REMARK INTER + INTRA:          -2.536
REMARK INTER:                   0.000
REMARK INTRA:                  -2.536
REMARK UNBOUND:                -2.542
REMARK SMILES CCCCCCCCCCCCCC(=O)[O-]
REMARK SMILES IDX 8 1 9 2 10 3 11 4 12 5 13 6 14 7 15 8 16 9 7 10 6 11 5 12
REMARK SMILES IDX 4 13 3 14 2 15 1 16
REMARK H PARENT
REMARK Flexibility Score: inf
ROOT
ATOM      1  C   UNL     1     186.174 178.288 183.267  1.00  0.00     0.000 C 
ENDROOT
BRANCH   1   2
ATOM      2  C   UNL     1     184.657 178.376 183.001  1.00  0.00     0.000 C 
BRANCH   2   3
ATOM      3  C   UNL     1     183.765 178.178 184.240  1.00  0.00     0.000 C 
BRANCH   3   4
ATOM      4  C   UNL     1     183.055 179.470 184.674  1.00  0.00     0.000 C 
BRANCH   4   5
ATOM      5  C   UNL     1     183.133 179.705 186.191  1.00  0.00     0.006 C 
BRANCH   5   6
ATOM      6  C   UNL     1     183.718 178.501 186.943  1.00  0.00     0.053 C 
BRANCH   6   7
ATOM      7  C   UNL     1     184.626 178.962 188.039  1.00  0.00     0.041 C 
ATOM      8  O   UNL     1     184.529 180.132 188.493  1.00  0.00    -0.550 OA
ATOM      9  O   UNL     1     185.615 178.115 188.524  1.00  0.00    -0.550 OA
ENDBRANCH   6   7
ENDBRANCH   5   6
ENDBRANCH   4   5
ENDBRANCH   3   4
ENDBRANCH   2   3
ENDBRANCH   1   2
BRANCH   1  10
ATOM     10  C   UNL     1     186.561 177.797 184.673  1.00  0.00     0.000 C 
BRANCH  10  11
ATOM     11  C   UNL     1     187.344 178.849 185.477  1.00  0.00    -0.000 C 
BRANCH  11  12
ATOM     12  C   UNL     1     187.282 180.246 184.839  1.00  0.00    -0.000 C 
BRANCH  12  13
ATOM     13  C   UNL     1     186.457 181.240 185.675  1.00  0.00    -0.000 C 
BRANCH  13  14
ATOM     14  C   UNL     1     185.606 182.178 184.805  1.00  0.00    -0.000 C 
BRANCH  14  15
ATOM     15  C   UNL     1     185.864 181.992 183.303  1.00  0.00    -0.003 C 
ATOM     16  C   UNL     1     184.565 182.086 182.506  1.00  0.00     0.004 C 
ENDBRANCH  14  15
ENDBRANCH  13  14
ENDBRANCH  12  13
ENDBRANCH  11  12
ENDBRANCH  10  11
ENDBRANCH   1  10
TORSDOF 12
ENDMDL
MODEL 3
REMARK VINA RESULT:     0.004      6.283      8.003
REMARK INTER + INTRA:          -2.536
REMARK INTER:                   0.000
REMARK INTRA:                  -2.536
REMARK UNBOUND:                -2.542
REMARK SMILES CCCCCCCCCCCCCC(=O)[O-]
REMARK SMILES IDX 8 1 9 2 10 3 11 4 12 5 13 6 14 7 15 8 16 9 7 10 6 11 5 12
REMARK SMILES IDX 4 13 3 14 2 15 1 16
REMARK H PARENT
REMARK Flexibility Score: inf
ROOT
ATOM      1  C   UNL     1     172.841 182.207 182.625  1.00  0.00     0.000 C 
ENDROOT
BRANCH   1   2
ATOM      2  C   UNL     1     172.105 182.441 183.961  1.00  0.00     0.000 C 
BRANCH   2   3
ATOM      3  C   UNL     1     172.546 183.695 184.736  1.00  0.00     0.000 C 
BRANCH   3   4
ATOM      4  C   UNL     1     173.344 183.360 186.007  1.00  0.00     0.000 C 
BRANCH   4   5
ATOM      5  C   UNL     1     174.580 184.257 186.180  1.00  0.00     0.006 C 
BRANCH   5   6
ATOM      6  C   UNL     1     174.667 185.353 185.108  1.00  0.00     0.053 C 
BRANCH   6   7
ATOM      7  C   UNL     1     176.090 185.580 184.709  1.00  0.00     0.041 C 
ATOM      8  O   UNL     1     177.026 185.249 185.483  1.00  0.00    -0.550 OA
ATOM      9  O   UNL     1     176.382 186.205 183.502  1.00  0.00    -0.550 OA
ENDBRANCH   6   7
ENDBRANCH   5   6
ENDBRANCH   4   5
ENDBRANCH   3   4
ENDBRANCH   2   3
ENDBRANCH   1   2
BRANCH   1  10
ATOM     10  C   UNL     1     173.642 183.413 182.103  1.00  0.00     0.000 C 
BRANCH  10  11
ATOM     11  C   UNL     1     175.156 183.146 182.055  1.00  0.00    -0.000 C 
BRANCH  11  12
ATOM     12  C   UNL     1     175.538 181.793 182.677  1.00  0.00    -0.000 C 
BRANCH  12  13
ATOM     13  C   UNL     1     176.420 181.948 183.928  1.00  0.00    -0.000 C 
BRANCH  13  14
ATOM     14  C   UNL     1     176.025 180.978 185.052  1.00  0.00    -0.000 C 
BRANCH  14  15
ATOM     15  C   UNL     1     174.996 179.932 184.599  1.00  0.00    -0.003 C 
ATOM     16  C   UNL     1     173.949 179.686 185.683  1.00  0.00     0.004 C 
ENDBRANCH  14  15
ENDBRANCH  13  14
ENDBRANCH  12  13
ENDBRANCH  11  12
ENDBRANCH  10  11
ENDBRANCH   1  10
TORSDOF 12
ENDMDL
MODEL 4
REMARK VINA RESULT:     0.004      5.117      7.156
REMARK INTER + INTRA:          -2.535
REMARK INTER:                   0.000
REMARK INTRA:                  -2.535
REMARK UNBOUND:                -2.542
REMARK SMILES CCCCCCCCCCCCCC(=O)[O-]
REMARK SMILES IDX 8 1 9 2 10 3 11 4 12 5 13 6 14 7 15 8 16 9 7 10 6 11 5 12
REMARK SMILES IDX 4 13 3 14 2 15 1 16
REMARK H PARENT
REMARK Flexibility Score: inf
ROOT
ATOM      1  C   UNL     1     175.683 181.212 186.794  1.00  0.00     0.000 C 
ENDROOT
BRANCH   1   2
ATOM      2  C   UNL     1     174.502 180.757 185.911  1.00  0.00     0.000 C 
BRANCH   2   3
ATOM      3  C   UNL     1     173.811 181.882 185.120  1.00  0.00     0.000 C 
BRANCH   3   4
ATOM      4  C   UNL     1     174.075 181.796 183.608  1.00  0.00     0.000 C 
BRANCH   4   5
ATOM      5  C   UNL     1     174.411 183.162 182.989  1.00  0.00     0.006 C 
BRANCH   5   6
ATOM      6  C   UNL     1     174.282 184.312 183.998  1.00  0.00     0.053 C 
BRANCH   6   7
ATOM      7  C   UNL     1     175.352 185.331 183.766  1.00  0.00     0.041 C 
ATOM      8  O   UNL     1     175.630 186.174 184.659  1.00  0.00    -0.550 OA
ATOM      9  O   UNL     1     176.010 185.382 182.543  1.00  0.00    -0.550 OA
ENDBRANCH   6   7
ENDBRANCH   5   6
ENDBRANCH   4   5
ENDBRANCH   3   4
ENDBRANCH   2   3
ENDBRANCH   1   2
BRANCH   1  10
ATOM     10  C   UNL     1     175.790 182.732 187.007  1.00  0.00     0.000 C 
BRANCH  10  11
ATOM     11  C   UNL     1     177.068 183.330 186.394  1.00  0.00    -0.000 C 
BRANCH  11  12
ATOM     12  C   UNL     1     177.864 182.305 185.570  1.00  0.00    -0.000 C 
BRANCH  12  13
ATOM     13  C   UNL     1     177.939 182.678 184.079  1.00  0.00    -0.000 C 
BRANCH  13  14
ATOM     14  C   UNL     1     177.749 181.464 183.157  1.00  0.00    -0.000 C 
BRANCH  14  15
ATOM     15  C   UNL     1     177.758 180.132 183.921  1.00  0.00    -0.003 C 
ATOM     16  C   UNL     1     176.719 179.167 183.356  1.00  0.00     0.004 C 
ENDBRANCH  14  15
ENDBRANCH  13  14
ENDBRANCH  12  13
ENDBRANCH  11  12
ENDBRANCH  10  11
ENDBRANCH   1  10
TORSDOF 12
ENDMDL
MODEL 5
REMARK VINA RESULT:     0.005      4.065      6.264
REMARK INTER + INTRA:          -2.533
REMARK INTER:                   0.000
REMARK INTRA:                  -2.533
REMARK UNBOUND:                -2.542
REMARK SMILES CCCCCCCCCCCCCC(=O)[O-]
REMARK SMILES IDX 8 1 9 2 10 3 11 4 12 5 13 6 14 7 15 8 16 9 7 10 6 11 5 12
REMARK SMILES IDX 4 13 3 14 2 15 1 16
REMARK H PARENT
REMARK Flexibility Score: inf
ROOT
ATOM      1  C   UNL     1     183.709 182.988 181.993  1.00  0.00     0.000 C 
ENDROOT
BRANCH   1   2
ATOM      2  C   UNL     1     185.103 183.181 181.359  1.00  0.00     0.000 C 
BRANCH   2   3
ATOM      3  C   UNL     1     186.286 182.759 182.248  1.00  0.00     0.000 C 
BRANCH   3   4
ATOM      4  C   UNL     1     186.936 181.443 181.789  1.00  0.00     0.000 C 
BRANCH   4   5
ATOM      5  C   UNL     1     187.277 180.513 182.964  1.00  0.00     0.006 C 
BRANCH   5   6
ATOM      6  C   UNL     1     186.955 181.144 184.326  1.00  0.00     0.053 C 
BRANCH   6   7
ATOM      7  C   UNL     1     186.411 180.113 185.263  1.00  0.00     0.041 C 
ATOM      8  O   UNL     1     185.766 180.463 186.285  1.00  0.00    -0.550 OA
ATOM      9  O   UNL     1     186.660 178.765 185.033  1.00  0.00    -0.550 OA
ENDBRANCH   6   7
ENDBRANCH   5   6
ENDBRANCH   4   5
ENDBRANCH   3   4
ENDBRANCH   2   3
ENDBRANCH   1   2
BRANCH   1  10
ATOM     10  C   UNL     1     183.709 182.802 183.521  1.00  0.00     0.000 C 
BRANCH  10  11
ATOM     11  C   UNL     1     183.188 181.419 183.951  1.00  0.00    -0.000 C 
BRANCH  11  12
ATOM     12  C   UNL     1     182.896 180.499 182.755  1.00  0.00    -0.000 C 
BRANCH  12  13
ATOM     13  C   UNL     1     183.787 179.245 182.745  1.00  0.00    -0.000 C 
BRANCH  13  14
ATOM     14  C   UNL     1     184.290 178.890 181.336  1.00  0.00    -0.000 C 
BRANCH  14  15
ATOM     15  C   UNL     1     183.603 179.714 180.237  1.00  0.00    -0.003 C 
ATOM     16  C   UNL     1     184.609 180.171 179.184  1.00  0.00     0.004 C 
ENDBRANCH  14  15
ENDBRANCH  13  14
ENDBRANCH  12  13
ENDBRANCH  11  12
ENDBRANCH  10  11
ENDBRANCH   1  10
TORSDOF 12
ENDMDL
MODEL 6
REMARK VINA RESULT:     0.005      4.044      5.848
REMARK INTER + INTRA:          -2.533
REMARK INTER:                   0.000
REMARK INTRA:                  -2.533
REMARK UNBOUND:                -2.542
REMARK SMILES CCCCCCCCCCCCCC(=O)[O-]
REMARK SMILES IDX 8 1 9 2 10 3 11 4 12 5 13 6 14 7 15 8 16 9 7 10 6 11 5 12
REMARK SMILES IDX 4 13 3 14 2 15 1 16
REMARK H PARENT
REMARK Flexibility Score: inf
ROOT
ATOM      1  C   UNL     1     183.262 184.525 184.107  1.00  0.00     0.000 C 
ENDROOT
BRANCH   1   2
ATOM      2  C   UNL     1     183.030 183.320 183.171  1.00  0.00     0.000 C 
BRANCH   2   3
ATOM      3  C   UNL     1     184.040 182.170 183.329  1.00  0.00     0.000 C 
BRANCH   3   4
ATOM      4  C   UNL     1     184.987 182.040 182.125  1.00  0.00     0.000 C 
BRANCH   4   5
ATOM      5  C   UNL     1     186.451 181.836 182.545  1.00  0.00     0.006 C 
BRANCH   5   6
ATOM      6  C   UNL     1     186.604 181.615 184.056  1.00  0.00     0.053 C 
BRANCH   6   7
ATOM      7  C   UNL     1     187.788 182.365 184.576  1.00  0.00     0.041 C 
ATOM      8  O   UNL     1     188.735 182.670 183.805  1.00  0.00    -0.550 OA
ATOM      9  O   UNL     1     187.870 182.685 185.926  1.00  0.00    -0.550 OA
ENDBRANCH   6   7
ENDBRANCH   5   6
ENDBRANCH   4   5
ENDBRANCH   3   4
ENDBRANCH   2   3
ENDBRANCH   1   2
BRANCH   1  10
ATOM     10  C   UNL     1     184.311 184.301 185.210  1.00  0.00     0.000 C 
BRANCH  10  11
ATOM     11  C   UNL     1     185.511 185.256 185.093  1.00  0.00    -0.000 C 
BRANCH  11  12
ATOM     12  C   UNL     1     185.555 185.987 183.741  1.00  0.00    -0.000 C 
BRANCH  12  13
ATOM     13  C   UNL     1     186.721 185.514 182.854  1.00  0.00    -0.000 C 
BRANCH  13  14
ATOM     14  C   UNL     1     186.329 185.414 181.371  1.00  0.00    -0.000 C 
BRANCH  14  15
ATOM     15  C   UNL     1     184.909 185.930 181.096  1.00  0.00    -0.003 C 
ATOM     16  C   UNL     1     184.196 185.053 180.069  1.00  0.00     0.004 C 
ENDBRANCH  14  15
ENDBRANCH  13  14
ENDBRANCH  12  13
ENDBRANCH  11  12
ENDBRANCH  10  11
ENDBRANCH   1  10
TORSDOF 12
ENDMDL
MODEL 7
REMARK VINA RESULT:     0.014      3.938      6.266
REMARK INTER + INTRA:          -2.519
REMARK INTER:                   0.000
REMARK INTRA:                  -2.519
REMARK UNBOUND:                -2.542
REMARK SMILES CCCCCCCCCCCCCC(=O)[O-]
REMARK SMILES IDX 8 1 9 2 10 3 11 4 12 5 13 6 14 7 15 8 16 9 7 10 6 11 5 12
REMARK SMILES IDX 4 13 3 14 2 15 1 16
REMARK H PARENT
REMARK Flexibility Score: inf
ROOT
ATOM      1  C   UNL     1     183.511 183.135 180.016  1.00  0.00     0.000 C 
ENDROOT
BRANCH   1   2
ATOM      2  C   UNL     1     184.904 183.328 179.382  1.00  0.00     0.000 C 
BRANCH   2   3
ATOM      3  C   UNL     1     186.075 182.751 180.197  1.00  0.00     0.000 C 
BRANCH   3   4
ATOM      4  C   UNL     1     186.549 181.386 179.672  1.00  0.00     0.000 C 
BRANCH   4   5
ATOM      5  C   UNL     1     186.878 180.400 180.805  1.00  0.00     0.006 C 
BRANCH   5   6
ATOM      6  C   UNL     1     186.680 181.017 182.197  1.00  0.00     0.053 C 
BRANCH   6   7
ATOM      7  C   UNL     1     186.077 180.015 183.130  1.00  0.00     0.041 C 
ATOM      8  O   UNL     1     185.528 180.393 184.197  1.00  0.00    -0.550 OA
ATOM      9  O   UNL     1     186.166 178.658 182.844  1.00  0.00    -0.550 OA
ENDBRANCH   6   7
ENDBRANCH   5   6
ENDBRANCH   4   5
ENDBRANCH   3   4
ENDBRANCH   2   3
ENDBRANCH   1   2
BRANCH   1  10
ATOM     10  C   UNL     1     183.510 182.949 181.544  1.00  0.00     0.000 C 
BRANCH  10  11
ATOM     11  C   UNL     1     182.924 181.594 181.977  1.00  0.00    -0.000 C 
BRANCH  11  12
ATOM     12  C   UNL     1     182.503 180.722 180.783  1.00  0.00    -0.000 C 
BRANCH  12  13
ATOM     13  C   UNL     1     183.290 179.401 180.712  1.00  0.00    -0.000 C 
BRANCH  13  14
ATOM     14  C   UNL     1     183.711 179.043 179.278  1.00  0.00    -0.000 C 
BRANCH  14  15
ATOM     15  C   UNL     1     183.000 179.900 178.219  1.00  0.00    -0.003 C 
ATOM     16  C   UNL     1     183.989 180.421 177.180  1.00  0.00     0.004 C 
ENDBRANCH  14  15
ENDBRANCH  13  14
ENDBRANCH  12  13
ENDBRANCH  11  12
ENDBRANCH  10  11
ENDBRANCH   1  10
TORSDOF 12
ENDMDL
MODEL 8
REMARK VINA RESULT:     0.017      8.672     10.939
REMARK INTER + INTRA:          -2.512
REMARK INTER:                   0.000
REMARK INTRA:                  -2.512
REMARK UNBOUND:                -2.542
REMARK SMILES CCCCCCCCCCCCCC(=O)[O-]
REMARK SMILES IDX 8 1 9 2 10 3 11 4 12 5 13 6 14 7 15 8 16 9 7 10 6 11 5 12
REMARK SMILES IDX 4 13 3 14 2 15 1 16
REMARK H PARENT
REMARK Flexibility Score: inf
ROOT
ATOM      1  C   UNL     1     178.850 176.291 181.872  1.00  0.00     0.000 C 
ENDROOT
BRANCH   1   2
ATOM      2  C   UNL     1     179.098 174.769 181.919  1.00  0.00     0.000 C 
BRANCH   2   3
ATOM      3  C   UNL     1     178.982 174.049 180.564  1.00  0.00     0.000 C 
BRANCH   3   4
ATOM      4  C   UNL     1     177.796 173.071 180.509  1.00  0.00     0.000 C 
BRANCH   4   5
ATOM      5  C   UNL     1     177.017 173.162 179.187  1.00  0.00     0.006 C 
BRANCH   5   6
ATOM      6  C   UNL     1     177.604 174.209 178.230  1.00  0.00     0.053 C 
BRANCH   6   7
ATOM      7  C   UNL     1     176.552 174.701 177.286  1.00  0.00     0.041 C 
ATOM      8  O   UNL     1     175.753 173.890 176.750  1.00  0.00    -0.550 OA
ATOM      9  O   UNL     1     176.487 176.050 176.960  1.00  0.00    -0.550 OA
ENDBRANCH   6   7
ENDBRANCH   5   6
ENDBRANCH   4   5
ENDBRANCH   3   4
ENDBRANCH   2   3
ENDBRANCH   1   2
BRANCH   1  10
ATOM     10  C   UNL     1     178.868 176.911 180.463  1.00  0.00     0.000 C 
BRANCH  10  11
ATOM     11  C   UNL     1     177.504 177.491 180.051  1.00  0.00    -0.000 C 
BRANCH  11  12
ATOM     12  C   UNL     1     176.392 177.160 181.059  1.00  0.00    -0.000 C 
BRANCH  12  13
ATOM     13  C   UNL     1     175.308 176.245 180.460  1.00  0.00    -0.000 C 
BRANCH  13  14
ATOM     14  C   UNL     1     174.842 175.161 181.444  1.00  0.00    -0.000 C 
BRANCH  14  15
ATOM     15  C   UNL     1     175.420 175.352 182.854  1.00  0.00    -0.003 C 
ATOM     16  C   UNL     1     175.779 174.009 183.487  1.00  0.00     0.004 C 
ENDBRANCH  14  15
ENDBRANCH  13  14
ENDBRANCH  12  13
ENDBRANCH  11  12
ENDBRANCH  10  11
ENDBRANCH   1  10
TORSDOF 12
ENDMDL
MODEL 9
REMARK VINA RESULT:     0.018      3.039      5.301
REMARK INTER + INTRA:          -2.511
REMARK INTER:                   0.000
REMARK INTRA:                  -2.511
REMARK UNBOUND:                -2.542
REMARK SMILES CCCCCCCCCCCCCC(=O)[O-]
REMARK SMILES IDX 8 1 9 2 10 3 11 4 12 5 13 6 14 7 15 8 16 9 7 10 6 11 5 12
REMARK SMILES IDX 4 13 3 14 2 15 1 16
REMARK H PARENT
REMARK Flexibility Score: inf
ROOT
ATOM      1  C   UNL     1     183.911 183.255 181.862  1.00  0.00     0.000 C 
ENDROOT
BRANCH   1   2
ATOM      2  C   UNL     1     184.690 184.063 180.804  1.00  0.00     0.000 C 
BRANCH   2   3
ATOM      3  C   UNL     1     184.458 183.623 179.348  1.00  0.00     0.000 C 
BRANCH   3   4
ATOM      4  C   UNL     1     183.739 184.692 178.510  1.00  0.00     0.000 C 
BRANCH   4   5
ATOM      5  C   UNL     1     182.637 184.099 177.617  1.00  0.00     0.006 C 
BRANCH   5   6
ATOM      6  C   UNL     1     182.500 182.579 177.783  1.00  0.00     0.053 C 
BRANCH   6   7
ATOM      7  C   UNL     1     181.133 182.131 177.376  1.00  0.00     0.041 C 
ATOM      8  O   UNL     1     180.597 182.595 176.336  1.00  0.00    -0.550 OA
ATOM      9  O   UNL     1     180.428 181.237 178.173  1.00  0.00    -0.550 OA
ENDBRANCH   6   7
ENDBRANCH   5   6
ENDBRANCH   4   5
ENDBRANCH   3   4
ENDBRANCH   2   3
ENDBRANCH   1   2
BRANCH   1  10
ATOM     10  C   UNL     1     183.312 181.929 181.359  1.00  0.00     0.000 C 
BRANCH  10  11
ATOM     11  C   UNL     1     181.774 181.920 181.396  1.00  0.00    -0.000 C 
BRANCH  11  12
ATOM     12  C   UNL     1     181.183 183.291 181.761  1.00  0.00    -0.000 C 
BRANCH  12  13
ATOM     13  C   UNL     1     180.372 183.907 180.608  1.00  0.00    -0.000 C 
BRANCH  13  14
ATOM     14  C   UNL     1     180.626 185.415 180.449  1.00  0.00    -0.000 C 
BRANCH  14  15
ATOM     15  C   UNL     1     181.454 186.002 181.601  1.00  0.00    -0.003 C 
ATOM     16  C   UNL     1     182.448 187.041 181.090  1.00  0.00     0.004 C 
ENDBRANCH  14  15
ENDBRANCH  13  14
ENDBRANCH  12  13
ENDBRANCH  11  12
ENDBRANCH  10  11
ENDBRANCH   1  10
TORSDOF 12
ENDMDL
