MODEL 1
REMARK VINA RESULT:    -4.833      0.000      0.000
REMARK INTER + INTRA:         -14.786
REMARK INTER:                 -11.048
REMARK INTRA:                  -3.738
REMARK UNBOUND:                -3.738
REMARK SMILES CCCCCCCCCCCCCCCCCCCCCCCC(=O)[O-]
REMARK SMILES IDX 13 1 14 2 15 3 16 4 17 5 18 6 19 7 20 8 21 9 22 10 23 11
REMARK SMILES IDX 24 12 25 13 26 14 12 15 11 16 10 17 9 18 8 19 7 20 6 21 5 22
REMARK SMILES IDX 4 23 3 24 2 25 1 26
REMARK H PARENT
REMARK Flexibility Score: inf
ROOT
ATOM      1  C   UNL     1     -12.508 -38.477  47.488  1.00  0.00     0.000 C 
ENDROOT
BRANCH   1   2
ATOM      2  C   UNL     1     -11.108 -38.648  48.109  1.00  0.00     0.000 C 
BRANCH   2   3
ATOM      3  C   UNL     1     -10.167 -37.443  47.928  1.00  0.00     0.000 C 
BRANCH   3   4
ATOM      4  C   UNL     1      -8.751 -37.855  47.488  1.00  0.00     0.000 C 
BRANCH   4   5
ATOM      5  C   UNL     1      -8.657 -39.338  47.090  1.00  0.00     0.000 C 
BRANCH   5   6
ATOM      6  C   UNL     1      -8.219 -39.539  45.631  1.00  0.00     0.000 C 
BRANCH   6   7
ATOM      7  C   UNL     1      -8.709 -38.415  44.703  1.00  0.00     0.000 C 
BRANCH   7   8
ATOM      8  C   UNL     1     -10.160 -38.605  44.212  1.00  0.00     0.000 C 
BRANCH   8   9
ATOM      9  C   UNL     1     -10.928 -37.274  44.138  1.00  0.00     0.000 C 
BRANCH   9  10
ATOM     10  C   UNL     1      -9.995 -36.049  44.134  1.00  0.00     0.006 C 
BRANCH  10  11
ATOM     11  C   UNL     1     -10.431 -34.925  45.087  1.00  0.00     0.053 C 
BRANCH  11  12
ATOM     12  C   UNL     1      -9.441 -33.801  45.116  1.00  0.00     0.041 C 
ATOM     13  O   UNL     1      -9.201 -33.196  46.193  1.00  0.00    -0.550 OA
ATOM     14  O   UNL     1      -8.801 -33.406  43.948  1.00  0.00    -0.550 OA
ENDBRANCH  11  12
ENDBRANCH  10  11
ENDBRANCH   9  10
ENDBRANCH   8   9
ENDBRANCH   7   8
ENDBRANCH   6   7
ENDBRANCH   5   6
ENDBRANCH   4   5
ENDBRANCH   3   4
ENDBRANCH   2   3
ENDBRANCH   1   2
BRANCH   1  15
ATOM     15  C   UNL     1     -12.839 -39.563  46.453  1.00  0.00     0.000 C 
BRANCH  15  16
ATOM     16  C   UNL     1     -11.886 -40.759  46.590  1.00  0.00     0.000 C 
BRANCH  16  17
ATOM     17  C   UNL     1     -12.594 -42.112  46.394  1.00  0.00     0.000 C 
BRANCH  17  18
ATOM     18  C   UNL     1     -12.686 -42.597  44.933  1.00  0.00    -0.000 C 
BRANCH  18  19
ATOM     19  C   UNL     1     -11.549 -42.113  44.015  1.00  0.00    -0.000 C 
BRANCH  19  20
ATOM     20  C   UNL     1     -11.936 -42.138  42.527  1.00  0.00    -0.000 C 
BRANCH  20  21
ATOM     21  C   UNL     1     -10.944 -41.363  41.640  1.00  0.00    -0.000 C 
BRANCH  21  22
ATOM     22  C   UNL     1      -9.533 -41.980  41.553  1.00  0.00    -0.000 C 
BRANCH  22  23
ATOM     23  C   UNL     1      -8.435 -41.219  42.317  1.00  0.00    -0.000 C 
BRANCH  23  24
ATOM     24  C   UNL     1      -7.017 -41.700  41.966  1.00  0.00    -0.000 C 
BRANCH  24  25
ATOM     25  C   UNL     1      -6.373 -42.506  43.105  1.00  0.00    -0.003 C 
ATOM     26  C   UNL     1      -6.597 -44.011  42.958  1.00  0.00     0.004 C 
ENDBRANCH  24  25
ENDBRANCH  23  24
ENDBRANCH  22  23
ENDBRANCH  21  22
ENDBRANCH  20  21
ENDBRANCH  19  20
ENDBRANCH  18  19
ENDBRANCH  17  18
ENDBRANCH  16  17
ENDBRANCH  15  16
ENDBRANCH   1  15
TORSDOF 22
ENDMDL
MODEL 2
REMARK VINA RESULT:    -4.813      3.247      7.725
REMARK INTER + INTRA:         -14.741
REMARK INTER:                 -11.839
REMARK INTRA:                  -2.902
REMARK UNBOUND:                -3.738
REMARK SMILES CCCCCCCCCCCCCCCCCCCCCCCC(=O)[O-]
REMARK SMILES IDX 13 1 14 2 15 3 16 4 17 5 18 6 19 7 20 8 21 9 22 10 23 11
REMARK SMILES IDX 24 12 25 13 26 14 12 15 11 16 10 17 9 18 8 19 7 20 6 21 5 22
REMARK SMILES IDX 4 23 3 24 2 25 1 26
REMARK H PARENT
REMARK Flexibility Score: inf
ROOT
ATOM      1  C   UNL     1      -9.152 -37.726  45.065  1.00  0.00     0.000 C 
ENDROOT
BRANCH   1   2
ATOM      2  C   UNL     1      -8.626 -38.985  44.349  1.00  0.00     0.000 C 
BRANCH   2   3
ATOM      3  C   UNL     1      -9.513 -40.235  44.500  1.00  0.00     0.000 C 
BRANCH   3   4
ATOM      4  C   UNL     1     -10.204 -40.637  43.185  1.00  0.00     0.000 C 
BRANCH   4   5
ATOM      5  C   UNL     1     -11.736 -40.690  43.307  1.00  0.00     0.000 C 
BRANCH   5   6
ATOM      6  C   UNL     1     -12.356 -39.328  43.655  1.00  0.00     0.000 C 
BRANCH   6   7
ATOM      7  C   UNL     1     -13.184 -39.364  44.951  1.00  0.00     0.000 C 
BRANCH   7   8
ATOM      8  C   UNL     1     -12.461 -38.747  46.167  1.00  0.00     0.000 C 
BRANCH   8   9
ATOM      9  C   UNL     1     -11.902 -39.819  47.117  1.00  0.00     0.000 C 
BRANCH   9  10
ATOM     10  C   UNL     1     -11.100 -39.217  48.286  1.00  0.00     0.006 C 
BRANCH  10  11
ATOM     11  C   UNL     1     -10.061 -40.172  48.893  1.00  0.00     0.053 C 
BRANCH  11  12
ATOM     12  C   UNL     1      -8.663 -39.800  48.501  1.00  0.00     0.041 C 
ATOM     13  O   UNL     1      -8.393 -38.618  48.166  1.00  0.00    -0.550 OA
ATOM     14  O   UNL     1      -7.665 -40.765  48.482  1.00  0.00    -0.550 OA
ENDBRANCH  11  12
ENDBRANCH  10  11
ENDBRANCH   9  10
ENDBRANCH   8   9
ENDBRANCH   7   8
ENDBRANCH   6   7
ENDBRANCH   5   6
ENDBRANCH   4   5
ENDBRANCH   3   4
ENDBRANCH   2   3
ENDBRANCH   1   2
BRANCH   1  15
ATOM     15  C   UNL     1      -9.931 -36.789  44.129  1.00  0.00     0.000 C 
BRANCH  15  16
ATOM     16  C   UNL     1     -10.566 -35.633  44.914  1.00  0.00     0.000 C 
BRANCH  16  17
ATOM     17  C   UNL     1      -9.911 -34.273  44.610  1.00  0.00     0.000 C 
BRANCH  17  18
ATOM     18  C   UNL     1     -10.533 -33.497  43.431  1.00  0.00    -0.000 C 
BRANCH  18  19
ATOM     19  C   UNL     1     -10.029 -33.918  42.038  1.00  0.00    -0.000 C 
BRANCH  19  20
ATOM     20  C   UNL     1      -8.494 -33.979  41.957  1.00  0.00    -0.000 C 
BRANCH  20  21
ATOM     21  C   UNL     1      -7.882 -32.720  41.315  1.00  0.00    -0.000 C 
BRANCH  21  22
ATOM     22  C   UNL     1      -7.513 -31.599  42.307  1.00  0.00    -0.000 C 
BRANCH  22  23
ATOM     23  C   UNL     1      -6.939 -32.075  43.654  1.00  0.00    -0.000 C 
BRANCH  23  24
ATOM     24  C   UNL     1      -7.108 -31.040  44.778  1.00  0.00    -0.000 C 
BRANCH  24  25
ATOM     25  C   UNL     1      -6.349 -29.735  44.492  1.00  0.00    -0.003 C 
ATOM     26  C   UNL     1      -4.846 -29.863  44.746  1.00  0.00     0.004 C 
ENDBRANCH  24  25
ENDBRANCH  23  24
ENDBRANCH  22  23
ENDBRANCH  21  22
ENDBRANCH  20  21
ENDBRANCH  19  20
ENDBRANCH  18  19
ENDBRANCH  17  18
ENDBRANCH  16  17
ENDBRANCH  15  16
ENDBRANCH   1  15
TORSDOF 22
ENDMDL
MODEL 3
REMARK VINA RESULT:    -4.756      1.722      4.138
REMARK INTER + INTRA:         -14.610
REMARK INTER:                 -11.059
REMARK INTRA:                  -3.551
REMARK UNBOUND:                -3.738
REMARK SMILES CCCCCCCCCCCCCCCCCCCCCCCC(=O)[O-]
REMARK SMILES IDX 13 1 14 2 15 3 16 4 17 5 18 6 19 7 20 8 21 9 22 10 23 11
REMARK SMILES IDX 24 12 25 13 26 14 12 15 11 16 10 17 9 18 8 19 7 20 6 21 5 22
REMARK SMILES IDX 4 23 3 24 2 25 1 26
REMARK H PARENT
REMARK Flexibility Score: inf
ROOT
ATOM      1  C   UNL     1      -8.326 -39.929  47.545  1.00  0.00     0.000 C 
ENDROOT
BRANCH   1   2
ATOM      2  C   UNL     1      -9.430 -39.954  48.619  1.00  0.00     0.000 C 
BRANCH   2   3
ATOM      3  C   UNL     1     -10.799 -39.423  48.155  1.00  0.00     0.000 C 
BRANCH   3   4
ATOM      4  C   UNL     1     -11.419 -38.426  49.150  1.00  0.00     0.000 C 
BRANCH   4   5
ATOM      5  C   UNL     1     -11.702 -37.051  48.521  1.00  0.00     0.000 C 
BRANCH   5   6
ATOM      6  C   UNL     1     -10.536 -36.535  47.664  1.00  0.00     0.000 C 
BRANCH   6   7
ATOM      7  C   UNL     1     -10.999 -35.949  46.319  1.00  0.00     0.000 C 
BRANCH   7   8
ATOM      8  C   UNL     1     -10.663 -36.842  45.105  1.00  0.00     0.000 C 
BRANCH   8   9
ATOM      9  C   UNL     1     -10.383 -36.018  43.837  1.00  0.00     0.000 C 
BRANCH   9  10
ATOM     10  C   UNL     1     -10.092 -34.537  44.143  1.00  0.00     0.006 C 
BRANCH  10  11
ATOM     11  C   UNL     1     -10.523 -33.569  43.030  1.00  0.00     0.053 C 
BRANCH  11  12
ATOM     12  C   UNL     1      -9.570 -33.585  41.875  1.00  0.00     0.041 C 
ATOM     13  O   UNL     1      -9.961 -33.252  40.726  1.00  0.00    -0.550 OA
ATOM     14  O   UNL     1      -8.255 -33.991  42.063  1.00  0.00    -0.550 OA
ENDBRANCH  11  12
ENDBRANCH  10  11
ENDBRANCH   9  10
ENDBRANCH   8   9
ENDBRANCH   7   8
ENDBRANCH   6   7
ENDBRANCH   5   6
ENDBRANCH   4   5
ENDBRANCH   3   4
ENDBRANCH   2   3
ENDBRANCH   1   2
BRANCH   1  15
ATOM     15  C   UNL     1      -8.816 -39.370  46.200  1.00  0.00     0.000 C 
BRANCH  15  16
ATOM     16  C   UNL     1      -8.026 -39.980  45.033  1.00  0.00     0.000 C 
BRANCH  16  17
ATOM     17  C   UNL     1      -8.757 -39.849  43.684  1.00  0.00     0.000 C 
BRANCH  17  18
ATOM     18  C   UNL     1      -8.311 -40.850  42.598  1.00  0.00    -0.000 C 
BRANCH  18  19
ATOM     19  C   UNL     1      -9.081 -42.184  42.589  1.00  0.00    -0.000 C 
BRANCH  19  20
ATOM     20  C   UNL     1     -10.588 -41.997  42.348  1.00  0.00    -0.000 C 
BRANCH  20  21
ATOM     21  C   UNL     1     -11.448 -42.989  43.153  1.00  0.00    -0.000 C 
BRANCH  21  22
ATOM     22  C   UNL     1     -12.429 -42.340  44.149  1.00  0.00    -0.000 C 
BRANCH  22  23
ATOM     23  C   UNL     1     -11.803 -41.318  45.117  1.00  0.00    -0.000 C 
BRANCH  23  24
ATOM     24  C   UNL     1     -12.498 -39.947  45.072  1.00  0.00    -0.000 C 
BRANCH  24  25
ATOM     25  C   UNL     1     -13.262 -39.720  43.758  1.00  0.00    -0.003 C 
ATOM     26  C   UNL     1     -12.455 -38.914  42.740  1.00  0.00     0.004 C 
ENDBRANCH  24  25
ENDBRANCH  23  24
ENDBRANCH  22  23
ENDBRANCH  21  22
ENDBRANCH  20  21
ENDBRANCH  19  20
ENDBRANCH  18  19
ENDBRANCH  17  18
ENDBRANCH  16  17
ENDBRANCH  15  16
ENDBRANCH   1  15
TORSDOF 22
ENDMDL
MODEL 4
REMARK VINA RESULT:    -4.726      2.477      5.642
REMARK INTER + INTRA:         -14.542
REMARK INTER:                 -11.048
REMARK INTRA:                  -3.494
REMARK UNBOUND:                -3.738
REMARK SMILES CCCCCCCCCCCCCCCCCCCCCCCC(=O)[O-]
REMARK SMILES IDX 13 1 14 2 15 3 16 4 17 5 18 6 19 7 20 8 21 9 22 10 23 11
REMARK SMILES IDX 24 12 25 13 26 14 12 15 11 16 10 17 9 18 8 19 7 20 6 21 5 22
REMARK SMILES IDX 4 23 3 24 2 25 1 26
REMARK H PARENT
REMARK Flexibility Score: inf
ROOT
ATOM      1  C   UNL     1      -9.496 -37.158  45.604  1.00  0.00     0.000 C 
ENDROOT
BRANCH   1   2
ATOM      2  C   UNL     1     -10.739 -36.507  44.967  1.00  0.00     0.000 C 
BRANCH   2   3
ATOM      3  C   UNL     1     -10.565 -35.029  44.571  1.00  0.00     0.000 C 
BRANCH   3   4
ATOM      4  C   UNL     1     -10.282 -34.845  43.070  1.00  0.00     0.000 C 
BRANCH   4   5
ATOM      5  C   UNL     1     -10.447 -33.388  42.605  1.00  0.00     0.000 C 
BRANCH   5   6
ATOM      6  C   UNL     1      -9.266 -32.895  41.755  1.00  0.00     0.000 C 
BRANCH   6   7
ATOM      7  C   UNL     1      -7.910 -33.083  42.455  1.00  0.00     0.000 C 
BRANCH   7   8
ATOM      8  C   UNL     1      -7.263 -31.760  42.920  1.00  0.00     0.000 C 
BRANCH   8   9
ATOM      9  C   UNL     1      -6.643 -31.877  44.322  1.00  0.00     0.000 C 
BRANCH   9  10
ATOM     10  C   UNL     1      -7.606 -31.428  45.437  1.00  0.00     0.006 C 
BRANCH  10  11
ATOM     11  C   UNL     1      -8.222 -32.586  46.238  1.00  0.00     0.053 C 
BRANCH  11  12
ATOM     12  C   UNL     1      -7.549 -32.769  47.564  1.00  0.00     0.041 C 
ATOM     13  O   UNL     1      -8.226 -32.755  48.625  1.00  0.00    -0.550 OA
ATOM     14  O   UNL     1      -6.171 -32.929  47.630  1.00  0.00    -0.550 OA
ENDBRANCH  11  12
ENDBRANCH  10  11
ENDBRANCH   9  10
ENDBRANCH   8   9
ENDBRANCH   7   8
ENDBRANCH   6   7
ENDBRANCH   5   6
ENDBRANCH   4   5
ENDBRANCH   3   4
ENDBRANCH   2   3
ENDBRANCH   1   2
BRANCH   1  15
ATOM     15  C   UNL     1      -8.986 -38.371  44.811  1.00  0.00     0.000 C 
BRANCH  15  16
ATOM     16  C   UNL     1      -8.592 -39.517  45.754  1.00  0.00     0.000 C 
BRANCH  16  17
ATOM     17  C   UNL     1      -8.453 -39.064  47.219  1.00  0.00     0.000 C 
BRANCH  17  18
ATOM     18  C   UNL     1      -8.787 -40.141  48.272  1.00  0.00    -0.000 C 
BRANCH  18  19
ATOM     19  C   UNL     1     -10.205 -40.050  48.866  1.00  0.00    -0.000 C 
BRANCH  19  20
ATOM     20  C   UNL     1     -10.851 -38.671  48.652  1.00  0.00    -0.000 C 
BRANCH  20  21
ATOM     21  C   UNL     1     -12.117 -38.736  47.779  1.00  0.00    -0.000 C 
BRANCH  21  22
ATOM     22  C   UNL     1     -12.227 -39.988  46.885  1.00  0.00    -0.000 C 
BRANCH  22  23
ATOM     23  C   UNL     1     -12.561 -39.714  45.408  1.00  0.00    -0.000 C 
BRANCH  23  24
ATOM     24  C   UNL     1     -11.927 -40.736  44.450  1.00  0.00    -0.000 C 
BRANCH  24  25
ATOM     25  C   UNL     1     -11.784 -40.188  43.021  1.00  0.00    -0.003 C 
ATOM     26  C   UNL     1     -12.616 -38.926  42.789  1.00  0.00     0.004 C 
ENDBRANCH  24  25
ENDBRANCH  23  24
ENDBRANCH  22  23
ENDBRANCH  21  22
ENDBRANCH  20  21
ENDBRANCH  19  20
ENDBRANCH  18  19
ENDBRANCH  17  18
ENDBRANCH  16  17
ENDBRANCH  15  16
ENDBRANCH   1  15
TORSDOF 22
ENDMDL
MODEL 5
REMARK VINA RESULT:    -4.707      2.586      5.171
REMARK INTER + INTRA:         -14.499
REMARK INTER:                 -11.036
REMARK INTRA:                  -3.463
REMARK UNBOUND:                -3.738
REMARK SMILES CCCCCCCCCCCCCCCCCCCCCCCC(=O)[O-]
REMARK SMILES IDX 13 1 14 2 15 3 16 4 17 5 18 6 19 7 20 8 21 9 22 10 23 11
REMARK SMILES IDX 24 12 25 13 26 14 12 15 11 16 10 17 9 18 8 19 7 20 6 21 5 22
REMARK SMILES IDX 4 23 3 24 2 25 1 26
REMARK H PARENT
REMARK Flexibility Score: inf
ROOT
ATOM      1  C   UNL     1     -10.385 -36.202  47.398  1.00  0.00     0.000 C 
ENDROOT
BRANCH   1   2
ATOM      2  C   UNL     1      -9.741 -35.800  46.058  1.00  0.00     0.000 C 
BRANCH   2   3
ATOM      3  C   UNL     1     -10.601 -34.877  45.175  1.00  0.00     0.000 C 
BRANCH   3   4
ATOM      4  C   UNL     1     -10.293 -35.032  43.676  1.00  0.00     0.000 C 
BRANCH   4   5
ATOM      5  C   UNL     1     -10.418 -33.709  42.900  1.00  0.00     0.000 C 
BRANCH   5   6
ATOM      6  C   UNL     1      -9.973 -33.832  41.435  1.00  0.00     0.000 C 
BRANCH   6   7
ATOM      7  C   UNL     1      -8.562 -33.268  41.193  1.00  0.00     0.000 C 
BRANCH   7   8
ATOM      8  C   UNL     1      -8.188 -32.107  42.138  1.00  0.00     0.000 C 
BRANCH   8   9
ATOM      9  C   UNL     1      -7.153 -32.528  43.195  1.00  0.00     0.000 C 
BRANCH   9  10
ATOM     10  C   UNL     1      -7.212 -31.657  44.464  1.00  0.00     0.006 C 
BRANCH  10  11
ATOM     11  C   UNL     1      -8.031 -32.272  45.610  1.00  0.00     0.053 C 
BRANCH  11  12
ATOM     12  C   UNL     1      -7.223 -32.404  46.865  1.00  0.00     0.041 C 
ATOM     13  O   UNL     1      -5.978 -32.223  46.839  1.00  0.00    -0.550 OA
ATOM     14  O   UNL     1      -7.843 -32.752  48.058  1.00  0.00    -0.550 OA
ENDBRANCH  11  12
ENDBRANCH  10  11
ENDBRANCH   9  10
ENDBRANCH   8   9
ENDBRANCH   7   8
ENDBRANCH   6   7
ENDBRANCH   5   6
ENDBRANCH   4   5
ENDBRANCH   3   4
ENDBRANCH   2   3
ENDBRANCH   1   2
BRANCH   1  15
ATOM     15  C   UNL     1     -11.846 -36.651  47.246  1.00  0.00     0.000 C 
BRANCH  15  16
ATOM     16  C   UNL     1     -12.122 -37.911  48.080  1.00  0.00     0.000 C 
BRANCH  16  17
ATOM     17  C   UNL     1     -12.169 -39.192  47.228  1.00  0.00     0.000 C 
BRANCH  17  18
ATOM     18  C   UNL     1     -11.192 -40.303  47.663  1.00  0.00    -0.000 C 
BRANCH  18  19
ATOM     19  C   UNL     1     -10.050 -39.839  48.586  1.00  0.00    -0.000 C 
BRANCH  19  20
ATOM     20  C   UNL     1      -8.660 -40.064  47.968  1.00  0.00    -0.000 C 
BRANCH  20  21
ATOM     21  C   UNL     1      -8.342 -39.068  46.838  1.00  0.00    -0.000 C 
BRANCH  21  22
ATOM     22  C   UNL     1      -8.530 -39.622  45.411  1.00  0.00    -0.000 C 
BRANCH  22  23
ATOM     23  C   UNL     1      -9.420 -38.770  44.487  1.00  0.00    -0.000 C 
BRANCH  23  24
ATOM     24  C   UNL     1     -10.579 -39.569  43.868  1.00  0.00    -0.000 C 
BRANCH  24  25
ATOM     25  C   UNL     1     -11.775 -38.677  43.501  1.00  0.00    -0.003 C 
ATOM     26  C   UNL     1     -13.118 -39.376  43.719  1.00  0.00     0.004 C 
ENDBRANCH  24  25
ENDBRANCH  23  24
ENDBRANCH  22  23
ENDBRANCH  21  22
ENDBRANCH  20  21
ENDBRANCH  19  20
ENDBRANCH  18  19
ENDBRANCH  17  18
ENDBRANCH  16  17
ENDBRANCH  15  16
ENDBRANCH   1  15
TORSDOF 22
ENDMDL
MODEL 6
REMARK VINA RESULT:    -4.697      3.595      6.278
REMARK INTER + INTRA:         -14.476
REMARK INTER:                 -11.691
REMARK INTRA:                  -2.785
REMARK UNBOUND:                -3.738
REMARK SMILES CCCCCCCCCCCCCCCCCCCCCCCC(=O)[O-]
REMARK SMILES IDX 13 1 14 2 15 3 16 4 17 5 18 6 19 7 20 8 21 9 22 10 23 11
REMARK SMILES IDX 24 12 25 13 26 14 12 15 11 16 10 17 9 18 8 19 7 20 6 21 5 22
REMARK SMILES IDX 4 23 3 24 2 25 1 26
REMARK H PARENT
REMARK Flexibility Score: inf
ROOT
ATOM      1  C   UNL     1     -10.461 -35.316  45.376  1.00  0.00     0.000 C 
ENDROOT
BRANCH   1   2
ATOM      2  C   UNL     1     -10.297 -35.667  43.885  1.00  0.00     0.000 C 
BRANCH   2   3
ATOM      3  C   UNL     1      -9.328 -34.757  43.107  1.00  0.00     0.000 C 
BRANCH   3   4
ATOM      4  C   UNL     1     -10.035 -33.925  42.023  1.00  0.00     0.000 C 
BRANCH   4   5
ATOM      5  C   UNL     1      -9.052 -33.144  41.134  1.00  0.00     0.000 C 
BRANCH   5   6
ATOM      6  C   UNL     1      -7.644 -33.046  41.742  1.00  0.00     0.000 C 
BRANCH   6   7
ATOM      7  C   UNL     1      -7.468 -31.809  42.639  1.00  0.00     0.000 C 
BRANCH   7   8
ATOM      8  C   UNL     1      -6.880 -32.129  44.030  1.00  0.00     0.000 C 
BRANCH   8   9
ATOM      9  C   UNL     1      -6.798 -30.883  44.928  1.00  0.00     0.000 C 
BRANCH   9  10
ATOM     10  C   UNL     1      -6.069 -29.709  44.249  1.00  0.00     0.006 C 
BRANCH  10  11
ATOM     11  C   UNL     1      -4.577 -29.605  44.606  1.00  0.00     0.053 C 
BRANCH  11  12
ATOM     12  C   UNL     1      -4.312 -28.499  45.581  1.00  0.00     0.041 C 
ATOM     13  O   UNL     1      -4.969 -28.428  46.652  1.00  0.00    -0.550 OA
ATOM     14  O   UNL     1      -3.357 -27.532  45.295  1.00  0.00    -0.550 OA
ENDBRANCH  11  12
ENDBRANCH  10  11
ENDBRANCH   9  10
ENDBRANCH   8   9
ENDBRANCH   7   8
ENDBRANCH   6   7
ENDBRANCH   5   6
ENDBRANCH   4   5
ENDBRANCH   3   4
ENDBRANCH   2   3
ENDBRANCH   1   2
BRANCH   1  15
ATOM     15  C   UNL     1     -11.220 -36.395  46.163  1.00  0.00     0.000 C 
BRANCH  15  16
ATOM     16  C   UNL     1     -11.133 -36.134  47.673  1.00  0.00     0.000 C 
BRANCH  16  17
ATOM     17  C   UNL     1     -11.219 -37.425  48.508  1.00  0.00     0.000 C 
BRANCH  17  18
ATOM     18  C   UNL     1     -12.037 -38.565  47.868  1.00  0.00    -0.000 C 
BRANCH  18  19
ATOM     19  C   UNL     1     -11.263 -39.878  47.651  1.00  0.00    -0.000 C 
BRANCH  19  20
ATOM     20  C   UNL     1      -9.944 -39.925  48.439  1.00  0.00    -0.000 C 
BRANCH  20  21
ATOM     21  C   UNL     1      -8.704 -39.921  47.527  1.00  0.00    -0.000 C 
BRANCH  21  22
ATOM     22  C   UNL     1      -8.309 -38.536  46.973  1.00  0.00    -0.000 C 
BRANCH  22  23
ATOM     23  C   UNL     1      -8.251 -38.434  45.438  1.00  0.00    -0.000 C 
BRANCH  23  24
ATOM     24  C   UNL     1      -8.875 -39.650  44.732  1.00  0.00    -0.000 C 
BRANCH  24  25
ATOM     25  C   UNL     1     -10.236 -39.323  44.098  1.00  0.00    -0.003 C 
ATOM     26  C   UNL     1     -11.130 -40.556  43.958  1.00  0.00     0.004 C 
ENDBRANCH  24  25
ENDBRANCH  23  24
ENDBRANCH  22  23
ENDBRANCH  21  22
ENDBRANCH  20  21
ENDBRANCH  19  20
ENDBRANCH  18  19
ENDBRANCH  17  18
ENDBRANCH  16  17
ENDBRANCH  15  16
ENDBRANCH   1  15
TORSDOF 22
ENDMDL
MODEL 7
REMARK VINA RESULT:    -4.693      1.949      3.215
REMARK INTER + INTRA:         -14.467
REMARK INTER:                 -11.923
REMARK INTRA:                  -2.543
REMARK UNBOUND:                -3.738
REMARK SMILES CCCCCCCCCCCCCCCCCCCCCCCC(=O)[O-]
REMARK SMILES IDX 13 1 14 2 15 3 16 4 17 5 18 6 19 7 20 8 21 9 22 10 23 11
REMARK SMILES IDX 24 12 25 13 26 14 12 15 11 16 10 17 9 18 8 19 7 20 6 21 5 22
REMARK SMILES IDX 4 23 3 24 2 25 1 26
REMARK H PARENT
REMARK Flexibility Score: inf
ROOT
ATOM      1  C   UNL     1     -12.808 -39.818  45.862  1.00  0.00     0.000 C 
ENDROOT
BRANCH   1   2
ATOM      2  C   UNL     1     -11.501 -40.453  46.373  1.00  0.00     0.000 C 
BRANCH   2   3
ATOM      3  C   UNL     1     -10.863 -39.742  47.582  1.00  0.00     0.000 C 
BRANCH   3   4
ATOM      4  C   UNL     1      -9.572 -38.990  47.216  1.00  0.00     0.000 C 
BRANCH   4   5
ATOM      5  C   UNL     1      -9.085 -39.299  45.789  1.00  0.00     0.000 C 
BRANCH   5   6
ATOM      6  C   UNL     1      -9.201 -38.093  44.844  1.00  0.00     0.000 C 
BRANCH   6   7
ATOM      7  C   UNL     1     -10.334 -37.133  45.243  1.00  0.00     0.000 C 
BRANCH   7   8
ATOM      8  C   UNL     1     -10.517 -35.951  44.266  1.00  0.00     0.000 C 
BRANCH   8   9
ATOM      9  C   UNL     1      -9.736 -34.703  44.710  1.00  0.00     0.000 C 
BRANCH   9  10
ATOM     10  C   UNL     1      -9.077 -33.964  43.531  1.00  0.00     0.006 C 
BRANCH  10  11
ATOM     11  C   UNL     1      -9.810 -34.140  42.191  1.00  0.00     0.053 C 
BRANCH  11  12
ATOM     12  C   UNL     1      -9.189 -33.320  41.102  1.00  0.00     0.041 C 
ATOM     13  O   UNL     1      -9.838 -33.063  40.055  1.00  0.00    -0.550 OA
ATOM     14  O   UNL     1      -7.885 -32.861  41.233  1.00  0.00    -0.550 OA
ENDBRANCH  11  12
ENDBRANCH  10  11
ENDBRANCH   9  10
ENDBRANCH   8   9
ENDBRANCH   7   8
ENDBRANCH   6   7
ENDBRANCH   5   6
ENDBRANCH   4   5
ENDBRANCH   3   4
ENDBRANCH   2   3
ENDBRANCH   1   2
BRANCH   1  15
ATOM     15  C   UNL     1     -13.152 -40.238  44.425  1.00  0.00     0.000 C 
BRANCH  15  16
ATOM     16  C   UNL     1     -12.203 -39.575  43.417  1.00  0.00     0.000 C 
BRANCH  16  17
ATOM     17  C   UNL     1     -11.641 -40.567  42.383  1.00  0.00     0.000 C 
BRANCH  17  18
ATOM     18  C   UNL     1     -10.500 -41.469  42.896  1.00  0.00    -0.000 C 
BRANCH  18  19
ATOM     19  C   UNL     1      -9.422 -41.809  41.851  1.00  0.00    -0.000 C 
BRANCH  19  20
ATOM     20  C   UNL     1      -8.156 -40.950  42.003  1.00  0.00    -0.000 C 
BRANCH  20  21
ATOM     21  C   UNL     1      -6.888 -41.792  42.237  1.00  0.00    -0.000 C 
BRANCH  21  22
ATOM     22  C   UNL     1      -7.144 -43.284  42.529  1.00  0.00    -0.000 C 
BRANCH  22  23
ATOM     23  C   UNL     1      -6.186 -43.928  43.547  1.00  0.00    -0.000 C 
BRANCH  23  24
ATOM     24  C   UNL     1      -5.047 -42.988  43.976  1.00  0.00    -0.000 C 
BRANCH  24  25
ATOM     25  C   UNL     1      -5.278 -42.388  45.372  1.00  0.00    -0.003 C 
ATOM     26  C   UNL     1      -4.024 -42.434  46.246  1.00  0.00     0.004 C 
ENDBRANCH  24  25
ENDBRANCH  23  24
ENDBRANCH  22  23
ENDBRANCH  21  22
ENDBRANCH  20  21
ENDBRANCH  19  20
ENDBRANCH  18  19
ENDBRANCH  17  18
ENDBRANCH  16  17
ENDBRANCH  15  16
ENDBRANCH   1  15
TORSDOF 22
ENDMDL
MODEL 8
REMARK VINA RESULT:    -4.640      3.204      7.375
REMARK INTER + INTRA:         -14.346
REMARK INTER:                 -11.457
REMARK INTRA:                  -2.890
REMARK UNBOUND:                -3.738
REMARK SMILES CCCCCCCCCCCCCCCCCCCCCCCC(=O)[O-]
REMARK SMILES IDX 13 1 14 2 15 3 16 4 17 5 18 6 19 7 20 8 21 9 22 10 23 11
REMARK SMILES IDX 24 12 25 13 26 14 12 15 11 16 10 17 9 18 8 19 7 20 6 21 5 22
REMARK SMILES IDX 4 23 3 24 2 25 1 26
REMARK H PARENT
REMARK Flexibility Score: inf
ROOT
ATOM      1  C   UNL     1      -9.884 -36.070  46.497  1.00  0.00     0.000 C 
ENDROOT
BRANCH   1   2
ATOM      2  C   UNL     1      -9.558 -37.101  47.595  1.00  0.00     0.000 C 
BRANCH   2   3
ATOM      3  C   UNL     1      -8.680 -38.281  47.136  1.00  0.00     0.000 C 
BRANCH   3   4
ATOM      4  C   UNL     1      -9.460 -39.605  47.052  1.00  0.00     0.000 C 
BRANCH   4   5
ATOM      5  C   UNL     1     -10.807 -39.553  47.795  1.00  0.00     0.000 C 
BRANCH   5   6
ATOM      6  C   UNL     1     -11.979 -39.166  46.880  1.00  0.00     0.000 C 
BRANCH   6   7
ATOM      7  C   UNL     1     -12.167 -40.145  45.708  1.00  0.00     0.000 C 
BRANCH   7   8
ATOM      8  C   UNL     1     -12.490 -39.452  44.367  1.00  0.00     0.000 C 
BRANCH   8   9
ATOM      9  C   UNL     1     -11.344 -39.589  43.351  1.00  0.00     0.000 C 
BRANCH   9  10
ATOM     10  C   UNL     1     -10.355 -40.710  43.718  1.00  0.00     0.006 C 
BRANCH  10  11
ATOM     11  C   UNL     1      -8.902 -40.427  43.304  1.00  0.00     0.053 C 
BRANCH  11  12
ATOM     12  C   UNL     1      -8.508 -41.201  42.083  1.00  0.00     0.041 C 
ATOM     13  O   UNL     1      -9.242 -42.132  41.660  1.00  0.00    -0.550 OA
ATOM     14  O   UNL     1      -7.318 -40.911  41.428  1.00  0.00    -0.550 OA
ENDBRANCH  11  12
ENDBRANCH  10  11
ENDBRANCH   9  10
ENDBRANCH   8   9
ENDBRANCH   7   8
ENDBRANCH   6   7
ENDBRANCH   5   6
ENDBRANCH   4   5
ENDBRANCH   3   4
ENDBRANCH   2   3
ENDBRANCH   1   2
BRANCH   1  15
ATOM     15  C   UNL     1      -9.660 -36.618  45.080  1.00  0.00     0.000 C 
BRANCH  15  16
ATOM     16  C   UNL     1     -10.595 -35.932  44.073  1.00  0.00     0.000 C 
BRANCH  16  17
ATOM     17  C   UNL     1     -10.584 -34.397  44.198  1.00  0.00     0.000 C 
BRANCH  17  18
ATOM     18  C   UNL     1     -10.550 -33.632  42.859  1.00  0.00    -0.000 C 
BRANCH  18  19
ATOM     19  C   UNL     1      -9.416 -34.046  41.903  1.00  0.00    -0.000 C 
BRANCH  19  20
ATOM     20  C   UNL     1      -8.923 -32.882  41.028  1.00  0.00    -0.000 C 
BRANCH  20  21
ATOM     21  C   UNL     1      -8.046 -31.883  41.805  1.00  0.00    -0.000 C 
BRANCH  21  22
ATOM     22  C   UNL     1      -7.312 -32.475  43.025  1.00  0.00    -0.000 C 
BRANCH  22  23
ATOM     23  C   UNL     1      -6.774 -31.443  44.033  1.00  0.00    -0.000 C 
BRANCH  23  24
ATOM     24  C   UNL     1      -6.865 -31.923  45.491  1.00  0.00    -0.000 C 
BRANCH  24  25
ATOM     25  C   UNL     1      -8.291 -32.346  45.879  1.00  0.00    -0.003 C 
ATOM     26  C   UNL     1      -8.415 -32.699  47.362  1.00  0.00     0.004 C 
ENDBRANCH  24  25
ENDBRANCH  23  24
ENDBRANCH  22  23
ENDBRANCH  21  22
ENDBRANCH  20  21
ENDBRANCH  19  20
ENDBRANCH  18  19
ENDBRANCH  17  18
ENDBRANCH  16  17
ENDBRANCH  15  16
ENDBRANCH   1  15
TORSDOF 22
ENDMDL
MODEL 9
REMARK VINA RESULT:    -4.616      2.042      3.984
REMARK INTER + INTRA:         -14.291
REMARK INTER:                 -11.425
REMARK INTRA:                  -2.866
REMARK UNBOUND:                -3.738
REMARK SMILES CCCCCCCCCCCCCCCCCCCCCCCC(=O)[O-]
REMARK SMILES IDX 13 1 14 2 15 3 16 4 17 5 18 6 19 7 20 8 21 9 22 10 23 11
REMARK SMILES IDX 24 12 25 13 26 14 12 15 11 16 10 17 9 18 8 19 7 20 6 21 5 22
REMARK SMILES IDX 4 23 3 24 2 25 1 26
REMARK H PARENT
REMARK Flexibility Score: inf
ROOT
ATOM      1  C   UNL     1      -8.398 -38.429  46.804  1.00  0.00     0.000 C 
ENDROOT
BRANCH   1   2
ATOM      2  C   UNL     1      -8.377 -38.504  45.265  1.00  0.00     0.000 C 
BRANCH   2   3
ATOM      3  C   UNL     1      -9.163 -37.389  44.551  1.00  0.00     0.000 C 
BRANCH   3   4
ATOM      4  C   UNL     1      -9.776 -36.373  45.530  1.00  0.00     0.000 C 
BRANCH   4   5
ATOM      5  C   UNL     1     -10.649 -35.318  44.828  1.00  0.00     0.000 C 
BRANCH   5   6
ATOM      6  C   UNL     1     -10.269 -35.115  43.353  1.00  0.00     0.000 C 
BRANCH   6   7
ATOM      7  C   UNL     1     -10.098 -33.632  42.983  1.00  0.00     0.000 C 
BRANCH   7   8
ATOM      8  C   UNL     1      -9.242 -33.403  41.718  1.00  0.00     0.000 C 
BRANCH   8   9
ATOM      9  C   UNL     1      -8.125 -32.372  41.951  1.00  0.00     0.000 C 
BRANCH   9  10
ATOM     10  C   UNL     1      -7.414 -32.560  43.304  1.00  0.00     0.006 C 
BRANCH  10  11
ATOM     11  C   UNL     1      -6.896 -31.255  43.928  1.00  0.00     0.053 C 
BRANCH  11  12
ATOM     12  C   UNL     1      -7.251 -31.150  45.380  1.00  0.00     0.041 C 
ATOM     13  O   UNL     1      -7.485 -30.026  45.895  1.00  0.00    -0.550 OA
ATOM     14  O   UNL     1      -7.299 -32.292  46.169  1.00  0.00    -0.550 OA
ENDBRANCH  11  12
ENDBRANCH  10  11
ENDBRANCH   9  10
ENDBRANCH   8   9
ENDBRANCH   7   8
ENDBRANCH   6   7
ENDBRANCH   5   6
ENDBRANCH   4   5
ENDBRANCH   3   4
ENDBRANCH   2   3
ENDBRANCH   1   2
BRANCH   1  15
ATOM     15  C   UNL     1      -8.553 -39.806  47.466  1.00  0.00     0.000 C 
BRANCH  15  16
ATOM     16  C   UNL     1      -9.671 -39.786  48.519  1.00  0.00     0.000 C 
BRANCH  16  17
ATOM     17  C   UNL     1     -11.061 -40.071  47.920  1.00  0.00     0.000 C 
BRANCH  17  18
ATOM     18  C   UNL     1     -11.884 -38.820  47.553  1.00  0.00    -0.000 C 
BRANCH  18  19
ATOM     19  C   UNL     1     -12.510 -38.844  46.146  1.00  0.00    -0.000 C 
BRANCH  19  20
ATOM     20  C   UNL     1     -11.867 -39.897  45.229  1.00  0.00    -0.000 C 
BRANCH  20  21
ATOM     21  C   UNL     1     -11.864 -39.474  43.748  1.00  0.00    -0.000 C 
BRANCH  21  22
ATOM     22  C   UNL     1     -11.712 -40.633  42.742  1.00  0.00    -0.000 C 
BRANCH  22  23
ATOM     23  C   UNL     1     -10.509 -41.562  42.986  1.00  0.00    -0.000 C 
BRANCH  23  24
ATOM     24  C   UNL     1      -9.425 -41.436  41.902  1.00  0.00    -0.000 C 
BRANCH  24  25
ATOM     25  C   UNL     1      -8.118 -40.840  42.446  1.00  0.00    -0.003 C 
ATOM     26  C   UNL     1      -6.940 -41.809  42.338  1.00  0.00     0.004 C 
ENDBRANCH  24  25
ENDBRANCH  23  24
ENDBRANCH  22  23
ENDBRANCH  21  22
ENDBRANCH  20  21
ENDBRANCH  19  20
ENDBRANCH  18  19
ENDBRANCH  17  18
ENDBRANCH  16  17
ENDBRANCH  15  16
ENDBRANCH   1  15
TORSDOF 22
ENDMDL
