MODEL 1
REMARK VINA RESULT:    -3.648      0.000      0.000
REMARK INTER + INTRA:         -11.860
REMARK INTER:                  -8.339
REMARK INTRA:                  -3.521
REMARK UNBOUND:                -3.521
REMARK SMILES CCCCCCCCCCCCCCCCCCCCCCCC(=O)[O-]
REMARK SMILES IDX 13 1 14 2 15 3 16 4 17 5 18 6 19 7 20 8 21 9 22 10 23 11
REMARK SMILES IDX 24 12 25 13 26 14 12 15 11 16 10 17 9 18 8 19 7 20 6 21 5 22
REMARK SMILES IDX 4 23 3 24 2 25 1 26
REMARK H PARENT
REMARK Flexibility Score: inf
ROOT
ATOM      1  C   UNL     1      65.927  38.320  44.504  1.00  0.00     0.000 C 
ENDROOT
BRANCH   1   2
ATOM      2  C   UNL     1      66.496  39.619  43.913  1.00  0.00     0.000 C 
BRANCH   2   3
ATOM      3  C   UNL     1      67.177  39.404  42.553  1.00  0.00     0.000 C 
BRANCH   3   4
ATOM      4  C   UNL     1      66.260  39.844  41.405  1.00  0.00     0.000 C 
BRANCH   4   5
ATOM      5  C   UNL     1      66.212  38.775  40.303  1.00  0.00     0.000 C 
BRANCH   5   6
ATOM      6  C   UNL     1      66.468  37.353  40.832  1.00  0.00     0.000 C 
BRANCH   6   7
ATOM      7  C   UNL     1      67.573  36.571  40.096  1.00  0.00     0.000 C 
BRANCH   7   8
ATOM      8  C   UNL     1      68.499  37.477  39.267  1.00  0.00     0.000 C 
BRANCH   8   9
ATOM      9  C   UNL     1      69.747  37.919  40.050  1.00  0.00     0.000 C 
BRANCH   9  10
ATOM     10  C   UNL     1      69.884  39.450  40.122  1.00  0.00     0.006 C 
BRANCH  10  11
ATOM     11  C   UNL     1      69.702  40.113  38.750  1.00  0.00     0.053 C 
BRANCH  11  12
ATOM     12  C   UNL     1      69.313  41.554  38.874  1.00  0.00     0.041 C 
ATOM     13  O   UNL     1      70.178  42.423  39.158  1.00  0.00    -0.550 OA
ATOM     14  O   UNL     1      67.988  41.934  38.700  1.00  0.00    -0.550 OA
ENDBRANCH  11  12
ENDBRANCH  10  11
ENDBRANCH   9  10
ENDBRANCH   8   9
ENDBRANCH   7   8
ENDBRANCH   6   7
ENDBRANCH   5   6
ENDBRANCH   4   5
ENDBRANCH   3   4
ENDBRANCH   2   3
ENDBRANCH   1   2
BRANCH   1  15
ATOM     15  C   UNL     1      64.429  38.426  44.829  1.00  0.00     0.000 C 
BRANCH  15  16
ATOM     16  C   UNL     1      64.208  38.651  46.333  1.00  0.00     0.000 C 
BRANCH  16  17
ATOM     17  C   UNL     1      62.991  39.544  46.628  1.00  0.00     0.000 C 
BRANCH  17  18
ATOM     18  C   UNL     1      63.386  40.984  46.987  1.00  0.00    -0.000 C 
BRANCH  18  19
ATOM     19  C   UNL     1      64.734  41.017  47.722  1.00  0.00    -0.000 C 
BRANCH  19  20
ATOM     20  C   UNL     1      65.786  41.879  47.002  1.00  0.00    -0.000 C 
BRANCH  20  21
ATOM     21  C   UNL     1      67.236  41.359  47.099  1.00  0.00    -0.000 C 
BRANCH  21  22
ATOM     22  C   UNL     1      67.487  40.337  48.222  1.00  0.00    -0.000 C 
BRANCH  22  23
ATOM     23  C   UNL     1      67.865  38.947  47.688  1.00  0.00    -0.000 C 
BRANCH  23  24
ATOM     24  C   UNL     1      67.112  37.844  48.449  1.00  0.00    -0.000 C 
BRANCH  24  25
ATOM     25  C   UNL     1      66.315  38.393  49.643  1.00  0.00    -0.003 C 
ATOM     26  C   UNL     1      66.730  37.761  50.971  1.00  0.00     0.004 C 
ENDBRANCH  24  25
ENDBRANCH  23  24
ENDBRANCH  22  23
ENDBRANCH  21  22
ENDBRANCH  20  21
ENDBRANCH  19  20
ENDBRANCH  18  19
ENDBRANCH  17  18
ENDBRANCH  16  17
ENDBRANCH  15  16
ENDBRANCH   1  15
TORSDOF 22
ENDMDL
MODEL 2
REMARK VINA RESULT:    -3.585      5.077      8.632
REMARK INTER + INTRA:         -11.716
REMARK INTER:                  -7.539
REMARK INTRA:                  -4.177
REMARK UNBOUND:                -3.521
REMARK SMILES CCCCCCCCCCCCCCCCCCCCCCCC(=O)[O-]
REMARK SMILES IDX 13 1 14 2 15 3 16 4 17 5 18 6 19 7 20 8 21 9 22 10 23 11
REMARK SMILES IDX 24 12 25 13 26 14 12 15 11 16 10 17 9 18 8 19 7 20 6 21 5 22
REMARK SMILES IDX 4 23 3 24 2 25 1 26
REMARK H PARENT
REMARK Flexibility Score: inf
ROOT
ATOM      1  C   UNL     1      72.050  41.413  38.709  1.00  0.00     0.000 C 
ENDROOT
BRANCH   1   2
ATOM      2  C   UNL     1      73.262  42.301  39.036  1.00  0.00     0.000 C 
BRANCH   2   3
ATOM      3  C   UNL     1      72.894  43.788  39.145  1.00  0.00     0.000 C 
BRANCH   3   4
ATOM      4  C   UNL     1      73.627  44.450  40.318  1.00  0.00     0.000 C 
BRANCH   4   5
ATOM      5  C   UNL     1      73.459  43.626  41.604  1.00  0.00     0.000 C 
BRANCH   5   6
ATOM      6  C   UNL     1      74.780  43.427  42.368  1.00  0.00     0.000 C 
BRANCH   6   7
ATOM      7  C   UNL     1      75.466  42.066  42.145  1.00  0.00     0.000 C 
BRANCH   7   8
ATOM      8  C   UNL     1      74.627  40.881  42.653  1.00  0.00     0.000 C 
BRANCH   8   9
ATOM      9  C   UNL     1      74.300  39.871  41.541  1.00  0.00     0.000 C 
BRANCH   9  10
ATOM     10  C   UNL     1      72.894  39.265  41.693  1.00  0.00     0.006 C 
BRANCH  10  11
ATOM     11  C   UNL     1      72.932  37.858  42.306  1.00  0.00     0.053 C 
BRANCH  11  12
ATOM     12  C   UNL     1      72.413  37.847  43.710  1.00  0.00     0.041 C 
ATOM     13  O   UNL     1      71.312  37.298  43.976  1.00  0.00    -0.550 OA
ATOM     14  O   UNL     1      73.134  38.467  44.723  1.00  0.00    -0.550 OA
ENDBRANCH  11  12
ENDBRANCH  10  11
ENDBRANCH   9  10
ENDBRANCH   8   9
ENDBRANCH   7   8
ENDBRANCH   6   7
ENDBRANCH   5   6
ENDBRANCH   4   5
ENDBRANCH   3   4
ENDBRANCH   2   3
ENDBRANCH   1   2
BRANCH   1  15
ATOM     15  C   UNL     1      70.774  41.867  39.434  1.00  0.00     0.000 C 
BRANCH  15  16
ATOM     16  C   UNL     1      69.667  42.221  38.429  1.00  0.00     0.000 C 
BRANCH  16  17
ATOM     17  C   UNL     1      68.387  41.396  38.640  1.00  0.00     0.000 C 
BRANCH  17  18
ATOM     18  C   UNL     1      68.015  40.555  37.411  1.00  0.00    -0.000 C 
BRANCH  18  19
ATOM     19  C   UNL     1      68.206  39.057  37.692  1.00  0.00    -0.000 C 
BRANCH  19  20
ATOM     20  C   UNL     1      69.670  38.605  37.546  1.00  0.00    -0.000 C 
BRANCH  20  21
ATOM     21  C   UNL     1      70.342  38.130  38.851  1.00  0.00    -0.000 C 
BRANCH  21  22
ATOM     22  C   UNL     1      69.372  37.814  40.004  1.00  0.00    -0.000 C 
BRANCH  22  23
ATOM     23  C   UNL     1      69.469  38.825  41.158  1.00  0.00    -0.000 C 
BRANCH  23  24
ATOM     24  C   UNL     1      68.212  38.770  42.041  1.00  0.00    -0.000 C 
BRANCH  24  25
ATOM     25  C   UNL     1      66.929  38.550  41.225  1.00  0.00    -0.003 C 
ATOM     26  C   UNL     1      66.155  39.845  40.979  1.00  0.00     0.004 C 
ENDBRANCH  24  25
ENDBRANCH  23  24
ENDBRANCH  22  23
ENDBRANCH  21  22
ENDBRANCH  20  21
ENDBRANCH  19  20
ENDBRANCH  18  19
ENDBRANCH  17  18
ENDBRANCH  16  17
ENDBRANCH  15  16
ENDBRANCH   1  15
TORSDOF 22
ENDMDL
MODEL 3
REMARK VINA RESULT:    -3.552      3.204      8.058
REMARK INTER + INTRA:         -11.642
REMARK INTER:                  -7.392
REMARK INTRA:                  -4.250
REMARK UNBOUND:                -3.521
REMARK SMILES CCCCCCCCCCCCCCCCCCCCCCCC(=O)[O-]
REMARK SMILES IDX 13 1 14 2 15 3 16 4 17 5 18 6 19 7 20 8 21 9 22 10 23 11
REMARK SMILES IDX 24 12 25 13 26 14 12 15 11 16 10 17 9 18 8 19 7 20 6 21 5 22
REMARK SMILES IDX 4 23 3 24 2 25 1 26
REMARK H PARENT
REMARK Flexibility Score: inf
ROOT
ATOM      1  C   UNL     1      69.735  38.910  40.738  1.00  0.00     0.000 C 
ENDROOT
BRANCH   1   2
ATOM      2  C   UNL     1      68.455  38.665  41.553  1.00  0.00     0.000 C 
BRANCH   2   3
ATOM      3  C   UNL     1      67.395  39.755  41.331  1.00  0.00     0.000 C 
BRANCH   3   4
ATOM      4  C   UNL     1      66.059  39.140  40.895  1.00  0.00     0.000 C 
BRANCH   4   5
ATOM      5  C   UNL     1      66.228  37.653  40.550  1.00  0.00     0.000 C 
BRANCH   5   6
ATOM      6  C   UNL     1      65.225  36.746  41.286  1.00  0.00     0.000 C 
BRANCH   6   7
ATOM      7  C   UNL     1      64.974  37.111  42.762  1.00  0.00     0.000 C 
BRANCH   7   8
ATOM      8  C   UNL     1      66.091  36.618  43.699  1.00  0.00     0.000 C 
BRANCH   8   9
ATOM      9  C   UNL     1      66.399  37.619  44.825  1.00  0.00     0.000 C 
BRANCH   9  10
ATOM     10  C   UNL     1      65.573  38.911  44.704  1.00  0.00     0.006 C 
BRANCH  10  11
ATOM     11  C   UNL     1      66.440  40.169  44.856  1.00  0.00     0.053 C 
BRANCH  11  12
ATOM     12  C   UNL     1      66.132  40.909  46.121  1.00  0.00     0.041 C 
ATOM     13  O   UNL     1      64.951  40.959  46.557  1.00  0.00    -0.550 OA
ATOM     14  O   UNL     1      67.145  41.567  46.806  1.00  0.00    -0.550 OA
ENDBRANCH  11  12
ENDBRANCH  10  11
ENDBRANCH   9  10
ENDBRANCH   8   9
ENDBRANCH   7   8
ENDBRANCH   6   7
ENDBRANCH   5   6
ENDBRANCH   4   5
ENDBRANCH   3   4
ENDBRANCH   2   3
ENDBRANCH   1   2
BRANCH   1  15
ATOM     15  C   UNL     1      70.020  37.783  39.733  1.00  0.00     0.000 C 
BRANCH  15  16
ATOM     16  C   UNL     1      69.936  38.301  38.289  1.00  0.00     0.000 C 
BRANCH  16  17
ATOM     17  C   UNL     1      68.542  38.106  37.669  1.00  0.00     0.000 C 
BRANCH  17  18
ATOM     18  C   UNL     1      67.725  39.406  37.625  1.00  0.00    -0.000 C 
BRANCH  18  19
ATOM     19  C   UNL     1      68.628  40.612  37.326  1.00  0.00    -0.000 C 
BRANCH  19  20
ATOM     20  C   UNL     1      68.560  41.694  38.417  1.00  0.00    -0.000 C 
BRANCH  20  21
ATOM     21  C   UNL     1      69.873  42.469  38.654  1.00  0.00    -0.000 C 
BRANCH  21  22
ATOM     22  C   UNL     1      71.153  41.618  38.582  1.00  0.00    -0.000 C 
BRANCH  22  23
ATOM     23  C   UNL     1      72.093  41.854  39.775  1.00  0.00    -0.000 C 
BRANCH  23  24
ATOM     24  C   UNL     1      73.456  41.185  39.539  1.00  0.00    -0.000 C 
BRANCH  24  25
ATOM     25  C   UNL     1      73.534  39.777  40.150  1.00  0.00    -0.003 C 
ATOM     26  C   UNL     1      73.225  39.764  41.647  1.00  0.00     0.004 C 
ENDBRANCH  24  25
ENDBRANCH  23  24
ENDBRANCH  22  23
ENDBRANCH  21  22
ENDBRANCH  20  21
ENDBRANCH  19  20
ENDBRANCH  18  19
ENDBRANCH  17  18
ENDBRANCH  16  17
ENDBRANCH  15  16
ENDBRANCH   1  15
TORSDOF 22
ENDMDL
MODEL 4
REMARK VINA RESULT:    -3.515      3.972      8.377
REMARK INTER + INTRA:         -11.557
REMARK INTER:                  -8.153
REMARK INTRA:                  -3.404
REMARK UNBOUND:                -3.521
REMARK SMILES CCCCCCCCCCCCCCCCCCCCCCCC(=O)[O-]
REMARK SMILES IDX 13 1 14 2 15 3 16 4 17 5 18 6 19 7 20 8 21 9 22 10 23 11
REMARK SMILES IDX 24 12 25 13 26 14 12 15 11 16 10 17 9 18 8 19 7 20 6 21 5 22
REMARK SMILES IDX 4 23 3 24 2 25 1 26
REMARK H PARENT
REMARK Flexibility Score: inf
ROOT
ATOM      1  C   UNL     1      69.848  41.771  38.767  1.00  0.00     0.000 C 
ENDROOT
BRANCH   1   2
ATOM      2  C   UNL     1      68.358  41.764  38.391  1.00  0.00     0.000 C 
BRANCH   2   3
ATOM      3  C   UNL     1      68.017  40.696  37.341  1.00  0.00     0.000 C 
BRANCH   3   4
ATOM      4  C   UNL     1      68.851  39.427  37.558  1.00  0.00     0.000 C 
BRANCH   4   5
ATOM      5  C   UNL     1      67.947  38.221  37.849  1.00  0.00     0.000 C 
BRANCH   5   6
ATOM      6  C   UNL     1      67.985  37.781  39.324  1.00  0.00     0.000 C 
BRANCH   6   7
ATOM      7  C   UNL     1      69.218  38.255  40.115  1.00  0.00     0.000 C 
BRANCH   7   8
ATOM      8  C   UNL     1      68.854  39.133  41.326  1.00  0.00     0.000 C 
BRANCH   8   9
ATOM      9  C   UNL     1      67.358  39.487  41.367  1.00  0.00     0.000 C 
BRANCH   9  10
ATOM     10  C   UNL     1      66.752  39.317  42.771  1.00  0.00     0.006 C 
BRANCH  10  11
ATOM     11  C   UNL     1      65.677  38.222  42.809  1.00  0.00     0.053 C 
BRANCH  11  12
ATOM     12  C   UNL     1      64.883  38.264  44.079  1.00  0.00     0.041 C 
ATOM     13  O   UNL     1      65.072  39.185  44.916  1.00  0.00    -0.550 OA
ATOM     14  O   UNL     1      63.952  37.269  44.349  1.00  0.00    -0.550 OA
ENDBRANCH  11  12
ENDBRANCH  10  11
ENDBRANCH   9  10
ENDBRANCH   8   9
ENDBRANCH   7   8
ENDBRANCH   6   7
ENDBRANCH   5   6
ENDBRANCH   4   5
ENDBRANCH   3   4
ENDBRANCH   2   3
ENDBRANCH   1   2
BRANCH   1  15
ATOM     15  C   UNL     1      70.649  42.823  37.984  1.00  0.00     0.000 C 
BRANCH  15  16
ATOM     16  C   UNL     1      71.335  43.813  38.938  1.00  0.00     0.000 C 
BRANCH  16  17
ATOM     17  C   UNL     1      71.889  43.133  40.202  1.00  0.00     0.000 C 
BRANCH  17  18
ATOM     18  C   UNL     1      73.357  43.492  40.473  1.00  0.00    -0.000 C 
BRANCH  18  19
ATOM     19  C   UNL     1      73.589  43.762  41.967  1.00  0.00    -0.000 C 
BRANCH  19  20
ATOM     20  C   UNL     1      74.852  43.070  42.510  1.00  0.00    -0.000 C 
BRANCH  20  21
ATOM     21  C   UNL     1      75.561  42.128  41.515  1.00  0.00    -0.000 C 
BRANCH  21  22
ATOM     22  C   UNL     1      75.643  40.657  41.958  1.00  0.00    -0.000 C 
BRANCH  22  23
ATOM     23  C   UNL     1      74.407  40.202  42.749  1.00  0.00    -0.000 C 
BRANCH  23  24
ATOM     24  C   UNL     1      73.621  39.135  41.972  1.00  0.00    -0.000 C 
BRANCH  24  25
ATOM     25  C   UNL     1      72.536  39.743  41.069  1.00  0.00    -0.003 C 
ATOM     26  C   UNL     1      72.842  39.574  39.581  1.00  0.00     0.004 C 
ENDBRANCH  24  25
ENDBRANCH  23  24
ENDBRANCH  22  23
ENDBRANCH  21  22
ENDBRANCH  20  21
ENDBRANCH  19  20
ENDBRANCH  18  19
ENDBRANCH  17  18
ENDBRANCH  16  17
ENDBRANCH  15  16
ENDBRANCH   1  15
TORSDOF 22
ENDMDL
MODEL 5
REMARK VINA RESULT:    -3.503      5.256      9.996
REMARK INTER + INTRA:         -11.530
REMARK INTER:                  -8.003
REMARK INTRA:                  -3.527
REMARK UNBOUND:                -3.521
REMARK SMILES CCCCCCCCCCCCCCCCCCCCCCCC(=O)[O-]
REMARK SMILES IDX 13 1 14 2 15 3 16 4 17 5 18 6 19 7 20 8 21 9 22 10 23 11
REMARK SMILES IDX 24 12 25 13 26 14 12 15 11 16 10 17 9 18 8 19 7 20 6 21 5 22
REMARK SMILES IDX 4 23 3 24 2 25 1 26
REMARK H PARENT
REMARK Flexibility Score: inf
ROOT
ATOM      1  C   UNL     1      64.857  40.999  47.988  1.00  0.00     0.000 C 
ENDROOT
BRANCH   1   2
ATOM      2  C   UNL     1      66.260  41.051  47.362  1.00  0.00     0.000 C 
BRANCH   2   3
ATOM      3  C   UNL     1      67.268  40.149  48.091  1.00  0.00     0.000 C 
BRANCH   3   4
ATOM      4  C   UNL     1      66.580  39.343  49.200  1.00  0.00     0.000 C 
BRANCH   4   5
ATOM      5  C   UNL     1      67.542  38.306  49.799  1.00  0.00     0.000 C 
BRANCH   5   6
ATOM      6  C   UNL     1      66.819  37.204  50.594  1.00  0.00     0.000 C 
BRANCH   6   7
ATOM      7  C   UNL     1      65.558  37.663  51.350  1.00  0.00     0.000 C 
BRANCH   7   8
ATOM      8  C   UNL     1      65.754  37.700  52.876  1.00  0.00     0.000 C 
BRANCH   8   9
ATOM      9  C   UNL     1      66.463  38.980  53.348  1.00  0.00     0.000 C 
BRANCH   9  10
ATOM     10  C   UNL     1      66.157  39.313  54.819  1.00  0.00     0.006 C 
BRANCH  10  11
ATOM     11  C   UNL     1      64.807  40.024  54.984  1.00  0.00     0.053 C 
BRANCH  11  12
ATOM     12  C   UNL     1      64.969  41.406  55.537  1.00  0.00     0.041 C 
ATOM     13  O   UNL     1      66.116  41.860  55.789  1.00  0.00    -0.550 OA
ATOM     14  O   UNL     1      63.849  42.186  55.797  1.00  0.00    -0.550 OA
ENDBRANCH  11  12
ENDBRANCH  10  11
ENDBRANCH   9  10
ENDBRANCH   8   9
ENDBRANCH   7   8
ENDBRANCH   6   7
ENDBRANCH   5   6
ENDBRANCH   4   5
ENDBRANCH   3   4
ENDBRANCH   2   3
ENDBRANCH   1   2
BRANCH   1  15
ATOM     15  C   UNL     1      63.739  41.031  46.934  1.00  0.00     0.000 C 
BRANCH  15  16
ATOM     16  C   UNL     1      62.971  39.700  46.908  1.00  0.00     0.000 C 
BRANCH  16  17
ATOM     17  C   UNL     1      63.021  38.960  48.255  1.00  0.00     0.000 C 
BRANCH  17  18
ATOM     18  C   UNL     1      63.431  37.487  48.107  1.00  0.00    -0.000 C 
BRANCH  18  19
ATOM     19  C   UNL     1      64.027  37.220  46.717  1.00  0.00    -0.000 C 
BRANCH  19  20
ATOM     20  C   UNL     1      65.548  36.985  46.755  1.00  0.00    -0.000 C 
BRANCH  20  21
ATOM     21  C   UNL     1      66.350  37.711  45.655  1.00  0.00    -0.000 C 
BRANCH  21  22
ATOM     22  C   UNL     1      65.499  38.487  44.633  1.00  0.00    -0.000 C 
BRANCH  22  23
ATOM     23  C   UNL     1      66.314  39.525  43.846  1.00  0.00    -0.000 C 
BRANCH  23  24
ATOM     24  C   UNL     1      66.866  38.917  42.547  1.00  0.00    -0.000 C 
BRANCH  24  25
ATOM     25  C   UNL     1      66.380  39.663  41.294  1.00  0.00    -0.003 C 
ATOM     26  C   UNL     1      66.443  38.802  40.033  1.00  0.00     0.004 C 
ENDBRANCH  24  25
ENDBRANCH  23  24
ENDBRANCH  22  23
ENDBRANCH  21  22
ENDBRANCH  20  21
ENDBRANCH  19  20
ENDBRANCH  18  19
ENDBRANCH  17  18
ENDBRANCH  16  17
ENDBRANCH  15  16
ENDBRANCH   1  15
TORSDOF 22
ENDMDL
MODEL 6
REMARK VINA RESULT:    -3.494      5.095      8.197
REMARK INTER + INTRA:         -11.510
REMARK INTER:                  -7.504
REMARK INTRA:                  -4.006
REMARK UNBOUND:                -3.521
REMARK SMILES CCCCCCCCCCCCCCCCCCCCCCCC(=O)[O-]
REMARK SMILES IDX 13 1 14 2 15 3 16 4 17 5 18 6 19 7 20 8 21 9 22 10 23 11
REMARK SMILES IDX 24 12 25 13 26 14 12 15 11 16 10 17 9 18 8 19 7 20 6 21 5 22
REMARK SMILES IDX 4 23 3 24 2 25 1 26
REMARK H PARENT
REMARK Flexibility Score: inf
ROOT
ATOM      1  C   UNL     1      68.418  41.751  38.374  1.00  0.00     0.000 C 
ENDROOT
BRANCH   1   2
ATOM      2  C   UNL     1      69.786  42.134  38.961  1.00  0.00     0.000 C 
BRANCH   2   3
ATOM      3  C   UNL     1      70.958  41.647  38.096  1.00  0.00     0.000 C 
BRANCH   3   4
ATOM      4  C   UNL     1      72.241  41.525  38.928  1.00  0.00     0.000 C 
BRANCH   4   5
ATOM      5  C   UNL     1      72.147  42.373  40.205  1.00  0.00     0.000 C 
BRANCH   5   6
ATOM      6  C   UNL     1      73.304  43.379  40.346  1.00  0.00     0.000 C 
BRANCH   6   7
ATOM      7  C   UNL     1      73.703  43.718  41.794  1.00  0.00     0.000 C 
BRANCH   7   8
ATOM      8  C   UNL     1      74.033  42.471  42.633  1.00  0.00     0.000 C 
BRANCH   8   9
ATOM      9  C   UNL     1      75.219  41.676  42.065  1.00  0.00     0.000 C 
BRANCH   9  10
ATOM     10  C   UNL     1      75.189  40.195  42.483  1.00  0.00     0.006 C 
BRANCH  10  11
ATOM     11  C   UNL     1      73.804  39.565  42.282  1.00  0.00     0.053 C 
BRANCH  11  12
ATOM     12  C   UNL     1      73.333  38.849  43.510  1.00  0.00     0.041 C 
ATOM     13  O   UNL     1      73.944  38.990  44.602  1.00  0.00    -0.550 OA
ATOM     14  O   UNL     1      72.233  38.003  43.443  1.00  0.00    -0.550 OA
ENDBRANCH  11  12
ENDBRANCH  10  11
ENDBRANCH   9  10
ENDBRANCH   8   9
ENDBRANCH   7   8
ENDBRANCH   6   7
ENDBRANCH   5   6
ENDBRANCH   4   5
ENDBRANCH   3   4
ENDBRANCH   2   3
ENDBRANCH   1   2
BRANCH   1  15
ATOM     15  C   UNL     1      68.524  40.672  37.285  1.00  0.00     0.000 C 
BRANCH  15  16
ATOM     16  C   UNL     1      67.659  39.451  37.636  1.00  0.00     0.000 C 
BRANCH  16  17
ATOM     17  C   UNL     1      68.488  38.167  37.809  1.00  0.00     0.000 C 
BRANCH  17  18
ATOM     18  C   UNL     1      69.937  38.326  37.326  1.00  0.00    -0.000 C 
BRANCH  18  19
ATOM     19  C   UNL     1      70.930  37.986  38.446  1.00  0.00    -0.000 C 
BRANCH  19  20
ATOM     20  C   UNL     1      70.237  37.677  39.785  1.00  0.00    -0.000 C 
BRANCH  20  21
ATOM     21  C   UNL     1      70.111  38.875  40.749  1.00  0.00    -0.000 C 
BRANCH  21  22
ATOM     22  C   UNL     1      68.911  38.814  41.711  1.00  0.00    -0.000 C 
BRANCH  22  23
ATOM     23  C   UNL     1      67.716  39.650  41.227  1.00  0.00    -0.000 C 
BRANCH  23  24
ATOM     24  C   UNL     1      66.401  38.871  41.386  1.00  0.00    -0.000 C 
BRANCH  24  25
ATOM     25  C   UNL     1      66.629  37.360  41.551  1.00  0.00    -0.003 C 
ATOM     26  C   UNL     1      65.462  36.526  41.023  1.00  0.00     0.004 C 
ENDBRANCH  24  25
ENDBRANCH  23  24
ENDBRANCH  22  23
ENDBRANCH  21  22
ENDBRANCH  20  21
ENDBRANCH  19  20
ENDBRANCH  18  19
ENDBRANCH  17  18
ENDBRANCH  16  17
ENDBRANCH  15  16
ENDBRANCH   1  15
TORSDOF 22
ENDMDL
MODEL 7
REMARK VINA RESULT:    -3.451      4.122      8.969
REMARK INTER + INTRA:         -11.411
REMARK INTER:                  -8.628
REMARK INTRA:                  -2.784
REMARK UNBOUND:                -3.521
REMARK SMILES CCCCCCCCCCCCCCCCCCCCCCCC(=O)[O-]
REMARK SMILES IDX 13 1 14 2 15 3 16 4 17 5 18 6 19 7 20 8 21 9 22 10 23 11
REMARK SMILES IDX 24 12 25 13 26 14 12 15 11 16 10 17 9 18 8 19 7 20 6 21 5 22
REMARK SMILES IDX 4 23 3 24 2 25 1 26
REMARK H PARENT
REMARK Flexibility Score: inf
ROOT
ATOM      1  C   UNL     1      63.489  38.968  47.892  1.00  0.00     0.000 C 
ENDROOT
BRANCH   1   2
ATOM      2  C   UNL     1      63.462  40.402  47.338  1.00  0.00     0.000 C 
BRANCH   2   3
ATOM      3  C   UNL     1      64.569  41.286  47.931  1.00  0.00     0.000 C 
BRANCH   3   4
ATOM      4  C   UNL     1      65.517  41.787  46.834  1.00  0.00     0.000 C 
BRANCH   4   5
ATOM      5  C   UNL     1      66.937  41.982  47.385  1.00  0.00     0.000 C 
BRANCH   5   6
ATOM      6  C   UNL     1      67.338  40.905  48.409  1.00  0.00     0.000 C 
BRANCH   6   7
ATOM      7  C   UNL     1      67.794  39.564  47.805  1.00  0.00     0.000 C 
BRANCH   7   8
ATOM      8  C   UNL     1      68.070  38.489  48.870  1.00  0.00     0.000 C 
BRANCH   8   9
ATOM      9  C   UNL     1      66.795  37.746  49.303  1.00  0.00     0.000 C 
BRANCH   9  10
ATOM     10  C   UNL     1      66.461  37.970  50.788  1.00  0.00     0.006 C 
BRANCH  10  11
ATOM     11  C   UNL     1      67.698  37.836  51.687  1.00  0.00     0.053 C 
BRANCH  11  12
ATOM     12  C   UNL     1      68.197  36.425  51.741  1.00  0.00     0.041 C 
ATOM     13  O   UNL     1      67.412  35.484  52.030  1.00  0.00    -0.550 OA
ATOM     14  O   UNL     1      69.537  36.151  51.498  1.00  0.00    -0.550 OA
ENDBRANCH  11  12
ENDBRANCH  10  11
ENDBRANCH   9  10
ENDBRANCH   8   9
ENDBRANCH   7   8
ENDBRANCH   6   7
ENDBRANCH   5   6
ENDBRANCH   4   5
ENDBRANCH   3   4
ENDBRANCH   2   3
ENDBRANCH   1   2
BRANCH   1  15
ATOM     15  C   UNL     1      64.127  37.970  46.913  1.00  0.00     0.000 C 
BRANCH  15  16
ATOM     16  C   UNL     1      63.929  38.424  45.459  1.00  0.00     0.000 C 
BRANCH  16  17
ATOM     17  C   UNL     1      64.919  37.758  44.488  1.00  0.00     0.000 C 
BRANCH  17  18
ATOM     18  C   UNL     1      66.364  38.234  44.698  1.00  0.00    -0.000 C 
BRANCH  18  19
ATOM     19  C   UNL     1      66.585  39.616  44.066  1.00  0.00    -0.000 C 
BRANCH  19  20
ATOM     20  C   UNL     1      66.548  39.581  42.527  1.00  0.00    -0.000 C 
BRANCH  20  21
ATOM     21  C   UNL     1      67.524  38.582  41.872  1.00  0.00    -0.000 C 
BRANCH  21  22
ATOM     22  C   UNL     1      68.793  39.211  41.269  1.00  0.00    -0.000 C 
BRANCH  22  23
ATOM     23  C   UNL     1      68.655  39.507  39.767  1.00  0.00    -0.000 C 
BRANCH  23  24
ATOM     24  C   UNL     1      67.910  40.831  39.536  1.00  0.00    -0.000 C 
BRANCH  24  25
ATOM     25  C   UNL     1      68.463  41.615  38.335  1.00  0.00    -0.003 C 
ATOM     26  C   UNL     1      68.198  40.918  37.001  1.00  0.00     0.004 C 
ENDBRANCH  24  25
ENDBRANCH  23  24
ENDBRANCH  22  23
ENDBRANCH  21  22
ENDBRANCH  20  21
ENDBRANCH  19  20
ENDBRANCH  18  19
ENDBRANCH  17  18
ENDBRANCH  16  17
ENDBRANCH  15  16
ENDBRANCH   1  15
TORSDOF 22
ENDMDL
MODEL 8
REMARK VINA RESULT:    -3.451      3.442      8.804
REMARK INTER + INTRA:         -11.410
REMARK INTER:                  -7.656
REMARK INTRA:                  -3.755
REMARK UNBOUND:                -3.521
REMARK SMILES CCCCCCCCCCCCCCCCCCCCCCCC(=O)[O-]
REMARK SMILES IDX 13 1 14 2 15 3 16 4 17 5 18 6 19 7 20 8 21 9 22 10 23 11
REMARK SMILES IDX 24 12 25 13 26 14 12 15 11 16 10 17 9 18 8 19 7 20 6 21 5 22
REMARK SMILES IDX 4 23 3 24 2 25 1 26
REMARK H PARENT
REMARK Flexibility Score: inf
ROOT
ATOM      1  C   UNL     1      68.023  39.484  41.380  1.00  0.00     0.000 C 
ENDROOT
BRANCH   1   2
ATOM      2  C   UNL     1      66.506  39.265  41.261  1.00  0.00     0.000 C 
BRANCH   2   3
ATOM      3  C   UNL     1      66.151  37.906  40.639  1.00  0.00     0.000 C 
BRANCH   3   4
ATOM      4  C   UNL     1      65.311  37.063  41.606  1.00  0.00     0.000 C 
BRANCH   4   5
ATOM      5  C   UNL     1      65.017  37.840  42.897  1.00  0.00     0.000 C 
BRANCH   5   6
ATOM      6  C   UNL     1      65.199  36.990  44.167  1.00  0.00     0.000 C 
BRANCH   6   7
ATOM      7  C   UNL     1      65.853  37.721  45.355  1.00  0.00     0.000 C 
BRANCH   7   8
ATOM      8  C   UNL     1      66.562  39.023  44.942  1.00  0.00     0.000 C 
BRANCH   8   9
ATOM      9  C   UNL     1      65.905  40.271  45.555  1.00  0.00     0.000 C 
BRANCH   9  10
ATOM     10  C   UNL     1      65.558  40.082  47.042  1.00  0.00     0.006 C 
BRANCH  10  11
ATOM     11  C   UNL     1      64.494  41.080  47.520  1.00  0.00     0.053 C 
BRANCH  11  12
ATOM     12  C   UNL     1      63.127  40.717  47.028  1.00  0.00     0.041 C 
ATOM     13  O   UNL     1      62.243  41.604  46.897  1.00  0.00    -0.550 OA
ATOM     14  O   UNL     1      62.822  39.394  46.737  1.00  0.00    -0.550 OA
ENDBRANCH  11  12
ENDBRANCH  10  11
ENDBRANCH   9  10
ENDBRANCH   8   9
ENDBRANCH   7   8
ENDBRANCH   6   7
ENDBRANCH   5   6
ENDBRANCH   4   5
ENDBRANCH   3   4
ENDBRANCH   2   3
ENDBRANCH   1   2
BRANCH   1  15
ATOM     15  C   UNL     1      68.736  38.313  42.073  1.00  0.00     0.000 C 
BRANCH  15  16
ATOM     16  C   UNL     1      70.008  37.915  41.308  1.00  0.00     0.000 C 
BRANCH  16  17
ATOM     17  C   UNL     1      70.340  38.885  40.163  1.00  0.00     0.000 C 
BRANCH  17  18
ATOM     18  C   UNL     1      70.891  38.170  38.920  1.00  0.00    -0.000 C 
BRANCH  18  19
ATOM     19  C   UNL     1      70.083  38.543  37.669  1.00  0.00    -0.000 C 
BRANCH  19  20
ATOM     20  C   UNL     1      68.574  38.285  37.833  1.00  0.00    -0.000 C 
BRANCH  20  21
ATOM     21  C   UNL     1      67.675  39.525  37.649  1.00  0.00    -0.000 C 
BRANCH  21  22
ATOM     22  C   UNL     1      68.420  40.824  37.295  1.00  0.00    -0.000 C 
BRANCH  22  23
ATOM     23  C   UNL     1      68.547  41.782  38.490  1.00  0.00    -0.000 C 
BRANCH  23  24
ATOM     24  C   UNL     1      69.794  42.670  38.350  1.00  0.00    -0.000 C 
BRANCH  24  25
ATOM     25  C   UNL     1      70.944  42.216  39.262  1.00  0.00    -0.003 C 
ATOM     26  C   UNL     1      72.147  41.691  38.479  1.00  0.00     0.004 C 
ENDBRANCH  24  25
ENDBRANCH  23  24
ENDBRANCH  22  23
ENDBRANCH  21  22
ENDBRANCH  20  21
ENDBRANCH  19  20
ENDBRANCH  18  19
ENDBRANCH  17  18
ENDBRANCH  16  17
ENDBRANCH  15  16
ENDBRANCH   1  15
TORSDOF 22
ENDMDL
MODEL 9
REMARK VINA RESULT:    -3.424      2.456      5.739
REMARK INTER + INTRA:         -11.349
REMARK INTER:                  -6.753
REMARK INTRA:                  -4.595
REMARK UNBOUND:                -3.521
REMARK SMILES CCCCCCCCCCCCCCCCCCCCCCCC(=O)[O-]
REMARK SMILES IDX 13 1 14 2 15 3 16 4 17 5 18 6 19 7 20 8 21 9 22 10 23 11
REMARK SMILES IDX 24 12 25 13 26 14 12 15 11 16 10 17 9 18 8 19 7 20 6 21 5 22
REMARK SMILES IDX 4 23 3 24 2 25 1 26
REMARK H PARENT
REMARK Flexibility Score: inf
ROOT
ATOM      1  C   UNL     1      67.560  40.216  47.391  1.00  0.00     0.000 C 
ENDROOT
BRANCH   1   2
ATOM      2  C   UNL     1      66.642  41.313  46.827  1.00  0.00     0.000 C 
BRANCH   2   3
ATOM      3  C   UNL     1      65.340  41.464  47.627  1.00  0.00     0.000 C 
BRANCH   3   4
ATOM      4  C   UNL     1      64.223  40.603  47.025  1.00  0.00     0.000 C 
BRANCH   4   5
ATOM      5  C   UNL     1      63.849  39.452  47.971  1.00  0.00     0.000 C 
BRANCH   5   6
ATOM      6  C   UNL     1      63.807  38.084  47.266  1.00  0.00     0.000 C 
BRANCH   6   7
ATOM      7  C   UNL     1      65.146  37.326  47.229  1.00  0.00     0.000 C 
BRANCH   7   8
ATOM      8  C   UNL     1      65.504  36.808  45.824  1.00  0.00     0.000 C 
BRANCH   8   9
ATOM      9  C   UNL     1      66.444  37.762  45.067  1.00  0.00     0.000 C 
BRANCH   9  10
ATOM     10  C   UNL     1      65.681  38.723  44.139  1.00  0.00     0.006 C 
BRANCH  10  11
ATOM     11  C   UNL     1      66.622  39.476  43.187  1.00  0.00     0.053 C 
BRANCH  11  12
ATOM     12  C   UNL     1      66.261  39.247  41.751  1.00  0.00     0.041 C 
ATOM     13  O   UNL     1      65.690  38.181  41.401  1.00  0.00    -0.550 OA
ATOM     14  O   UNL     1      66.580  40.202  40.794  1.00  0.00    -0.550 OA
ENDBRANCH  11  12
ENDBRANCH  10  11
ENDBRANCH   9  10
ENDBRANCH   8   9
ENDBRANCH   7   8
ENDBRANCH   6   7
ENDBRANCH   5   6
ENDBRANCH   4   5
ENDBRANCH   3   4
ENDBRANCH   2   3
ENDBRANCH   1   2
BRANCH   1  15
ATOM     15  C   UNL     1      67.613  40.224  48.927  1.00  0.00     0.000 C 
BRANCH  15  16
ATOM     16  C   UNL     1      67.195  38.860  49.498  1.00  0.00     0.000 C 
BRANCH  16  17
ATOM     17  C   UNL     1      67.616  38.676  50.965  1.00  0.00     0.000 C 
BRANCH  17  18
ATOM     18  C   UNL     1      66.535  37.986  51.810  1.00  0.00    -0.000 C 
BRANCH  18  19
ATOM     19  C   UNL     1      65.282  37.700  50.971  1.00  0.00    -0.000 C 
BRANCH  19  20
ATOM     20  C   UNL     1      64.844  36.226  51.035  1.00  0.00    -0.000 C 
BRANCH  20  21
ATOM     21  C   UNL     1      65.989  35.197  50.926  1.00  0.00    -0.000 C 
BRANCH  21  22
ATOM     22  C   UNL     1      66.455  34.892  49.491  1.00  0.00    -0.000 C 
BRANCH  22  23
ATOM     23  C   UNL     1      67.916  35.297  49.241  1.00  0.00    -0.000 C 
BRANCH  23  24
ATOM     24  C   UNL     1      68.342  34.952  47.805  1.00  0.00    -0.000 C 
BRANCH  24  25
ATOM     25  C   UNL     1      69.647  35.652  47.394  1.00  0.00    -0.003 C 
ATOM     26  C   UNL     1      69.467  37.153  47.171  1.00  0.00     0.004 C 
ENDBRANCH  24  25
ENDBRANCH  23  24
ENDBRANCH  22  23
ENDBRANCH  21  22
ENDBRANCH  20  21
ENDBRANCH  19  20
ENDBRANCH  18  19
ENDBRANCH  17  18
ENDBRANCH  16  17
ENDBRANCH  15  16
ENDBRANCH   1  15
TORSDOF 22
ENDMDL
