MODEL 1
REMARK VINA RESULT:    -5.443      0.000      0.000
REMARK INTER + INTRA:         -10.328
REMARK INTER:                  -9.261
REMARK INTRA:                  -1.068
REMARK UNBOUND:                -1.068
REMARK SMILES CCCCCCCCCCCCCC(=O)[O-]
REMARK SMILES IDX 8 1 9 2 10 3 11 4 12 5 13 6 14 7 15 8 16 9 7 10 6 11 5 12
REMARK SMILES IDX 4 13 3 14 2 15 1 16
REMARK H PARENT
REMARK Flexibility Score: inf
ROOT
ATOM      1  C   UNL     1       9.429   9.132  39.484  1.00  0.00     0.000 C 
ENDROOT
BRANCH   1   2
ATOM      2  C   UNL     1       8.806  10.520  39.257  1.00  0.00     0.000 C 
BRANCH   2   3
ATOM      3  C   UNL     1       9.806  11.528  38.666  1.00  0.00     0.000 C 
BRANCH   3   4
ATOM      4  C   UNL     1       9.769  12.890  39.376  1.00  0.00     0.000 C 
BRANCH   4   5
ATOM      5  C   UNL     1       8.889  12.827  40.629  1.00  0.00     0.006 C 
BRANCH   5   6
ATOM      6  C   UNL     1       9.419  13.756  41.726  1.00  0.00     0.053 C 
BRANCH   6   7
ATOM      7  C   UNL     1       8.518  14.941  41.883  1.00  0.00     0.041 C 
ATOM      8  O   UNL     1       8.765  16.013  41.269  1.00  0.00    -0.550 OA
ATOM      9  O   UNL     1       7.438  14.881  42.755  1.00  0.00    -0.550 OA
ENDBRANCH   6   7
ENDBRANCH   5   6
ENDBRANCH   4   5
ENDBRANCH   3   4
ENDBRANCH   2   3
ENDBRANCH   1   2
BRANCH   1  10
ATOM     10  C   UNL     1       8.874   8.426  40.734  1.00  0.00     0.000 C 
BRANCH  10  11
ATOM     11  C   UNL     1       8.236   9.354  41.784  1.00  0.00    -0.000 C 
BRANCH  11  12
ATOM     12  C   UNL     1       8.731   9.075  43.214  1.00  0.00    -0.000 C 
BRANCH  12  13
ATOM     13  C   UNL     1       9.107  10.370  43.966  1.00  0.00    -0.000 C 
BRANCH  13  14
ATOM     14  C   UNL     1      10.080  10.144  45.139  1.00  0.00    -0.000 C 
BRANCH  14  15
ATOM     15  C   UNL     1      10.422   8.671  45.413  1.00  0.00    -0.003 C 
ATOM     16  C   UNL     1      11.926   8.401  45.415  1.00  0.00     0.004 C 
ENDBRANCH  14  15
ENDBRANCH  13  14
ENDBRANCH  12  13
ENDBRANCH  11  12
ENDBRANCH  10  11
ENDBRANCH   1  10
TORSDOF 12
ENDMDL
MODEL 2
REMARK VINA RESULT:    -5.439      9.744     11.703
REMARK INTER + INTRA:         -10.321
REMARK INTER:                  -9.423
REMARK INTRA:                  -0.898
REMARK UNBOUND:                -1.068
REMARK SMILES CCCCCCCCCCCCCC(=O)[O-]
REMARK SMILES IDX 8 1 9 2 10 3 11 4 12 5 13 6 14 7 15 8 16 9 7 10 6 11 5 12
REMARK SMILES IDX 4 13 3 14 2 15 1 16
REMARK H PARENT
REMARK Flexibility Score: inf
ROOT
ATOM      1  C   UNL     1      20.786  10.130  45.352  1.00  0.00     0.000 C 
ENDROOT
BRANCH   1   2
ATOM      2  C   UNL     1      19.799  10.887  46.256  1.00  0.00     0.000 C 
BRANCH   2   3
ATOM      3  C   UNL     1      19.552  12.330  45.786  1.00  0.00     0.000 C 
BRANCH   3   4
ATOM      4  C   UNL     1      20.157  12.618  44.403  1.00  0.00     0.000 C 
BRANCH   4   5
ATOM      5  C   UNL     1      19.951  14.086  44.014  1.00  0.00     0.006 C 
BRANCH   5   6
ATOM      6  C   UNL     1      19.974  14.264  42.492  1.00  0.00     0.053 C 
BRANCH   6   7
ATOM      7  C   UNL     1      20.181  15.704  42.140  1.00  0.00     0.041 C 
ATOM      8  O   UNL     1      19.466  16.596  42.668  1.00  0.00    -0.550 OA
ATOM      9  O   UNL     1      21.126  16.056  41.184  1.00  0.00    -0.550 OA
ENDBRANCH   6   7
ENDBRANCH   5   6
ENDBRANCH   4   5
ENDBRANCH   3   4
ENDBRANCH   2   3
ENDBRANCH   1   2
BRANCH   1  10
ATOM     10  C   UNL     1      20.197   8.826  44.783  1.00  0.00     0.000 C 
BRANCH  10  11
ATOM     11  C   UNL     1      20.597   8.504  43.332  1.00  0.00    -0.000 C 
BRANCH  11  12
ATOM     12  C   UNL     1      21.102   9.736  42.560  1.00  0.00    -0.000 C 
BRANCH  12  13
ATOM     13  C   UNL     1      20.392   9.906  41.200  1.00  0.00    -0.000 C 
BRANCH  13  14
ATOM     14  C   UNL     1      19.829   8.591  40.627  1.00  0.00    -0.000 C 
BRANCH  14  15
ATOM     15  C   UNL     1      18.980   8.756  39.356  1.00  0.00    -0.003 C 
ATOM     16  C   UNL     1      17.601   8.110  39.475  1.00  0.00     0.004 C 
ENDBRANCH  14  15
ENDBRANCH  13  14
ENDBRANCH  12  13
ENDBRANCH  11  12
ENDBRANCH  10  11
ENDBRANCH   1  10
TORSDOF 12
ENDMDL
MODEL 3
REMARK VINA RESULT:    -5.376      2.001      3.018
REMARK INTER + INTRA:         -10.216
REMARK INTER:                  -9.403
REMARK INTRA:                  -0.812
REMARK UNBOUND:                -1.068
REMARK SMILES CCCCCCCCCCCCCC(=O)[O-]
REMARK SMILES IDX 8 1 9 2 10 3 11 4 12 5 13 6 14 7 15 8 16 9 7 10 6 11 5 12
REMARK SMILES IDX 4 13 3 14 2 15 1 16
REMARK H PARENT
REMARK Flexibility Score: inf
ROOT
ATOM      1  C   UNL     1       8.682  12.408  40.754  1.00  0.00     0.000 C 
ENDROOT
BRANCH   1   2
ATOM      2  C   UNL     1       9.307  13.755  40.352  1.00  0.00     0.000 C 
BRANCH   2   3
ATOM      3  C   UNL     1       9.689  14.617  41.567  1.00  0.00     0.000 C 
BRANCH   3   4
ATOM      4  C   UNL     1       9.262  16.085  41.415  1.00  0.00     0.000 C 
BRANCH   4   5
ATOM      5  C   UNL     1       8.677  16.620  42.726  1.00  0.00     0.006 C 
BRANCH   5   6
ATOM      6  C   UNL     1       7.401  15.865  43.113  1.00  0.00     0.053 C 
BRANCH   6   7
ATOM      7  C   UNL     1       6.198  16.554  42.550  1.00  0.00     0.041 C 
ATOM      8  O   UNL     1       5.293  15.889  41.980  1.00  0.00    -0.550 OA
ATOM      9  O   UNL     1       6.104  17.940  42.603  1.00  0.00    -0.550 OA
ENDBRANCH   6   7
ENDBRANCH   5   6
ENDBRANCH   4   5
ENDBRANCH   3   4
ENDBRANCH   2   3
ENDBRANCH   1   2
BRANCH   1  10
ATOM     10  C   UNL     1       8.424  12.297  42.268  1.00  0.00     0.000 C 
BRANCH  10  11
ATOM     11  C   UNL     1       7.704  11.012  42.717  1.00  0.00    -0.000 C 
BRANCH  11  12
ATOM     12  C   UNL     1       8.658   9.967  43.320  1.00  0.00    -0.000 C 
BRANCH  12  13
ATOM     13  C   UNL     1       8.355   9.687  44.808  1.00  0.00    -0.000 C 
BRANCH  13  14
ATOM     14  C   UNL     1       9.443   8.858  45.516  1.00  0.00    -0.000 C 
BRANCH  14  15
ATOM     15  C   UNL     1      10.871   9.409  45.363  1.00  0.00    -0.003 C 
ATOM     16  C   UNL     1      11.938   8.317  45.413  1.00  0.00     0.004 C 
ENDBRANCH  14  15
ENDBRANCH  13  14
ENDBRANCH  12  13
ENDBRANCH  11  12
ENDBRANCH  10  11
ENDBRANCH   1  10
TORSDOF 12
ENDMDL
MODEL 4
REMARK VINA RESULT:    -5.361     11.095     12.460
REMARK INTER + INTRA:         -10.189
REMARK INTER:                  -9.220
REMARK INTRA:                  -0.969
REMARK UNBOUND:                -1.068
REMARK SMILES CCCCCCCCCCCCCC(=O)[O-]
REMARK SMILES IDX 8 1 9 2 10 3 11 4 12 5 13 6 14 7 15 8 16 9 7 10 6 11 5 12
REMARK SMILES IDX 4 13 3 14 2 15 1 16
REMARK H PARENT
REMARK Flexibility Score: inf
ROOT
ATOM      1  C   UNL     1      21.859  12.647  42.730  1.00  0.00     0.000 C 
ENDROOT
BRANCH   1   2
ATOM      2  C   UNL     1      20.507  13.017  43.363  1.00  0.00     0.000 C 
BRANCH   2   3
ATOM      3  C   UNL     1      19.828  14.202  42.656  1.00  0.00     0.000 C 
BRANCH   3   4
ATOM      4  C   UNL     1      20.183  15.557  43.288  1.00  0.00     0.000 C 
BRANCH   4   5
ATOM      5  C   UNL     1      20.280  16.648  42.216  1.00  0.00     0.006 C 
BRANCH   5   6
ATOM      6  C   UNL     1      21.195  16.216  41.067  1.00  0.00     0.053 C 
BRANCH   6   7
ATOM      7  C   UNL     1      22.627  16.479  41.415  1.00  0.00     0.041 C 
ATOM      8  O   UNL     1      23.495  15.581  41.252  1.00  0.00    -0.550 OA
ATOM      9  O   UNL     1      22.993  17.697  41.975  1.00  0.00    -0.550 OA
ENDBRANCH   6   7
ENDBRANCH   5   6
ENDBRANCH   4   5
ENDBRANCH   3   4
ENDBRANCH   2   3
ENDBRANCH   1   2
BRANCH   1  10
ATOM     10  C   UNL     1      21.874  11.224  42.141  1.00  0.00     0.000 C 
BRANCH  10  11
ATOM     11  C   UNL     1      20.929  10.221  42.826  1.00  0.00    -0.000 C 
BRANCH  11  12
ATOM     12  C   UNL     1      20.407   9.136  41.868  1.00  0.00    -0.000 C 
BRANCH  12  13
ATOM     13  C   UNL     1      20.927   9.330  40.427  1.00  0.00    -0.000 C 
BRANCH  13  14
ATOM     14  C   UNL     1      19.952   8.826  39.345  1.00  0.00    -0.000 C 
BRANCH  14  15
ATOM     15  C   UNL     1      18.487   9.243  39.558  1.00  0.00    -0.003 C 
ATOM     16  C   UNL     1      17.530   8.053  39.597  1.00  0.00     0.004 C 
ENDBRANCH  14  15
ENDBRANCH  13  14
ENDBRANCH  12  13
ENDBRANCH  11  12
ENDBRANCH  10  11
ENDBRANCH   1  10
TORSDOF 12
ENDMDL
MODEL 5
REMARK VINA RESULT:    -5.093     10.305     12.476
REMARK INTER + INTRA:          -9.734
REMARK INTER:                  -8.532
REMARK INTRA:                  -1.202
REMARK UNBOUND:                -1.068
REMARK SMILES CCCCCCCCCCCCCC(=O)[O-]
REMARK SMILES IDX 8 1 9 2 10 3 11 4 12 5 13 6 14 7 15 8 16 9 7 10 6 11 5 12
REMARK SMILES IDX 4 13 3 14 2 15 1 16
REMARK H PARENT
REMARK Flexibility Score: inf
ROOT
ATOM      1  C   UNL     1      21.032  12.886  42.610  1.00  0.00     0.000 C 
ENDROOT
BRANCH   1   2
ATOM      2  C   UNL     1      21.185  13.288  44.087  1.00  0.00     0.000 C 
BRANCH   2   3
ATOM      3  C   UNL     1      19.833  13.548  44.772  1.00  0.00     0.000 C 
BRANCH   3   4
ATOM      4  C   UNL     1      19.615  12.670  46.014  1.00  0.00     0.000 C 
BRANCH   4   5
ATOM      5  C   UNL     1      19.479  11.195  45.621  1.00  0.00     0.006 C 
BRANCH   5   6
ATOM      6  C   UNL     1      20.631  10.361  46.189  1.00  0.00     0.053 C 
BRANCH   6   7
ATOM      7  C   UNL     1      20.947   9.220  45.274  1.00  0.00     0.041 C 
ATOM      8  O   UNL     1      20.036   8.436  44.898  1.00  0.00    -0.550 OA
ATOM      9  O   UNL     1      22.260   8.987  44.883  1.00  0.00    -0.550 OA
ENDBRANCH   6   7
ENDBRANCH   5   6
ENDBRANCH   4   5
ENDBRANCH   3   4
ENDBRANCH   2   3
ENDBRANCH   1   2
BRANCH   1  10
ATOM     10  C   UNL     1      21.567  11.473  42.316  1.00  0.00     0.000 C 
BRANCH  10  11
ATOM     11  C   UNL     1      20.540  10.495  41.716  1.00  0.00    -0.000 C 
BRANCH  11  12
ATOM     12  C   UNL     1      21.168   9.164  41.267  1.00  0.00    -0.000 C 
BRANCH  12  13
ATOM     13  C   UNL     1      20.762   8.782  39.828  1.00  0.00    -0.000 C 
BRANCH  13  14
ATOM     14  C   UNL     1      19.310   9.158  39.474  1.00  0.00    -0.000 C 
BRANCH  14  15
ATOM     15  C   UNL     1      18.348   7.964  39.358  1.00  0.00    -0.003 C 
ATOM     16  C   UNL     1      16.993   8.227  40.015  1.00  0.00     0.004 C 
ENDBRANCH  14  15
ENDBRANCH  13  14
ENDBRANCH  12  13
ENDBRANCH  11  12
ENDBRANCH  10  11
ENDBRANCH   1  10
TORSDOF 12
ENDMDL
MODEL 6
REMARK VINA RESULT:    -5.020     10.537     12.102
REMARK INTER + INTRA:          -9.609
REMARK INTER:                  -8.644
REMARK INTRA:                  -0.965
REMARK UNBOUND:                -1.068
REMARK SMILES CCCCCCCCCCCCCC(=O)[O-]
REMARK SMILES IDX 8 1 9 2 10 3 11 4 12 5 13 6 14 7 15 8 16 9 7 10 6 11 5 12
REMARK SMILES IDX 4 13 3 14 2 15 1 16
REMARK H PARENT
REMARK Flexibility Score: inf
ROOT
ATOM      1  C   UNL     1      20.991  11.152  42.471  1.00  0.00     0.000 C 
ENDROOT
BRANCH   1   2
ATOM      2  C   UNL     1      21.998  11.767  43.457  1.00  0.00     0.000 C 
BRANCH   2   3
ATOM      3  C   UNL     1      21.855  13.293  43.574  1.00  0.00     0.000 C 
BRANCH   3   4
ATOM      4  C   UNL     1      20.473  13.724  44.089  1.00  0.00     0.000 C 
BRANCH   4   5
ATOM      5  C   UNL     1      19.702  14.485  43.005  1.00  0.00     0.006 C 
BRANCH   5   6
ATOM      6  C   UNL     1      20.657  15.153  42.011  1.00  0.00     0.053 C 
BRANCH   6   7
ATOM      7  C   UNL     1      20.696  16.631  42.240  1.00  0.00     0.041 C 
ATOM      8  O   UNL     1      19.626  17.289  42.327  1.00  0.00    -0.550 OA
ATOM      9  O   UNL     1      21.917  17.293  42.299  1.00  0.00    -0.550 OA
ENDBRANCH   6   7
ENDBRANCH   5   6
ENDBRANCH   4   5
ENDBRANCH   3   4
ENDBRANCH   2   3
ENDBRANCH   1   2
BRANCH   1  10
ATOM     10  C   UNL     1      20.701   9.667  42.760  1.00  0.00     0.000 C 
BRANCH  10  11
ATOM     11  C   UNL     1      21.317   8.672  41.760  1.00  0.00    -0.000 C 
BRANCH  11  12
ATOM     12  C   UNL     1      21.956   9.362  40.542  1.00  0.00    -0.000 C 
BRANCH  12  13
ATOM     13  C   UNL     1      20.987   9.446  39.342  1.00  0.00    -0.000 C 
BRANCH  13  14
ATOM     14  C   UNL     1      19.818   8.446  39.420  1.00  0.00    -0.000 C 
BRANCH  14  15
ATOM     15  C   UNL     1      18.423   9.093  39.463  1.00  0.00    -0.003 C 
ATOM     16  C   UNL     1      17.332   8.123  39.916  1.00  0.00     0.004 C 
ENDBRANCH  14  15
ENDBRANCH  13  14
ENDBRANCH  12  13
ENDBRANCH  11  12
ENDBRANCH  10  11
ENDBRANCH   1  10
TORSDOF 12
ENDMDL
MODEL 7
REMARK VINA RESULT:    -4.975      1.696      2.349
REMARK INTER + INTRA:          -9.532
REMARK INTER:                  -8.169
REMARK INTRA:                  -1.363
REMARK UNBOUND:                -1.068
REMARK SMILES CCCCCCCCCCCCCC(=O)[O-]
REMARK SMILES IDX 8 1 9 2 10 3 11 4 12 5 13 6 14 7 15 8 16 9 7 10 6 11 5 12
REMARK SMILES IDX 4 13 3 14 2 15 1 16
REMARK H PARENT
REMARK Flexibility Score: inf
ROOT
ATOM      1  C   UNL     1       8.618   9.009  41.732  1.00  0.00     0.000 C 
ENDROOT
BRANCH   1   2
ATOM      2  C   UNL     1       8.552  10.458  41.222  1.00  0.00     0.000 C 
BRANCH   2   3
ATOM      3  C   UNL     1       8.383  11.479  42.359  1.00  0.00     0.000 C 
BRANCH   3   4
ATOM      4  C   UNL     1       7.044  12.230  42.292  1.00  0.00     0.000 C 
BRANCH   4   5
ATOM      5  C   UNL     1       7.268  13.746  42.321  1.00  0.00     0.006 C 
BRANCH   5   6
ATOM      6  C   UNL     1       8.395  14.157  41.368  1.00  0.00     0.053 C 
BRANCH   6   7
ATOM      7  C   UNL     1       9.307  15.139  42.035  1.00  0.00     0.041 C 
ATOM      8  O   UNL     1       8.832  16.134  42.644  1.00  0.00    -0.550 OA
ATOM      9  O   UNL     1      10.685  14.987  41.934  1.00  0.00    -0.550 OA
ENDBRANCH   6   7
ENDBRANCH   5   6
ENDBRANCH   4   5
ENDBRANCH   3   4
ENDBRANCH   2   3
ENDBRANCH   1   2
BRANCH   1  10
ATOM     10  C   UNL     1       7.269   8.503  42.275  1.00  0.00     0.000 C 
BRANCH  10  11
ATOM     11  C   UNL     1       7.294   8.004  43.732  1.00  0.00    -0.000 C 
BRANCH  11  12
ATOM     12  C   UNL     1       6.928   9.099  44.749  1.00  0.00    -0.000 C 
BRANCH  12  13
ATOM     13  C   UNL     1       8.128   9.502  45.632  1.00  0.00    -0.000 C 
BRANCH  13  14
ATOM     14  C   UNL     1       9.367   8.606  45.438  1.00  0.00    -0.000 C 
BRANCH  14  15
ATOM     15  C   UNL     1      10.701   9.366  45.353  1.00  0.00    -0.003 C 
ATOM     16  C   UNL     1      11.915   8.439  45.386  1.00  0.00     0.004 C 
ENDBRANCH  14  15
ENDBRANCH  13  14
ENDBRANCH  12  13
ENDBRANCH  11  12
ENDBRANCH  10  11
ENDBRANCH   1  10
TORSDOF 12
ENDMDL
MODEL 8
REMARK VINA RESULT:    -4.961     10.991     12.276
REMARK INTER + INTRA:          -9.508
REMARK INTER:                  -8.423
REMARK INTRA:                  -1.085
REMARK UNBOUND:                -1.068
REMARK SMILES CCCCCCCCCCCCCC(=O)[O-]
REMARK SMILES IDX 8 1 9 2 10 3 11 4 12 5 13 6 14 7 15 8 16 9 7 10 6 11 5 12
REMARK SMILES IDX 4 13 3 14 2 15 1 16
REMARK H PARENT
REMARK Flexibility Score: inf
ROOT
ATOM      1  C   UNL     1      19.528  12.978  45.291  1.00  0.00     0.000 C 
ENDROOT
BRANCH   1   2
ATOM      2  C   UNL     1      20.667  13.303  44.310  1.00  0.00     0.000 C 
BRANCH   2   3
ATOM      3  C   UNL     1      20.160  13.578  42.885  1.00  0.00     0.000 C 
BRANCH   3   4
ATOM      4  C   UNL     1      19.288  14.841  42.795  1.00  0.00     0.000 C 
BRANCH   4   5
ATOM      5  C   UNL     1      20.147  16.105  42.910  1.00  0.00     0.006 C 
BRANCH   5   6
ATOM      6  C   UNL     1      20.773  16.474  41.562  1.00  0.00     0.053 C 
BRANCH   6   7
ATOM      7  C   UNL     1      22.264  16.375  41.636  1.00  0.00     0.041 C 
ATOM      8  O   UNL     1      22.881  15.540  40.923  1.00  0.00    -0.550 OA
ATOM      9  O   UNL     1      22.968  17.166  42.536  1.00  0.00    -0.550 OA
ENDBRANCH   6   7
ENDBRANCH   5   6
ENDBRANCH   4   5
ENDBRANCH   3   4
ENDBRANCH   2   3
ENDBRANCH   1   2
BRANCH   1  10
ATOM     10  C   UNL     1      19.528  11.505  45.740  1.00  0.00     0.000 C 
BRANCH  10  11
ATOM     11  C   UNL     1      20.762  10.689  45.314  1.00  0.00    -0.000 C 
BRANCH  11  12
ATOM     12  C   UNL     1      20.457   9.678  44.195  1.00  0.00    -0.000 C 
BRANCH  12  13
ATOM     13  C   UNL     1      21.396   9.847  42.981  1.00  0.00    -0.000 C 
BRANCH  13  14
ATOM     14  C   UNL     1      20.662  10.205  41.675  1.00  0.00    -0.000 C 
BRANCH  14  15
ATOM     15  C   UNL     1      19.907   9.034  41.023  1.00  0.00    -0.003 C 
ATOM     16  C   UNL     1      19.465   9.336  39.592  1.00  0.00     0.004 C 
ENDBRANCH  14  15
ENDBRANCH  13  14
ENDBRANCH  12  13
ENDBRANCH  11  12
ENDBRANCH  10  11
ENDBRANCH   1  10
TORSDOF 12
ENDMDL
MODEL 9
REMARK VINA RESULT:    -4.900      2.080      4.160
REMARK INTER + INTRA:          -9.405
REMARK INTER:                  -8.083
REMARK INTRA:                  -1.322
REMARK UNBOUND:                -1.068
REMARK SMILES CCCCCCCCCCCCCC(=O)[O-]
REMARK SMILES IDX 8 1 9 2 10 3 11 4 12 5 13 6 14 7 15 8 16 9 7 10 6 11 5 12
REMARK SMILES IDX 4 13 3 14 2 15 1 16
REMARK H PARENT
REMARK Flexibility Score: inf
ROOT
ATOM      1  C   UNL     1       7.142  11.537  42.174  1.00  0.00     0.000 C 
ENDROOT
BRANCH   1   2
ATOM      2  C   UNL     1       7.567  13.015  42.207  1.00  0.00     0.000 C 
BRANCH   2   3
ATOM      3  C   UNL     1       9.080  13.200  42.006  1.00  0.00     0.000 C 
BRANCH   3   4
ATOM      4  C   UNL     1       9.422  14.429  41.151  1.00  0.00     0.000 C 
BRANCH   4   5
ATOM      5  C   UNL     1      10.231  15.448  41.960  1.00  0.00     0.006 C 
BRANCH   5   6
ATOM      6  C   UNL     1       9.620  16.849  41.856  1.00  0.00     0.053 C 
BRANCH   6   7
ATOM      7  C   UNL     1       8.248  16.863  42.452  1.00  0.00     0.041 C 
ATOM      8  O   UNL     1       7.283  17.364  41.815  1.00  0.00    -0.550 OA
ATOM      9  O   UNL     1       8.044  16.375  43.738  1.00  0.00    -0.550 OA
ENDBRANCH   6   7
ENDBRANCH   5   6
ENDBRANCH   4   5
ENDBRANCH   3   4
ENDBRANCH   2   3
ENDBRANCH   1   2
BRANCH   1  10
ATOM     10  C   UNL     1       8.125  10.614  42.918  1.00  0.00     0.000 C 
BRANCH  10  11
ATOM     11  C   UNL     1       8.296   9.211  42.308  1.00  0.00    -0.000 C 
BRANCH  11  12
ATOM     12  C   UNL     1       7.271   8.907  41.201  1.00  0.00    -0.000 C 
BRANCH  12  13
ATOM     13  C   UNL     1       7.945   8.619  39.842  1.00  0.00    -0.000 C 
BRANCH  13  14
ATOM     14  C   UNL     1       8.051   9.856  38.930  1.00  0.00    -0.000 C 
BRANCH  14  15
ATOM     15  C   UNL     1       9.484  10.221  38.508  1.00  0.00    -0.003 C 
ATOM     16  C   UNL     1       9.851  11.666  38.838  1.00  0.00     0.004 C 
ENDBRANCH  14  15
ENDBRANCH  13  14
ENDBRANCH  12  13
ENDBRANCH  11  12
ENDBRANCH  10  11
ENDBRANCH   1  10
TORSDOF 12
ENDMDL
