MODEL 1
REMARK VINA RESULT:    -5.462      0.000      0.000
REMARK INTER + INTRA:          -6.273
REMARK INTER:                  -6.260
REMARK INTRA:                  -0.013
REMARK UNBOUND:                -0.013
REMARK SMILES O=C([O-])C=Cc1ccc(O)cc1
REMARK SMILES IDX 6 1 7 2 12 3 8 4 11 5 9 6 5 7 4 8 2 9 1 10 3 11 10 12
REMARK H PARENT 10 13
REMARK Flexibility Score: inf
ROOT
ATOM      1  C   UNL     1      31.577  34.121  21.934  1.00  0.00    -0.025 A 
ATOM      2  C   UNL     1      31.013  33.346  20.907  1.00  0.00     0.012 A 
ATOM      3  C   UNL     1      31.437  35.516  21.897  1.00  0.00     0.012 A 
ATOM      4  C   UNL     1      30.278  33.956  19.886  1.00  0.00     0.047 A 
ATOM      5  C   UNL     1      30.702  36.125  20.875  1.00  0.00     0.047 A 
ATOM      6  C   UNL     1      30.117  35.345  19.869  1.00  0.00     0.115 A 
ENDROOT
BRANCH   1   7
ATOM      7  C   UNL     1      32.403  33.504  22.994  1.00  0.00     0.010 C 
ATOM      8  C   UNL     1      32.104  33.486  24.302  1.00  0.00     0.025 C 
BRANCH   8   9
ATOM      9  C   UNL     1      31.000  34.226  24.945  1.00  0.00     0.064 C 
ATOM     10  O   UNL     1      31.096  35.453  25.210  1.00  0.00    -0.545 OA
ATOM     11  O   UNL     1      29.857  33.537  25.328  1.00  0.00    -0.545 OA
ENDBRANCH   8   9
ENDBRANCH   1   7
BRANCH   6  12
ATOM     12  O   UNL     1      29.381  35.940  18.847  1.00  0.00    -0.508 OA
ATOM     13  H   UNL     1      29.470  36.927  18.635  1.00  0.00     0.293 HD
ENDBRANCH   6  12
TORSDOF 3
ENDMDL
MODEL 2
REMARK VINA RESULT:    -5.372      1.372      4.807
REMARK INTER + INTRA:          -6.170
REMARK INTER:                  -5.888
REMARK INTRA:                  -0.282
REMARK UNBOUND:                -0.013
REMARK SMILES O=C([O-])C=Cc1ccc(O)cc1
REMARK SMILES IDX 6 1 7 2 12 3 8 4 11 5 9 6 5 7 4 8 2 9 1 10 3 11 10 12
REMARK H PARENT 10 13
REMARK Flexibility Score: inf
ROOT
ATOM      1  C   UNL     1      32.138  34.725  22.358  1.00  0.00    -0.025 A 
ATOM      2  C   UNL     1      31.979  35.919  23.082  1.00  0.00     0.012 A 
ATOM      3  C   UNL     1      31.875  33.501  22.989  1.00  0.00     0.012 A 
ATOM      4  C   UNL     1      31.514  35.888  24.400  1.00  0.00     0.047 A 
ATOM      5  C   UNL     1      31.411  33.471  24.308  1.00  0.00     0.047 A 
ATOM      6  C   UNL     1      31.225  34.666  25.014  1.00  0.00     0.115 A 
ENDROOT
BRANCH   1   7
ATOM      7  C   UNL     1      32.679  34.729  20.982  1.00  0.00     0.010 C 
ATOM      8  C   UNL     1      31.951  34.833  19.860  1.00  0.00     0.025 C 
BRANCH   8   9
ATOM      9  C   UNL     1      30.477  34.780  19.780  1.00  0.00     0.064 C 
ATOM     10  O   UNL     1      29.875  33.741  19.404  1.00  0.00    -0.545 OA
ATOM     11  O   UNL     1      29.744  35.926  20.061  1.00  0.00    -0.545 OA
ENDBRANCH   8   9
ENDBRANCH   1   7
BRANCH   6  12
ATOM     12  O   UNL     1      30.761  34.649  26.328  1.00  0.00    -0.508 OA
ATOM     13  H   UNL     1      31.016  33.908  26.971  1.00  0.00     0.293 HD
ENDBRANCH   6  12
TORSDOF 3
ENDMDL
MODEL 3
REMARK VINA RESULT:    -5.363      1.904      2.462
REMARK INTER + INTRA:          -6.159
REMARK INTER:                  -5.970
REMARK INTRA:                  -0.189
REMARK UNBOUND:                -0.013
REMARK SMILES O=C([O-])C=Cc1ccc(O)cc1
REMARK SMILES IDX 6 1 7 2 12 3 8 4 11 5 9 6 5 7 4 8 2 9 1 10 3 11 10 12
REMARK H PARENT 10 13
REMARK Flexibility Score: inf
ROOT
ATOM      1  C   UNL     1      31.724  34.914  21.770  1.00  0.00    -0.025 A 
ATOM      2  C   UNL     1      32.975  34.367  21.436  1.00  0.00     0.012 A 
ATOM      3  C   UNL     1      30.621  34.658  20.944  1.00  0.00     0.012 A 
ATOM      4  C   UNL     1      33.105  33.535  20.321  1.00  0.00     0.047 A 
ATOM      5  C   UNL     1      30.752  33.825  19.828  1.00  0.00     0.047 A 
ATOM      6  C   UNL     1      31.995  33.259  19.516  1.00  0.00     0.115 A 
ENDROOT
BRANCH   1   7
ATOM      7  C   UNL     1      31.574  35.840  22.913  1.00  0.00     0.010 C 
ATOM      8  C   UNL     1      31.488  35.478  24.202  1.00  0.00     0.025 C 
BRANCH   8   9
ATOM      9  C   UNL     1      31.347  34.096  24.702  1.00  0.00     0.064 C 
ATOM     10  O   UNL     1      30.286  33.699  25.250  1.00  0.00    -0.545 OA
ATOM     11  O   UNL     1      32.435  33.235  24.626  1.00  0.00    -0.545 OA
ENDBRANCH   8   9
ENDBRANCH   1   7
BRANCH   6  12
ATOM     12  O   UNL     1      32.138  32.426  18.408  1.00  0.00    -0.508 OA
ATOM     13  H   UNL     1      32.012  32.774  17.465  1.00  0.00     0.293 HD
ENDBRANCH   6  12
TORSDOF 3
ENDMDL
MODEL 4
REMARK VINA RESULT:    -5.267     13.228     15.359
REMARK INTER + INTRA:          -6.050
REMARK INTER:                  -5.873
REMARK INTRA:                  -0.176
REMARK UNBOUND:                -0.013
REMARK SMILES O=C([O-])C=Cc1ccc(O)cc1
REMARK SMILES IDX 6 1 7 2 12 3 8 4 11 5 9 6 5 7 4 8 2 9 1 10 3 11 10 12
REMARK H PARENT 10 13
REMARK Flexibility Score: inf
ROOT
ATOM      1  C   UNL     1      30.215  26.191  35.178  1.00  0.00    -0.025 A 
ATOM      2  C   UNL     1      30.682  26.476  33.883  1.00  0.00     0.012 A 
ATOM      3  C   UNL     1      30.101  27.232  36.111  1.00  0.00     0.012 A 
ATOM      4  C   UNL     1      30.980  27.791  33.515  1.00  0.00     0.047 A 
ATOM      5  C   UNL     1      30.400  28.547  35.741  1.00  0.00     0.047 A 
ATOM      6  C   UNL     1      30.836  28.830  34.441  1.00  0.00     0.115 A 
ENDROOT
BRANCH   1   7
ATOM      7  C   UNL     1      29.945  24.802  35.606  1.00  0.00     0.010 C 
ATOM      8  C   UNL     1      28.743  24.206  35.603  1.00  0.00     0.025 C 
BRANCH   8   9
ATOM      9  C   UNL     1      27.451  24.873  35.346  1.00  0.00     0.064 C 
ATOM     10  O   UNL     1      26.997  25.752  36.125  1.00  0.00    -0.545 OA
ATOM     11  O   UNL     1      26.687  24.472  34.257  1.00  0.00    -0.545 OA
ENDBRANCH   8   9
ENDBRANCH   1   7
BRANCH   6  12
ATOM     12  O   UNL     1      31.135  30.136  34.060  1.00  0.00    -0.508 OA
ATOM     13  H   UNL     1      31.963  30.611  34.402  1.00  0.00     0.293 HD
ENDBRANCH   6  12
TORSDOF 3
ENDMDL
MODEL 5
REMARK VINA RESULT:    -5.245     12.440     15.310
REMARK INTER + INTRA:          -6.025
REMARK INTER:                  -5.812
REMARK INTRA:                  -0.212
REMARK UNBOUND:                -0.013
REMARK SMILES O=C([O-])C=Cc1ccc(O)cc1
REMARK SMILES IDX 6 1 7 2 12 3 8 4 11 5 9 6 5 7 4 8 2 9 1 10 3 11 10 12
REMARK H PARENT 10 13
REMARK Flexibility Score: inf
ROOT
ATOM      1  C   UNL     1      30.198  27.129  35.475  1.00  0.00    -0.025 A 
ATOM      2  C   UNL     1      31.069  26.027  35.442  1.00  0.00     0.012 A 
ATOM      3  C   UNL     1      28.813  26.909  35.456  1.00  0.00     0.012 A 
ATOM      4  C   UNL     1      30.560  24.725  35.442  1.00  0.00     0.047 A 
ATOM      5  C   UNL     1      28.305  25.606  35.456  1.00  0.00     0.047 A 
ATOM      6  C   UNL     1      29.178  24.511  35.453  1.00  0.00     0.115 A 
ENDROOT
BRANCH   1   7
ATOM      7  C   UNL     1      30.711  28.514  35.420  1.00  0.00     0.010 C 
ATOM      8  C   UNL     1      31.171  29.131  34.321  1.00  0.00     0.025 C 
BRANCH   8   9
ATOM      9  C   UNL     1      31.418  28.491  33.013  1.00  0.00     0.064 C 
ATOM     10  O   UNL     1      30.535  28.466  32.116  1.00  0.00    -0.545 OA
ATOM     11  O   UNL     1      32.627  27.844  32.794  1.00  0.00    -0.545 OA
ENDBRANCH   8   9
ENDBRANCH   1   7
BRANCH   6  12
ATOM     12  O   UNL     1      28.684  23.208  35.455  1.00  0.00    -0.508 OA
ATOM     13  H   UNL     1      27.698  23.016  35.589  1.00  0.00     0.293 HD
ENDBRANCH   6  12
TORSDOF 3
ENDMDL
MODEL 6
REMARK VINA RESULT:    -5.036      9.237     10.070
REMARK INTER + INTRA:          -5.785
REMARK INTER:                  -5.640
REMARK INTRA:                  -0.145
REMARK UNBOUND:                -0.013
REMARK SMILES O=C([O-])C=Cc1ccc(O)cc1
REMARK SMILES IDX 6 1 7 2 12 3 8 4 11 5 9 6 5 7 4 8 2 9 1 10 3 11 10 12
REMARK H PARENT 10 13
REMARK Flexibility Score: inf
ROOT
ATOM      1  C   UNL     1      23.276  29.584  17.473  1.00  0.00    -0.025 A 
ATOM      2  C   UNL     1      23.902  29.859  16.245  1.00  0.00     0.012 A 
ATOM      3  C   UNL     1      23.927  28.766  18.407  1.00  0.00     0.012 A 
ATOM      4  C   UNL     1      25.182  29.363  15.980  1.00  0.00     0.047 A 
ATOM      5  C   UNL     1      25.208  28.270  18.141  1.00  0.00     0.047 A 
ATOM      6  C   UNL     1      25.839  28.571  16.927  1.00  0.00     0.115 A 
ENDROOT
BRANCH   1   7
ATOM      7  C   UNL     1      21.902  30.052  17.754  1.00  0.00     0.010 C 
ATOM      8  C   UNL     1      21.580  31.106  18.520  1.00  0.00     0.025 C 
BRANCH   8   9
ATOM      9  C   UNL     1      22.516  31.877  19.363  1.00  0.00     0.064 C 
ATOM     10  O   UNL     1      23.042  31.376  20.391  1.00  0.00    -0.545 OA
ATOM     11  O   UNL     1      22.767  33.208  19.051  1.00  0.00    -0.545 OA
ENDBRANCH   8   9
ENDBRANCH   1   7
BRANCH   6  12
ATOM     12  O   UNL     1      27.115  28.084  16.651  1.00  0.00    -0.508 OA
ATOM     13  H   UNL     1      27.854  28.112  17.344  1.00  0.00     0.293 HD
ENDBRANCH   6  12
TORSDOF 3
ENDMDL
MODEL 7
REMARK VINA RESULT:    -5.011     17.619     18.873
REMARK INTER + INTRA:          -5.756
REMARK INTER:                  -5.572
REMARK INTRA:                  -0.184
REMARK UNBOUND:                -0.013
REMARK SMILES O=C([O-])C=Cc1ccc(O)cc1
REMARK SMILES IDX 6 1 7 2 12 3 8 4 11 5 9 6 5 7 4 8 2 9 1 10 3 11 10 12
REMARK H PARENT 10 13
REMARK Flexibility Score: inf
ROOT
ATOM      1  C   UNL     1      16.963  21.498  21.943  1.00  0.00    -0.025 A 
ATOM      2  C   UNL     1      18.121  20.721  21.767  1.00  0.00     0.012 A 
ATOM      3  C   UNL     1      16.586  21.884  23.237  1.00  0.00     0.012 A 
ATOM      4  C   UNL     1      18.916  20.382  22.867  1.00  0.00     0.047 A 
ATOM      5  C   UNL     1      17.381  21.544  24.336  1.00  0.00     0.047 A 
ATOM      6  C   UNL     1      18.551  20.795  24.152  1.00  0.00     0.115 A 
ENDROOT
BRANCH   1   7
ATOM      7  C   UNL     1      16.079  21.823  20.803  1.00  0.00     0.010 C 
ATOM      8  C   UNL     1      16.291  22.800  19.908  1.00  0.00     0.025 C 
BRANCH   8   9
ATOM      9  C   UNL     1      17.337  23.838  19.996  1.00  0.00     0.064 C 
ATOM     10  O   UNL     1      18.217  23.962  19.104  1.00  0.00    -0.545 OA
ATOM     11  O   UNL     1      17.391  24.651  21.121  1.00  0.00    -0.545 OA
ENDBRANCH   8   9
ENDBRANCH   1   7
BRANCH   6  12
ATOM     12  O   UNL     1      19.352  20.451  25.239  1.00  0.00    -0.508 OA
ATOM     13  H   UNL     1      19.294  20.951  26.119  1.00  0.00     0.293 HD
ENDBRANCH   6  12
TORSDOF 3
ENDMDL
MODEL 8
REMARK VINA RESULT:    -4.985     12.813     14.483
REMARK INTER + INTRA:          -5.726
REMARK INTER:                  -5.471
REMARK INTRA:                  -0.254
REMARK UNBOUND:                -0.013
REMARK SMILES O=C([O-])C=Cc1ccc(O)cc1
REMARK SMILES IDX 6 1 7 2 12 3 8 4 11 5 9 6 5 7 4 8 2 9 1 10 3 11 10 12
REMARK H PARENT 10 13
REMARK Flexibility Score: inf
ROOT
ATOM      1  C   UNL     1      18.775  32.815  30.419  1.00  0.00    -0.025 A 
ATOM      2  C   UNL     1      18.642  31.558  31.033  1.00  0.00     0.012 A 
ATOM      3  C   UNL     1      18.353  32.979  29.092  1.00  0.00     0.012 A 
ATOM      4  C   UNL     1      18.048  30.496  30.344  1.00  0.00     0.047 A 
ATOM      5  C   UNL     1      17.759  31.916  28.404  1.00  0.00     0.047 A 
ATOM      6  C   UNL     1      17.602  30.673  29.030  1.00  0.00     0.115 A 
ENDROOT
BRANCH   1   7
ATOM      7  C   UNL     1      19.449  33.936  31.108  1.00  0.00     0.010 C 
ATOM      8  C   UNL     1      20.776  34.115  31.190  1.00  0.00     0.025 C 
BRANCH   8   9
ATOM      9  C   UNL     1      21.804  33.142  30.769  1.00  0.00     0.064 C 
ATOM     10  O   UNL     1      22.281  33.151  29.604  1.00  0.00    -0.545 OA
ATOM     11  O   UNL     1      22.204  32.153  31.659  1.00  0.00    -0.545 OA
ENDBRANCH   8   9
ENDBRANCH   1   7
BRANCH   6  12
ATOM     12  O   UNL     1      17.010  29.607  28.356  1.00  0.00    -0.508 OA
ATOM     13  H   UNL     1      17.539  28.779  28.107  1.00  0.00     0.293 HD
ENDBRANCH   6  12
TORSDOF 3
ENDMDL
MODEL 9
REMARK VINA RESULT:    -4.794     13.543     15.703
REMARK INTER + INTRA:          -5.507
REMARK INTER:                  -5.503
REMARK INTRA:                  -0.004
REMARK UNBOUND:                -0.013
REMARK SMILES O=C([O-])C=Cc1ccc(O)cc1
REMARK SMILES IDX 6 1 7 2 12 3 8 4 11 5 9 6 5 7 4 8 2 9 1 10 3 11 10 12
REMARK H PARENT 10 13
REMARK Flexibility Score: inf
ROOT
ATOM      1  C   UNL     1      29.858  25.829  35.594  1.00  0.00    -0.025 A 
ATOM      2  C   UNL     1      29.421  24.630  35.004  1.00  0.00     0.012 A 
ATOM      3  C   UNL     1      28.912  26.717  36.125  1.00  0.00     0.012 A 
ATOM      4  C   UNL     1      28.061  24.305  34.994  1.00  0.00     0.047 A 
ATOM      5  C   UNL     1      27.552  26.390  36.114  1.00  0.00     0.047 A 
ATOM      6  C   UNL     1      27.125  25.181  35.552  1.00  0.00     0.115 A 
ENDROOT
BRANCH   1   7
ATOM      7  C   UNL     1      31.284  26.220  35.568  1.00  0.00     0.010 C 
ATOM      8  C   UNL     1      31.772  27.346  35.027  1.00  0.00     0.025 C 
BRANCH   8   9
ATOM      9  C   UNL     1      31.011  28.308  34.204  1.00  0.00     0.064 C 
ATOM     10  O   UNL     1      30.813  29.490  34.589  1.00  0.00    -0.545 OA
ATOM     11  O   UNL     1      30.444  27.878  33.011  1.00  0.00    -0.545 OA
ENDBRANCH   8   9
ENDBRANCH   1   7
BRANCH   6  12
ATOM     12  O   UNL     1      25.773  24.843  35.536  1.00  0.00    -0.508 OA
ATOM     13  H   UNL     1      25.082  25.443  35.100  1.00  0.00     0.293 HD
ENDBRANCH   6  12
TORSDOF 3
ENDMDL
