MODEL 1
REMARK VINA RESULT:    -8.815      0.000      0.000
REMARK INTER + INTRA:         -10.626
REMARK INTER:                 -10.361
REMARK INTRA:                  -0.265
REMARK UNBOUND:                -0.265
REMARK SMILES O=c1cc(-c2ccc(O)c(O)c2)oc2cc(O)cc(O)c12
REMARK SMILES IDX 4 1 3 2 2 3 1 4 21 5 19 6 18 7 16 8 15 9 14 10 13 11 5 12
REMARK SMILES IDX 6 13 7 14 8 15 12 16 10 17 9 18 11 20 20 22 17 24
REMARK H PARENT 9 19 11 21 20 23 17 25
REMARK Flexibility Score: inf
ROOT
ATOM      1  C   UNL     1      -2.772  16.494  13.753  1.00  0.00     0.138 A 
ATOM      2  C   UNL     1      -3.820  17.420  13.646  1.00  0.00     0.100 A 
ATOM      3  C   UNL     1      -4.989  17.064  12.971  1.00  0.00     0.197 A 
ATOM      4  O   UNL     1      -5.886  17.936  12.838  1.00  0.00    -0.289 OA
ATOM      5  C   UNL     1      -5.119  15.764  12.427  1.00  0.00     0.107 A 
ATOM      6  C   UNL     1      -6.280  15.278  11.755  1.00  0.00     0.134 A 
ATOM      7  C   UNL     1      -6.251  14.012  11.157  1.00  0.00     0.093 A 
ATOM      8  C   UNL     1      -5.127  13.192  11.259  1.00  0.00     0.123 A 
ATOM      9  C   UNL     1      -4.006  13.636  11.960  1.00  0.00     0.094 A 
ATOM     10  C   UNL     1      -3.992  14.908  12.539  1.00  0.00     0.146 A 
ATOM     11  O   UNL     1      -2.899  15.299  13.186  1.00  0.00    -0.456 OA
ENDROOT
BRANCH   1  12
ATOM     12  C   UNL     1      -1.508  16.820  14.460  1.00  0.00     0.021 A 
ATOM     13  C   UNL     1      -1.445  16.692  15.858  1.00  0.00     0.016 A 
ATOM     14  C   UNL     1      -0.271  17.000  16.548  1.00  0.00     0.051 A 
ATOM     15  C   UNL     1       0.858  17.450  15.858  1.00  0.00     0.157 A 
ATOM     16  C   UNL     1      -0.372  17.288  13.770  1.00  0.00     0.062 A 
ATOM     17  C   UNL     1       0.807  17.598  14.462  1.00  0.00     0.158 A 
BRANCH  15  18
ATOM     18  O   UNL     1       2.017  17.748  16.573  1.00  0.00    -0.504 OA
ATOM     19  H   UNL     1       2.147  18.636  17.043  1.00  0.00     0.293 HD
ENDBRANCH  15  18
BRANCH  17  20
ATOM     20  O   UNL     1       1.926  18.058  13.769  1.00  0.00    -0.504 OA
ATOM     21  H   UNL     1       2.000  17.970  12.762  1.00  0.00     0.293 HD
ENDBRANCH  17  20
ENDBRANCH   1  12
BRANCH   6  22
ATOM     22  O   UNL     1      -7.485  15.981  11.667  1.00  0.00    -0.507 OA
ATOM     23  H   UNL     1      -8.268  15.864  12.293  1.00  0.00     0.293 HD
ENDBRANCH   6  22
BRANCH   8  24
ATOM     24  O   UNL     1      -5.140  11.932  10.663  1.00  0.00    -0.508 OA
ATOM     25  H   UNL     1      -4.954  11.092  11.198  1.00  0.00     0.293 HD
ENDBRANCH   8  24
TORSDOF 5
ENDMDL
MODEL 2
REMARK VINA RESULT:    -8.625      1.511      7.220
REMARK INTER + INTRA:         -10.403
REMARK INTER:                 -10.137
REMARK INTRA:                  -0.266
REMARK UNBOUND:                -0.265
REMARK SMILES O=c1cc(-c2ccc(O)c(O)c2)oc2cc(O)cc(O)c12
REMARK SMILES IDX 4 1 3 2 2 3 1 4 21 5 19 6 18 7 16 8 15 9 14 10 13 11 5 12
REMARK SMILES IDX 6 13 7 14 8 15 12 16 10 17 9 18 11 20 20 22 17 24
REMARK H PARENT 9 19 11 21 20 23 17 25
REMARK Flexibility Score: inf
ROOT
ATOM      1  C   UNL     1      -1.639  16.513  13.956  1.00  0.00     0.138 A 
ATOM      2  C   UNL     1      -1.366  16.601  15.329  1.00  0.00     0.100 A 
ATOM      3  C   UNL     1      -0.101  17.008  15.756  1.00  0.00     0.197 A 
ATOM      4  O   UNL     1       0.132  17.019  16.992  1.00  0.00    -0.289 OA
ATOM      5  C   UNL     1       0.885  17.358  14.803  1.00  0.00     0.107 A 
ATOM      6  C   UNL     1       2.194  17.825  15.123  1.00  0.00     0.134 A 
ATOM      7  C   UNL     1       3.124  18.029  14.096  1.00  0.00     0.093 A 
ATOM      8  C   UNL     1       2.775  17.841  12.760  1.00  0.00     0.123 A 
ATOM      9  C   UNL     1       1.480  17.437  12.431  1.00  0.00     0.094 A 
ATOM     10  C   UNL     1       0.540  17.192  13.436  1.00  0.00     0.146 A 
ATOM     11  O   UNL     1      -0.677  16.793  13.082  1.00  0.00    -0.456 OA
ENDROOT
BRANCH   1  12
ATOM     12  C   UNL     1      -2.966  16.086  13.447  1.00  0.00     0.021 A 
ATOM     13  C   UNL     1      -3.267  14.716  13.361  1.00  0.00     0.016 A 
ATOM     14  C   UNL     1      -4.505  14.288  12.878  1.00  0.00     0.051 A 
ATOM     15  C   UNL     1      -5.462  15.219  12.462  1.00  0.00     0.157 A 
ATOM     16  C   UNL     1      -3.928  17.020  13.013  1.00  0.00     0.062 A 
ATOM     17  C   UNL     1      -5.172  16.592  12.527  1.00  0.00     0.158 A 
BRANCH  15  18
ATOM     18  O   UNL     1      -6.690  14.762  11.986  1.00  0.00    -0.504 OA
ATOM     19  H   UNL     1      -7.419  14.432  12.607  1.00  0.00     0.293 HD
ENDBRANCH  15  18
BRANCH  17  20
ATOM     20  O   UNL     1      -6.117  17.524  12.103  1.00  0.00    -0.504 OA
ATOM     21  H   UNL     1      -6.547  18.175  12.750  1.00  0.00     0.293 HD
ENDBRANCH  17  20
ENDBRANCH   1  12
BRANCH   6  22
ATOM     22  O   UNL     1       2.622  18.125  16.420  1.00  0.00    -0.507 OA
ATOM     23  H   UNL     1       2.013  18.375  17.185  1.00  0.00     0.293 HD
ENDBRANCH   6  22
BRANCH   8  24
ATOM     24  O   UNL     1       3.722  18.068  11.763  1.00  0.00    -0.508 OA
ATOM     25  H   UNL     1       4.677  18.322  11.988  1.00  0.00     0.293 HD
ENDBRANCH   8  24
TORSDOF 5
ENDMDL
MODEL 3
REMARK VINA RESULT:    -8.585      1.683      7.179
REMARK INTER + INTRA:         -10.356
REMARK INTER:                 -10.077
REMARK INTRA:                  -0.279
REMARK UNBOUND:                -0.265
REMARK SMILES O=c1cc(-c2ccc(O)c(O)c2)oc2cc(O)cc(O)c12
REMARK SMILES IDX 4 1 3 2 2 3 1 4 21 5 19 6 18 7 16 8 15 9 14 10 13 11 5 12
REMARK SMILES IDX 6 13 7 14 8 15 12 16 10 17 9 18 11 20 20 22 17 24
REMARK H PARENT 9 19 11 21 20 23 17 25
REMARK Flexibility Score: inf
ROOT
ATOM      1  C   UNL     1      -1.817  17.123  13.598  1.00  0.00     0.138 A 
ATOM      2  C   UNL     1      -1.562  17.199  14.975  1.00  0.00     0.100 A 
ATOM      3  C   UNL     1      -0.254  17.384  15.425  1.00  0.00     0.197 A 
ATOM      4  O   UNL     1      -0.048  17.387  16.666  1.00  0.00    -0.289 OA
ATOM      5  C   UNL     1       0.799  17.523  14.489  1.00  0.00     0.107 A 
ATOM      6  C   UNL     1       2.164  17.756  14.831  1.00  0.00     0.134 A 
ATOM      7  C   UNL     1       3.137  17.760  13.824  1.00  0.00     0.093 A 
ATOM      8  C   UNL     1       2.787  17.602  12.484  1.00  0.00     0.123 A 
ATOM      9  C   UNL     1       1.448  17.428  12.132  1.00  0.00     0.094 A 
ATOM     10  C   UNL     1       0.459  17.384  13.118  1.00  0.00     0.146 A 
ATOM     11  O   UNL     1      -0.803  17.201  12.742  1.00  0.00    -0.456 OA
ENDROOT
BRANCH   1  12
ATOM     12  C   UNL     1      -3.189  16.928  13.065  1.00  0.00     0.021 A 
ATOM     13  C   UNL     1      -4.194  17.858  13.385  1.00  0.00     0.016 A 
ATOM     14  C   UNL     1      -5.494  17.694  12.904  1.00  0.00     0.051 A 
ATOM     15  C   UNL     1      -5.819  16.595  12.103  1.00  0.00     0.157 A 
ATOM     16  C   UNL     1      -3.524  15.815  12.269  1.00  0.00     0.062 A 
ATOM     17  C   UNL     1      -4.830  15.648  11.786  1.00  0.00     0.158 A 
BRANCH  15  18
ATOM     18  O   UNL     1      -7.125  16.458  11.635  1.00  0.00    -0.504 OA
ATOM     19  H   UNL     1      -7.354  16.522  10.650  1.00  0.00     0.293 HD
ENDBRANCH  15  18
BRANCH  17  20
ATOM     20  O   UNL     1      -5.150  14.545  10.998  1.00  0.00    -0.504 OA
ATOM     21  H   UNL     1      -4.679  13.655  11.113  1.00  0.00     0.293 HD
ENDBRANCH  17  20
ENDBRANCH   1  12
BRANCH   6  22
ATOM     22  O   UNL     1       2.612  18.010  16.131  1.00  0.00    -0.507 OA
ATOM     23  H   UNL     1       3.082  17.339  16.720  1.00  0.00     0.293 HD
ENDBRANCH   6  22
BRANCH   8  24
ATOM     24  O   UNL     1       3.780  17.627  11.506  1.00  0.00    -0.508 OA
ATOM     25  H   UNL     1       4.014  16.801  10.966  1.00  0.00     0.293 HD
ENDBRANCH   8  24
TORSDOF 5
ENDMDL
MODEL 4
REMARK VINA RESULT:    -8.434      2.096      7.515
REMARK INTER + INTRA:         -10.179
REMARK INTER:                  -9.889
REMARK INTRA:                  -0.290
REMARK UNBOUND:                -0.265
REMARK SMILES O=c1cc(-c2ccc(O)c(O)c2)oc2cc(O)cc(O)c12
REMARK SMILES IDX 4 1 3 2 2 3 1 4 21 5 19 6 18 7 16 8 15 9 14 10 13 11 5 12
REMARK SMILES IDX 6 13 7 14 8 15 12 16 10 17 9 18 11 20 20 22 17 24
REMARK H PARENT 9 19 11 21 20 23 17 25
REMARK Flexibility Score: inf
ROOT
ATOM      1  C   UNL     1      -1.226  17.184  12.140  1.00  0.00     0.138 A 
ATOM      2  C   UNL     1      -0.370  17.411  11.053  1.00  0.00     0.100 A 
ATOM      3  C   UNL     1       0.975  17.706  11.283  1.00  0.00     0.197 A 
ATOM      4  O   UNL     1       1.703  17.966  10.291  1.00  0.00    -0.289 OA
ATOM      5  C   UNL     1       1.470  17.743  12.609  1.00  0.00     0.107 A 
ATOM      6  C   UNL     1       2.830  17.993  12.961  1.00  0.00     0.134 A 
ATOM      7  C   UNL     1       3.180  18.120  14.310  1.00  0.00     0.093 A 
ATOM      8  C   UNL     1       2.235  17.948  15.320  1.00  0.00     0.123 A 
ATOM      9  C   UNL     1       0.913  17.649  14.989  1.00  0.00     0.094 A 
ATOM     10  C   UNL     1       0.525  17.550  13.650  1.00  0.00     0.146 A 
ATOM     11  O   UNL     1      -0.748  17.279  13.377  1.00  0.00    -0.456 OA
ENDROOT
BRANCH   1  12
ATOM     12  C   UNL     1      -2.664  16.866  11.953  1.00  0.00     0.021 A 
ATOM     13  C   UNL     1      -3.581  17.185  12.968  1.00  0.00     0.016 A 
ATOM     14  C   UNL     1      -4.938  16.889  12.820  1.00  0.00     0.051 A 
ATOM     15  C   UNL     1      -5.402  16.260  11.661  1.00  0.00     0.157 A 
ATOM     16  C   UNL     1      -3.134  16.220  10.792  1.00  0.00     0.062 A 
ATOM     17  C   UNL     1      -4.496  15.921  10.643  1.00  0.00     0.158 A 
BRANCH  15  18
ATOM     18  O   UNL     1      -6.762  15.979  11.540  1.00  0.00    -0.504 OA
ATOM     19  H   UNL     1      -7.415  16.639  11.134  1.00  0.00     0.293 HD
ENDBRANCH  15  18
BRANCH  17  20
ATOM     20  O   UNL     1      -4.951  15.284   9.489  1.00  0.00    -0.504 OA
ATOM     21  H   UNL     1      -5.656  15.703   8.894  1.00  0.00     0.293 HD
ENDBRANCH  17  20
ENDBRANCH   1  12
BRANCH   6  22
ATOM     22  O   UNL     1       3.871  18.099  12.033  1.00  0.00    -0.507 OA
ATOM     23  H   UNL     1       4.765  17.640  12.116  1.00  0.00     0.293 HD
ENDBRANCH   6  22
BRANCH   8  24
ATOM     24  O   UNL     1       2.623  18.067  16.653  1.00  0.00    -0.508 OA
ATOM     25  H   UNL     1       3.328  17.460  17.056  1.00  0.00     0.293 HD
ENDBRANCH   8  24
TORSDOF 5
ENDMDL
MODEL 5
REMARK VINA RESULT:    -8.401      2.177      2.546
REMARK INTER + INTRA:         -10.139
REMARK INTER:                  -9.825
REMARK INTRA:                  -0.314
REMARK UNBOUND:                -0.265
REMARK SMILES O=c1cc(-c2ccc(O)c(O)c2)oc2cc(O)cc(O)c12
REMARK SMILES IDX 4 1 3 2 2 3 1 4 21 5 19 6 18 7 16 8 15 9 14 10 13 11 5 12
REMARK SMILES IDX 6 13 7 14 8 15 12 16 10 17 9 18 11 20 20 22 17 24
REMARK H PARENT 9 19 11 21 20 23 17 25
REMARK Flexibility Score: inf
ROOT
ATOM      1  C   UNL     1      -1.225  17.329  12.708  1.00  0.00     0.138 A 
ATOM      2  C   UNL     1      -2.258  17.801  13.532  1.00  0.00     0.100 A 
ATOM      3  C   UNL     1      -3.587  17.594  13.158  1.00  0.00     0.197 A 
ATOM      4  O   UNL     1      -4.490  18.082  13.885  1.00  0.00    -0.289 OA
ATOM      5  C   UNL     1      -3.881  16.884  11.969  1.00  0.00     0.107 A 
ATOM      6  C   UNL     1      -5.197  16.578  11.511  1.00  0.00     0.134 A 
ATOM      7  C   UNL     1      -5.368  15.971  10.261  1.00  0.00     0.093 A 
ATOM      8  C   UNL     1      -4.272  15.605   9.481  1.00  0.00     0.123 A 
ATOM      9  C   UNL     1      -2.979  15.850   9.944  1.00  0.00     0.094 A 
ATOM     10  C   UNL     1      -2.776  16.485  11.172  1.00  0.00     0.146 A 
ATOM     11  O   UNL     1      -1.528  16.714  11.570  1.00  0.00    -0.456 OA
ENDROOT
BRANCH   1  12
ATOM     12  C   UNL     1       0.205  17.521  13.058  1.00  0.00     0.021 A 
ATOM     13  C   UNL     1       0.553  17.894  14.368  1.00  0.00     0.016 A 
ATOM     14  C   UNL     1       1.890  18.089  14.721  1.00  0.00     0.051 A 
ATOM     15  C   UNL     1       2.903  17.926  13.772  1.00  0.00     0.157 A 
ATOM     16  C   UNL     1       1.229  17.371  12.101  1.00  0.00     0.062 A 
ATOM     17  C   UNL     1       2.571  17.568  12.454  1.00  0.00     0.158 A 
BRANCH  15  18
ATOM     18  O   UNL     1       4.229  18.125  14.153  1.00  0.00    -0.504 OA
ATOM     19  H   UNL     1       4.782  17.392  14.582  1.00  0.00     0.293 HD
ENDBRANCH  15  18
BRANCH  17  20
ATOM     20  O   UNL     1       3.576  17.415  11.500  1.00  0.00    -0.504 OA
ATOM     21  H   UNL     1       3.467  17.761  10.554  1.00  0.00     0.293 HD
ENDBRANCH  17  20
ENDBRANCH   1  12
BRANCH   6  22
ATOM     22  O   UNL     1      -6.359  16.825  12.248  1.00  0.00    -0.507 OA
ATOM     23  H   UNL     1      -7.297  16.763  11.883  1.00  0.00     0.293 HD
ENDBRANCH   6  22
BRANCH   8  24
ATOM     24  O   UNL     1      -4.480  14.990   8.248  1.00  0.00    -0.508 OA
ATOM     25  H   UNL     1      -4.893  15.489   7.469  1.00  0.00     0.293 HD
ENDBRANCH   8  24
TORSDOF 5
ENDMDL
MODEL 6
REMARK VINA RESULT:    -8.237     10.955     14.002
REMARK INTER + INTRA:          -9.947
REMARK INTER:                  -9.681
REMARK INTRA:                  -0.266
REMARK UNBOUND:                -0.265
REMARK SMILES O=c1cc(-c2ccc(O)c(O)c2)oc2cc(O)cc(O)c12
REMARK SMILES IDX 4 1 3 2 2 3 1 4 21 5 19 6 18 7 16 8 15 9 14 10 13 11 5 12
REMARK SMILES IDX 6 13 7 14 8 15 12 16 10 17 9 18 11 20 20 22 17 24
REMARK H PARENT 9 19 11 21 20 23 17 25
REMARK Flexibility Score: inf
ROOT
ATOM      1  C   UNL     1      -7.513   3.586  12.635  1.00  0.00     0.138 A 
ATOM      2  C   UNL     1      -7.250   2.229  12.871  1.00  0.00     0.100 A 
ATOM      3  C   UNL     1      -7.448   1.300  11.848  1.00  0.00     0.197 A 
ATOM      4  O   UNL     1      -7.264   0.083  12.108  1.00  0.00    -0.289 OA
ATOM      5  C   UNL     1      -7.882   1.737  10.574  1.00  0.00     0.107 A 
ATOM      6  C   UNL     1      -8.077   0.886   9.446  1.00  0.00     0.134 A 
ATOM      7  C   UNL     1      -8.620   1.415   8.269  1.00  0.00     0.093 A 
ATOM      8  C   UNL     1      -8.917   2.773   8.158  1.00  0.00     0.123 A 
ATOM      9  C   UNL     1      -8.679   3.625   9.237  1.00  0.00     0.094 A 
ATOM     10  C   UNL     1      -8.170   3.121  10.436  1.00  0.00     0.146 A 
ATOM     11  O   UNL     1      -7.972   3.964  11.445  1.00  0.00    -0.456 OA
ENDROOT
BRANCH   1  12
ATOM     12  C   UNL     1      -7.319   4.617  13.686  1.00  0.00     0.021 A 
ATOM     13  C   UNL     1      -6.035   5.142  13.910  1.00  0.00     0.016 A 
ATOM     14  C   UNL     1      -5.824   6.106  14.898  1.00  0.00     0.051 A 
ATOM     15  C   UNL     1      -6.887   6.555  15.687  1.00  0.00     0.157 A 
ATOM     16  C   UNL     1      -8.385   5.062  14.492  1.00  0.00     0.062 A 
ATOM     17  C   UNL     1      -8.174   6.029  15.486  1.00  0.00     0.158 A 
BRANCH  15  18
ATOM     18  O   UNL     1      -6.647   7.520  16.664  1.00  0.00    -0.504 OA
ATOM     19  H   UNL     1      -6.304   7.278  17.587  1.00  0.00     0.293 HD
ENDBRANCH  15  18
BRANCH  17  20
ATOM     20  O   UNL     1      -9.236   6.465  16.276  1.00  0.00    -0.504 OA
ATOM     21  H   UNL     1      -9.259   7.400  16.665  1.00  0.00     0.293 HD
ENDBRANCH  17  20
ENDBRANCH   1  12
BRANCH   6  22
ATOM     22  O   UNL     1      -7.736  -0.469   9.421  1.00  0.00    -0.507 OA
ATOM     23  H   UNL     1      -8.041  -1.128   8.720  1.00  0.00     0.293 HD
ENDBRANCH   6  22
BRANCH   8  24
ATOM     24  O   UNL     1      -9.443   3.267   6.966  1.00  0.00    -0.508 OA
ATOM     25  H   UNL     1      -9.948   2.669   6.322  1.00  0.00     0.293 HD
ENDBRANCH   8  24
TORSDOF 5
ENDMDL
MODEL 7
REMARK VINA RESULT:    -8.225      1.744      2.328
REMARK INTER + INTRA:          -9.933
REMARK INTER:                  -9.635
REMARK INTRA:                  -0.298
REMARK UNBOUND:                -0.265
REMARK SMILES O=c1cc(-c2ccc(O)c(O)c2)oc2cc(O)cc(O)c12
REMARK SMILES IDX 4 1 3 2 2 3 1 4 21 5 19 6 18 7 16 8 15 9 14 10 13 11 5 12
REMARK SMILES IDX 6 13 7 14 8 15 12 16 10 17 9 18 11 20 20 22 17 24
REMARK H PARENT 9 19 11 21 20 23 17 25
REMARK Flexibility Score: inf
ROOT
ATOM      1  C   UNL     1      -1.833  15.796  13.815  1.00  0.00     0.138 A 
ATOM      2  C   UNL     1      -2.686  14.857  14.414  1.00  0.00     0.100 A 
ATOM      3  C   UNL     1      -3.751  14.328  13.683  1.00  0.00     0.197 A 
ATOM      4  O   UNL     1      -4.534  13.535  14.266  1.00  0.00    -0.289 OA
ATOM      5  C   UNL     1      -3.943  14.719  12.336  1.00  0.00     0.107 A 
ATOM      6  C   UNL     1      -4.969  14.214  11.483  1.00  0.00     0.134 A 
ATOM      7  C   UNL     1      -5.134  14.761  10.205  1.00  0.00     0.093 A 
ATOM      8  C   UNL     1      -4.274  15.749   9.727  1.00  0.00     0.123 A 
ATOM      9  C   UNL     1      -3.233  16.211  10.532  1.00  0.00     0.094 A 
ATOM     10  C   UNL     1      -3.064  15.710  11.826  1.00  0.00     0.146 A 
ATOM     11  O   UNL     1      -2.069  16.187  12.567  1.00  0.00    -0.456 OA
ENDROOT
BRANCH   1  12
ATOM     12  C   UNL     1      -0.686  16.390  14.546  1.00  0.00     0.021 A 
ATOM     13  C   UNL     1      -0.831  16.733  15.901  1.00  0.00     0.016 A 
ATOM     14  C   UNL     1       0.230  17.300  16.609  1.00  0.00     0.051 A 
ATOM     15  C   UNL     1       1.452  17.546  15.976  1.00  0.00     0.157 A 
ATOM     16  C   UNL     1       0.543  16.652  13.908  1.00  0.00     0.062 A 
ATOM     17  C   UNL     1       1.609  17.224  14.618  1.00  0.00     0.158 A 
BRANCH  15  18
ATOM     18  O   UNL     1       2.494  18.112  16.709  1.00  0.00    -0.504 OA
ATOM     19  H   UNL     1       2.490  19.086  16.988  1.00  0.00     0.293 HD
ENDBRANCH  15  18
BRANCH  17  20
ATOM     20  O   UNL     1       2.821  17.476  13.978  1.00  0.00    -0.504 OA
ATOM     21  H   UNL     1       2.858  17.803  13.020  1.00  0.00     0.293 HD
ENDBRANCH  17  20
ENDBRANCH   1  12
BRANCH   6  22
ATOM     22  O   UNL     1      -5.832  13.170  11.830  1.00  0.00    -0.507 OA
ATOM     23  H   UNL     1      -6.655  13.269  12.405  1.00  0.00     0.293 HD
ENDBRANCH   6  22
BRANCH   8  24
ATOM     24  O   UNL     1      -4.458  16.259   8.443  1.00  0.00    -0.508 OA
ATOM     25  H   UNL     1      -3.692  16.666   7.919  1.00  0.00     0.293 HD
ENDBRANCH   8  24
TORSDOF 5
ENDMDL
MODEL 8
REMARK VINA RESULT:    -7.483      1.872      2.348
REMARK INTER + INTRA:          -9.061
REMARK INTER:                  -8.774
REMARK INTRA:                  -0.287
REMARK UNBOUND:                -0.265
REMARK SMILES O=c1cc(-c2ccc(O)c(O)c2)oc2cc(O)cc(O)c12
REMARK SMILES IDX 4 1 3 2 2 3 1 4 21 5 19 6 18 7 16 8 15 9 14 10 13 11 5 12
REMARK SMILES IDX 6 13 7 14 8 15 12 16 10 17 9 18 11 20 20 22 17 24
REMARK H PARENT 9 19 11 21 20 23 17 25
REMARK Flexibility Score: inf
ROOT
ATOM      1  C   UNL     1      -0.919  16.778  13.565  1.00  0.00     0.138 A 
ATOM      2  C   UNL     1      -0.926  17.313  12.269  1.00  0.00     0.100 A 
ATOM      3  C   UNL     1      -1.951  16.968  11.386  1.00  0.00     0.197 A 
ATOM      4  O   UNL     1      -1.897  17.415  10.211  1.00  0.00    -0.289 OA
ATOM      5  C   UNL     1      -2.990  16.108  11.815  1.00  0.00     0.107 A 
ATOM      6  C   UNL     1      -4.107  15.722  11.016  1.00  0.00     0.134 A 
ATOM      7  C   UNL     1      -5.012  14.774  11.507  1.00  0.00     0.093 A 
ATOM      8  C   UNL     1      -4.875  14.244  12.789  1.00  0.00     0.123 A 
ATOM      9  C   UNL     1      -3.818  14.655  13.601  1.00  0.00     0.094 A 
ATOM     10  C   UNL     1      -2.878  15.574  13.126  1.00  0.00     0.146 A 
ATOM     11  O   UNL     1      -1.877  15.929  13.925  1.00  0.00    -0.456 OA
ENDROOT
BRANCH   1  12
ATOM     12  C   UNL     1       0.146  17.111  14.545  1.00  0.00     0.021 A 
ATOM     13  C   UNL     1      -0.152  17.110  15.918  1.00  0.00     0.016 A 
ATOM     14  C   UNL     1       0.829  17.427  16.859  1.00  0.00     0.051 A 
ATOM     15  C   UNL     1       2.122  17.761  16.447  1.00  0.00     0.157 A 
ATOM     16  C   UNL     1       1.447  17.462  14.133  1.00  0.00     0.062 A 
ATOM     17  C   UNL     1       2.433  17.782  15.078  1.00  0.00     0.158 A 
BRANCH  15  18
ATOM     18  O   UNL     1       3.082  18.072  17.410  1.00  0.00    -0.504 OA
ATOM     19  H   UNL     1       2.861  18.108  18.398  1.00  0.00     0.293 HD
ENDBRANCH  15  18
BRANCH  17  20
ATOM     20  O   UNL     1       3.718  18.125  14.660  1.00  0.00    -0.504 OA
ATOM     21  H   UNL     1       4.528  17.584  14.937  1.00  0.00     0.293 HD
ENDBRANCH  17  20
ENDBRANCH   1  12
BRANCH   6  22
ATOM     22  O   UNL     1      -4.385  16.253   9.752  1.00  0.00    -0.507 OA
ATOM     23  H   UNL     1      -4.682  15.714   8.953  1.00  0.00     0.293 HD
ENDBRANCH   6  22
BRANCH   8  24
ATOM     24  O   UNL     1      -5.804  13.313  13.251  1.00  0.00    -0.508 OA
ATOM     25  H   UNL     1      -6.663  13.127  12.747  1.00  0.00     0.293 HD
ENDBRANCH   8  24
TORSDOF 5
ENDMDL
MODEL 9
REMARK VINA RESULT:    -7.416     11.653     13.547
REMARK INTER + INTRA:          -8.982
REMARK INTER:                  -8.685
REMARK INTRA:                  -0.297
REMARK UNBOUND:                -0.265
REMARK SMILES O=c1cc(-c2ccc(O)c(O)c2)oc2cc(O)cc(O)c12
REMARK SMILES IDX 4 1 3 2 2 3 1 4 21 5 19 6 18 7 16 8 15 9 14 10 13 11 5 12
REMARK SMILES IDX 6 13 7 14 8 15 12 16 10 17 9 18 11 20 20 22 17 24
REMARK H PARENT 9 19 11 21 20 23 17 25
REMARK Flexibility Score: inf
ROOT
ATOM      1  C   UNL     1      -8.517   5.396  12.142  1.00  0.00     0.138 A 
ATOM      2  C   UNL     1      -7.770   4.221  12.317  1.00  0.00     0.100 A 
ATOM      3  C   UNL     1      -7.791   3.569  13.552  1.00  0.00     0.197 A 
ATOM      4  O   UNL     1      -7.063   2.553  13.698  1.00  0.00    -0.289 OA
ATOM      5  C   UNL     1      -8.588   4.080  14.604  1.00  0.00     0.107 A 
ATOM      6  C   UNL     1      -8.718   3.476  15.890  1.00  0.00     0.134 A 
ATOM      7  C   UNL     1      -9.443   4.135  16.891  1.00  0.00     0.093 A 
ATOM      8  C   UNL     1     -10.092   5.342  16.635  1.00  0.00     0.123 A 
ATOM      9  C   UNL     1     -10.017   5.914  15.365  1.00  0.00     0.094 A 
ATOM     10  C   UNL     1      -9.272   5.298  14.355  1.00  0.00     0.146 A 
ATOM     11  O   UNL     1      -9.213   5.884  13.163  1.00  0.00    -0.456 OA
ENDROOT
BRANCH   1  12
ATOM     12  C   UNL     1      -8.532   6.128  10.850  1.00  0.00     0.021 A 
ATOM     13  C   UNL     1      -9.261   7.325  10.743  1.00  0.00     0.016 A 
ATOM     14  C   UNL     1      -9.298   8.029   9.538  1.00  0.00     0.051 A 
ATOM     15  C   UNL     1      -8.617   7.548   8.416  1.00  0.00     0.157 A 
ATOM     16  C   UNL     1      -7.858   5.640   9.714  1.00  0.00     0.062 A 
ATOM     17  C   UNL     1      -7.896   6.346   8.503  1.00  0.00     0.158 A 
BRANCH  15  18
ATOM     18  O   UNL     1      -8.670   8.273   7.227  1.00  0.00    -0.504 OA
ATOM     19  H   UNL     1      -9.361   8.998   7.068  1.00  0.00     0.293 HD
ENDBRANCH  15  18
BRANCH  17  20
ATOM     20  O   UNL     1      -7.223   5.855   7.385  1.00  0.00    -0.504 OA
ATOM     21  H   UNL     1      -6.250   5.575   7.430  1.00  0.00     0.293 HD
ENDBRANCH  17  20
ENDBRANCH   1  12
BRANCH   6  22
ATOM     22  O   UNL     1      -8.179   2.231  16.228  1.00  0.00    -0.507 OA
ATOM     23  H   UNL     1      -8.710   1.452  16.587  1.00  0.00     0.293 HD
ENDBRANCH   6  22
BRANCH   8  24
ATOM     24  O   UNL     1     -10.818   5.961  17.651  1.00  0.00    -0.508 OA
ATOM     25  H   UNL     1     -10.568   6.881  17.995  1.00  0.00     0.293 HD
ENDBRANCH   8  24
TORSDOF 5
ENDMDL
