MODEL 1
REMARK VINA RESULT:    -6.755      0.000      0.000
REMARK INTER + INTRA:         -10.932
REMARK INTER:                  -9.914
REMARK INTRA:                  -1.018
REMARK UNBOUND:                -1.018
REMARK SMILES O=c1c(OC[C@H]2O[C@H](O)[C@@H](O)[C@@H](O)[C@@H]2O)c(-c2ccc(O)c(O)c2)oc2cc(O)cc(O)c12
REMARK SMILES IDX 4 1 3 2 16 3 25 4 2 5 26 6 1 7 33 8 27 9 31 10 28 11 30 12
REMARK SMILES IDX 17 13 18 14 19 15 20 16 24 17 22 18 21 19 23 21 32 23 29 25
REMARK SMILES IDX 5 27 6 28 14 29 7 30 12 31 8 32 10 33 15 34 13 36 9 38 11 40
REMARK H PARENT 21 20 23 22 32 24 29 26 15 35 13 37 9 39 11 41
REMARK Flexibility Score: inf
ROOT
ATOM      1  O   UNL     1       4.949  33.221  70.576  1.00  0.00    -0.483 OA
ENDROOT
BRANCH   1   2
ATOM      2  C   UNL     1       4.141  33.802  69.577  1.00  0.00     0.211 A 
ATOM      3  C   UNL     1       4.650  33.880  68.266  1.00  0.00     0.180 A 
ATOM      4  O   UNL     1       3.959  34.496  67.313  1.00  0.00    -0.452 OA
ATOM      5  C   UNL     1       2.857  34.340  69.827  1.00  0.00     0.239 A 
ATOM      6  C   UNL     1       2.765  35.038  67.512  1.00  0.00     0.146 A 
ATOM      7  O   UNL     1       2.337  34.241  70.971  1.00  0.00    -0.285 OA
ATOM      8  C   UNL     1       2.153  34.980  68.784  1.00  0.00     0.111 A 
ATOM      9  C   UNL     1       2.116  35.664  66.444  1.00  0.00     0.094 A 
ATOM     10  C   UNL     1       0.874  35.567  68.958  1.00  0.00     0.134 A 
ATOM     11  C   UNL     1       0.856  36.240  66.621  1.00  0.00     0.123 A 
ATOM     12  C   UNL     1       0.240  36.190  67.873  1.00  0.00     0.093 A 
BRANCH   3  13
ATOM     13  C   UNL     1       5.964  33.304  67.910  1.00  0.00     0.025 A 
ATOM     14  C   UNL     1       7.132  34.046  68.139  1.00  0.00     0.016 A 
ATOM     15  C   UNL     1       8.380  33.518  67.796  1.00  0.00     0.051 A 
ATOM     16  C   UNL     1       8.474  32.249  67.208  1.00  0.00     0.157 A 
ATOM     17  C   UNL     1       6.058  32.045  67.298  1.00  0.00     0.062 A 
ATOM     18  C   UNL     1       7.305  31.511  66.954  1.00  0.00     0.158 A 
BRANCH  16  19
ATOM     19  O   UNL     1       9.719  31.722  66.869  1.00  0.00    -0.504 OA
ATOM     20  H   UNL     1      10.225  32.042  66.051  1.00  0.00     0.293 HD
ENDBRANCH  16  19
BRANCH  18  21
ATOM     21  O   UNL     1       7.363  30.251  66.362  1.00  0.00    -0.504 OA
ATOM     22  H   UNL     1       7.034  29.417  66.833  1.00  0.00     0.293 HD
ENDBRANCH  18  21
ENDBRANCH   3  13
BRANCH  10  23
ATOM     23  O   UNL     1       0.235  35.540  70.196  1.00  0.00    -0.507 OA
ATOM     24  H   UNL     1      -0.736  35.274  70.286  1.00  0.00     0.293 HD
ENDBRANCH  10  23
BRANCH  11  25
ATOM     25  O   UNL     1       0.204  36.864  65.560  1.00  0.00    -0.508 OA
ATOM     26  H   UNL     1       0.719  37.276  64.791  1.00  0.00     0.293 HD
ENDBRANCH  11  25
ENDBRANCH   1   2
BRANCH   1  27
ATOM     27  C   UNL     1       5.073  31.826  70.851  1.00  0.00     0.265 C 
BRANCH  27  28
ATOM     28  C   UNL     1       5.605  31.611  72.276  1.00  0.00     0.190 C 
ATOM     29  C   UNL     1       6.968  32.316  72.479  1.00  0.00     0.178 C 
ATOM     30  O   UNL     1       5.728  30.212  72.489  1.00  0.00    -0.340 OA
ATOM     31  C   UNL     1       7.502  32.016  73.892  1.00  0.00     0.179 C 
ATOM     32  C   UNL     1       6.107  29.912  73.825  1.00  0.00     0.279 C 
ATOM     33  C   UNL     1       7.490  30.503  74.160  1.00  0.00     0.201 C 
BRANCH  29  34
ATOM     34  O   UNL     1       6.813  33.703  72.324  1.00  0.00    -0.387 OA
ATOM     35  H   UNL     1       5.995  33.962  72.825  1.00  0.00     0.211 HD
ENDBRANCH  29  34
BRANCH  31  36
ATOM     36  O   UNL     1       8.815  32.500  74.028  1.00  0.00    -0.387 OA
ATOM     37  H   UNL     1       9.270  31.922  74.694  1.00  0.00     0.211 HD
ENDBRANCH  31  36
BRANCH  32  38
ATOM     38  O   UNL     1       5.142  30.357  74.743  1.00  0.00    -0.366 OA
ATOM     39  H   UNL     1       5.536  31.140  75.207  1.00  0.00     0.213 HD
ENDBRANCH  32  38
BRANCH  33  40
ATOM     40  O   UNL     1       8.477  29.877  73.379  1.00  0.00    -0.385 OA
ATOM     41  H   UNL     1       8.007  29.416  72.635  1.00  0.00     0.211 HD
ENDBRANCH  33  40
ENDBRANCH  27  28
ENDBRANCH   1  27
TORSDOF 12
ENDMDL
MODEL 2
REMARK VINA RESULT:    -6.230     15.754     19.382
REMARK INTER + INTRA:         -10.161
REMARK INTER:                  -9.304
REMARK INTRA:                  -0.857
REMARK UNBOUND:                -1.018
REMARK SMILES O=c1c(OC[C@H]2O[C@H](O)[C@@H](O)[C@@H](O)[C@@H]2O)c(-c2ccc(O)c(O)c2)oc2cc(O)cc(O)c12
REMARK SMILES IDX 4 1 3 2 16 3 25 4 2 5 26 6 1 7 33 8 27 9 31 10 28 11 30 12
REMARK SMILES IDX 17 13 18 14 19 15 20 16 24 17 22 18 21 19 23 21 32 23 29 25
REMARK SMILES IDX 5 27 6 28 14 29 7 30 12 31 8 32 10 33 15 34 13 36 9 38 11 40
REMARK H PARENT 21 20 23 22 32 24 29 26 15 35 13 37 9 39 11 41
REMARK Flexibility Score: inf
ROOT
ATOM      1  O   UNL     1      18.017  42.987  75.971  1.00  0.00    -0.483 OA
ENDROOT
BRANCH   1   2
ATOM      2  C   UNL     1      18.356  41.715  76.476  1.00  0.00     0.211 A 
ATOM      3  C   UNL     1      18.798  41.622  77.811  1.00  0.00     0.180 A 
ATOM      4  O   UNL     1      19.208  40.459  78.304  1.00  0.00    -0.452 OA
ATOM      5  C   UNL     1      18.306  40.530  75.707  1.00  0.00     0.239 A 
ATOM      6  C   UNL     1      19.205  39.330  77.606  1.00  0.00     0.146 A 
ATOM      7  O   UNL     1      17.863  40.555  74.528  1.00  0.00    -0.285 OA
ATOM      8  C   UNL     1      18.746  39.312  76.270  1.00  0.00     0.111 A 
ATOM      9  C   UNL     1      19.657  38.155  78.214  1.00  0.00     0.094 A 
ATOM     10  C   UNL     1      18.753  38.086  75.559  1.00  0.00     0.134 A 
ATOM     11  C   UNL     1      19.660  36.950  77.508  1.00  0.00     0.123 A 
ATOM     12  C   UNL     1      19.210  36.919  76.187  1.00  0.00     0.093 A 
BRANCH   3  13
ATOM     13  C   UNL     1      18.838  42.805  78.697  1.00  0.00     0.025 A 
ATOM     14  C   UNL     1      19.879  43.736  78.567  1.00  0.00     0.016 A 
ATOM     15  C   UNL     1      19.935  44.852  79.405  1.00  0.00     0.051 A 
ATOM     16  C   UNL     1      18.961  45.044  80.395  1.00  0.00     0.157 A 
ATOM     17  C   UNL     1      17.877  42.986  79.705  1.00  0.00     0.062 A 
ATOM     18  C   UNL     1      17.928  44.102  80.546  1.00  0.00     0.158 A 
BRANCH  16  19
ATOM     19  O   UNL     1      19.017  46.158  81.229  1.00  0.00    -0.504 OA
ATOM     20  H   UNL     1      18.177  46.640  81.527  1.00  0.00     0.293 HD
ENDBRANCH  16  19
BRANCH  18  21
ATOM     21  O   UNL     1      16.949  44.258  81.526  1.00  0.00    -0.504 OA
ATOM     22  H   UNL     1      16.176  43.612  81.622  1.00  0.00     0.293 HD
ENDBRANCH  18  21
ENDBRANCH   3  13
BRANCH  10  23
ATOM     23  O   UNL     1      18.316  38.022  74.237  1.00  0.00    -0.507 OA
ATOM     24  H   UNL     1      17.644  38.679  73.868  1.00  0.00     0.293 HD
ENDBRANCH  10  23
BRANCH  11  25
ATOM     25  O   UNL     1      20.109  35.776  78.108  1.00  0.00    -0.508 OA
ATOM     26  H   UNL     1      21.000  35.733  78.588  1.00  0.00     0.293 HD
ENDBRANCH  11  25
ENDBRANCH   1   2
BRANCH   1  27
ATOM     27  C   UNL     1      16.721  43.405  75.545  1.00  0.00     0.265 C 
BRANCH  27  28
ATOM     28  C   UNL     1      16.708  44.919  75.287  1.00  0.00     0.190 C 
ATOM     29  C   UNL     1      15.821  45.274  74.069  1.00  0.00     0.178 C 
ATOM     30  O   UNL     1      18.048  45.335  75.068  1.00  0.00    -0.340 OA
ATOM     31  C   UNL     1      15.893  46.788  73.797  1.00  0.00     0.179 C 
ATOM     32  C   UNL     1      18.148  46.746  74.933  1.00  0.00     0.279 C 
ATOM     33  C   UNL     1      17.356  47.248  73.711  1.00  0.00     0.201 C 
BRANCH  29  34
ATOM     34  O   UNL     1      14.490  44.909  74.328  1.00  0.00    -0.387 OA
ATOM     35  H   UNL     1      14.108  44.575  73.474  1.00  0.00     0.211 HD
ENDBRANCH  29  34
BRANCH  31  36
ATOM     36  O   UNL     1      15.238  47.097  72.592  1.00  0.00    -0.387 OA
ATOM     37  H   UNL     1      15.187  48.086  72.534  1.00  0.00     0.211 HD
ENDBRANCH  31  36
BRANCH  32  38
ATOM     38  O   UNL     1      17.727  47.404  76.101  1.00  0.00    -0.366 OA
ATOM     39  H   UNL     1      17.556  48.346  75.845  1.00  0.00     0.213 HD
ENDBRANCH  32  38
BRANCH  33  40
ATOM     40  O   UNL     1      17.939  46.752  72.531  1.00  0.00    -0.385 OA
ATOM     41  H   UNL     1      17.421  45.945  72.269  1.00  0.00     0.211 HD
ENDBRANCH  33  40
ENDBRANCH  27  28
ENDBRANCH   1  27
TORSDOF 12
ENDMDL
MODEL 3
REMARK VINA RESULT:    -6.210     15.915     19.446
REMARK INTER + INTRA:         -10.132
REMARK INTER:                  -8.864
REMARK INTRA:                  -1.268
REMARK UNBOUND:                -1.018
REMARK SMILES O=c1c(OC[C@H]2O[C@H](O)[C@@H](O)[C@@H](O)[C@@H]2O)c(-c2ccc(O)c(O)c2)oc2cc(O)cc(O)c12
REMARK SMILES IDX 4 1 3 2 16 3 25 4 2 5 26 6 1 7 33 8 27 9 31 10 28 11 30 12
REMARK SMILES IDX 17 13 18 14 19 15 20 16 24 17 22 18 21 19 23 21 32 23 29 25
REMARK SMILES IDX 5 27 6 28 14 29 7 30 12 31 8 32 10 33 15 34 13 36 9 38 11 40
REMARK H PARENT 21 20 23 22 32 24 29 26 15 35 13 37 9 39 11 41
REMARK Flexibility Score: inf
ROOT
ATOM      1  O   UNL     1      18.018  43.052  76.004  1.00  0.00    -0.483 OA
ENDROOT
BRANCH   1   2
ATOM      2  C   UNL     1      18.352  41.768  76.481  1.00  0.00     0.211 A 
ATOM      3  C   UNL     1      18.797  41.645  77.812  1.00  0.00     0.180 A 
ATOM      4  O   UNL     1      19.203  40.469  78.278  1.00  0.00    -0.452 OA
ATOM      5  C   UNL     1      18.294  40.600  75.686  1.00  0.00     0.239 A 
ATOM      6  C   UNL     1      19.192  39.355  77.557  1.00  0.00     0.146 A 
ATOM      7  O   UNL     1      17.848  40.653  74.509  1.00  0.00    -0.285 OA
ATOM      8  C   UNL     1      18.729  39.368  76.222  1.00  0.00     0.111 A 
ATOM      9  C   UNL     1      19.640  38.166  78.138  1.00  0.00     0.094 A 
ATOM     10  C   UNL     1      18.728  38.158  75.485  1.00  0.00     0.134 A 
ATOM     11  C   UNL     1      19.635  36.975  77.406  1.00  0.00     0.123 A 
ATOM     12  C   UNL     1      19.181  36.975  76.086  1.00  0.00     0.093 A 
BRANCH   3  13
ATOM     13  C   UNL     1      18.846  42.808  78.723  1.00  0.00     0.025 A 
ATOM     14  C   UNL     1      19.925  43.701  78.653  1.00  0.00     0.016 A 
ATOM     15  C   UNL     1      19.989  44.798  79.516  1.00  0.00     0.051 A 
ATOM     16  C   UNL     1      18.984  45.007  80.470  1.00  0.00     0.157 A 
ATOM     17  C   UNL     1      17.853  43.005  79.696  1.00  0.00     0.062 A 
ATOM     18  C   UNL     1      17.912  44.103  80.561  1.00  0.00     0.158 A 
BRANCH  16  19
ATOM     19  O   UNL     1      19.048  46.103  81.328  1.00  0.00    -0.504 OA
ATOM     20  H   UNL     1      18.372  46.856  81.279  1.00  0.00     0.293 HD
ENDBRANCH  16  19
BRANCH  18  21
ATOM     21  O   UNL     1      16.901  44.277  81.505  1.00  0.00    -0.504 OA
ATOM     22  H   UNL     1      16.765  43.632  82.274  1.00  0.00     0.293 HD
ENDBRANCH  18  21
ENDBRANCH   3  13
BRANCH  10  23
ATOM     23  O   UNL     1      18.288  38.124  74.163  1.00  0.00    -0.507 OA
ATOM     24  H   UNL     1      18.483  37.338  73.559  1.00  0.00     0.293 HD
ENDBRANCH  10  23
BRANCH  11  25
ATOM     25  O   UNL     1      20.079  35.787  77.980  1.00  0.00    -0.508 OA
ATOM     26  H   UNL     1      21.063  35.546  78.006  1.00  0.00     0.293 HD
ENDBRANCH  11  25
ENDBRANCH   1   2
BRANCH   1  27
ATOM     27  C   UNL     1      16.748  43.456  75.495  1.00  0.00     0.265 C 
BRANCH  27  28
ATOM     28  C   UNL     1      16.922  44.571  74.453  1.00  0.00     0.190 C 
ATOM     29  C   UNL     1      18.414  44.776  74.094  1.00  0.00     0.178 C 
ATOM     30  O   UNL     1      16.369  45.763  74.992  1.00  0.00    -0.340 OA
ATOM     31  C   UNL     1      18.554  45.947  73.104  1.00  0.00     0.179 C 
ATOM     32  C   UNL     1      16.382  46.825  74.048  1.00  0.00     0.279 C 
ATOM     33  C   UNL     1      17.822  47.189  73.637  1.00  0.00     0.201 C 
BRANCH  29  34
ATOM     34  O   UNL     1      18.926  43.607  73.507  1.00  0.00    -0.387 OA
ATOM     35  H   UNL     1      19.683  43.304  74.076  1.00  0.00     0.211 HD
ENDBRANCH  29  34
BRANCH  31  36
ATOM     36  O   UNL     1      19.911  46.259  72.909  1.00  0.00    -0.387 OA
ATOM     37  H   UNL     1      20.417  45.824  73.643  1.00  0.00     0.211 HD
ENDBRANCH  31  36
BRANCH  32  38
ATOM     38  O   UNL     1      15.606  46.518  72.919  1.00  0.00    -0.366 OA
ATOM     39  H   UNL     1      15.472  47.370  72.431  1.00  0.00     0.213 HD
ENDBRANCH  32  38
BRANCH  33  40
ATOM     40  O   UNL     1      18.516  47.709  74.743  1.00  0.00    -0.385 OA
ATOM     41  H   UNL     1      18.862  46.933  75.259  1.00  0.00     0.211 HD
ENDBRANCH  33  40
ENDBRANCH  27  28
ENDBRANCH   1  27
TORSDOF 12
ENDMDL
MODEL 4
REMARK VINA RESULT:    -6.138     15.312     18.416
REMARK INTER + INTRA:         -10.026
REMARK INTER:                  -9.984
REMARK INTRA:                  -0.041
REMARK UNBOUND:                -1.018
REMARK SMILES O=c1c(OC[C@H]2O[C@H](O)[C@@H](O)[C@@H](O)[C@@H]2O)c(-c2ccc(O)c(O)c2)oc2cc(O)cc(O)c12
REMARK SMILES IDX 4 1 3 2 16 3 25 4 2 5 26 6 1 7 33 8 27 9 31 10 28 11 30 12
REMARK SMILES IDX 17 13 18 14 19 15 20 16 24 17 22 18 21 19 23 21 32 23 29 25
REMARK SMILES IDX 5 27 6 28 14 29 7 30 12 31 8 32 10 33 15 34 13 36 9 38 11 40
REMARK H PARENT 21 20 23 22 32 24 29 26 15 35 13 37 9 39 11 41
REMARK Flexibility Score: inf
ROOT
ATOM      1  O   UNL     1      16.106  44.935  74.709  1.00  0.00    -0.483 OA
ENDROOT
BRANCH   1   2
ATOM      2  C   UNL     1      16.744  43.708  74.986  1.00  0.00     0.211 A 
ATOM      3  C   UNL     1      17.948  43.730  75.717  1.00  0.00     0.180 A 
ATOM      4  O   UNL     1      18.627  42.608  75.928  1.00  0.00    -0.452 OA
ATOM      5  C   UNL     1      16.256  42.457  74.542  1.00  0.00     0.239 A 
ATOM      6  C   UNL     1      18.219  41.419  75.504  1.00  0.00     0.146 A 
ATOM      7  O   UNL     1      15.155  42.382  73.936  1.00  0.00    -0.285 OA
ATOM      8  C   UNL     1      17.005  41.287  74.793  1.00  0.00     0.111 A 
ATOM      9  C   UNL     1      19.005  40.295  75.776  1.00  0.00     0.094 A 
ATOM     10  C   UNL     1      16.601  39.999  74.361  1.00  0.00     0.134 A 
ATOM     11  C   UNL     1      18.599  39.028  75.348  1.00  0.00     0.123 A 
ATOM     12  C   UNL     1      17.403  38.885  74.644  1.00  0.00     0.093 A 
BRANCH   3  13
ATOM     13  C   UNL     1      18.503  44.990  76.255  1.00  0.00     0.025 A 
ATOM     14  C   UNL     1      18.624  46.109  75.418  1.00  0.00     0.016 A 
ATOM     15  C   UNL     1      19.158  47.303  75.910  1.00  0.00     0.051 A 
ATOM     16  C   UNL     1      19.593  47.388  77.240  1.00  0.00     0.157 A 
ATOM     17  C   UNL     1      18.963  45.070  77.579  1.00  0.00     0.062 A 
ATOM     18  C   UNL     1      19.497  46.263  78.077  1.00  0.00     0.158 A 
BRANCH  16  19
ATOM     19  O   UNL     1      20.124  48.579  77.731  1.00  0.00    -0.504 OA
ATOM     20  H   UNL     1      19.530  49.312  78.100  1.00  0.00     0.293 HD
ENDBRANCH  16  19
BRANCH  18  21
ATOM     21  O   UNL     1      19.929  46.311  79.402  1.00  0.00    -0.504 OA
ATOM     22  H   UNL     1      20.645  45.690  79.758  1.00  0.00     0.293 HD
ENDBRANCH  18  21
ENDBRANCH   3  13
BRANCH  10  23
ATOM     23  O   UNL     1      15.415  39.821  73.649  1.00  0.00    -0.507 OA
ATOM     24  H   UNL     1      14.902  38.951  73.683  1.00  0.00     0.293 HD
ENDBRANCH  10  23
BRANCH  11  25
ATOM     25  O   UNL     1      19.378  37.905  75.617  1.00  0.00    -0.508 OA
ATOM     26  H   UNL     1      20.356  37.986  75.866  1.00  0.00     0.293 HD
ENDBRANCH  11  25
ENDBRANCH   1   2
BRANCH   1  27
ATOM     27  C   UNL     1      14.895  45.106  73.975  1.00  0.00     0.265 C 
BRANCH  27  28
ATOM     28  C   UNL     1      13.936  46.032  74.739  1.00  0.00     0.190 C 
ATOM     29  C   UNL     1      12.659  45.278  75.182  1.00  0.00     0.178 C 
ATOM     30  O   UNL     1      13.605  47.118  73.885  1.00  0.00    -0.340 OA
ATOM     31  C   UNL     1      11.694  46.255  75.878  1.00  0.00     0.179 C 
ATOM     32  C   UNL     1      12.810  48.090  74.549  1.00  0.00     0.279 C 
ATOM     33  C   UNL     1      11.462  47.495  75.001  1.00  0.00     0.201 C 
BRANCH  29  34
ATOM     34  O   UNL     1      13.002  44.247  76.073  1.00  0.00    -0.387 OA
ATOM     35  H   UNL     1      12.283  44.204  76.758  1.00  0.00     0.211 HD
ENDBRANCH  29  34
BRANCH  31  36
ATOM     36  O   UNL     1      10.461  45.626  76.125  1.00  0.00    -0.387 OA
ATOM     37  H   UNL     1      10.263  45.055  75.338  1.00  0.00     0.211 HD
ENDBRANCH  31  36
BRANCH  32  38
ATOM     38  O   UNL     1      13.494  48.653  75.639  1.00  0.00    -0.366 OA
ATOM     39  H   UNL     1      12.992  49.470  75.892  1.00  0.00     0.213 HD
ENDBRANCH  32  38
BRANCH  33  40
ATOM     40  O   UNL     1      10.697  47.142  73.875  1.00  0.00    -0.385 OA
ATOM     41  H   UNL     1      10.684  46.150  73.833  1.00  0.00     0.211 HD
ENDBRANCH  33  40
ENDBRANCH  27  28
ENDBRANCH   1  27
TORSDOF 12
ENDMDL
MODEL 5
REMARK VINA RESULT:    -6.135      0.975      2.074
REMARK INTER + INTRA:         -10.022
REMARK INTER:                  -8.999
REMARK INTRA:                  -1.023
REMARK UNBOUND:                -1.018
REMARK SMILES O=c1c(OC[C@H]2O[C@H](O)[C@@H](O)[C@@H](O)[C@@H]2O)c(-c2ccc(O)c(O)c2)oc2cc(O)cc(O)c12
REMARK SMILES IDX 4 1 3 2 16 3 25 4 2 5 26 6 1 7 33 8 27 9 31 10 28 11 30 12
REMARK SMILES IDX 17 13 18 14 19 15 20 16 24 17 22 18 21 19 23 21 32 23 29 25
REMARK SMILES IDX 5 27 6 28 14 29 7 30 12 31 8 32 10 33 15 34 13 36 9 38 11 40
REMARK H PARENT 21 20 23 22 32 24 29 26 15 35 13 37 9 39 11 41
REMARK Flexibility Score: inf
ROOT
ATOM      1  O   UNL     1       4.437  32.841  70.452  1.00  0.00    -0.483 OA
ENDROOT
BRANCH   1   2
ATOM      2  C   UNL     1       3.728  33.559  69.467  1.00  0.00     0.211 A 
ATOM      3  C   UNL     1       4.329  33.734  68.204  1.00  0.00     0.180 A 
ATOM      4  O   UNL     1       3.736  34.475  67.275  1.00  0.00    -0.452 OA
ATOM      5  C   UNL     1       2.457  34.139  69.686  1.00  0.00     0.239 A 
ATOM      6  C   UNL     1       2.558  35.060  67.451  1.00  0.00     0.146 A 
ATOM      7  O   UNL     1       1.857  33.960  70.779  1.00  0.00    -0.285 OA
ATOM      8  C   UNL     1       1.858  34.914  68.670  1.00  0.00     0.111 A 
ATOM      9  C   UNL     1       2.015  35.820  66.411  1.00  0.00     0.094 A 
ATOM     10  C   UNL     1       0.601  35.550  68.819  1.00  0.00     0.134 A 
ATOM     11  C   UNL     1       0.775  36.444  66.564  1.00  0.00     0.123 A 
ATOM     12  C   UNL     1       0.073  36.308  67.763  1.00  0.00     0.093 A 
BRANCH   3  13
ATOM     13  C   UNL     1       5.635  33.124  67.878  1.00  0.00     0.025 A 
ATOM     14  C   UNL     1       5.686  31.808  67.395  1.00  0.00     0.016 A 
ATOM     15  C   UNL     1       6.915  31.215  67.093  1.00  0.00     0.051 A 
ATOM     16  C   UNL     1       8.109  31.924  67.286  1.00  0.00     0.157 A 
ATOM     17  C   UNL     1       6.833  33.823  68.093  1.00  0.00     0.062 A 
ATOM     18  C   UNL     1       8.066  33.235  67.792  1.00  0.00     0.158 A 
BRANCH  16  19
ATOM     19  O   UNL     1       9.334  31.333  66.983  1.00  0.00    -0.504 OA
ATOM     20  H   UNL     1       9.509  30.909  66.079  1.00  0.00     0.293 HD
ENDBRANCH  16  19
BRANCH  18  21
ATOM     21  O   UNL     1       9.235  33.964  68.004  1.00  0.00    -0.504 OA
ATOM     22  H   UNL     1       9.950  34.054  67.292  1.00  0.00     0.293 HD
ENDBRANCH  18  21
ENDBRANCH   3  13
BRANCH  10  23
ATOM     23  O   UNL     1      -0.123  35.440  70.005  1.00  0.00    -0.507 OA
ATOM     24  H   UNL     1      -1.019  35.892  70.124  1.00  0.00     0.293 HD
ENDBRANCH  10  23
BRANCH  11  25
ATOM     25  O   UNL     1       0.228  37.202  65.531  1.00  0.00    -0.508 OA
ATOM     26  H   UNL     1       0.626  38.093  65.260  1.00  0.00     0.293 HD
ENDBRANCH  11  25
ENDBRANCH   1   2
BRANCH   1  27
ATOM     27  C   UNL     1       4.103  31.549  70.955  1.00  0.00     0.265 C 
BRANCH  27  28
ATOM     28  C   UNL     1       5.230  31.021  71.855  1.00  0.00     0.190 C 
ATOM     29  C   UNL     1       4.745  30.841  73.315  1.00  0.00     0.178 C 
ATOM     30  O   UNL     1       6.305  31.946  71.796  1.00  0.00    -0.340 OA
ATOM     31  C   UNL     1       5.920  30.382  74.199  1.00  0.00     0.179 C 
ATOM     32  C   UNL     1       7.442  31.482  72.511  1.00  0.00     0.279 C 
ATOM     33  C   UNL     1       7.128  31.311  74.009  1.00  0.00     0.201 C 
BRANCH  29  34
ATOM     34  O   UNL     1       3.723  29.878  73.361  1.00  0.00    -0.387 OA
ATOM     35  H   UNL     1       3.240  30.008  74.219  1.00  0.00     0.211 HD
ENDBRANCH  29  34
BRANCH  31  36
ATOM     36  O   UNL     1       5.540  30.386  75.553  1.00  0.00    -0.387 OA
ATOM     37  H   UNL     1       4.549  30.339  75.576  1.00  0.00     0.211 HD
ENDBRANCH  31  36
BRANCH  32  38
ATOM     38  O   UNL     1       7.935  30.284  71.968  1.00  0.00    -0.366 OA
ATOM     39  H   UNL     1       8.923  30.337  72.024  1.00  0.00     0.213 HD
ENDBRANCH  32  38
BRANCH  33  40
ATOM     40  O   UNL     1       6.855  32.565  74.584  1.00  0.00    -0.385 OA
ATOM     41  H   UNL     1       7.490  33.214  74.179  1.00  0.00     0.211 HD
ENDBRANCH  33  40
ENDBRANCH  27  28
ENDBRANCH   1  27
TORSDOF 12
ENDMDL
MODEL 6
REMARK VINA RESULT:    -5.990     16.436     19.045
REMARK INTER + INTRA:          -9.809
REMARK INTER:                  -8.980
REMARK INTRA:                  -0.829
REMARK UNBOUND:                -1.018
REMARK SMILES O=c1c(OC[C@H]2O[C@H](O)[C@@H](O)[C@@H](O)[C@@H]2O)c(-c2ccc(O)c(O)c2)oc2cc(O)cc(O)c12
REMARK SMILES IDX 4 1 3 2 16 3 25 4 2 5 26 6 1 7 33 8 27 9 31 10 28 11 30 12
REMARK SMILES IDX 17 13 18 14 19 15 20 16 24 17 22 18 21 19 23 21 32 23 29 25
REMARK SMILES IDX 5 27 6 28 14 29 7 30 12 31 8 32 10 33 15 34 13 36 9 38 11 40
REMARK H PARENT 21 20 23 22 32 24 29 26 15 35 13 37 9 39 11 41
REMARK Flexibility Score: inf
ROOT
ATOM      1  O   UNL     1      16.179  45.693  73.883  1.00  0.00    -0.483 OA
ENDROOT
BRANCH   1   2
ATOM      2  C   UNL     1      16.987  46.142  74.949  1.00  0.00     0.211 A 
ATOM      3  C   UNL     1      17.847  45.215  75.572  1.00  0.00     0.180 A 
ATOM      4  O   UNL     1      18.563  45.571  76.633  1.00  0.00    -0.452 OA
ATOM      5  C   UNL     1      16.959  47.465  75.447  1.00  0.00     0.239 A 
ATOM      6  C   UNL     1      18.543  46.793  77.148  1.00  0.00     0.146 A 
ATOM      7  O   UNL     1      16.250  48.341  74.885  1.00  0.00    -0.285 OA
ATOM      8  C   UNL     1      17.741  47.803  76.572  1.00  0.00     0.111 A 
ATOM      9  C   UNL     1      19.334  47.070  78.267  1.00  0.00     0.094 A 
ATOM     10  C   UNL     1      17.750  49.098  77.149  1.00  0.00     0.134 A 
ATOM     11  C   UNL     1      19.339  48.349  78.830  1.00  0.00     0.123 A 
ATOM     12  C   UNL     1      18.550  49.356  78.272  1.00  0.00     0.093 A 
BRANCH   3  13
ATOM     13  C   UNL     1      17.969  43.824  75.085  1.00  0.00     0.025 A 
ATOM     14  C   UNL     1      18.223  43.583  73.728  1.00  0.00     0.016 A 
ATOM     15  C   UNL     1      18.329  42.273  73.253  1.00  0.00     0.051 A 
ATOM     16  C   UNL     1      18.167  41.188  74.126  1.00  0.00     0.157 A 
ATOM     17  C   UNL     1      17.782  42.737  75.954  1.00  0.00     0.062 A 
ATOM     18  C   UNL     1      17.889  41.423  75.484  1.00  0.00     0.158 A 
BRANCH  16  19
ATOM     19  O   UNL     1      18.275  39.882  73.652  1.00  0.00    -0.504 OA
ATOM     20  H   UNL     1      17.505  39.228  73.723  1.00  0.00     0.293 HD
ENDBRANCH  16  19
BRANCH  18  21
ATOM     21  O   UNL     1      17.713  40.368  76.376  1.00  0.00    -0.504 OA
ATOM     22  H   UNL     1      16.954  40.349  77.047  1.00  0.00     0.293 HD
ENDBRANCH  18  21
ENDBRANCH   3  13
BRANCH  10  23
ATOM     23  O   UNL     1      16.969  50.125  76.620  1.00  0.00    -0.507 OA
ATOM     24  H   UNL     1      15.967  50.035  76.530  1.00  0.00     0.293 HD
ENDBRANCH  10  23
BRANCH  11  25
ATOM     25  O   UNL     1      20.125  48.632  79.945  1.00  0.00    -0.508 OA
ATOM     26  H   UNL     1      21.095  48.907  79.853  1.00  0.00     0.293 HD
ENDBRANCH  11  25
ENDBRANCH   1   2
BRANCH   1  27
ATOM     27  C   UNL     1      14.892  45.089  74.001  1.00  0.00     0.265 C 
BRANCH  27  28
ATOM     28  C   UNL     1      13.932  46.024  74.750  1.00  0.00     0.190 C 
ATOM     29  C   UNL     1      12.654  45.275  75.201  1.00  0.00     0.178 C 
ATOM     30  O   UNL     1      13.602  47.098  73.882  1.00  0.00    -0.340 OA
ATOM     31  C   UNL     1      11.687  46.260  75.882  1.00  0.00     0.179 C 
ATOM     32  C   UNL     1      12.805  48.078  74.532  1.00  0.00     0.279 C 
ATOM     33  C   UNL     1      11.456  47.489  74.988  1.00  0.00     0.201 C 
BRANCH  29  34
ATOM     34  O   UNL     1      12.995  44.256  76.105  1.00  0.00    -0.387 OA
ATOM     35  H   UNL     1      13.895  43.925  75.845  1.00  0.00     0.211 HD
ENDBRANCH  29  34
BRANCH  31  36
ATOM     36  O   UNL     1      10.454  45.634  76.134  1.00  0.00    -0.387 OA
ATOM     37  H   UNL     1      10.523  44.706  75.789  1.00  0.00     0.211 HD
ENDBRANCH  31  36
BRANCH  32  38
ATOM     38  O   UNL     1      13.486  48.656  75.615  1.00  0.00    -0.366 OA
ATOM     39  H   UNL     1      14.027  49.398  75.242  1.00  0.00     0.213 HD
ENDBRANCH  32  38
BRANCH  33  40
ATOM     40  O   UNL     1      10.693  47.121  73.866  1.00  0.00    -0.385 OA
ATOM     41  H   UNL     1      10.963  46.196  73.623  1.00  0.00     0.211 HD
ENDBRANCH  33  40
ENDBRANCH  27  28
ENDBRANCH   1  27
TORSDOF 12
ENDMDL
MODEL 7
REMARK VINA RESULT:    -5.875     16.522     19.177
REMARK INTER + INTRA:          -9.641
REMARK INTER:                  -8.782
REMARK INTRA:                  -0.859
REMARK UNBOUND:                -1.018
REMARK SMILES O=c1c(OC[C@H]2O[C@H](O)[C@@H](O)[C@@H](O)[C@@H]2O)c(-c2ccc(O)c(O)c2)oc2cc(O)cc(O)c12
REMARK SMILES IDX 4 1 3 2 16 3 25 4 2 5 26 6 1 7 33 8 27 9 31 10 28 11 30 12
REMARK SMILES IDX 17 13 18 14 19 15 20 16 24 17 22 18 21 19 23 21 32 23 29 25
REMARK SMILES IDX 5 27 6 28 14 29 7 30 12 31 8 32 10 33 15 34 13 36 9 38 11 40
REMARK H PARENT 21 20 23 22 32 24 29 26 15 35 13 37 9 39 11 41
REMARK Flexibility Score: inf
ROOT
ATOM      1  O   UNL     1      12.456  48.139  72.670  1.00  0.00    -0.483 OA
ENDROOT
BRANCH   1   2
ATOM      2  C   UNL     1      13.789  48.251  73.115  1.00  0.00     0.211 A 
ATOM      3  C   UNL     1      14.023  48.404  74.497  1.00  0.00     0.180 A 
ATOM      4  O   UNL     1      15.255  48.598  74.952  1.00  0.00    -0.452 OA
ATOM      5  C   UNL     1      14.906  48.250  72.247  1.00  0.00     0.239 A 
ATOM      6  C   UNL     1      16.325  48.632  74.169  1.00  0.00     0.146 A 
ATOM      7  O   UNL     1      14.750  48.059  71.012  1.00  0.00    -0.285 OA
ATOM      8  C   UNL     1      16.200  48.453  72.773  1.00  0.00     0.111 A 
ATOM      9  C   UNL     1      17.582  48.843  74.744  1.00  0.00     0.094 A 
ATOM     10  C   UNL     1      17.366  48.492  71.969  1.00  0.00     0.134 A 
ATOM     11  C   UNL     1      18.728  48.879  73.946  1.00  0.00     0.123 A 
ATOM     12  C   UNL     1      18.617  48.704  72.565  1.00  0.00     0.093 A 
BRANCH   3  13
ATOM     13  C   UNL     1      12.916  48.372  75.476  1.00  0.00     0.025 A 
ATOM     14  C   UNL     1      12.799  49.398  76.425  1.00  0.00     0.016 A 
ATOM     15  C   UNL     1      11.765  49.374  77.365  1.00  0.00     0.051 A 
ATOM     16  C   UNL     1      10.844  48.317  77.377  1.00  0.00     0.157 A 
ATOM     17  C   UNL     1      12.009  47.302  75.506  1.00  0.00     0.062 A 
ATOM     18  C   UNL     1      10.970  47.274  76.444  1.00  0.00     0.158 A 
BRANCH  16  19
ATOM     19  O   UNL     1       9.812  48.295  78.313  1.00  0.00    -0.504 OA
ATOM     20  H   UNL     1       9.963  48.571  79.276  1.00  0.00     0.293 HD
ENDBRANCH  16  19
BRANCH  18  21
ATOM     21  O   UNL     1      10.078  46.203  76.435  1.00  0.00    -0.504 OA
ATOM     22  H   UNL     1       9.774  45.747  77.287  1.00  0.00     0.293 HD
ENDBRANCH  18  21
ENDBRANCH   3  13
BRANCH  10  23
ATOM     23  O   UNL     1      17.291  48.328  70.586  1.00  0.00    -0.507 OA
ATOM     24  H   UNL     1      17.786  47.585  70.113  1.00  0.00     0.293 HD
ENDBRANCH  10  23
BRANCH  11  25
ATOM     25  O   UNL     1      19.983  49.087  74.513  1.00  0.00    -0.508 OA
ATOM     26  H   UNL     1      20.503  48.330  74.941  1.00  0.00     0.293 HD
ENDBRANCH  11  25
ENDBRANCH   1   2
BRANCH   1  27
ATOM     27  C   UNL     1      11.802  49.007  71.745  1.00  0.00     0.265 C 
BRANCH  27  28
ATOM     28  C   UNL     1      10.627  48.280  71.074  1.00  0.00     0.190 C 
ATOM     29  C   UNL     1      10.987  47.840  69.634  1.00  0.00     0.178 C 
ATOM     30  O   UNL     1       9.516  49.165  71.063  1.00  0.00    -0.340 OA
ATOM     31  C   UNL     1       9.763  47.182  68.970  1.00  0.00     0.179 C 
ATOM     32  C   UNL     1       8.345  48.536  70.562  1.00  0.00     0.279 C 
ATOM     33  C   UNL     1       8.532  48.092  69.099  1.00  0.00     0.201 C 
BRANCH  29  34
ATOM     34  O   UNL     1      12.048  46.920  69.670  1.00  0.00    -0.387 OA
ATOM     35  H   UNL     1      11.709  46.069  69.285  1.00  0.00     0.211 HD
ENDBRANCH  29  34
BRANCH  31  36
ATOM     36  O   UNL     1      10.020  46.940  67.609  1.00  0.00    -0.387 OA
ATOM     37  H   UNL     1       9.203  46.524  67.229  1.00  0.00     0.211 HD
ENDBRANCH  31  36
BRANCH  32  38
ATOM     38  O   UNL     1       7.963  47.449  71.366  1.00  0.00    -0.366 OA
ATOM     39  H   UNL     1       8.744  46.840  71.403  1.00  0.00     0.213 HD
ENDBRANCH  32  38
BRANCH  33  40
ATOM     40  O   UNL     1       8.689  49.221  68.275  1.00  0.00    -0.385 OA
ATOM     41  H   UNL     1       8.524  50.019  68.844  1.00  0.00     0.211 HD
ENDBRANCH  33  40
ENDBRANCH  27  28
ENDBRANCH   1  27
TORSDOF 12
ENDMDL
