MODEL 1
REMARK VINA RESULT:    20.183      0.000      0.000
REMARK INTER + INTRA:          44.805
REMARK INTER:                  46.141
REMARK INTRA:                  -1.336
REMARK UNBOUND:                -1.336
REMARK SMILES CCCCCCCCCCCCCCCCCCCCCCCC(=O)[O-]
REMARK SMILES IDX 13 1 14 2 15 3 16 4 17 5 18 6 19 7 20 8 21 9 22 10 23 11
REMARK SMILES IDX 24 12 25 13 26 14 12 15 11 16 10 17 9 18 8 19 7 20 6 21 5 22
REMARK SMILES IDX 4 23 3 24 2 25 1 26
REMARK H PARENT
REMARK Flexibility Score: inf
ROOT
ATOM      1  C   UNL     1     -12.115   0.881 -17.232  1.00  0.00     0.000 C 
ENDROOT
BRANCH   1   2
ATOM      2  C   UNL     1     -12.012  -0.567 -17.740  1.00  0.00     0.000 C 
BRANCH   2   3
ATOM      3  C   UNL     1     -13.296  -1.372 -17.474  1.00  0.00     0.000 C 
BRANCH   3   4
ATOM      4  C   UNL     1     -13.122  -2.421 -16.362  1.00  0.00     0.000 C 
BRANCH   4   5
ATOM      5  C   UNL     1     -14.431  -2.718 -15.613  1.00  0.00     0.000 C 
BRANCH   5   6
ATOM      6  C   UNL     1     -14.414  -4.081 -14.897  1.00  0.00     0.000 C 
BRANCH   6   7
ATOM      7  C   UNL     1     -14.026  -4.038 -13.404  1.00  0.00     0.000 C 
BRANCH   7   8
ATOM      8  C   UNL     1     -15.166  -3.669 -12.435  1.00  0.00     0.000 C 
BRANCH   8   9
ATOM      9  C   UNL     1     -14.667  -3.360 -11.014  1.00  0.00     0.000 C 
BRANCH   9  10
ATOM     10  C   UNL     1     -15.101  -1.970 -10.512  1.00  0.00     0.006 C 
BRANCH  10  11
ATOM     11  C   UNL     1     -13.951  -1.125  -9.935  1.00  0.00     0.053 C 
BRANCH  11  12
ATOM     12  C   UNL     1     -14.005   0.306 -10.375  1.00  0.00     0.041 C 
ATOM     13  O   UNL     1     -13.192   1.148  -9.907  1.00  0.00    -0.550 OA
ATOM     14  O   UNL     1     -14.940   0.707 -11.322  1.00  0.00    -0.550 OA
ENDBRANCH  11  12
ENDBRANCH  10  11
ENDBRANCH   9  10
ENDBRANCH   8   9
ENDBRANCH   7   8
ENDBRANCH   6   7
ENDBRANCH   5   6
ENDBRANCH   4   5
ENDBRANCH   3   4
ENDBRANCH   2   3
ENDBRANCH   1   2
BRANCH   1  15
ATOM     15  C   UNL     1     -13.057   1.741 -18.089  1.00  0.00     0.000 C 
BRANCH  15  16
ATOM     16  C   UNL     1     -12.756   3.235 -17.900  1.00  0.00     0.000 C 
BRANCH  16  17
ATOM     17  C   UNL     1     -11.697   3.501 -16.813  1.00  0.00     0.000 C 
BRANCH  17  18
ATOM     18  C   UNL     1     -11.451   4.988 -16.487  1.00  0.00    -0.000 C 
BRANCH  18  19
ATOM     19  C   UNL     1     -12.687   5.763 -15.993  1.00  0.00    -0.000 C 
BRANCH  19  20
ATOM     20  C   UNL     1     -12.501   7.290 -16.061  1.00  0.00    -0.000 C 
BRANCH  20  21
ATOM     21  C   UNL     1     -13.745   8.050 -15.551  1.00  0.00    -0.000 C 
BRANCH  21  22
ATOM     22  C   UNL     1     -14.519   8.780 -16.662  1.00  0.00    -0.000 C 
BRANCH  22  23
ATOM     23  C   UNL     1     -14.077   8.358 -18.073  1.00  0.00    -0.000 C 
BRANCH  23  24
ATOM     24  C   UNL     1     -15.264   8.164 -19.031  1.00  0.00    -0.000 C 
BRANCH  24  25
ATOM     25  C   UNL     1     -14.958   7.165 -20.157  1.00  0.00    -0.003 C 
ATOM     26  C   UNL     1     -14.999   5.729 -19.642  1.00  0.00     0.004 C 
ENDBRANCH  24  25
ENDBRANCH  23  24
ENDBRANCH  22  23
ENDBRANCH  21  22
ENDBRANCH  20  21
ENDBRANCH  19  20
ENDBRANCH  18  19
ENDBRANCH  17  18
ENDBRANCH  16  17
ENDBRANCH  15  16
ENDBRANCH   1  15
TORSDOF 22
ENDMDL
MODEL 2
REMARK VINA RESULT:    20.668      2.417      9.833
REMARK INTER + INTRA:          45.913
REMARK INTER:                  47.100
REMARK INTRA:                  -1.187
REMARK UNBOUND:                -1.336
REMARK SMILES CCCCCCCCCCCCCCCCCCCCCCCC(=O)[O-]
REMARK SMILES IDX 13 1 14 2 15 3 16 4 17 5 18 6 19 7 20 8 21 9 22 10 23 11
REMARK SMILES IDX 24 12 25 13 26 14 12 15 11 16 10 17 9 18 8 19 7 20 6 21 5 22
REMARK SMILES IDX 4 23 3 24 2 25 1 26
REMARK H PARENT
REMARK Flexibility Score: inf
ROOT
ATOM      1  C   UNL     1     -11.714   0.023 -18.040  1.00  0.00     0.000 C 
ENDROOT
BRANCH   1   2
ATOM      2  C   UNL     1     -12.610   0.994 -17.253  1.00  0.00     0.000 C 
BRANCH   2   3
ATOM      3  C   UNL     1     -12.225   2.465 -17.486  1.00  0.00     0.000 C 
BRANCH   3   4
ATOM      4  C   UNL     1     -13.057   3.130 -18.596  1.00  0.00     0.000 C 
BRANCH   4   5
ATOM      5  C   UNL     1     -13.862   4.339 -18.093  1.00  0.00     0.000 C 
BRANCH   5   6
ATOM      6  C   UNL     1     -15.101   4.634 -18.958  1.00  0.00     0.000 C 
BRANCH   6   7
ATOM      7  C   UNL     1     -14.902   5.699 -20.057  1.00  0.00     0.000 C 
BRANCH   7   8
ATOM      8  C   UNL     1     -15.367   7.122 -19.691  1.00  0.00     0.000 C 
BRANCH   8   9
ATOM      9  C   UNL     1     -14.215   8.030 -19.231  1.00  0.00     0.000 C 
BRANCH   9  10
ATOM     10  C   UNL     1     -14.450   8.639 -17.836  1.00  0.00     0.006 C 
BRANCH  10  11
ATOM     11  C   UNL     1     -13.199   8.655 -16.939  1.00  0.00     0.053 C 
BRANCH  11  12
ATOM     12  C   UNL     1     -13.275   7.665 -15.817  1.00  0.00     0.041 C 
ATOM     13  O   UNL     1     -12.545   6.638 -15.822  1.00  0.00    -0.550 OA
ATOM     14  O   UNL     1     -14.138   7.890 -14.751  1.00  0.00    -0.550 OA
ENDBRANCH  11  12
ENDBRANCH  10  11
ENDBRANCH   9  10
ENDBRANCH   8   9
ENDBRANCH   7   8
ENDBRANCH   6   7
ENDBRANCH   5   6
ENDBRANCH   4   5
ENDBRANCH   3   4
ENDBRANCH   2   3
ENDBRANCH   1   2
BRANCH   1  15
ATOM     15  C   UNL     1     -11.887  -1.436 -17.589  1.00  0.00     0.000 C 
BRANCH  15  16
ATOM     16  C   UNL     1     -13.366  -1.753 -17.322  1.00  0.00     0.000 C 
BRANCH  16  17
ATOM     17  C   UNL     1     -13.669  -1.992 -15.832  1.00  0.00     0.000 C 
BRANCH  17  18
ATOM     18  C   UNL     1     -14.625  -3.166 -15.536  1.00  0.00    -0.000 C 
BRANCH  18  19
ATOM     19  C   UNL     1     -14.350  -3.918 -14.220  1.00  0.00    -0.000 C 
BRANCH  19  20
ATOM     20  C   UNL     1     -14.914  -3.189 -12.987  1.00  0.00    -0.000 C 
BRANCH  20  21
ATOM     21  C   UNL     1     -14.766  -4.027 -11.698  1.00  0.00    -0.000 C 
BRANCH  21  22
ATOM     22  C   UNL     1     -14.659  -3.178 -10.420  1.00  0.00    -0.000 C 
BRANCH  22  23
ATOM     23  C   UNL     1     -14.835  -1.673 -10.687  1.00  0.00    -0.000 C 
BRANCH  23  24
ATOM     24  C   UNL     1     -14.038  -0.801  -9.704  1.00  0.00    -0.000 C 
BRANCH  24  25
ATOM     25  C   UNL     1     -13.696   0.580 -10.281  1.00  0.00    -0.003 C 
ATOM     26  C   UNL     1     -14.654   0.956 -11.409  1.00  0.00     0.004 C 
ENDBRANCH  24  25
ENDBRANCH  23  24
ENDBRANCH  22  23
ENDBRANCH  21  22
ENDBRANCH  20  21
ENDBRANCH  19  20
ENDBRANCH  18  19
ENDBRANCH  17  18
ENDBRANCH  16  17
ENDBRANCH  15  16
ENDBRANCH   1  15
TORSDOF 22
ENDMDL
MODEL 3
REMARK VINA RESULT:    20.803      2.572      9.886
REMARK INTER + INTRA:          46.222
REMARK INTER:                  47.431
REMARK INTRA:                  -1.209
REMARK UNBOUND:                -1.336
REMARK SMILES CCCCCCCCCCCCCCCCCCCCCCCC(=O)[O-]
REMARK SMILES IDX 13 1 14 2 15 3 16 4 17 5 18 6 19 7 20 8 21 9 22 10 23 11
REMARK SMILES IDX 24 12 25 13 26 14 12 15 11 16 10 17 9 18 8 19 7 20 6 21 5 22
REMARK SMILES IDX 4 23 3 24 2 25 1 26
REMARK H PARENT
REMARK Flexibility Score: inf
ROOT
ATOM      1  C   UNL     1     -12.362  -0.975 -18.084  1.00  0.00     0.000 C 
ENDROOT
BRANCH   1   2
ATOM      2  C   UNL     1     -11.723   0.155 -17.258  1.00  0.00     0.000 C 
BRANCH   2   3
ATOM      3  C   UNL     1     -12.649   1.377 -17.124  1.00  0.00     0.000 C 
BRANCH   3   4
ATOM      4  C   UNL     1     -12.168   2.582 -17.951  1.00  0.00     0.000 C 
BRANCH   4   5
ATOM      5  C   UNL     1     -13.039   3.832 -17.745  1.00  0.00     0.000 C 
BRANCH   5   6
ATOM      6  C   UNL     1     -14.104   4.006 -18.843  1.00  0.00     0.000 C 
BRANCH   6   7
ATOM      7  C   UNL     1     -14.900   5.327 -18.788  1.00  0.00     0.000 C 
BRANCH   7   8
ATOM      8  C   UNL     1     -15.058   6.061 -20.134  1.00  0.00     0.000 C 
BRANCH   8   9
ATOM      9  C   UNL     1     -14.807   7.574 -20.026  1.00  0.00     0.000 C 
BRANCH   9  10
ATOM     10  C   UNL     1     -15.025   8.119 -18.602  1.00  0.00     0.006 C 
BRANCH  10  11
ATOM     11  C   UNL     1     -13.733   8.575 -17.900  1.00  0.00     0.053 C 
BRANCH  11  12
ATOM     12  C   UNL     1     -13.681   8.172 -16.458  1.00  0.00     0.041 C 
ATOM     13  O   UNL     1     -14.501   8.654 -15.632  1.00  0.00    -0.550 OA
ATOM     14  O   UNL     1     -12.741   7.242 -16.030  1.00  0.00    -0.550 OA
ENDBRANCH  11  12
ENDBRANCH  10  11
ENDBRANCH   9  10
ENDBRANCH   8   9
ENDBRANCH   7   8
ENDBRANCH   6   7
ENDBRANCH   5   6
ENDBRANCH   4   5
ENDBRANCH   3   4
ENDBRANCH   2   3
ENDBRANCH   1   2
BRANCH   1  15
ATOM     15  C   UNL     1     -12.828  -2.150 -17.212  1.00  0.00     0.000 C 
BRANCH  15  16
ATOM     16  C   UNL     1     -13.907  -1.698 -16.217  1.00  0.00     0.000 C 
BRANCH  16  17
ATOM     17  C   UNL     1     -14.720  -2.872 -15.640  1.00  0.00     0.000 C 
BRANCH  17  18
ATOM     18  C   UNL     1     -13.883  -4.065 -15.135  1.00  0.00    -0.000 C 
BRANCH  18  19
ATOM     19  C   UNL     1     -13.980  -4.339 -13.623  1.00  0.00    -0.000 C 
BRANCH  19  20
ATOM     20  C   UNL     1     -14.740  -3.238 -12.864  1.00  0.00    -0.000 C 
BRANCH  20  21
ATOM     21  C   UNL     1     -15.110  -3.670 -11.428  1.00  0.00    -0.000 C 
BRANCH  21  22
ATOM     22  C   UNL     1     -14.291  -2.956 -10.339  1.00  0.00    -0.000 C 
BRANCH  22  23
ATOM     23  C   UNL     1     -14.709  -1.489 -10.144  1.00  0.00    -0.000 C 
BRANCH  23  24
ATOM     24  C   UNL     1     -13.544  -0.600  -9.678  1.00  0.00    -0.000 C 
BRANCH  24  25
ATOM     25  C   UNL     1     -13.563   0.790 -10.330  1.00  0.00    -0.003 C 
ATOM     26  C   UNL     1     -14.598   0.856 -11.451  1.00  0.00     0.004 C 
ENDBRANCH  24  25
ENDBRANCH  23  24
ENDBRANCH  22  23
ENDBRANCH  21  22
ENDBRANCH  20  21
ENDBRANCH  19  20
ENDBRANCH  18  19
ENDBRANCH  17  18
ENDBRANCH  16  17
ENDBRANCH  15  16
ENDBRANCH   1  15
TORSDOF 22
ENDMDL
MODEL 4
REMARK VINA RESULT:    20.900      1.075      2.482
REMARK INTER + INTRA:          46.444
REMARK INTER:                  47.703
REMARK INTRA:                  -1.259
REMARK UNBOUND:                -1.336
REMARK SMILES CCCCCCCCCCCCCCCCCCCCCCCC(=O)[O-]
REMARK SMILES IDX 13 1 14 2 15 3 16 4 17 5 18 6 19 7 20 8 21 9 22 10 23 11
REMARK SMILES IDX 24 12 25 13 26 14 12 15 11 16 10 17 9 18 8 19 7 20 6 21 5 22
REMARK SMILES IDX 4 23 3 24 2 25 1 26
REMARK H PARENT
REMARK Flexibility Score: inf
ROOT
ATOM      1  C   UNL     1     -11.561  -0.223 -17.658  1.00  0.00     0.000 C 
ENDROOT
BRANCH   1   2
ATOM      2  C   UNL     1     -12.033  -1.684 -17.562  1.00  0.00     0.000 C 
BRANCH   2   3
ATOM      3  C   UNL     1     -13.512  -1.794 -17.153  1.00  0.00     0.000 C 
BRANCH   3   4
ATOM      4  C   UNL     1     -13.694  -2.194 -15.679  1.00  0.00     0.000 C 
BRANCH   4   5
ATOM      5  C   UNL     1     -14.833  -3.207 -15.473  1.00  0.00     0.000 C 
BRANCH   5   6
ATOM      6  C   UNL     1     -14.439  -4.367 -14.541  1.00  0.00     0.000 C 
BRANCH   6   7
ATOM      7  C   UNL     1     -13.932  -3.950 -13.144  1.00  0.00     0.000 C 
BRANCH   7   8
ATOM      8  C   UNL     1     -15.019  -3.480 -12.158  1.00  0.00     0.000 C 
BRANCH   8   9
ATOM      9  C   UNL     1     -14.563  -3.540 -10.691  1.00  0.00     0.000 C 
BRANCH   9  10
ATOM     10  C   UNL     1     -14.453  -2.150 -10.038  1.00  0.00     0.006 C 
BRANCH  10  11
ATOM     11  C   UNL     1     -15.181  -1.035 -10.810  1.00  0.00     0.053 C 
BRANCH  11  12
ATOM     12  C   UNL     1     -14.437   0.265 -10.794  1.00  0.00     0.041 C 
ATOM     13  O   UNL     1     -14.805   1.220 -11.529  1.00  0.00    -0.550 OA
ATOM     14  O   UNL     1     -13.348   0.431  -9.947  1.00  0.00    -0.550 OA
ENDBRANCH  11  12
ENDBRANCH  10  11
ENDBRANCH   9  10
ENDBRANCH   8   9
ENDBRANCH   7   8
ENDBRANCH   6   7
ENDBRANCH   5   6
ENDBRANCH   4   5
ENDBRANCH   3   4
ENDBRANCH   2   3
ENDBRANCH   1   2
BRANCH   1  15
ATOM     15  C   UNL     1     -12.716   0.780 -17.522  1.00  0.00     0.000 C 
BRANCH  15  16
ATOM     16  C   UNL     1     -12.188   2.222 -17.501  1.00  0.00     0.000 C 
BRANCH  16  17
ATOM     17  C   UNL     1     -12.872   3.126 -18.544  1.00  0.00     0.000 C 
BRANCH  17  18
ATOM     18  C   UNL     1     -13.869   4.153 -17.969  1.00  0.00    -0.000 C 
BRANCH  18  19
ATOM     19  C   UNL     1     -14.882   4.720 -18.981  1.00  0.00    -0.000 C 
BRANCH  19  20
ATOM     20  C   UNL     1     -14.264   5.771 -19.920  1.00  0.00    -0.000 C 
BRANCH  20  21
ATOM     21  C   UNL     1     -15.283   6.855 -20.331  1.00  0.00    -0.000 C 
BRANCH  21  22
ATOM     22  C   UNL     1     -15.065   8.205 -19.626  1.00  0.00    -0.000 C 
BRANCH  22  23
ATOM     23  C   UNL     1     -14.984   8.073 -18.096  1.00  0.00    -0.000 C 
BRANCH  23  24
ATOM     24  C   UNL     1     -13.592   8.423 -17.546  1.00  0.00    -0.000 C 
BRANCH  24  25
ATOM     25  C   UNL     1     -13.424   8.034 -16.070  1.00  0.00    -0.003 C 
ATOM     26  C   UNL     1     -14.481   8.710 -15.201  1.00  0.00     0.004 C 
ENDBRANCH  24  25
ENDBRANCH  23  24
ENDBRANCH  22  23
ENDBRANCH  21  22
ENDBRANCH  20  21
ENDBRANCH  19  20
ENDBRANCH  18  19
ENDBRANCH  17  18
ENDBRANCH  16  17
ENDBRANCH  15  16
ENDBRANCH   1  15
TORSDOF 22
ENDMDL
MODEL 5
REMARK VINA RESULT:    21.058      0.933      2.478
REMARK INTER + INTRA:          46.805
REMARK INTER:                  47.818
REMARK INTRA:                  -1.013
REMARK UNBOUND:                -1.336
REMARK SMILES CCCCCCCCCCCCCCCCCCCCCCCC(=O)[O-]
REMARK SMILES IDX 13 1 14 2 15 3 16 4 17 5 18 6 19 7 20 8 21 9 22 10 23 11
REMARK SMILES IDX 24 12 25 13 26 14 12 15 11 16 10 17 9 18 8 19 7 20 6 21 5 22
REMARK SMILES IDX 4 23 3 24 2 25 1 26
REMARK H PARENT
REMARK Flexibility Score: inf
ROOT
ATOM      1  C   UNL     1     -12.776   0.862 -17.489  1.00  0.00     0.000 C 
ENDROOT
BRANCH   1   2
ATOM      2  C   UNL     1     -12.175  -0.363 -18.197  1.00  0.00     0.000 C 
BRANCH   2   3
ATOM      3  C   UNL     1     -12.237  -1.631 -17.327  1.00  0.00     0.000 C 
BRANCH   3   4
ATOM      4  C   UNL     1     -13.677  -2.107 -17.071  1.00  0.00     0.000 C 
BRANCH   4   5
ATOM      5  C   UNL     1     -14.002  -2.245 -15.574  1.00  0.00     0.000 C 
BRANCH   5   6
ATOM      6  C   UNL     1     -14.430  -3.671 -15.184  1.00  0.00     0.000 C 
BRANCH   6   7
ATOM      7  C   UNL     1     -14.169  -4.061 -13.714  1.00  0.00     0.000 C 
BRANCH   7   8
ATOM      8  C   UNL     1     -15.050  -3.343 -12.672  1.00  0.00     0.000 C 
BRANCH   8   9
ATOM      9  C   UNL     1     -14.737  -3.769 -11.228  1.00  0.00     0.000 C 
BRANCH   9  10
ATOM     10  C   UNL     1     -14.356  -2.584 -10.321  1.00  0.00     0.006 C 
BRANCH  10  11
ATOM     11  C   UNL     1     -15.159  -1.300 -10.595  1.00  0.00     0.053 C 
BRANCH  11  12
ATOM     12  C   UNL     1     -14.321  -0.061 -10.509  1.00  0.00     0.041 C 
ATOM     13  O   UNL     1     -13.338  -0.010  -9.724  1.00  0.00    -0.550 OA
ATOM     14  O   UNL     1     -14.613   1.031 -11.317  1.00  0.00    -0.550 OA
ENDBRANCH  11  12
ENDBRANCH  10  11
ENDBRANCH   9  10
ENDBRANCH   8   9
ENDBRANCH   7   8
ENDBRANCH   6   7
ENDBRANCH   5   6
ENDBRANCH   4   5
ENDBRANCH   3   4
ENDBRANCH   2   3
ENDBRANCH   1   2
BRANCH   1  15
ATOM     15  C   UNL     1     -11.705   1.867 -17.038  1.00  0.00     0.000 C 
BRANCH  15  16
ATOM     16  C   UNL     1     -12.165   3.309 -17.295  1.00  0.00     0.000 C 
BRANCH  16  17
ATOM     17  C   UNL     1     -13.376   3.392 -18.243  1.00  0.00     0.000 C 
BRANCH  17  18
ATOM     18  C   UNL     1     -13.505   4.712 -19.030  1.00  0.00    -0.000 C 
BRANCH  18  19
ATOM     19  C   UNL     1     -14.947   5.215 -19.233  1.00  0.00    -0.000 C 
BRANCH  19  20
ATOM     20  C   UNL     1     -15.074   6.208 -20.402  1.00  0.00    -0.000 C 
BRANCH  20  21
ATOM     21  C   UNL     1     -15.020   7.677 -19.926  1.00  0.00    -0.000 C 
BRANCH  21  22
ATOM     22  C   UNL     1     -14.983   7.827 -18.396  1.00  0.00    -0.000 C 
BRANCH  22  23
ATOM     23  C   UNL     1     -13.699   8.511 -17.895  1.00  0.00    -0.000 C 
BRANCH  23  24
ATOM     24  C   UNL     1     -13.081   7.791 -16.685  1.00  0.00    -0.000 C 
BRANCH  24  25
ATOM     25  C   UNL     1     -13.866   8.035 -15.388  1.00  0.00    -0.003 C 
ATOM     26  C   UNL     1     -14.858   9.183 -15.555  1.00  0.00     0.004 C 
ENDBRANCH  24  25
ENDBRANCH  23  24
ENDBRANCH  22  23
ENDBRANCH  21  22
ENDBRANCH  20  21
ENDBRANCH  19  20
ENDBRANCH  18  19
ENDBRANCH  17  18
ENDBRANCH  16  17
ENDBRANCH  15  16
ENDBRANCH   1  15
TORSDOF 22
ENDMDL
MODEL 6
REMARK VINA RESULT:    21.218      3.155     10.062
REMARK INTER + INTRA:          47.170
REMARK INTER:                  48.253
REMARK INTRA:                  -1.083
REMARK UNBOUND:                -1.336
REMARK SMILES CCCCCCCCCCCCCCCCCCCCCCCC(=O)[O-]
REMARK SMILES IDX 13 1 14 2 15 3 16 4 17 5 18 6 19 7 20 8 21 9 22 10 23 11
REMARK SMILES IDX 24 12 25 13 26 14 12 15 11 16 10 17 9 18 8 19 7 20 6 21 5 22
REMARK SMILES IDX 4 23 3 24 2 25 1 26
REMARK H PARENT
REMARK Flexibility Score: inf
ROOT
ATOM      1  C   UNL     1     -11.412  -0.322 -17.797  1.00  0.00     0.000 C 
ENDROOT
BRANCH   1   2
ATOM      2  C   UNL     1     -12.120   0.839 -17.078  1.00  0.00     0.000 C 
BRANCH   2   3
ATOM      3  C   UNL     1     -13.004   1.664 -18.030  1.00  0.00     0.000 C 
BRANCH   3   4
ATOM      4  C   UNL     1     -12.712   3.173 -17.956  1.00  0.00     0.000 C 
BRANCH   4   5
ATOM      5  C   UNL     1     -11.835   3.552 -16.752  1.00  0.00     0.000 C 
BRANCH   5   6
ATOM      6  C   UNL     1     -11.500   5.053 -16.704  1.00  0.00     0.000 C 
BRANCH   6   7
ATOM      7  C   UNL     1     -12.323   5.882 -15.695  1.00  0.00     0.000 C 
BRANCH   7   8
ATOM      8  C   UNL     1     -12.393   7.395 -15.982  1.00  0.00     0.000 C 
BRANCH   8   9
ATOM      9  C   UNL     1     -13.826   7.891 -16.234  1.00  0.00     0.000 C 
BRANCH   9  10
ATOM     10  C   UNL     1     -13.962   8.700 -17.538  1.00  0.00     0.006 C 
BRANCH  10  11
ATOM     11  C   UNL     1     -15.201   8.337 -18.375  1.00  0.00     0.053 C 
BRANCH  11  12
ATOM     12  C   UNL     1     -14.856   7.606 -19.636  1.00  0.00     0.041 C 
ATOM     13  O   UNL     1     -15.295   6.442 -19.838  1.00  0.00    -0.550 OA
ATOM     14  O   UNL     1     -14.068   8.220 -20.602  1.00  0.00    -0.550 OA
ENDBRANCH  11  12
ENDBRANCH  10  11
ENDBRANCH   9  10
ENDBRANCH   8   9
ENDBRANCH   7   8
ENDBRANCH   6   7
ENDBRANCH   5   6
ENDBRANCH   4   5
ENDBRANCH   3   4
ENDBRANCH   2   3
ENDBRANCH   1   2
BRANCH   1  15
ATOM     15  C   UNL     1     -12.217  -1.629 -17.738  1.00  0.00     0.000 C 
BRANCH  15  16
ATOM     16  C   UNL     1     -13.308  -1.551 -16.660  1.00  0.00     0.000 C 
BRANCH  16  17
ATOM     17  C   UNL     1     -14.044  -2.887 -16.453  1.00  0.00     0.000 C 
BRANCH  17  18
ATOM     18  C   UNL     1     -14.798  -3.022 -15.114  1.00  0.00    -0.000 C 
BRANCH  18  19
ATOM     19  C   UNL     1     -14.445  -4.272 -14.287  1.00  0.00    -0.000 C 
BRANCH  19  20
ATOM     20  C   UNL     1     -13.900  -3.930 -12.889  1.00  0.00    -0.000 C 
BRANCH  20  21
ATOM     21  C   UNL     1     -15.006  -3.952 -11.811  1.00  0.00    -0.000 C 
BRANCH  21  22
ATOM     22  C   UNL     1     -14.653  -3.146 -10.550  1.00  0.00    -0.000 C 
BRANCH  22  23
ATOM     23  C   UNL     1     -14.865  -1.633 -10.731  1.00  0.00    -0.000 C 
BRANCH  23  24
ATOM     24  C   UNL     1     -13.985  -0.797  -9.787  1.00  0.00    -0.000 C 
BRANCH  24  25
ATOM     25  C   UNL     1     -13.547   0.535 -10.413  1.00  0.00    -0.003 C 
ATOM     26  C   UNL     1     -14.574   1.029 -11.429  1.00  0.00     0.004 C 
ENDBRANCH  24  25
ENDBRANCH  23  24
ENDBRANCH  22  23
ENDBRANCH  21  22
ENDBRANCH  20  21
ENDBRANCH  19  20
ENDBRANCH  18  19
ENDBRANCH  17  18
ENDBRANCH  16  17
ENDBRANCH  15  16
ENDBRANCH   1  15
TORSDOF 22
ENDMDL
MODEL 7
REMARK VINA RESULT:    21.543      2.979     10.395
REMARK INTER + INTRA:          47.913
REMARK INTER:                  49.137
REMARK INTRA:                  -1.225
REMARK UNBOUND:                -1.336
REMARK SMILES CCCCCCCCCCCCCCCCCCCCCCCC(=O)[O-]
REMARK SMILES IDX 13 1 14 2 15 3 16 4 17 5 18 6 19 7 20 8 21 9 22 10 23 11
REMARK SMILES IDX 24 12 25 13 26 14 12 15 11 16 10 17 9 18 8 19 7 20 6 21 5 22
REMARK SMILES IDX 4 23 3 24 2 25 1 26
REMARK H PARENT
REMARK Flexibility Score: inf
ROOT
ATOM      1  C   UNL     1     -12.840   0.831 -17.396  1.00  0.00     0.000 C 
ENDROOT
BRANCH   1   2
ATOM      2  C   UNL     1     -12.513   2.221 -17.968  1.00  0.00     0.000 C 
BRANCH   2   3
ATOM      3  C   UNL     1     -11.764   3.108 -16.959  1.00  0.00     0.000 C 
BRANCH   3   4
ATOM      4  C   UNL     1     -12.148   4.593 -17.070  1.00  0.00     0.000 C 
BRANCH   4   5
ATOM      5  C   UNL     1     -11.797   5.396 -15.806  1.00  0.00     0.000 C 
BRANCH   5   6
ATOM      6  C   UNL     1     -12.092   6.899 -15.952  1.00  0.00     0.000 C 
BRANCH   6   7
ATOM      7  C   UNL     1     -13.486   7.350 -15.466  1.00  0.00     0.000 C 
BRANCH   7   8
ATOM      8  C   UNL     1     -14.048   8.612 -16.148  1.00  0.00     0.000 C 
BRANCH   8   9
ATOM      9  C   UNL     1     -13.869   8.598 -17.675  1.00  0.00     0.000 C 
BRANCH   9  10
ATOM     10  C   UNL     1     -15.165   8.247 -18.429  1.00  0.00     0.006 C 
BRANCH  10  11
ATOM     11  C   UNL     1     -14.956   7.925 -19.920  1.00  0.00     0.053 C 
BRANCH  11  12
ATOM     12  C   UNL     1     -15.132   6.470 -20.230  1.00  0.00     0.041 C 
ATOM     13  O   UNL     1     -15.517   6.104 -21.373  1.00  0.00    -0.550 OA
ATOM     14  O   UNL     1     -14.846   5.514 -19.263  1.00  0.00    -0.550 OA
ENDBRANCH  11  12
ENDBRANCH  10  11
ENDBRANCH   9  10
ENDBRANCH   8   9
ENDBRANCH   7   8
ENDBRANCH   6   7
ENDBRANCH   5   6
ENDBRANCH   4   5
ENDBRANCH   3   4
ENDBRANCH   2   3
ENDBRANCH   1   2
BRANCH   1  15
ATOM     15  C   UNL     1     -11.918  -0.266 -17.949  1.00  0.00     0.000 C 
BRANCH  15  16
ATOM     16  C   UNL     1     -12.346  -1.649 -17.436  1.00  0.00     0.000 C 
BRANCH  16  17
ATOM     17  C   UNL     1     -13.464  -1.577 -16.379  1.00  0.00     0.000 C 
BRANCH  17  18
ATOM     18  C   UNL     1     -14.225  -2.897 -16.138  1.00  0.00    -0.000 C 
BRANCH  18  19
ATOM     19  C   UNL     1     -14.733  -3.106 -14.699  1.00  0.00    -0.000 C 
BRANCH  19  20
ATOM     20  C   UNL     1     -14.113  -4.340 -14.020  1.00  0.00    -0.000 C 
BRANCH  20  21
ATOM     21  C   UNL     1     -13.929  -4.137 -12.500  1.00  0.00    -0.000 C 
BRANCH  21  22
ATOM     22  C   UNL     1     -15.123  -3.445 -11.822  1.00  0.00    -0.000 C 
BRANCH  22  23
ATOM     23  C   UNL     1     -14.703  -2.547 -10.646  1.00  0.00    -0.000 C 
BRANCH  23  24
ATOM     24  C   UNL     1     -15.347  -1.152 -10.708  1.00  0.00    -0.000 C 
BRANCH  24  25
ATOM     25  C   UNL     1     -14.327  -0.021 -10.512  1.00  0.00    -0.003 C 
ATOM     26  C   UNL     1     -13.256  -0.418  -9.500  1.00  0.00     0.004 C 
ENDBRANCH  24  25
ENDBRANCH  23  24
ENDBRANCH  22  23
ENDBRANCH  21  22
ENDBRANCH  20  21
ENDBRANCH  19  20
ENDBRANCH  18  19
ENDBRANCH  17  18
ENDBRANCH  16  17
ENDBRANCH  15  16
ENDBRANCH   1  15
TORSDOF 22
ENDMDL
MODEL 8
REMARK VINA RESULT:    21.849      0.644      1.524
REMARK INTER + INTRA:          48.612
REMARK INTER:                  49.853
REMARK INTRA:                  -1.241
REMARK UNBOUND:                -1.336
REMARK SMILES CCCCCCCCCCCCCCCCCCCCCCCC(=O)[O-]
REMARK SMILES IDX 13 1 14 2 15 3 16 4 17 5 18 6 19 7 20 8 21 9 22 10 23 11
REMARK SMILES IDX 24 12 25 13 26 14 12 15 11 16 10 17 9 18 8 19 7 20 6 21 5 22
REMARK SMILES IDX 4 23 3 24 2 25 1 26
REMARK H PARENT
REMARK Flexibility Score: inf
ROOT
ATOM      1  C   UNL     1     -12.115  -1.137 -18.119  1.00  0.00     0.000 C 
ENDROOT
BRANCH   1   2
ATOM      2  C   UNL     1     -13.448  -1.412 -17.403  1.00  0.00     0.000 C 
BRANCH   2   3
ATOM      3  C   UNL     1     -13.263  -2.257 -16.130  1.00  0.00     0.000 C 
BRANCH   3   4
ATOM      4  C   UNL     1     -14.580  -2.873 -15.628  1.00  0.00     0.000 C 
BRANCH   4   5
ATOM      5  C   UNL     1     -14.400  -4.300 -15.084  1.00  0.00     0.000 C 
BRANCH   5   6
ATOM      6  C   UNL     1     -14.018  -4.328 -13.593  1.00  0.00     0.000 C 
BRANCH   6   7
ATOM      7  C   UNL     1     -14.855  -3.408 -12.679  1.00  0.00     0.000 C 
BRANCH   7   8
ATOM      8  C   UNL     1     -15.013  -3.888 -11.223  1.00  0.00     0.000 C 
BRANCH   8   9
ATOM      9  C   UNL     1     -14.168  -3.073 -10.229  1.00  0.00     0.000 C 
BRANCH   9  10
ATOM     10  C   UNL     1     -14.753  -1.676  -9.948  1.00  0.00     0.006 C 
BRANCH  10  11
ATOM     11  C   UNL     1     -13.690  -0.584  -9.731  1.00  0.00     0.053 C 
BRANCH  11  12
ATOM     12  C   UNL     1     -13.887   0.604 -10.623  1.00  0.00     0.041 C 
ATOM     13  O   UNL     1     -14.933   0.713 -11.316  1.00  0.00    -0.550 OA
ATOM     14  O   UNL     1     -12.924   1.604 -10.669  1.00  0.00    -0.550 OA
ENDBRANCH  11  12
ENDBRANCH  10  11
ENDBRANCH   9  10
ENDBRANCH   8   9
ENDBRANCH   7   8
ENDBRANCH   6   7
ENDBRANCH   5   6
ENDBRANCH   4   5
ENDBRANCH   3   4
ENDBRANCH   2   3
ENDBRANCH   1   2
BRANCH   1  15
ATOM     15  C   UNL     1     -11.761   0.358 -18.152  1.00  0.00     0.000 C 
BRANCH  15  16
ATOM     16  C   UNL     1     -12.666   1.153 -17.199  1.00  0.00     0.000 C 
BRANCH  16  17
ATOM     17  C   UNL     1     -12.653   2.667 -17.484  1.00  0.00     0.000 C 
BRANCH  17  18
ATOM     18  C   UNL     1     -11.335   3.389 -17.134  1.00  0.00    -0.000 C 
BRANCH  18  19
ATOM     19  C   UNL     1     -11.472   4.551 -16.134  1.00  0.00    -0.000 C 
BRANCH  19  20
ATOM     20  C   UNL     1     -12.688   5.449 -16.423  1.00  0.00    -0.000 C 
BRANCH  20  21
ATOM     21  C   UNL     1     -12.395   6.937 -16.132  1.00  0.00    -0.000 C 
BRANCH  21  22
ATOM     22  C   UNL     1     -13.594   7.864 -16.395  1.00  0.00    -0.000 C 
BRANCH  22  23
ATOM     23  C   UNL     1     -13.596   8.448 -17.818  1.00  0.00    -0.000 C 
BRANCH  23  24
ATOM     24  C   UNL     1     -14.974   8.354 -18.493  1.00  0.00    -0.000 C 
BRANCH  24  25
ATOM     25  C   UNL     1     -14.893   7.814 -19.928  1.00  0.00    -0.003 C 
ATOM     26  C   UNL     1     -15.083   6.299 -19.956  1.00  0.00     0.004 C 
ENDBRANCH  24  25
ENDBRANCH  23  24
ENDBRANCH  22  23
ENDBRANCH  21  22
ENDBRANCH  20  21
ENDBRANCH  19  20
ENDBRANCH  18  19
ENDBRANCH  17  18
ENDBRANCH  16  17
ENDBRANCH  15  16
ENDBRANCH   1  15
TORSDOF 22
ENDMDL
MODEL 9
REMARK VINA RESULT:    22.373      3.927      9.824
REMARK INTER + INTRA:          49.810
REMARK INTER:                  50.918
REMARK INTRA:                  -1.107
REMARK UNBOUND:                -1.336
REMARK SMILES CCCCCCCCCCCCCCCCCCCCCCCC(=O)[O-]
REMARK SMILES IDX 13 1 14 2 15 3 16 4 17 5 18 6 19 7 20 8 21 9 22 10 23 11
REMARK SMILES IDX 24 12 25 13 26 14 12 15 11 16 10 17 9 18 8 19 7 20 6 21 5 22
REMARK SMILES IDX 4 23 3 24 2 25 1 26
REMARK H PARENT
REMARK Flexibility Score: inf
ROOT
ATOM      1  C   UNL     1     -12.175   3.029 -17.423  1.00  0.00     0.000 C 
ENDROOT
BRANCH   1   2
ATOM      2  C   UNL     1     -13.282   3.060 -18.491  1.00  0.00     0.000 C 
BRANCH   2   3
ATOM      3  C   UNL     1     -13.440   4.451 -19.129  1.00  0.00     0.000 C 
BRANCH   3   4
ATOM      4  C   UNL     1     -14.769   5.130 -18.757  1.00  0.00     0.000 C 
BRANCH   4   5
ATOM      5  C   UNL     1     -15.528   5.665 -19.983  1.00  0.00     0.000 C 
BRANCH   5   6
ATOM      6  C   UNL     1     -15.130   7.106 -20.351  1.00  0.00     0.000 C 
BRANCH   6   7
ATOM      7  C   UNL     1     -14.701   7.996 -19.165  1.00  0.00     0.000 C 
BRANCH   7   8
ATOM      8  C   UNL     1     -15.824   8.836 -18.528  1.00  0.00     0.000 C 
BRANCH   8   9
ATOM      9  C   UNL     1     -16.063   8.492 -17.048  1.00  0.00     0.000 C 
BRANCH   9  10
ATOM     10  C   UNL     1     -15.060   9.178 -16.102  1.00  0.00     0.006 C 
BRANCH  10  11
ATOM     11  C   UNL     1     -14.171   8.200 -15.313  1.00  0.00     0.053 C 
BRANCH  11  12
ATOM     12  C   UNL     1     -13.047   7.646 -16.133  1.00  0.00     0.041 C 
ATOM     13  O   UNL     1     -12.484   8.358 -17.007  1.00  0.00    -0.550 OA
ATOM     14  O   UNL     1     -12.602   6.348 -15.915  1.00  0.00    -0.550 OA
ENDBRANCH  11  12
ENDBRANCH  10  11
ENDBRANCH   9  10
ENDBRANCH   8   9
ENDBRANCH   7   8
ENDBRANCH   6   7
ENDBRANCH   5   6
ENDBRANCH   4   5
ENDBRANCH   3   4
ENDBRANCH   2   3
ENDBRANCH   1   2
BRANCH   1  15
ATOM     15  C   UNL     1     -11.921   1.615 -16.879  1.00  0.00     0.000 C 
BRANCH  15  16
ATOM     16  C   UNL     1     -13.087   0.678 -17.229  1.00  0.00     0.000 C 
BRANCH  16  17
ATOM     17  C   UNL     1     -12.877  -0.758 -16.715  1.00  0.00     0.000 C 
BRANCH  17  18
ATOM     18  C   UNL     1     -12.441  -1.781 -17.785  1.00  0.00    -0.000 C 
BRANCH  18  19
ATOM     19  C   UNL     1     -11.391  -1.271 -18.789  1.00  0.00    -0.000 C 
BRANCH  19  20
ATOM     20  C   UNL     1     -10.148  -0.676 -18.103  1.00  0.00    -0.000 C 
BRANCH  20  21
ATOM     21  C   UNL     1      -9.002  -1.705 -17.981  1.00  0.00    -0.000 C 
BRANCH  21  22
ATOM     22  C   UNL     1      -7.601  -1.079 -18.079  1.00  0.00    -0.000 C 
BRANCH  22  23
ATOM     23  C   UNL     1      -7.068  -0.592 -16.721  1.00  0.00    -0.000 C 
BRANCH  23  24
ATOM     24  C   UNL     1      -6.897  -1.737 -15.709  1.00  0.00    -0.000 C 
BRANCH  24  25
ATOM     25  C   UNL     1      -7.275  -1.323 -14.279  1.00  0.00    -0.003 C 
ATOM     26  C   UNL     1      -7.778   0.118 -14.239  1.00  0.00     0.004 C 
ENDBRANCH  24  25
ENDBRANCH  23  24
ENDBRANCH  22  23
ENDBRANCH  21  22
ENDBRANCH  20  21
ENDBRANCH  19  20
ENDBRANCH  18  19
ENDBRANCH  17  18
ENDBRANCH  16  17
ENDBRANCH  15  16
ENDBRANCH   1  15
TORSDOF 22
ENDMDL
