MODEL 1
REMARK VINA RESULT:    -3.276      0.000      0.000
REMARK INTER + INTRA:         -11.669
REMARK INTER:                  -7.490
REMARK INTRA:                  -4.179
REMARK UNBOUND:                -4.179
REMARK SMILES CCCCCCCCCCCCCCCCCCCCCCCC(=O)[O-]
REMARK SMILES IDX 13 1 14 2 15 3 16 4 17 5 18 6 19 7 20 8 21 9 22 10 23 11
REMARK SMILES IDX 24 12 25 13 26 14 12 15 11 16 10 17 9 18 8 19 7 20 6 21 5 22
REMARK SMILES IDX 4 23 3 24 2 25 1 26
REMARK H PARENT
REMARK Flexibility Score: inf
ROOT
ATOM      1  C   UNL     1      50.042  33.862  87.718  1.00  0.00     0.000 C 
ENDROOT
BRANCH   1   2
ATOM      2  C   UNL     1      50.586  35.198  87.183  1.00  0.00     0.000 C 
BRANCH   2   3
ATOM      3  C   UNL     1      52.052  35.443  87.568  1.00  0.00     0.000 C 
BRANCH   3   4
ATOM      4  C   UNL     1      52.992  35.044  86.421  1.00  0.00     0.000 C 
BRANCH   4   5
ATOM      5  C   UNL     1      54.053  34.018  86.853  1.00  0.00     0.000 C 
BRANCH   5   6
ATOM      6  C   UNL     1      53.585  32.568  86.644  1.00  0.00     0.000 C 
BRANCH   6   7
ATOM      7  C   UNL     1      53.522  32.174  85.160  1.00  0.00     0.000 C 
BRANCH   7   8
ATOM      8  C   UNL     1      52.300  31.305  84.825  1.00  0.00     0.000 C 
BRANCH   8   9
ATOM      9  C   UNL     1      51.087  32.178  84.467  1.00  0.00     0.000 C 
BRANCH   9  10
ATOM     10  C   UNL     1      51.432  33.298  83.469  1.00  0.00     0.006 C 
BRANCH  10  11
ATOM     11  C   UNL     1      50.568  34.560  83.612  1.00  0.00     0.053 C 
BRANCH  11  12
ATOM     12  C   UNL     1      49.301  34.467  82.820  1.00  0.00     0.041 C 
ATOM     13  O   UNL     1      48.186  34.507  83.404  1.00  0.00    -0.550 OA
ATOM     14  O   UNL     1      49.350  34.357  81.436  1.00  0.00    -0.550 OA
ENDBRANCH  11  12
ENDBRANCH  10  11
ENDBRANCH   9  10
ENDBRANCH   8   9
ENDBRANCH   7   8
ENDBRANCH   6   7
ENDBRANCH   5   6
ENDBRANCH   4   5
ENDBRANCH   3   4
ENDBRANCH   2   3
ENDBRANCH   1   2
BRANCH   1  15
ATOM     15  C   UNL     1      48.549  33.601  87.430  1.00  0.00     0.000 C 
BRANCH  15  16
ATOM     16  C   UNL     1      48.239  32.239  86.785  1.00  0.00     0.000 C 
BRANCH  16  17
ATOM     17  C   UNL     1      47.541  31.267  87.753  1.00  0.00     0.000 C 
BRANCH  17  18
ATOM     18  C   UNL     1      47.081  31.951  89.051  1.00  0.00    -0.000 C 
BRANCH  18  19
ATOM     19  C   UNL     1      47.703  31.312  90.305  1.00  0.00    -0.000 C 
BRANCH  19  20
ATOM     20  C   UNL     1      49.022  30.576  90.010  1.00  0.00    -0.000 C 
BRANCH  20  21
ATOM     21  C   UNL     1      50.273  31.192  90.665  1.00  0.00    -0.000 C 
BRANCH  21  22
ATOM     22  C   UNL     1      51.482  31.242  89.716  1.00  0.00    -0.000 C 
BRANCH  22  23
ATOM     23  C   UNL     1      52.494  32.330  90.108  1.00  0.00    -0.000 C 
BRANCH  23  24
ATOM     24  C   UNL     1      53.924  31.781  90.249  1.00  0.00    -0.000 C 
BRANCH  24  25
ATOM     25  C   UNL     1      54.926  32.857  90.696  1.00  0.00    -0.003 C 
ATOM     26  C   UNL     1      54.375  34.275  90.546  1.00  0.00     0.004 C 
ENDBRANCH  24  25
ENDBRANCH  23  24
ENDBRANCH  22  23
ENDBRANCH  21  22
ENDBRANCH  20  21
ENDBRANCH  19  20
ENDBRANCH  18  19
ENDBRANCH  17  18
ENDBRANCH  16  17
ENDBRANCH  15  16
ENDBRANCH   1  15
TORSDOF 22
ENDMDL
MODEL 2
REMARK VINA RESULT:    -3.191      3.223      6.472
REMARK INTER + INTRA:         -11.475
REMARK INTER:                  -7.245
REMARK INTRA:                  -4.230
REMARK UNBOUND:                -4.179
REMARK SMILES CCCCCCCCCCCCCCCCCCCCCCCC(=O)[O-]
REMARK SMILES IDX 13 1 14 2 15 3 16 4 17 5 18 6 19 7 20 8 21 9 22 10 23 11
REMARK SMILES IDX 24 12 25 13 26 14 12 15 11 16 10 17 9 18 8 19 7 20 6 21 5 22
REMARK SMILES IDX 4 23 3 24 2 25 1 26
REMARK H PARENT
REMARK Flexibility Score: inf
ROOT
ATOM      1  C   UNL     1      50.258  35.757  87.472  1.00  0.00     0.000 C 
ENDROOT
BRANCH   1   2
ATOM      2  C   UNL     1      49.002  35.225  86.761  1.00  0.00     0.000 C 
BRANCH   2   3
ATOM      3  C   UNL     1      49.312  34.590  85.398  1.00  0.00     0.000 C 
BRANCH   3   4
ATOM      4  C   UNL     1      48.724  33.173  85.311  1.00  0.00     0.000 C 
BRANCH   4   5
ATOM      5  C   UNL     1      48.636  32.481  86.682  1.00  0.00     0.000 C 
BRANCH   5   6
ATOM      6  C   UNL     1      47.647  31.304  86.682  1.00  0.00     0.000 C 
BRANCH   6   7
ATOM      7  C   UNL     1      47.336  30.792  88.098  1.00  0.00     0.000 C 
BRANCH   7   8
ATOM      8  C   UNL     1      47.026  31.926  89.088  1.00  0.00     0.000 C 
BRANCH   8   9
ATOM      9  C   UNL     1      47.035  31.410  90.535  1.00  0.00     0.000 C 
BRANCH   9  10
ATOM     10  C   UNL     1      47.591  29.979  90.654  1.00  0.00     0.006 C 
BRANCH  10  11
ATOM     11  C   UNL     1      46.655  28.995  91.374  1.00  0.00     0.053 C 
BRANCH  11  12
ATOM     12  C   UNL     1      45.273  29.011  90.800  1.00  0.00     0.041 C 
ATOM     13  O   UNL     1      45.061  28.550  89.648  1.00  0.00    -0.550 OA
ATOM     14  O   UNL     1      44.215  29.517  91.544  1.00  0.00    -0.550 OA
ENDBRANCH  11  12
ENDBRANCH  10  11
ENDBRANCH   9  10
ENDBRANCH   8   9
ENDBRANCH   7   8
ENDBRANCH   6   7
ENDBRANCH   5   6
ENDBRANCH   4   5
ENDBRANCH   3   4
ENDBRANCH   2   3
ENDBRANCH   1   2
BRANCH   1  15
ATOM     15  C   UNL     1      51.384  34.721  87.674  1.00  0.00     0.000 C 
BRANCH  15  16
ATOM     16  C   UNL     1      52.756  35.133  87.116  1.00  0.00     0.000 C 
BRANCH  16  17
ATOM     17  C   UNL     1      52.863  34.934  85.593  1.00  0.00     0.000 C 
BRANCH  17  18
ATOM     18  C   UNL     1      53.455  33.566  85.214  1.00  0.00    -0.000 C 
BRANCH  18  19
ATOM     19  C   UNL     1      52.370  32.535  84.855  1.00  0.00    -0.000 C 
BRANCH  19  20
ATOM     20  C   UNL     1      52.256  31.400  85.888  1.00  0.00    -0.000 C 
BRANCH  20  21
ATOM     21  C   UNL     1      53.404  31.334  86.913  1.00  0.00    -0.000 C 
BRANCH  21  22
ATOM     22  C   UNL     1      52.910  31.394  88.369  1.00  0.00    -0.000 C 
BRANCH  22  23
ATOM     23  C   UNL     1      51.450  30.939  88.515  1.00  0.00    -0.000 C 
BRANCH  23  24
ATOM     24  C   UNL     1      50.710  31.686  89.638  1.00  0.00    -0.000 C 
BRANCH  24  25
ATOM     25  C   UNL     1      51.640  32.073  90.798  1.00  0.00    -0.003 C 
ATOM     26  C   UNL     1      51.022  31.793  92.168  1.00  0.00     0.004 C 
ENDBRANCH  24  25
ENDBRANCH  23  24
ENDBRANCH  22  23
ENDBRANCH  21  22
ENDBRANCH  20  21
ENDBRANCH  19  20
ENDBRANCH  18  19
ENDBRANCH  17  18
ENDBRANCH  16  17
ENDBRANCH  15  16
ENDBRANCH   1  15
TORSDOF 22
ENDMDL
MODEL 3
REMARK VINA RESULT:    -3.189      3.386      6.547
REMARK INTER + INTRA:         -11.471
REMARK INTER:                  -7.678
REMARK INTRA:                  -3.793
REMARK UNBOUND:                -4.179
REMARK SMILES CCCCCCCCCCCCCCCCCCCCCCCC(=O)[O-]
REMARK SMILES IDX 13 1 14 2 15 3 16 4 17 5 18 6 19 7 20 8 21 9 22 10 23 11
REMARK SMILES IDX 24 12 25 13 26 14 12 15 11 16 10 17 9 18 8 19 7 20 6 21 5 22
REMARK SMILES IDX 4 23 3 24 2 25 1 26
REMARK H PARENT
REMARK Flexibility Score: inf
ROOT
ATOM      1  C   UNL     1      48.305  32.386  86.496  1.00  0.00     0.000 C 
ENDROOT
BRANCH   1   2
ATOM      2  C   UNL     1      48.928  31.046  86.924  1.00  0.00     0.000 C 
BRANCH   2   3
ATOM      3  C   UNL     1      50.441  31.142  87.170  1.00  0.00     0.000 C 
BRANCH   3   4
ATOM      4  C   UNL     1      50.808  30.568  88.547  1.00  0.00     0.000 C 
BRANCH   4   5
ATOM      5  C   UNL     1      50.798  31.634  89.656  1.00  0.00     0.000 C 
BRANCH   5   6
ATOM      6  C   UNL     1      49.815  31.293  90.789  1.00  0.00     0.000 C 
BRANCH   6   7
ATOM      7  C   UNL     1      49.121  29.937  90.581  1.00  0.00     0.000 C 
BRANCH   7   8
ATOM      8  C   UNL     1      47.589  30.035  90.651  1.00  0.00     0.000 C 
BRANCH   8   9
ATOM      9  C   UNL     1      47.080  31.255  89.867  1.00  0.00     0.000 C 
BRANCH   9  10
ATOM     10  C   UNL     1      45.610  31.591  90.176  1.00  0.00     0.006 C 
BRANCH  10  11
ATOM     11  C   UNL     1      45.241  31.501  91.666  1.00  0.00     0.053 C 
BRANCH  11  12
ATOM     12  C   UNL     1      44.243  30.418  91.933  1.00  0.00     0.041 C 
ATOM     13  O   UNL     1      43.345  30.585  92.800  1.00  0.00    -0.550 OA
ATOM     14  O   UNL     1      44.290  29.233  91.210  1.00  0.00    -0.550 OA
ENDBRANCH  11  12
ENDBRANCH  10  11
ENDBRANCH   9  10
ENDBRANCH   8   9
ENDBRANCH   7   8
ENDBRANCH   6   7
ENDBRANCH   5   6
ENDBRANCH   4   5
ENDBRANCH   3   4
ENDBRANCH   2   3
ENDBRANCH   1   2
BRANCH   1  15
ATOM     15  C   UNL     1      48.505  33.548  87.491  1.00  0.00     0.000 C 
BRANCH  15  16
ATOM     16  C   UNL     1      48.787  34.916  86.845  1.00  0.00     0.000 C 
BRANCH  16  17
ATOM     17  C   UNL     1      49.995  35.633  87.474  1.00  0.00     0.000 C 
BRANCH  17  18
ATOM     18  C   UNL     1      51.252  34.748  87.520  1.00  0.00    -0.000 C 
BRANCH  18  19
ATOM     19  C   UNL     1      52.199  35.009  86.336  1.00  0.00    -0.000 C 
BRANCH  19  20
ATOM     20  C   UNL     1      51.880  34.136  85.109  1.00  0.00    -0.000 C 
BRANCH  20  21
ATOM     21  C   UNL     1      52.609  32.780  85.066  1.00  0.00    -0.000 C 
BRANCH  21  22
ATOM     22  C   UNL     1      53.992  32.822  85.737  1.00  0.00    -0.000 C 
BRANCH  22  23
ATOM     23  C   UNL     1      54.017  32.076  87.080  1.00  0.00    -0.000 C 
BRANCH  23  24
ATOM     24  C   UNL     1      54.838  32.816  88.149  1.00  0.00    -0.000 C 
BRANCH  24  25
ATOM     25  C   UNL     1      54.257  32.644  89.561  1.00  0.00    -0.003 C 
ATOM     26  C   UNL     1      54.309  33.933  90.382  1.00  0.00     0.004 C 
ENDBRANCH  24  25
ENDBRANCH  23  24
ENDBRANCH  22  23
ENDBRANCH  21  22
ENDBRANCH  20  21
ENDBRANCH  19  20
ENDBRANCH  18  19
ENDBRANCH  17  18
ENDBRANCH  16  17
ENDBRANCH  15  16
ENDBRANCH   1  15
TORSDOF 22
ENDMDL
MODEL 4
REMARK VINA RESULT:    -3.171      2.545      6.430
REMARK INTER + INTRA:         -11.428
REMARK INTER:                  -7.131
REMARK INTRA:                  -4.297
REMARK UNBOUND:                -4.179
REMARK SMILES CCCCCCCCCCCCCCCCCCCCCCCC(=O)[O-]
REMARK SMILES IDX 13 1 14 2 15 3 16 4 17 5 18 6 19 7 20 8 21 9 22 10 23 11
REMARK SMILES IDX 24 12 25 13 26 14 12 15 11 16 10 17 9 18 8 19 7 20 6 21 5 22
REMARK SMILES IDX 4 23 3 24 2 25 1 26
REMARK H PARENT
REMARK Flexibility Score: inf
ROOT
ATOM      1  C   UNL     1      54.788  31.582  87.183  1.00  0.00     0.000 C 
ENDROOT
BRANCH   1   2
ATOM      2  C   UNL     1      55.830  31.402  88.301  1.00  0.00     0.000 C 
BRANCH   2   3
ATOM      3  C   UNL     1      55.820  32.552  89.318  1.00  0.00     0.000 C 
BRANCH   3   4
ATOM      4  C   UNL     1      55.009  32.171  90.565  1.00  0.00     0.000 C 
BRANCH   4   5
ATOM      5  C   UNL     1      53.867  33.160  90.856  1.00  0.00     0.000 C 
BRANCH   5   6
ATOM      6  C   UNL     1      52.576  32.451  91.298  1.00  0.00     0.000 C 
BRANCH   6   7
ATOM      7  C   UNL     1      52.604  30.940  91.018  1.00  0.00     0.000 C 
BRANCH   7   8
ATOM      8  C   UNL     1      51.208  30.300  91.056  1.00  0.00     0.000 C 
BRANCH   8   9
ATOM      9  C   UNL     1      50.140  31.281  90.547  1.00  0.00     0.000 C 
BRANCH   9  10
ATOM     10  C   UNL     1      49.000  30.580  89.787  1.00  0.00     0.006 C 
BRANCH  10  11
ATOM     11  C   UNL     1      47.735  30.338  90.627  1.00  0.00     0.053 C 
BRANCH  11  12
ATOM     12  C   UNL     1      46.683  31.371  90.367  1.00  0.00     0.041 C 
ATOM     13  O   UNL     1      46.741  32.088  89.334  1.00  0.00    -0.550 OA
ATOM     14  O   UNL     1      45.627  31.528  91.256  1.00  0.00    -0.550 OA
ENDBRANCH  11  12
ENDBRANCH  10  11
ENDBRANCH   9  10
ENDBRANCH   8   9
ENDBRANCH   7   8
ENDBRANCH   6   7
ENDBRANCH   5   6
ENDBRANCH   4   5
ENDBRANCH   3   4
ENDBRANCH   2   3
ENDBRANCH   1   2
BRANCH   1  15
ATOM     15  C   UNL     1      53.517  30.720  87.328  1.00  0.00     0.000 C 
BRANCH  15  16
ATOM     16  C   UNL     1      52.196  31.508  87.359  1.00  0.00     0.000 C 
BRANCH  16  17
ATOM     17  C   UNL     1      52.406  33.012  87.606  1.00  0.00     0.000 C 
BRANCH  17  18
ATOM     18  C   UNL     1      51.120  33.725  88.056  1.00  0.00    -0.000 C 
BRANCH  18  19
ATOM     19  C   UNL     1      50.969  35.119  87.424  1.00  0.00    -0.000 C 
BRANCH  19  20
ATOM     20  C   UNL     1      49.583  35.344  86.792  1.00  0.00    -0.000 C 
BRANCH  20  21
ATOM     21  C   UNL     1      49.079  34.194  85.900  1.00  0.00    -0.000 C 
BRANCH  21  22
ATOM     22  C   UNL     1      49.038  34.567  84.409  1.00  0.00    -0.000 C 
BRANCH  22  23
ATOM     23  C   UNL     1      50.397  34.380  83.717  1.00  0.00    -0.000 C 
BRANCH  23  24
ATOM     24  C   UNL     1      51.042  33.022  84.045  1.00  0.00    -0.000 C 
BRANCH  24  25
ATOM     25  C   UNL     1      52.577  33.083  84.038  1.00  0.00    -0.003 C 
ATOM     26  C   UNL     1      53.114  34.480  84.348  1.00  0.00     0.004 C 
ENDBRANCH  24  25
ENDBRANCH  23  24
ENDBRANCH  22  23
ENDBRANCH  21  22
ENDBRANCH  20  21
ENDBRANCH  19  20
ENDBRANCH  18  19
ENDBRANCH  17  18
ENDBRANCH  16  17
ENDBRANCH  15  16
ENDBRANCH   1  15
TORSDOF 22
ENDMDL
MODEL 5
REMARK VINA RESULT:    -3.170      2.880      7.372
REMARK INTER + INTRA:         -11.425
REMARK INTER:                  -7.486
REMARK INTRA:                  -3.939
REMARK UNBOUND:                -4.179
REMARK SMILES CCCCCCCCCCCCCCCCCCCCCCCC(=O)[O-]
REMARK SMILES IDX 13 1 14 2 15 3 16 4 17 5 18 6 19 7 20 8 21 9 22 10 23 11
REMARK SMILES IDX 24 12 25 13 26 14 12 15 11 16 10 17 9 18 8 19 7 20 6 21 5 22
REMARK SMILES IDX 4 23 3 24 2 25 1 26
REMARK H PARENT
REMARK Flexibility Score: inf
ROOT
ATOM      1  C   UNL     1      49.167  31.209  86.737  1.00  0.00     0.000 C 
ENDROOT
BRANCH   1   2
ATOM      2  C   UNL     1      48.226  30.028  87.036  1.00  0.00     0.000 C 
BRANCH   2   3
ATOM      3  C   UNL     1      46.742  30.408  86.938  1.00  0.00     0.000 C 
BRANCH   3   4
ATOM      4  C   UNL     1      46.040  30.221  88.291  1.00  0.00     0.000 C 
BRANCH   4   5
ATOM      5  C   UNL     1      46.059  31.497  89.150  1.00  0.00     0.000 C 
BRANCH   5   6
ATOM      6  C   UNL     1      46.907  31.335  90.423  1.00  0.00     0.000 C 
BRANCH   6   7
ATOM      7  C   UNL     1      47.288  29.871  90.697  1.00  0.00     0.000 C 
BRANCH   7   8
ATOM      8  C   UNL     1      48.808  29.645  90.721  1.00  0.00     0.000 C 
BRANCH   8   9
ATOM      9  C   UNL     1      49.563  30.979  90.613  1.00  0.00     0.000 C 
BRANCH   9  10
ATOM     10  C   UNL     1      51.092  30.805  90.671  1.00  0.00     0.006 C 
BRANCH  10  11
ATOM     11  C   UNL     1      51.871  31.752  89.745  1.00  0.00     0.053 C 
BRANCH  11  12
ATOM     12  C   UNL     1      53.099  32.299  90.404  1.00  0.00     0.041 C 
ATOM     13  O   UNL     1      53.662  31.654  91.326  1.00  0.00    -0.550 OA
ATOM     14  O   UNL     1      53.633  33.511  89.985  1.00  0.00    -0.550 OA
ENDBRANCH  11  12
ENDBRANCH  10  11
ENDBRANCH   9  10
ENDBRANCH   8   9
ENDBRANCH   7   8
ENDBRANCH   6   7
ENDBRANCH   5   6
ENDBRANCH   4   5
ENDBRANCH   3   4
ENDBRANCH   2   3
ENDBRANCH   1   2
BRANCH   1  15
ATOM     15  C   UNL     1      48.461  32.549  86.443  1.00  0.00     0.000 C 
BRANCH  15  16
ATOM     16  C   UNL     1      48.634  33.627  87.528  1.00  0.00     0.000 C 
BRANCH  16  17
ATOM     17  C   UNL     1      48.800  35.040  86.941  1.00  0.00     0.000 C 
BRANCH  17  18
ATOM     18  C   UNL     1      50.219  35.600  87.134  1.00  0.00    -0.000 C 
BRANCH  18  19
ATOM     19  C   UNL     1      51.193  34.552  87.702  1.00  0.00    -0.000 C 
BRANCH  19  20
ATOM     20  C   UNL     1      52.124  33.957  86.631  1.00  0.00    -0.000 C 
BRANCH  20  21
ATOM     21  C   UNL     1      52.037  34.625  85.247  1.00  0.00    -0.000 C 
BRANCH  21  22
ATOM     22  C   UNL     1      51.221  33.803  84.235  1.00  0.00    -0.000 C 
BRANCH  22  23
ATOM     23  C   UNL     1      50.195  34.656  83.474  1.00  0.00    -0.000 C 
BRANCH  23  24
ATOM     24  C   UNL     1      48.947  33.852  83.069  1.00  0.00    -0.000 C 
BRANCH  24  25
ATOM     25  C   UNL     1      48.793  33.733  81.545  1.00  0.00    -0.003 C 
ATOM     26  C   UNL     1      49.694  34.706  80.783  1.00  0.00     0.004 C 
ENDBRANCH  24  25
ENDBRANCH  23  24
ENDBRANCH  22  23
ENDBRANCH  21  22
ENDBRANCH  20  21
ENDBRANCH  19  20
ENDBRANCH  18  19
ENDBRANCH  17  18
ENDBRANCH  16  17
ENDBRANCH  15  16
ENDBRANCH   1  15
TORSDOF 22
ENDMDL
MODEL 6
REMARK VINA RESULT:    -3.144      3.069      6.281
REMARK INTER + INTRA:         -11.366
REMARK INTER:                  -7.069
REMARK INTRA:                  -4.297
REMARK UNBOUND:                -4.179
REMARK SMILES CCCCCCCCCCCCCCCCCCCCCCCC(=O)[O-]
REMARK SMILES IDX 13 1 14 2 15 3 16 4 17 5 18 6 19 7 20 8 21 9 22 10 23 11
REMARK SMILES IDX 24 12 25 13 26 14 12 15 11 16 10 17 9 18 8 19 7 20 6 21 5 22
REMARK SMILES IDX 4 23 3 24 2 25 1 26
REMARK H PARENT
REMARK Flexibility Score: inf
ROOT
ATOM      1  C   UNL     1      51.650  30.794  86.601  1.00  0.00     0.000 C 
ENDROOT
BRANCH   1   2
ATOM      2  C   UNL     1      52.049  30.656  88.081  1.00  0.00     0.000 C 
BRANCH   2   3
ATOM      3  C   UNL     1      53.536  30.946  88.328  1.00  0.00     0.000 C 
BRANCH   3   4
ATOM      4  C   UNL     1      53.711  31.980  89.450  1.00  0.00     0.000 C 
BRANCH   4   5
ATOM      5  C   UNL     1      52.369  32.478  90.014  1.00  0.00     0.000 C 
BRANCH   5   6
ATOM      6  C   UNL     1      52.131  32.011  91.460  1.00  0.00     0.000 C 
BRANCH   6   7
ATOM      7  C   UNL     1      50.684  31.553  91.705  1.00  0.00     0.000 C 
BRANCH   7   8
ATOM      8  C   UNL     1      50.459  30.075  91.349  1.00  0.00     0.000 C 
BRANCH   8   9
ATOM      9  C   UNL     1      49.312  29.923  90.337  1.00  0.00     0.000 C 
BRANCH   9  10
ATOM     10  C   UNL     1      48.471  31.205  90.192  1.00  0.00     0.006 C 
BRANCH  10  11
ATOM     11  C   UNL     1      47.016  30.960  89.763  1.00  0.00     0.053 C 
BRANCH  11  12
ATOM     12  C   UNL     1      46.114  30.739  90.937  1.00  0.00     0.041 C 
ATOM     13  O   UNL     1      45.357  31.662  91.336  1.00  0.00    -0.550 OA
ATOM     14  O   UNL     1      46.093  29.506  91.577  1.00  0.00    -0.550 OA
ENDBRANCH  11  12
ENDBRANCH  10  11
ENDBRANCH   9  10
ENDBRANCH   8   9
ENDBRANCH   7   8
ENDBRANCH   6   7
ENDBRANCH   5   6
ENDBRANCH   4   5
ENDBRANCH   3   4
ENDBRANCH   2   3
ENDBRANCH   1   2
BRANCH   1  15
ATOM     15  C   UNL     1      50.276  31.450  86.352  1.00  0.00     0.000 C 
BRANCH  15  16
ATOM     16  C   UNL     1      49.976  32.683  87.223  1.00  0.00     0.000 C 
BRANCH  16  17
ATOM     17  C   UNL     1      48.807  33.523  86.681  1.00  0.00     0.000 C 
BRANCH  17  18
ATOM     18  C   UNL     1      49.275  34.697  85.804  1.00  0.00    -0.000 C 
BRANCH  18  19
ATOM     19  C   UNL     1      48.865  34.531  84.331  1.00  0.00    -0.000 C 
BRANCH  19  20
ATOM     20  C   UNL     1      50.059  34.612  83.363  1.00  0.00    -0.000 C 
BRANCH  20  21
ATOM     21  C   UNL     1      51.221  33.652  83.679  1.00  0.00    -0.000 C 
BRANCH  21  22
ATOM     22  C   UNL     1      52.506  34.386  84.099  1.00  0.00    -0.000 C 
BRANCH  22  23
ATOM     23  C   UNL     1      53.451  33.495  84.919  1.00  0.00    -0.000 C 
BRANCH  23  24
ATOM     24  C   UNL     1      53.721  34.060  86.324  1.00  0.00    -0.000 C 
BRANCH  24  25
ATOM     25  C   UNL     1      52.736  35.174  86.709  1.00  0.00    -0.003 C 
ATOM     26  C   UNL     1      53.174  35.945  87.954  1.00  0.00     0.004 C 
ENDBRANCH  24  25
ENDBRANCH  23  24
ENDBRANCH  22  23
ENDBRANCH  21  22
ENDBRANCH  20  21
ENDBRANCH  19  20
ENDBRANCH  18  19
ENDBRANCH  17  18
ENDBRANCH  16  17
ENDBRANCH  15  16
ENDBRANCH   1  15
TORSDOF 22
ENDMDL
MODEL 7
REMARK VINA RESULT:    -3.142      3.493      6.701
REMARK INTER + INTRA:         -11.362
REMARK INTER:                  -7.319
REMARK INTRA:                  -4.043
REMARK UNBOUND:                -4.179
REMARK SMILES CCCCCCCCCCCCCCCCCCCCCCCC(=O)[O-]
REMARK SMILES IDX 13 1 14 2 15 3 16 4 17 5 18 6 19 7 20 8 21 9 22 10 23 11
REMARK SMILES IDX 24 12 25 13 26 14 12 15 11 16 10 17 9 18 8 19 7 20 6 21 5 22
REMARK SMILES IDX 4 23 3 24 2 25 1 26
REMARK H PARENT
REMARK Flexibility Score: inf
ROOT
ATOM      1  C   UNL     1      48.624  33.947  87.067  1.00  0.00     0.000 C 
ENDROOT
BRANCH   1   2
ATOM      2  C   UNL     1      48.586  32.600  87.811  1.00  0.00     0.000 C 
BRANCH   2   3
ATOM      3  C   UNL     1      49.357  31.493  87.080  1.00  0.00     0.000 C 
BRANCH   3   4
ATOM      4  C   UNL     1      50.657  31.151  87.824  1.00  0.00     0.000 C 
BRANCH   4   5
ATOM      5  C   UNL     1      50.742  31.818  89.208  1.00  0.00     0.000 C 
BRANCH   5   6
ATOM      6  C   UNL     1      50.920  30.794  90.342  1.00  0.00     0.000 C 
BRANCH   6   7
ATOM      7  C   UNL     1      49.617  30.538  91.118  1.00  0.00     0.000 C 
BRANCH   7   8
ATOM      8  C   UNL     1      48.797  29.375  90.539  1.00  0.00     0.000 C 
BRANCH   8   9
ATOM      9  C   UNL     1      47.421  29.860  90.056  1.00  0.00     0.000 C 
BRANCH   9  10
ATOM     10  C   UNL     1      47.021  31.217  90.664  1.00  0.00     0.006 C 
BRANCH  10  11
ATOM     11  C   UNL     1      45.558  31.615  90.412  1.00  0.00     0.053 C 
BRANCH  11  12
ATOM     12  C   UNL     1      44.693  31.365  91.608  1.00  0.00     0.041 C 
ATOM     13  O   UNL     1      44.054  30.286  91.711  1.00  0.00    -0.550 OA
ATOM     14  O   UNL     1      44.610  32.315  92.618  1.00  0.00    -0.550 OA
ENDBRANCH  11  12
ENDBRANCH  10  11
ENDBRANCH   9  10
ENDBRANCH   8   9
ENDBRANCH   7   8
ENDBRANCH   6   7
ENDBRANCH   5   6
ENDBRANCH   4   5
ENDBRANCH   3   4
ENDBRANCH   2   3
ENDBRANCH   1   2
BRANCH   1  15
ATOM     15  C   UNL     1      49.679  34.045  85.946  1.00  0.00     0.000 C 
BRANCH  15  16
ATOM     16  C   UNL     1      50.799  35.070  86.195  1.00  0.00     0.000 C 
BRANCH  16  17
ATOM     17  C   UNL     1      51.456  34.909  87.578  1.00  0.00     0.000 C 
BRANCH  17  18
ATOM     18  C   UNL     1      52.634  35.875  87.792  1.00  0.00    -0.000 C 
BRANCH  18  19
ATOM     19  C   UNL     1      53.761  35.252  88.633  1.00  0.00    -0.000 C 
BRANCH  19  20
ATOM     20  C   UNL     1      53.653  33.720  88.738  1.00  0.00    -0.000 C 
BRANCH  20  21
ATOM     21  C   UNL     1      54.802  32.939  88.074  1.00  0.00    -0.000 C 
BRANCH  21  22
ATOM     22  C   UNL     1      54.332  32.071  86.894  1.00  0.00    -0.000 C 
BRANCH  22  23
ATOM     23  C   UNL     1      53.773  32.908  85.733  1.00  0.00    -0.000 C 
BRANCH  23  24
ATOM     24  C   UNL     1      52.757  32.128  84.881  1.00  0.00    -0.000 C 
BRANCH  24  25
ATOM     25  C   UNL     1      52.460  32.819  83.541  1.00  0.00    -0.003 C 
ATOM     26  C   UNL     1      53.224  34.132  83.371  1.00  0.00     0.004 C 
ENDBRANCH  24  25
ENDBRANCH  23  24
ENDBRANCH  22  23
ENDBRANCH  21  22
ENDBRANCH  20  21
ENDBRANCH  19  20
ENDBRANCH  18  19
ENDBRANCH  17  18
ENDBRANCH  16  17
ENDBRANCH  15  16
ENDBRANCH   1  15
TORSDOF 22
ENDMDL
MODEL 8
REMARK VINA RESULT:    -3.127      2.256      5.193
REMARK INTER + INTRA:         -11.329
REMARK INTER:                  -7.582
REMARK INTRA:                  -3.747
REMARK UNBOUND:                -4.179
REMARK SMILES CCCCCCCCCCCCCCCCCCCCCCCC(=O)[O-]
REMARK SMILES IDX 13 1 14 2 15 3 16 4 17 5 18 6 19 7 20 8 21 9 22 10 23 11
REMARK SMILES IDX 24 12 25 13 26 14 12 15 11 16 10 17 9 18 8 19 7 20 6 21 5 22
REMARK SMILES IDX 4 23 3 24 2 25 1 26
REMARK H PARENT
REMARK Flexibility Score: inf
ROOT
ATOM      1  C   UNL     1      48.566  34.041  87.483  1.00  0.00     0.000 C 
ENDROOT
BRANCH   1   2
ATOM      2  C   UNL     1      48.477  32.650  86.831  1.00  0.00     0.000 C 
BRANCH   2   3
ATOM      3  C   UNL     1      49.189  32.581  85.473  1.00  0.00     0.000 C 
BRANCH   3   4
ATOM      4  C   UNL     1      48.375  31.747  84.472  1.00  0.00     0.000 C 
BRANCH   4   5
ATOM      5  C   UNL     1      47.956  32.552  83.231  1.00  0.00     0.000 C 
BRANCH   5   6
ATOM      6  C   UNL     1      48.366  34.032  83.325  1.00  0.00     0.000 C 
BRANCH   6   7
ATOM      7  C   UNL     1      49.384  34.434  82.246  1.00  0.00     0.000 C 
BRANCH   7   8
ATOM      8  C   UNL     1      50.818  34.537  82.788  1.00  0.00     0.000 C 
BRANCH   8   9
ATOM      9  C   UNL     1      51.605  33.247  82.507  1.00  0.00     0.000 C 
BRANCH   9  10
ATOM     10  C   UNL     1      52.948  33.194  83.257  1.00  0.00     0.006 C 
BRANCH  10  11
ATOM     11  C   UNL     1      53.749  34.505  83.213  1.00  0.00     0.053 C 
BRANCH  11  12
ATOM     12  C   UNL     1      54.362  34.744  81.868  1.00  0.00     0.041 C 
ATOM     13  O   UNL     1      55.270  33.984  81.442  1.00  0.00    -0.550 OA
ATOM     14  O   UNL     1      53.916  35.795  81.076  1.00  0.00    -0.550 OA
ENDBRANCH  11  12
ENDBRANCH  10  11
ENDBRANCH   9  10
ENDBRANCH   8   9
ENDBRANCH   7   8
ENDBRANCH   6   7
ENDBRANCH   5   6
ENDBRANCH   4   5
ENDBRANCH   3   4
ENDBRANCH   2   3
ENDBRANCH   1   2
BRANCH   1  15
ATOM     15  C   UNL     1      49.404  35.076  86.703  1.00  0.00     0.000 C 
BRANCH  15  16
ATOM     16  C   UNL     1      50.779  35.396  87.317  1.00  0.00     0.000 C 
BRANCH  16  17
ATOM     17  C   UNL     1      51.948  34.980  86.406  1.00  0.00     0.000 C 
BRANCH  17  18
ATOM     18  C   UNL     1      52.746  33.792  86.970  1.00  0.00    -0.000 C 
BRANCH  18  19
ATOM     19  C   UNL     1      52.270  33.377  88.373  1.00  0.00    -0.000 C 
BRANCH  19  20
ATOM     20  C   UNL     1      51.684  31.955  88.410  1.00  0.00    -0.000 C 
BRANCH  20  21
ATOM     21  C   UNL     1      51.161  31.501  89.786  1.00  0.00    -0.000 C 
BRANCH  21  22
ATOM     22  C   UNL     1      49.875  30.663  89.692  1.00  0.00    -0.000 C 
BRANCH  22  23
ATOM     23  C   UNL     1      48.805  31.112  90.699  1.00  0.00    -0.000 C 
BRANCH  23  24
ATOM     24  C   UNL     1      47.427  30.494  90.408  1.00  0.00    -0.000 C 
BRANCH  24  25
ATOM     25  C   UNL     1      46.370  31.552  90.056  1.00  0.00    -0.003 C 
ATOM     26  C   UNL     1      45.099  31.419  90.895  1.00  0.00     0.004 C 
ENDBRANCH  24  25
ENDBRANCH  23  24
ENDBRANCH  22  23
ENDBRANCH  21  22
ENDBRANCH  20  21
ENDBRANCH  19  20
ENDBRANCH  18  19
ENDBRANCH  17  18
ENDBRANCH  16  17
ENDBRANCH  15  16
ENDBRANCH   1  15
TORSDOF 22
ENDMDL
MODEL 9
REMARK VINA RESULT:    -3.121      3.400      6.628
REMARK INTER + INTRA:         -11.314
REMARK INTER:                  -7.056
REMARK INTRA:                  -4.258
REMARK UNBOUND:                -4.179
REMARK SMILES CCCCCCCCCCCCCCCCCCCCCCCC(=O)[O-]
REMARK SMILES IDX 13 1 14 2 15 3 16 4 17 5 18 6 19 7 20 8 21 9 22 10 23 11
REMARK SMILES IDX 24 12 25 13 26 14 12 15 11 16 10 17 9 18 8 19 7 20 6 21 5 22
REMARK SMILES IDX 4 23 3 24 2 25 1 26
REMARK H PARENT
REMARK Flexibility Score: inf
ROOT
ATOM      1  C   UNL     1      51.191  34.779  87.482  1.00  0.00     0.000 C 
ENDROOT
BRANCH   1   2
ATOM      2  C   UNL     1      52.535  35.526  87.447  1.00  0.00     0.000 C 
BRANCH   2   3
ATOM      3  C   UNL     1      53.356  35.220  86.187  1.00  0.00     0.000 C 
BRANCH   3   4
ATOM      4  C   UNL     1      52.473  34.587  85.101  1.00  0.00     0.000 C 
BRANCH   4   5
ATOM      5  C   UNL     1      53.108  33.334  84.475  1.00  0.00     0.000 C 
BRANCH   5   6
ATOM      6  C   UNL     1      52.409  32.038  84.919  1.00  0.00     0.000 C 
BRANCH   6   7
ATOM      7  C   UNL     1      52.859  31.571  86.313  1.00  0.00     0.000 C 
BRANCH   7   8
ATOM      8  C   UNL     1      54.383  31.633  86.500  1.00  0.00     0.000 C 
BRANCH   8   9
ATOM      9  C   UNL     1      54.746  32.313  87.829  1.00  0.00     0.000 C 
BRANCH   9  10
ATOM     10  C   UNL     1      53.908  31.794  89.012  1.00  0.00     0.006 C 
BRANCH  10  11
ATOM     11  C   UNL     1      53.387  32.896  89.948  1.00  0.00     0.053 C 
BRANCH  11  12
ATOM     12  C   UNL     1      54.494  33.746  90.487  1.00  0.00     0.041 C 
ATOM     13  O   UNL     1      55.489  33.212  91.043  1.00  0.00    -0.550 OA
ATOM     14  O   UNL     1      54.438  35.128  90.357  1.00  0.00    -0.550 OA
ENDBRANCH  11  12
ENDBRANCH  10  11
ENDBRANCH   9  10
ENDBRANCH   8   9
ENDBRANCH   7   8
ENDBRANCH   6   7
ENDBRANCH   5   6
ENDBRANCH   4   5
ENDBRANCH   3   4
ENDBRANCH   2   3
ENDBRANCH   1   2
BRANCH   1  15
ATOM     15  C   UNL     1      49.940  35.682  87.471  1.00  0.00     0.000 C 
BRANCH  15  16
ATOM     16  C   UNL     1      48.670  35.028  86.900  1.00  0.00     0.000 C 
BRANCH  16  17
ATOM     17  C   UNL     1      48.880  33.550  86.524  1.00  0.00     0.000 C 
BRANCH  17  18
ATOM     18  C   UNL     1      48.916  33.324  85.003  1.00  0.00    -0.000 C 
BRANCH  18  19
ATOM     19  C   UNL     1      48.836  34.640  84.211  1.00  0.00    -0.000 C 
BRANCH  19  20
ATOM     20  C   UNL     1      48.970  34.434  82.692  1.00  0.00    -0.000 C 
BRANCH  20  21
ATOM     21  C   UNL     1      50.094  33.474  82.260  1.00  0.00    -0.000 C 
BRANCH  21  22
ATOM     22  C   UNL     1      51.100  34.124  81.295  1.00  0.00    -0.000 C 
BRANCH  22  23
ATOM     23  C   UNL     1      52.199  33.149  80.845  1.00  0.00    -0.000 C 
BRANCH  23  24
ATOM     24  C   UNL     1      53.456  33.874  80.336  1.00  0.00    -0.000 C 
BRANCH  24  25
ATOM     25  C   UNL     1      53.532  35.330  80.820  1.00  0.00    -0.003 C 
ATOM     26  C   UNL     1      54.568  35.532  81.925  1.00  0.00     0.004 C 
ENDBRANCH  24  25
ENDBRANCH  23  24
ENDBRANCH  22  23
ENDBRANCH  21  22
ENDBRANCH  20  21
ENDBRANCH  19  20
ENDBRANCH  18  19
ENDBRANCH  17  18
ENDBRANCH  16  17
ENDBRANCH  15  16
ENDBRANCH   1  15
TORSDOF 22
ENDMDL
