MODEL 1
REMARK VINA RESULT:    -2.100      0.000      0.000
REMARK INTER + INTRA:          -3.905
REMARK INTER:                  -3.573
REMARK INTRA:                  -0.332
REMARK UNBOUND:                -0.332
REMARK SMILES CCCCCCCCCCCCCC(=O)[O-]
REMARK SMILES IDX 8 1 9 2 10 3 11 4 12 5 13 6 14 7 15 8 16 9 7 10 6 11 5 12
REMARK SMILES IDX 4 13 3 14 2 15 1 16
REMARK H PARENT
REMARK Flexibility Score: inf
ROOT
ATOM      1  C   UNL     1      18.858  12.162 -14.114  1.00  0.00     0.000 C 
ENDROOT
BRANCH   1   2
ATOM      2  C   UNL     1      18.954  12.080 -15.645  1.00  0.00     0.000 C 
BRANCH   2   3
ATOM      3  C   UNL     1      20.173  11.257 -16.077  1.00  0.00     0.000 C 
BRANCH   3   4
ATOM      4  C   UNL     1      21.395  11.589 -15.207  1.00  0.00     0.000 C 
BRANCH   4   5
ATOM      5  C   UNL     1      22.124  12.859 -15.673  1.00  0.00     0.006 C 
BRANCH   5   6
ATOM      6  C   UNL     1      21.806  14.078 -14.796  1.00  0.00     0.053 C 
BRANCH   6   7
ATOM      7  C   UNL     1      21.175  15.160 -15.615  1.00  0.00     0.041 C 
ATOM      8  O   UNL     1      20.001  15.024 -16.048  1.00  0.00    -0.550 OA
ATOM      9  O   UNL     1      21.866  16.341 -15.856  1.00  0.00    -0.550 OA
ENDBRANCH   6   7
ENDBRANCH   5   6
ENDBRANCH   4   5
ENDBRANCH   3   4
ENDBRANCH   2   3
ENDBRANCH   1   2
BRANCH   1  10
ATOM     10  C   UNL     1      18.476  10.819 -13.463  1.00  0.00     0.000 C 
BRANCH  10  11
ATOM     11  C   UNL     1      17.768   9.823 -14.400  1.00  0.00    -0.000 C 
BRANCH  11  12
ATOM     12  C   UNL     1      17.275   8.563 -13.668  1.00  0.00    -0.000 C 
BRANCH  12  13
ATOM     13  C   UNL     1      16.104   7.875 -14.392  1.00  0.00    -0.000 C 
BRANCH  13  14
ATOM     14  C   UNL     1      14.806   8.705 -14.464  1.00  0.00    -0.000 C 
BRANCH  14  15
ATOM     15  C   UNL     1      13.521   7.887 -14.687  1.00  0.00    -0.003 C 
ATOM     16  C   UNL     1      12.920   8.090 -16.077  1.00  0.00     0.004 C 
ENDBRANCH  14  15
ENDBRANCH  13  14
ENDBRANCH  12  13
ENDBRANCH  11  12
ENDBRANCH  10  11
ENDBRANCH   1  10
TORSDOF 12
ENDMDL
MODEL 2
REMARK VINA RESULT:    -1.702      2.229      3.504
REMARK INTER + INTRA:          -3.228
REMARK INTER:                  -2.681
REMARK INTRA:                  -0.547
REMARK UNBOUND:                -0.332
REMARK SMILES CCCCCCCCCCCCCC(=O)[O-]
REMARK SMILES IDX 8 1 9 2 10 3 11 4 12 5 13 6 14 7 15 8 16 9 7 10 6 11 5 12
REMARK SMILES IDX 4 13 3 14 2 15 1 16
REMARK H PARENT
REMARK Flexibility Score: inf
ROOT
ATOM      1  C   UNL     1      18.778  11.930 -13.869  1.00  0.00     0.000 C 
ENDROOT
BRANCH   1   2
ATOM      2  C   UNL     1      18.437  12.026 -15.363  1.00  0.00     0.000 C 
BRANCH   2   3
ATOM      3  C   UNL     1      19.515  12.806 -16.124  1.00  0.00     0.000 C 
BRANCH   3   4
ATOM      4  C   UNL     1      19.499  14.291 -15.730  1.00  0.00     0.000 C 
BRANCH   4   5
ATOM      5  C   UNL     1      20.813  15.009 -16.078  1.00  0.00     0.006 C 
BRANCH   5   6
ATOM      6  C   UNL     1      22.044  14.114 -15.887  1.00  0.00     0.053 C 
BRANCH   6   7
ATOM      7  C   UNL     1      22.059  13.534 -14.508  1.00  0.00     0.041 C 
ATOM      8  O   UNL     1      22.057  12.285 -14.346  1.00  0.00    -0.550 OA
ATOM      9  O   UNL     1      22.125  14.372 -13.401  1.00  0.00    -0.550 OA
ENDBRANCH   6   7
ENDBRANCH   5   6
ENDBRANCH   4   5
ENDBRANCH   3   4
ENDBRANCH   2   3
ENDBRANCH   1   2
BRANCH   1  10
ATOM     10  C   UNL     1      17.958  10.854 -13.132  1.00  0.00     0.000 C 
BRANCH  10  11
ATOM     11  C   UNL     1      16.908  10.133 -13.998  1.00  0.00    -0.000 C 
BRANCH  11  12
ATOM     12  C   UNL     1      17.279   8.669 -14.289  1.00  0.00    -0.000 C 
BRANCH  12  13
ATOM     13  C   UNL     1      17.620   8.425 -15.771  1.00  0.00    -0.000 C 
BRANCH  13  14
ATOM     14  C   UNL     1      19.122   8.241 -16.070  1.00  0.00    -0.000 C 
BRANCH  14  15
ATOM     15  C   UNL     1      20.070   9.054 -15.171  1.00  0.00    -0.003 C 
ATOM     16  C   UNL     1      21.327   9.524 -15.902  1.00  0.00     0.004 C 
ENDBRANCH  14  15
ENDBRANCH  13  14
ENDBRANCH  12  13
ENDBRANCH  11  12
ENDBRANCH  10  11
ENDBRANCH   1  10
TORSDOF 12
ENDMDL
MODEL 3
REMARK VINA RESULT:    -1.537      3.830      6.988
REMARK INTER + INTRA:          -2.947
REMARK INTER:                  -3.363
REMARK INTRA:                   0.416
REMARK UNBOUND:                -0.332
REMARK SMILES CCCCCCCCCCCCCC(=O)[O-]
REMARK SMILES IDX 8 1 9 2 10 3 11 4 12 5 13 6 14 7 15 8 16 9 7 10 6 11 5 12
REMARK SMILES IDX 4 13 3 14 2 15 1 16
REMARK H PARENT
REMARK Flexibility Score: inf
ROOT
ATOM      1  C   UNL     1      18.471  12.695 -15.741  1.00  0.00     0.000 C 
ENDROOT
BRANCH   1   2
ATOM      2  C   UNL     1      18.461  12.069 -14.338  1.00  0.00     0.000 C 
BRANCH   2   3
ATOM      3  C   UNL     1      18.553  10.541 -14.417  1.00  0.00     0.000 C 
BRANCH   3   4
ATOM      4  C   UNL     1      17.216   9.890 -14.035  1.00  0.00     0.000 C 
BRANCH   4   5
ATOM      5  C   UNL     1      17.228   8.364 -14.218  1.00  0.00     0.006 C 
BRANCH   5   6
ATOM      6  C   UNL     1      16.187   7.882 -15.237  1.00  0.00     0.053 C 
BRANCH   6   7
ATOM      7  C   UNL     1      14.813   7.946 -14.650  1.00  0.00     0.041 C 
ATOM      8  O   UNL     1      14.655   7.912 -13.402  1.00  0.00    -0.550 OA
ATOM      9  O   UNL     1      13.708   8.093 -15.480  1.00  0.00    -0.550 OA
ENDBRANCH   6   7
ENDBRANCH   5   6
ENDBRANCH   4   5
ENDBRANCH   3   4
ENDBRANCH   2   3
ENDBRANCH   1   2
BRANCH   1  10
ATOM     10  C   UNL     1      19.654  13.655 -15.963  1.00  0.00     0.000 C 
BRANCH  10  11
ATOM     11  C   UNL     1      20.548  13.878 -14.729  1.00  0.00    -0.000 C 
BRANCH  11  12
ATOM     12  C   UNL     1      21.882  13.117 -14.814  1.00  0.00    -0.000 C 
BRANCH  12  13
ATOM     13  C   UNL     1      22.002  12.268 -16.093  1.00  0.00    -0.000 C 
BRANCH  13  14
ATOM     14  C   UNL     1      22.124  10.749 -15.856  1.00  0.00    -0.000 C 
BRANCH  14  15
ATOM     15  C   UNL     1      20.821  10.049 -15.431  1.00  0.00    -0.003 C 
ATOM     16  C   UNL     1      20.614   8.703 -16.125  1.00  0.00     0.004 C 
ENDBRANCH  14  15
ENDBRANCH  13  14
ENDBRANCH  12  13
ENDBRANCH  11  12
ENDBRANCH  10  11
ENDBRANCH   1  10
TORSDOF 12
ENDMDL
MODEL 4
REMARK VINA RESULT:    -1.038      2.062      5.883
REMARK INTER + INTRA:          -2.098
REMARK INTER:                  -2.754
REMARK INTRA:                   0.656
REMARK UNBOUND:                -0.332
REMARK SMILES CCCCCCCCCCCCCC(=O)[O-]
REMARK SMILES IDX 8 1 9 2 10 3 11 4 12 5 13 6 14 7 15 8 16 9 7 10 6 11 5 12
REMARK SMILES IDX 4 13 3 14 2 15 1 16
REMARK H PARENT
REMARK Flexibility Score: inf
ROOT
ATOM      1  C   UNL     1      18.801   9.057 -15.949  1.00  0.00     0.000 C 
ENDROOT
BRANCH   1   2
ATOM      2  C   UNL     1      17.500   8.328 -15.582  1.00  0.00     0.000 C 
BRANCH   2   3
ATOM      3  C   UNL     1      17.109   8.601 -14.125  1.00  0.00     0.000 C 
BRANCH   3   4
ATOM      4  C   UNL     1      17.117  10.108 -13.827  1.00  0.00     0.000 C 
BRANCH   4   5
ATOM      5  C   UNL     1      18.533  10.657 -13.597  1.00  0.00     0.006 C 
BRANCH   5   6
ATOM      6  C   UNL     1      18.619  12.175 -13.802  1.00  0.00     0.053 C 
BRANCH   6   7
ATOM      7  C   UNL     1      18.710  12.500 -15.260  1.00  0.00     0.041 C 
ATOM      8  O   UNL     1      18.148  11.761 -16.110  1.00  0.00    -0.550 OA
ATOM      9  O   UNL     1      19.374  13.648 -15.676  1.00  0.00    -0.550 OA
ENDBRANCH   6   7
ENDBRANCH   5   6
ENDBRANCH   4   5
ENDBRANCH   3   4
ENDBRANCH   2   3
ENDBRANCH   1   2
BRANCH   1  10
ATOM     10  C   UNL     1      19.997   8.102 -16.120  1.00  0.00     0.000 C 
BRANCH  10  11
ATOM     11  C   UNL     1      21.380   8.777 -16.059  1.00  0.00    -0.000 C 
BRANCH  11  12
ATOM     12  C   UNL     1      21.298  10.312 -16.116  1.00  0.00    -0.000 C 
BRANCH  12  13
ATOM     13  C   UNL     1      21.950  10.988 -14.896  1.00  0.00    -0.000 C 
BRANCH  13  14
ATOM     14  C   UNL     1      22.125  12.516 -15.015  1.00  0.00    -0.000 C 
BRANCH  14  15
ATOM     15  C   UNL     1      22.008  13.290 -13.690  1.00  0.00    -0.003 C 
ATOM     16  C   UNL     1      21.910  14.802 -13.890  1.00  0.00     0.004 C 
ENDBRANCH  14  15
ENDBRANCH  13  14
ENDBRANCH  12  13
ENDBRANCH  11  12
ENDBRANCH  10  11
ENDBRANCH   1  10
TORSDOF 12
ENDMDL
MODEL 5
REMARK VINA RESULT:    -0.302      3.088      6.229
REMARK INTER + INTRA:          -0.846
REMARK INTER:                  -0.480
REMARK INTRA:                  -0.366
REMARK UNBOUND:                -0.332
REMARK SMILES CCCCCCCCCCCCCC(=O)[O-]
REMARK SMILES IDX 8 1 9 2 10 3 11 4 12 5 13 6 14 7 15 8 16 9 7 10 6 11 5 12
REMARK SMILES IDX 4 13 3 14 2 15 1 16
REMARK H PARENT
REMARK Flexibility Score: inf
ROOT
ATOM      1  C   UNL     1      19.417   9.063 -16.048  1.00  0.00     0.000 C 
ENDROOT
BRANCH   1   2
ATOM      2  C   UNL     1      18.367   7.945 -16.122  1.00  0.00     0.000 C 
BRANCH   2   3
ATOM      3  C   UNL     1      17.357   8.061 -14.974  1.00  0.00     0.000 C 
BRANCH   3   4
ATOM      4  C   UNL     1      17.138   9.531 -14.584  1.00  0.00     0.000 C 
BRANCH   4   5
ATOM      5  C   UNL     1      18.108  10.002 -13.489  1.00  0.00     0.006 C 
BRANCH   5   6
ATOM      6  C   UNL     1      18.078  11.523 -13.288  1.00  0.00     0.053 C 
BRANCH   6   7
ATOM      7  C   UNL     1      16.825  11.931 -12.579  1.00  0.00     0.041 C 
ATOM      8  O   UNL     1      16.883  12.686 -11.573  1.00  0.00    -0.550 OA
ATOM      9  O   UNL     1      15.588  11.517 -13.059  1.00  0.00    -0.550 OA
ENDBRANCH   6   7
ENDBRANCH   5   6
ENDBRANCH   4   5
ENDBRANCH   3   4
ENDBRANCH   2   3
ENDBRANCH   1   2
BRANCH   1  10
ATOM     10  C   UNL     1      20.863   8.535 -16.091  1.00  0.00     0.000 C 
BRANCH  10  11
ATOM     11  C   UNL     1      21.953   9.622 -16.057  1.00  0.00    -0.000 C 
BRANCH  11  12
ATOM     12  C   UNL     1      21.377  11.039 -15.888  1.00  0.00    -0.000 C 
BRANCH  12  13
ATOM     13  C   UNL     1      21.773  11.686 -14.548  1.00  0.00    -0.000 C 
BRANCH  13  14
ATOM     14  C   UNL     1      21.147  13.070 -14.283  1.00  0.00    -0.000 C 
BRANCH  14  15
ATOM     15  C   UNL     1      21.098  14.007 -15.503  1.00  0.00    -0.003 C 
ATOM     16  C   UNL     1      19.676  14.266 -15.999  1.00  0.00     0.004 C 
ENDBRANCH  14  15
ENDBRANCH  13  14
ENDBRANCH  12  13
ENDBRANCH  11  12
ENDBRANCH  10  11
ENDBRANCH   1  10
TORSDOF 12
ENDMDL
MODEL 6
REMARK VINA RESULT:    -0.152      1.763      3.069
REMARK INTER + INTRA:          -0.591
REMARK INTER:                  -0.943
REMARK INTRA:                   0.352
REMARK UNBOUND:                -0.332
REMARK SMILES CCCCCCCCCCCCCC(=O)[O-]
REMARK SMILES IDX 8 1 9 2 10 3 11 4 12 5 13 6 14 7 15 8 16 9 7 10 6 11 5 12
REMARK SMILES IDX 4 13 3 14 2 15 1 16
REMARK H PARENT
REMARK Flexibility Score: inf
ROOT
ATOM      1  C   UNL     1      19.089   9.817 -16.125  1.00  0.00     0.000 C 
ENDROOT
BRANCH   1   2
ATOM      2  C   UNL     1      19.852  10.718 -15.142  1.00  0.00     0.000 C 
BRANCH   2   3
ATOM      3  C   UNL     1      21.367  10.526 -15.283  1.00  0.00     0.000 C 
BRANCH   3   4
ATOM      4  C   UNL     1      22.125  11.361 -14.239  1.00  0.00     0.000 C 
BRANCH   4   5
ATOM      5  C   UNL     1      21.743  12.848 -14.284  1.00  0.00     0.006 C 
BRANCH   5   6
ATOM      6  C   UNL     1      21.842  13.443 -15.695  1.00  0.00     0.053 C 
BRANCH   6   7
ATOM      7  C   UNL     1      20.918  14.610 -15.836  1.00  0.00     0.041 C 
ATOM      8  O   UNL     1      19.671  14.435 -15.840  1.00  0.00    -0.550 OA
ATOM      9  O   UNL     1      21.431  15.899 -15.911  1.00  0.00    -0.550 OA
ENDBRANCH   6   7
ENDBRANCH   5   6
ENDBRANCH   4   5
ENDBRANCH   3   4
ENDBRANCH   2   3
ENDBRANCH   1   2
BRANCH   1  10
ATOM     10  C   UNL     1      18.782   8.423 -15.548  1.00  0.00     0.000 C 
BRANCH  10  11
ATOM     11  C   UNL     1      17.286   8.121 -15.343  1.00  0.00    -0.000 C 
BRANCH  11  12
ATOM     12  C   UNL     1      16.749   8.648 -14.001  1.00  0.00    -0.000 C 
BRANCH  12  13
ATOM     13  C   UNL     1      16.840  10.181 -13.884  1.00  0.00    -0.000 C 
BRANCH  13  14
ATOM     14  C   UNL     1      17.976  10.698 -12.979  1.00  0.00    -0.000 C 
BRANCH  14  15
ATOM     15  C   UNL     1      17.854  12.174 -12.560  1.00  0.00    -0.003 C 
ATOM     16  C   UNL     1      16.568  12.469 -11.788  1.00  0.00     0.004 C 
ENDBRANCH  14  15
ENDBRANCH  13  14
ENDBRANCH  12  13
ENDBRANCH  11  12
ENDBRANCH  10  11
ENDBRANCH   1  10
TORSDOF 12
ENDMDL
