MODEL 1
REMARK VINA RESULT:     1.238      0.000      0.000
REMARK INTER + INTRA:           1.903
REMARK INTER:                   3.119
REMARK INTRA:                  -1.215
REMARK UNBOUND:                -1.215
REMARK SMILES CCCCCCCCCCCCCCCCCCCCCCCCCCCC(=O)[O-]
REMARK SMILES IDX 15 1 16 2 17 3 18 4 19 5 20 6 21 7 22 8 23 9 24 10 25 11
REMARK SMILES IDX 26 12 27 13 28 14 29 15 30 16 14 17 13 18 12 19 11 20 10 21
REMARK SMILES IDX 9 22 8 23 7 24 6 25 5 26 4 27 3 28 2 29 1 30
REMARK H PARENT
REMARK Flexibility Score: inf
ROOT
ATOM      1  C   UNL     1      -5.148  34.728  23.983  1.00  0.00     0.000 C 
ENDROOT
BRANCH   1   2
ATOM      2  C   UNL     1      -6.090  35.699  24.711  1.00  0.00     0.000 C 
BRANCH   2   3
ATOM      3  C   UNL     1      -5.338  36.801  25.477  1.00  0.00     0.000 C 
BRANCH   3   4
ATOM      4  C   UNL     1      -4.973  37.991  24.577  1.00  0.00     0.000 C 
BRANCH   4   5
ATOM      5  C   UNL     1      -5.380  39.343  25.190  1.00  0.00     0.000 C 
BRANCH   5   6
ATOM      6  C   UNL     1      -5.375  40.479  24.154  1.00  0.00     0.000 C 
BRANCH   6   7
ATOM      7  C   UNL     1      -5.806  39.997  22.756  1.00  0.00     0.000 C 
BRANCH   7   8
ATOM      8  C   UNL     1      -5.699  41.101  21.693  1.00  0.00     0.000 C 
BRANCH   8   9
ATOM      9  C   UNL     1      -5.753  40.554  20.256  1.00  0.00     0.000 C 
BRANCH   9  10
ATOM     10  C   UNL     1      -5.628  39.016  20.214  1.00  0.00     0.000 C 
BRANCH  10  11
ATOM     11  C   UNL     1      -4.253  38.491  20.670  1.00  0.00     0.000 C 
BRANCH  11  12
ATOM     12  C   UNL     1      -3.126  38.619  19.627  1.00  0.00     0.006 C 
BRANCH  12  13
ATOM     13  C   UNL     1      -1.829  37.886  20.004  1.00  0.00     0.053 C 
BRANCH  13  14
ATOM     14  C   UNL     1      -0.759  38.079  18.973  1.00  0.00     0.041 C 
ATOM     15  O   UNL     1      -1.067  38.394  17.793  1.00  0.00    -0.550 OA
ATOM     16  O   UNL     1       0.574  37.872  19.304  1.00  0.00    -0.550 OA
ENDBRANCH  13  14
ENDBRANCH  12  13
ENDBRANCH  11  12
ENDBRANCH  10  11
ENDBRANCH   9  10
ENDBRANCH   8   9
ENDBRANCH   7   8
ENDBRANCH   6   7
ENDBRANCH   5   6
ENDBRANCH   4   5
ENDBRANCH   3   4
ENDBRANCH   2   3
ENDBRANCH   1   2
BRANCH   1  17
ATOM     17  C   UNL     1      -4.416  35.379  22.799  1.00  0.00     0.000 C 
BRANCH  17  18
ATOM     18  C   UNL     1      -4.731  34.649  21.486  1.00  0.00     0.000 C 
BRANCH  18  19
ATOM     19  C   UNL     1      -6.027  35.153  20.818  1.00  0.00     0.000 C 
BRANCH  19  20
ATOM     20  C   UNL     1      -5.812  35.931  19.499  1.00  0.00     0.000 C 
BRANCH  20  21
ATOM     21  C   UNL     1      -5.292  35.063  18.336  1.00  0.00     0.000 C 
BRANCH  21  22
ATOM     22  C   UNL     1      -3.863  35.441  17.910  1.00  0.00    -0.000 C 
BRANCH  22  23
ATOM     23  C   UNL     1      -3.827  36.732  17.074  1.00  0.00    -0.000 C 
BRANCH  23  24
ATOM     24  C   UNL     1      -2.569  36.812  16.189  1.00  0.00    -0.000 C 
BRANCH  24  25
ATOM     25  C   UNL     1      -2.893  37.094  14.711  1.00  0.00    -0.000 C 
BRANCH  25  26
ATOM     26  C   UNL     1      -4.230  37.821  14.465  1.00  0.00    -0.000 C 
BRANCH  26  27
ATOM     27  C   UNL     1      -4.105  39.240  13.875  1.00  0.00    -0.000 C 
BRANCH  27  28
ATOM     28  C   UNL     1      -5.043  40.293  14.500  1.00  0.00    -0.000 C 
BRANCH  28  29
ATOM     29  C   UNL     1      -4.692  41.753  14.158  1.00  0.00    -0.003 C 
ATOM     30  C   UNL     1      -5.724  42.749  14.684  1.00  0.00     0.004 C 
ENDBRANCH  28  29
ENDBRANCH  27  28
ENDBRANCH  26  27
ENDBRANCH  25  26
ENDBRANCH  24  25
ENDBRANCH  23  24
ENDBRANCH  22  23
ENDBRANCH  21  22
ENDBRANCH  20  21
ENDBRANCH  19  20
ENDBRANCH  18  19
ENDBRANCH  17  18
ENDBRANCH   1  17
TORSDOF 26
ENDMDL
MODEL 2
REMARK VINA RESULT:     2.848      1.825      6.089
REMARK INTER + INTRA:           5.961
REMARK INTER:                   5.821
REMARK INTRA:                   0.140
REMARK UNBOUND:                -1.215
REMARK SMILES CCCCCCCCCCCCCCCCCCCCCCCCCCCC(=O)[O-]
REMARK SMILES IDX 15 1 16 2 17 3 18 4 19 5 20 6 21 7 22 8 23 9 24 10 25 11
REMARK SMILES IDX 26 12 27 13 28 14 29 15 30 16 14 17 13 18 12 19 11 20 10 21
REMARK SMILES IDX 9 22 8 23 7 24 6 25 5 26 4 27 3 28 2 29 1 30
REMARK H PARENT
REMARK Flexibility Score: inf
ROOT
ATOM      1  C   UNL     1      -5.519  36.388  23.635  1.00  0.00     0.000 C 
ENDROOT
BRANCH   1   2
ATOM      2  C   UNL     1      -5.528  34.872  23.887  1.00  0.00     0.000 C 
BRANCH   2   3
ATOM      3  C   UNL     1      -5.256  34.052  22.615  1.00  0.00     0.000 C 
BRANCH   3   4
ATOM      4  C   UNL     1      -6.099  34.529  21.423  1.00  0.00     0.000 C 
BRANCH   4   5
ATOM      5  C   UNL     1      -5.528  35.798  20.765  1.00  0.00     0.000 C 
BRANCH   5   6
ATOM      6  C   UNL     1      -6.123  36.050  19.370  1.00  0.00     0.000 C 
BRANCH   6   7
ATOM      7  C   UNL     1      -5.619  35.036  18.326  1.00  0.00     0.000 C 
BRANCH   7   8
ATOM      8  C   UNL     1      -4.099  35.108  18.120  1.00  0.00     0.000 C 
BRANCH   8   9
ATOM      9  C   UNL     1      -3.702  35.928  16.879  1.00  0.00     0.000 C 
BRANCH   9  10
ATOM     10  C   UNL     1      -2.259  35.631  16.423  1.00  0.00     0.000 C 
BRANCH  10  11
ATOM     11  C   UNL     1      -1.592  36.799  15.669  1.00  0.00     0.000 C 
BRANCH  11  12
ATOM     12  C   UNL     1      -1.967  36.914  14.180  1.00  0.00     0.006 C 
BRANCH  12  13
ATOM     13  C   UNL     1      -3.440  37.273  13.925  1.00  0.00     0.053 C 
BRANCH  13  14
ATOM     14  C   UNL     1      -3.821  38.564  14.584  1.00  0.00     0.041 C 
ATOM     15  O   UNL     1      -3.386  38.840  15.733  1.00  0.00    -0.550 OA
ATOM     16  O   UNL     1      -4.687  39.443  13.947  1.00  0.00    -0.550 OA
ENDBRANCH  13  14
ENDBRANCH  12  13
ENDBRANCH  11  12
ENDBRANCH  10  11
ENDBRANCH   9  10
ENDBRANCH   8   9
ENDBRANCH   7   8
ENDBRANCH   6   7
ENDBRANCH   5   6
ENDBRANCH   4   5
ENDBRANCH   3   4
ENDBRANCH   2   3
ENDBRANCH   1   2
BRANCH   1  17
ATOM     17  C   UNL     1      -6.066  37.196  24.823  1.00  0.00     0.000 C 
BRANCH  17  18
ATOM     18  C   UNL     1      -4.959  37.500  25.842  1.00  0.00     0.000 C 
BRANCH  18  19
ATOM     19  C   UNL     1      -4.894  38.992  26.226  1.00  0.00     0.000 C 
BRANCH  19  20
ATOM     20  C   UNL     1      -4.199  39.896  25.182  1.00  0.00     0.000 C 
BRANCH  20  21
ATOM     21  C   UNL     1      -5.128  40.946  24.542  1.00  0.00     0.000 C 
BRANCH  21  22
ATOM     22  C   UNL     1      -6.079  40.336  23.498  1.00  0.00    -0.000 C 
BRANCH  22  23
ATOM     23  C   UNL     1      -5.558  40.515  22.062  1.00  0.00    -0.000 C 
BRANCH  23  24
ATOM     24  C   UNL     1      -5.778  39.253  21.206  1.00  0.00    -0.000 C 
BRANCH  24  25
ATOM     25  C   UNL     1      -4.890  39.217  19.951  1.00  0.00    -0.000 C 
BRANCH  25  26
ATOM     26  C   UNL     1      -3.984  37.975  19.830  1.00  0.00    -0.000 C 
BRANCH  26  27
ATOM     27  C   UNL     1      -2.473  38.252  19.955  1.00  0.00    -0.000 C 
BRANCH  27  28
ATOM     28  C   UNL     1      -1.749  38.543  18.624  1.00  0.00    -0.000 C 
BRANCH  28  29
ATOM     29  C   UNL     1      -0.220  38.685  18.740  1.00  0.00    -0.003 C 
ATOM     30  C   UNL     1       0.527  37.425  18.305  1.00  0.00     0.004 C 
ENDBRANCH  28  29
ENDBRANCH  27  28
ENDBRANCH  26  27
ENDBRANCH  25  26
ENDBRANCH  24  25
ENDBRANCH  23  24
ENDBRANCH  22  23
ENDBRANCH  21  22
ENDBRANCH  20  21
ENDBRANCH  19  20
ENDBRANCH  18  19
ENDBRANCH  17  18
ENDBRANCH   1  17
TORSDOF 26
ENDMDL
MODEL 3
REMARK VINA RESULT:     2.892      1.978      7.147
REMARK INTER + INTRA:           6.073
REMARK INTER:                   4.221
REMARK INTRA:                   1.852
REMARK UNBOUND:                -1.215
REMARK SMILES CCCCCCCCCCCCCCCCCCCCCCCCCCCC(=O)[O-]
REMARK SMILES IDX 15 1 16 2 17 3 18 4 19 5 20 6 21 7 22 8 23 9 24 10 25 11
REMARK SMILES IDX 26 12 27 13 28 14 29 15 30 16 14 17 13 18 12 19 11 20 10 21
REMARK SMILES IDX 9 22 8 23 7 24 6 25 5 26 4 27 3 28 2 29 1 30
REMARK H PARENT
REMARK Flexibility Score: inf
ROOT
ATOM      1  C   UNL     1      -5.876  37.062  21.073  1.00  0.00     0.000 C 
ENDROOT
BRANCH   1   2
ATOM      2  C   UNL     1      -5.246  38.464  21.049  1.00  0.00     0.000 C 
BRANCH   2   3
ATOM      3  C   UNL     1      -4.964  38.968  19.623  1.00  0.00     0.000 C 
BRANCH   3   4
ATOM      4  C   UNL     1      -4.329  37.886  18.737  1.00  0.00     0.000 C 
BRANCH   4   5
ATOM      5  C   UNL     1      -3.191  37.132  19.448  1.00  0.00     0.000 C 
BRANCH   5   6
ATOM      6  C   UNL     1      -1.945  38.010  19.645  1.00  0.00     0.000 C 
BRANCH   6   7
ATOM      7  C   UNL     1      -1.347  38.487  18.308  1.00  0.00     0.000 C 
BRANCH   7   8
ATOM      8  C   UNL     1      -0.347  37.483  17.717  1.00  0.00     0.000 C 
BRANCH   8   9
ATOM      9  C   UNL     1      -0.993  36.523  16.703  1.00  0.00     0.000 C 
BRANCH   9  10
ATOM     10  C   UNL     1      -1.041  37.124  15.282  1.00  0.00     0.000 C 
BRANCH  10  11
ATOM     11  C   UNL     1      -2.063  36.440  14.352  1.00  0.00     0.000 C 
BRANCH  11  12
ATOM     12  C   UNL     1      -3.540  36.646  14.740  1.00  0.00     0.006 C 
BRANCH  12  13
ATOM     13  C   UNL     1      -4.281  37.681  13.878  1.00  0.00     0.053 C 
BRANCH  13  14
ATOM     14  C   UNL     1      -4.074  39.077  14.383  1.00  0.00     0.041 C 
ATOM     15  O   UNL     1      -3.139  39.326  15.189  1.00  0.00    -0.550 OA
ATOM     16  O   UNL     1      -4.938  40.093  13.996  1.00  0.00    -0.550 OA
ENDBRANCH  13  14
ENDBRANCH  12  13
ENDBRANCH  11  12
ENDBRANCH  10  11
ENDBRANCH   9  10
ENDBRANCH   8   9
ENDBRANCH   7   8
ENDBRANCH   6   7
ENDBRANCH   5   6
ENDBRANCH   4   5
ENDBRANCH   3   4
ENDBRANCH   2   3
ENDBRANCH   1   2
BRANCH   1  17
ATOM     17  C   UNL     1      -4.873  35.962  21.452  1.00  0.00     0.000 C 
BRANCH  17  18
ATOM     18  C   UNL     1      -4.823  35.759  22.973  1.00  0.00     0.000 C 
BRANCH  18  19
ATOM     19  C   UNL     1      -6.065  35.028  23.520  1.00  0.00     0.000 C 
BRANCH  19  20
ATOM     20  C   UNL     1      -5.978  34.639  25.014  1.00  0.00     0.000 C 
BRANCH  20  21
ATOM     21  C   UNL     1      -6.121  35.829  25.983  1.00  0.00     0.000 C 
BRANCH  21  22
ATOM     22  C   UNL     1      -4.952  36.824  25.873  1.00  0.00    -0.000 C 
BRANCH  22  23
ATOM     23  C   UNL     1      -5.436  38.271  25.677  1.00  0.00    -0.000 C 
BRANCH  23  24
ATOM     24  C   UNL     1      -5.556  38.642  24.187  1.00  0.00    -0.000 C 
BRANCH  24  25
ATOM     25  C   UNL     1      -5.503  40.161  23.942  1.00  0.00    -0.000 C 
BRANCH  25  26
ATOM     26  C   UNL     1      -5.859  40.601  22.507  1.00  0.00    -0.000 C 
BRANCH  26  27
ATOM     27  C   UNL     1      -6.113  42.111  22.330  1.00  0.00    -0.000 C 
BRANCH  27  28
ATOM     28  C   UNL     1      -5.411  43.018  23.361  1.00  0.00    -0.000 C 
BRANCH  28  29
ATOM     29  C   UNL     1      -6.125  43.121  24.722  1.00  0.00    -0.003 C 
ATOM     30  C   UNL     1      -5.431  42.314  25.818  1.00  0.00     0.004 C 
ENDBRANCH  28  29
ENDBRANCH  27  28
ENDBRANCH  26  27
ENDBRANCH  25  26
ENDBRANCH  24  25
ENDBRANCH  23  24
ENDBRANCH  22  23
ENDBRANCH  21  22
ENDBRANCH  20  21
ENDBRANCH  19  20
ENDBRANCH  18  19
ENDBRANCH  17  18
ENDBRANCH   1  17
TORSDOF 26
ENDMDL
MODEL 4
REMARK VINA RESULT:     3.126      1.098      2.614
REMARK INTER + INTRA:           6.662
REMARK INTER:                   7.134
REMARK INTRA:                  -0.473
REMARK UNBOUND:                -1.215
REMARK SMILES CCCCCCCCCCCCCCCCCCCCCCCCCCCC(=O)[O-]
REMARK SMILES IDX 15 1 16 2 17 3 18 4 19 5 20 6 21 7 22 8 23 9 24 10 25 11
REMARK SMILES IDX 26 12 27 13 28 14 29 15 30 16 14 17 13 18 12 19 11 20 10 21
REMARK SMILES IDX 9 22 8 23 7 24 6 25 5 26 4 27 3 28 2 29 1 30
REMARK H PARENT
REMARK Flexibility Score: inf
ROOT
ATOM      1  C   UNL     1      -5.137  38.234  24.485  1.00  0.00     0.000 C 
ENDROOT
BRANCH   1   2
ATOM      2  C   UNL     1      -4.717  39.672  24.146  1.00  0.00     0.000 C 
BRANCH   2   3
ATOM      3  C   UNL     1      -5.727  40.722  24.639  1.00  0.00     0.000 C 
BRANCH   3   4
ATOM      4  C   UNL     1      -6.049  41.770  23.563  1.00  0.00     0.000 C 
BRANCH   4   5
ATOM      5  C   UNL     1      -5.404  41.441  22.205  1.00  0.00     0.000 C 
BRANCH   5   6
ATOM      6  C   UNL     1      -5.723  40.011  21.739  1.00  0.00     0.000 C 
BRANCH   6   7
ATOM      7  C   UNL     1      -5.766  39.890  20.204  1.00  0.00     0.000 C 
BRANCH   7   8
ATOM      8  C   UNL     1      -4.740  38.884  19.662  1.00  0.00     0.000 C 
BRANCH   8   9
ATOM      9  C   UNL     1      -3.664  38.511  20.697  1.00  0.00     0.000 C 
BRANCH   9  10
ATOM     10  C   UNL     1      -3.071  37.110  20.440  1.00  0.00     0.000 C 
BRANCH  10  11
ATOM     11  C   UNL     1      -1.764  36.837  21.211  1.00  0.00     0.000 C 
BRANCH  11  12
ATOM     12  C   UNL     1      -0.489  37.404  20.558  1.00  0.00     0.006 C 
BRANCH  12  13
ATOM     13  C   UNL     1      -0.499  37.371  19.021  1.00  0.00     0.053 C 
BRANCH  13  14
ATOM     14  C   UNL     1      -0.366  38.743  18.434  1.00  0.00     0.041 C 
ATOM     15  O   UNL     1       0.735  39.122  17.954  1.00  0.00    -0.550 OA
ATOM     16  O   UNL     1      -1.446  39.617  18.453  1.00  0.00    -0.550 OA
ENDBRANCH  13  14
ENDBRANCH  12  13
ENDBRANCH  11  12
ENDBRANCH  10  11
ENDBRANCH   9  10
ENDBRANCH   8   9
ENDBRANCH   7   8
ENDBRANCH   6   7
ENDBRANCH   5   6
ENDBRANCH   4   5
ENDBRANCH   3   4
ENDBRANCH   2   3
ENDBRANCH   1   2
BRANCH   1  17
ATOM     17  C   UNL     1      -5.715  37.479  23.278  1.00  0.00     0.000 C 
BRANCH  17  18
ATOM     18  C   UNL     1      -5.459  35.970  23.395  1.00  0.00     0.000 C 
BRANCH  18  19
ATOM     19  C   UNL     1      -5.545  35.242  22.038  1.00  0.00     0.000 C 
BRANCH  19  20
ATOM     20  C   UNL     1      -6.125  36.094  20.886  1.00  0.00     0.000 C 
BRANCH  20  21
ATOM     21  C   UNL     1      -5.877  35.505  19.483  1.00  0.00     0.000 C 
BRANCH  21  22
ATOM     22  C   UNL     1      -4.388  35.225  19.214  1.00  0.00    -0.000 C 
BRANCH  22  23
ATOM     23  C   UNL     1      -4.072  35.151  17.710  1.00  0.00    -0.000 C 
BRANCH  23  24
ATOM     24  C   UNL     1      -3.681  36.525  17.135  1.00  0.00    -0.000 C 
BRANCH  24  25
ATOM     25  C   UNL     1      -2.353  36.493  16.358  1.00  0.00    -0.000 C 
BRANCH  25  26
ATOM     26  C   UNL     1      -2.495  36.560  14.823  1.00  0.00    -0.000 C 
BRANCH  26  27
ATOM     27  C   UNL     1      -3.816  37.170  14.314  1.00  0.00    -0.000 C 
BRANCH  27  28
ATOM     28  C   UNL     1      -3.735  38.653  13.898  1.00  0.00    -0.000 C 
BRANCH  28  29
ATOM     29  C   UNL     1      -5.078  39.406  13.929  1.00  0.00    -0.003 C 
ATOM     30  C   UNL     1      -4.905  40.924  13.943  1.00  0.00     0.004 C 
ENDBRANCH  28  29
ENDBRANCH  27  28
ENDBRANCH  26  27
ENDBRANCH  25  26
ENDBRANCH  24  25
ENDBRANCH  23  24
ENDBRANCH  22  23
ENDBRANCH  21  22
ENDBRANCH  20  21
ENDBRANCH  19  20
ENDBRANCH  18  19
ENDBRANCH  17  18
ENDBRANCH   1  17
TORSDOF 26
ENDMDL
MODEL 5
REMARK VINA RESULT:     3.519      3.571      5.995
REMARK INTER + INTRA:           7.651
REMARK INTER:                   9.261
REMARK INTRA:                  -1.609
REMARK UNBOUND:                -1.215
REMARK SMILES CCCCCCCCCCCCCCCCCCCCCCCCCCCC(=O)[O-]
REMARK SMILES IDX 15 1 16 2 17 3 18 4 19 5 20 6 21 7 22 8 23 9 24 10 25 11
REMARK SMILES IDX 26 12 27 13 28 14 29 15 30 16 14 17 13 18 12 19 11 20 10 21
REMARK SMILES IDX 9 22 8 23 7 24 6 25 5 26 4 27 3 28 2 29 1 30
REMARK H PARENT
REMARK Flexibility Score: inf
ROOT
ATOM      1  C   UNL     1      -1.789  36.774  21.275  1.00  0.00     0.000 C 
ENDROOT
BRANCH   1   2
ATOM      2  C   UNL     1      -2.657  35.536  21.001  1.00  0.00     0.000 C 
BRANCH   2   3
ATOM      3  C   UNL     1      -2.768  34.602  22.218  1.00  0.00     0.000 C 
BRANCH   3   4
ATOM      4  C   UNL     1      -4.225  34.371  22.645  1.00  0.00     0.000 C 
BRANCH   4   5
ATOM      5  C   UNL     1      -5.017  35.684  22.778  1.00  0.00     0.000 C 
BRANCH   5   6
ATOM      6  C   UNL     1      -6.125  35.591  23.840  1.00  0.00     0.000 C 
BRANCH   6   7
ATOM      7  C   UNL     1      -5.692  36.192  25.191  1.00  0.00     0.000 C 
BRANCH   7   8
ATOM      8  C   UNL     1      -5.630  37.726  25.161  1.00  0.00     0.000 C 
BRANCH   8   9
ATOM      9  C   UNL     1      -4.309  38.282  25.721  1.00  0.00     0.000 C 
BRANCH   9  10
ATOM     10  C   UNL     1      -3.636  37.302  26.704  1.00  0.00     0.000 C 
BRANCH  10  11
ATOM     11  C   UNL     1      -2.332  37.841  27.324  1.00  0.00     0.000 C 
BRANCH  11  12
ATOM     12  C   UNL     1      -1.362  36.762  27.845  1.00  0.00     0.006 C 
BRANCH  12  13
ATOM     13  C   UNL     1      -2.050  35.475  28.330  1.00  0.00     0.053 C 
BRANCH  13  14
ATOM     14  C   UNL     1      -1.347  34.880  29.511  1.00  0.00     0.041 C 
ATOM     15  O   UNL     1      -0.089  34.841  29.546  1.00  0.00    -0.550 OA
ATOM     16  O   UNL     1      -2.081  34.331  30.555  1.00  0.00    -0.550 OA
ENDBRANCH  13  14
ENDBRANCH  12  13
ENDBRANCH  11  12
ENDBRANCH  10  11
ENDBRANCH   9  10
ENDBRANCH   8   9
ENDBRANCH   7   8
ENDBRANCH   6   7
ENDBRANCH   5   6
ENDBRANCH   4   5
ENDBRANCH   3   4
ENDBRANCH   2   3
ENDBRANCH   1   2
BRANCH   1  17
ATOM     17  C   UNL     1      -1.491  37.589  20.007  1.00  0.00     0.000 C 
BRANCH  17  18
ATOM     18  C   UNL     1      -2.730  38.372  19.549  1.00  0.00     0.000 C 
BRANCH  18  19
ATOM     19  C   UNL     1      -3.520  38.981  20.725  1.00  0.00     0.000 C 
BRANCH  19  20
ATOM     20  C   UNL     1      -4.945  38.411  20.909  1.00  0.00     0.000 C 
BRANCH  20  21
ATOM     21  C   UNL     1      -5.584  37.886  19.608  1.00  0.00     0.000 C 
BRANCH  21  22
ATOM     22  C   UNL     1      -5.857  36.372  19.653  1.00  0.00    -0.000 C 
BRANCH  22  23
ATOM     23  C   UNL     1      -4.595  35.544  19.358  1.00  0.00    -0.000 C 
BRANCH  23  24
ATOM     24  C   UNL     1      -4.780  34.625  18.137  1.00  0.00    -0.000 C 
BRANCH  24  25
ATOM     25  C   UNL     1      -3.873  35.009  16.954  1.00  0.00    -0.000 C 
BRANCH  25  26
ATOM     26  C   UNL     1      -3.423  36.484  16.931  1.00  0.00    -0.000 C 
BRANCH  26  27
ATOM     27  C   UNL     1      -2.120  36.759  16.154  1.00  0.00    -0.000 C 
BRANCH  27  28
ATOM     28  C   UNL     1      -2.311  37.134  14.670  1.00  0.00    -0.000 C 
BRANCH  28  29
ATOM     29  C   UNL     1      -3.759  37.471  14.270  1.00  0.00    -0.003 C 
ATOM     30  C   UNL     1      -4.020  38.974  14.198  1.00  0.00     0.004 C 
ENDBRANCH  28  29
ENDBRANCH  27  28
ENDBRANCH  26  27
ENDBRANCH  25  26
ENDBRANCH  24  25
ENDBRANCH  23  24
ENDBRANCH  22  23
ENDBRANCH  21  22
ENDBRANCH  20  21
ENDBRANCH  19  20
ENDBRANCH  18  19
ENDBRANCH  17  18
ENDBRANCH   1  17
TORSDOF 26
ENDMDL
MODEL 6
REMARK VINA RESULT:     3.633      2.564      8.338
REMARK INTER + INTRA:           7.939
REMARK INTER:                   9.155
REMARK INTRA:                  -1.215
REMARK UNBOUND:                -1.215
REMARK SMILES CCCCCCCCCCCCCCCCCCCCCCCCCCCC(=O)[O-]
REMARK SMILES IDX 15 1 16 2 17 3 18 4 19 5 20 6 21 7 22 8 23 9 24 10 25 11
REMARK SMILES IDX 26 12 27 13 28 14 29 15 30 16 14 17 13 18 12 19 11 20 10 21
REMARK SMILES IDX 9 22 8 23 7 24 6 25 5 26 4 27 3 28 2 29 1 30
REMARK H PARENT
REMARK Flexibility Score: inf
ROOT
ATOM      1  C   UNL     1      -5.694  37.737  21.880  1.00  0.00     0.000 C 
ENDROOT
BRANCH   1   2
ATOM      2  C   UNL     1      -5.836  36.217  21.708  1.00  0.00     0.000 C 
BRANCH   2   3
ATOM      3  C   UNL     1      -5.199  35.422  22.861  1.00  0.00     0.000 C 
BRANCH   3   4
ATOM      4  C   UNL     1      -3.770  34.966  22.535  1.00  0.00     0.000 C 
BRANCH   4   5
ATOM      5  C   UNL     1      -3.276  35.495  21.176  1.00  0.00     0.000 C 
BRANCH   5   6
ATOM      6  C   UNL     1      -2.619  36.879  21.293  1.00  0.00     0.000 C 
BRANCH   6   7
ATOM      7  C   UNL     1      -1.454  37.060  20.302  1.00  0.00     0.000 C 
BRANCH   7   8
ATOM      8  C   UNL     1      -1.530  38.391  19.539  1.00  0.00     0.000 C 
BRANCH   8   9
ATOM      9  C   UNL     1      -2.115  38.236  18.124  1.00  0.00     0.000 C 
BRANCH   9  10
ATOM     10  C   UNL     1      -1.077  37.689  17.122  1.00  0.00     0.000 C 
BRANCH  10  11
ATOM     11  C   UNL     1      -1.692  36.855  15.981  1.00  0.00     0.000 C 
BRANCH  11  12
ATOM     12  C   UNL     1      -3.196  36.553  16.130  1.00  0.00     0.006 C 
BRANCH  12  13
ATOM     13  C   UNL     1      -3.508  35.260  16.900  1.00  0.00     0.053 C 
BRANCH  13  14
ATOM     14  C   UNL     1      -4.548  35.477  17.956  1.00  0.00     0.041 C 
ATOM     15  O   UNL     1      -5.293  34.527  18.316  1.00  0.00    -0.550 OA
ATOM     16  O   UNL     1      -4.724  36.737  18.513  1.00  0.00    -0.550 OA
ENDBRANCH  13  14
ENDBRANCH  12  13
ENDBRANCH  11  12
ENDBRANCH  10  11
ENDBRANCH   9  10
ENDBRANCH   8   9
ENDBRANCH   7   8
ENDBRANCH   6   7
ENDBRANCH   5   6
ENDBRANCH   4   5
ENDBRANCH   3   4
ENDBRANCH   2   3
ENDBRANCH   1   2
BRANCH   1  17
ATOM     17  C   UNL     1      -5.377  38.462  20.562  1.00  0.00     0.000 C 
BRANCH  17  18
ATOM     18  C   UNL     1      -5.248  39.976  20.780  1.00  0.00     0.000 C 
BRANCH  18  19
ATOM     19  C   UNL     1      -6.125  40.489  21.941  1.00  0.00     0.000 C 
BRANCH  19  20
ATOM     20  C   UNL     1      -5.732  41.886  22.475  1.00  0.00     0.000 C 
BRANCH  20  21
ATOM     21  C   UNL     1      -5.290  41.892  23.952  1.00  0.00     0.000 C 
BRANCH  21  22
ATOM     22  C   UNL     1      -5.783  40.655  24.722  1.00  0.00    -0.000 C 
BRANCH  22  23
ATOM     23  C   UNL     1      -4.785  39.487  24.647  1.00  0.00    -0.000 C 
BRANCH  23  24
ATOM     24  C   UNL     1      -5.160  38.344  25.608  1.00  0.00    -0.000 C 
BRANCH  24  25
ATOM     25  C   UNL     1      -3.942  37.528  26.074  1.00  0.00    -0.000 C 
BRANCH  25  26
ATOM     26  C   UNL     1      -2.804  38.357  26.702  1.00  0.00    -0.000 C 
BRANCH  26  27
ATOM     27  C   UNL     1      -1.696  37.534  27.389  1.00  0.00    -0.000 C 
BRANCH  27  28
ATOM     28  C   UNL     1      -2.186  36.558  28.478  1.00  0.00    -0.000 C 
BRANCH  28  29
ATOM     29  C   UNL     1      -1.371  35.257  28.592  1.00  0.00    -0.003 C 
ATOM     30  C   UNL     1      -1.759  34.420  29.811  1.00  0.00     0.004 C 
ENDBRANCH  28  29
ENDBRANCH  27  28
ENDBRANCH  26  27
ENDBRANCH  25  26
ENDBRANCH  24  25
ENDBRANCH  23  24
ENDBRANCH  22  23
ENDBRANCH  21  22
ENDBRANCH  20  21
ENDBRANCH  19  20
ENDBRANCH  18  19
ENDBRANCH  17  18
ENDBRANCH   1  17
TORSDOF 26
ENDMDL
