MODEL 1
REMARK VINA RESULT:    -5.289      0.000      0.000
REMARK INTER + INTRA:          -9.635
REMARK INTER:                  -8.999
REMARK INTRA:                  -0.635
REMARK UNBOUND:                -0.635
REMARK SMILES CCCCCCCCCCCCCC(=O)[O-]
REMARK SMILES IDX 8 1 9 2 10 3 11 4 12 5 13 6 14 7 15 8 16 9 7 10 6 11 5 12
REMARK SMILES IDX 4 13 3 14 2 15 1 16
REMARK H PARENT
REMARK Flexibility Score: inf
ROOT
ATOM      1  C   UNL     1     -13.988  -6.602  36.732  1.00  0.00     0.000 C 
ENDROOT
BRANCH   1   2
ATOM      2  C   UNL     1     -14.832  -5.760  37.707  1.00  0.00     0.000 C 
BRANCH   2   3
ATOM      3  C   UNL     1     -16.166  -6.403  38.125  1.00  0.00     0.000 C 
BRANCH   3   4
ATOM      4  C   UNL     1     -16.884  -5.616  39.231  1.00  0.00     0.000 C 
BRANCH   4   5
ATOM      5  C   UNL     1     -16.580  -6.213  40.613  1.00  0.00     0.006 C 
BRANCH   5   6
ATOM      6  C   UNL     1     -17.810  -6.883  41.240  1.00  0.00     0.053 C 
BRANCH   6   7
ATOM      7  C   UNL     1     -17.563  -7.281  42.663  1.00  0.00     0.041 C 
ATOM      8  O   UNL     1     -17.639  -8.491  43.004  1.00  0.00    -0.550 OA
ATOM      9  O   UNL     1     -17.284  -6.313  43.618  1.00  0.00    -0.550 OA
ENDBRANCH   6   7
ENDBRANCH   5   6
ENDBRANCH   4   5
ENDBRANCH   3   4
ENDBRANCH   2   3
ENDBRANCH   1   2
BRANCH   1  10
ATOM     10  C   UNL     1     -12.910  -7.462  37.426  1.00  0.00     0.000 C 
BRANCH  10  11
ATOM     11  C   UNL     1     -12.650  -7.012  38.875  1.00  0.00    -0.000 C 
BRANCH  11  12
ATOM     12  C   UNL     1     -11.714  -7.964  39.637  1.00  0.00    -0.000 C 
BRANCH  12  13
ATOM     13  C   UNL     1     -11.151  -9.081  38.742  1.00  0.00    -0.000 C 
BRANCH  13  14
ATOM     14  C   UNL     1      -9.613  -9.065  38.661  1.00  0.00    -0.000 C 
BRANCH  14  15
ATOM     15  C   UNL     1      -8.912 -10.239  39.367  1.00  0.00    -0.003 C 
ATOM     16  C   UNL     1      -9.622 -10.680  40.646  1.00  0.00     0.004 C 
ENDBRANCH  14  15
ENDBRANCH  13  14
ENDBRANCH  12  13
ENDBRANCH  11  12
ENDBRANCH  10  11
ENDBRANCH   1  10
TORSDOF 12
ENDMDL
MODEL 2
REMARK VINA RESULT:    -5.200      3.745      6.930
REMARK INTER + INTRA:          -9.483
REMARK INTER:                  -8.622
REMARK INTRA:                  -0.861
REMARK UNBOUND:                -0.635
REMARK SMILES CCCCCCCCCCCCCC(=O)[O-]
REMARK SMILES IDX 8 1 9 2 10 3 11 4 12 5 13 6 14 7 15 8 16 9 7 10 6 11 5 12
REMARK SMILES IDX 4 13 3 14 2 15 1 16
REMARK H PARENT
REMARK Flexibility Score: inf
ROOT
ATOM      1  C   UNL     1     -17.724  -8.373  42.994  1.00  0.00     0.000 C 
ENDROOT
BRANCH   1   2
ATOM      2  C   UNL     1     -17.491  -9.171  44.290  1.00  0.00     0.000 C 
BRANCH   2   3
ATOM      3  C   UNL     1     -16.859 -10.558  44.088  1.00  0.00     0.000 C 
BRANCH   3   4
ATOM      4  C   UNL     1     -15.525 -10.718  44.832  1.00  0.00     0.000 C 
BRANCH   4   5
ATOM      5  C   UNL     1     -15.246  -9.498  45.723  1.00  0.00     0.006 C 
BRANCH   5   6
ATOM      6  C   UNL     1     -14.563  -9.884  47.041  1.00  0.00     0.053 C 
BRANCH   6   7
ATOM      7  C   UNL     1     -15.559 -10.267  48.094  1.00  0.00     0.041 C 
ATOM      8  O   UNL     1     -16.789 -10.090  47.894  1.00  0.00    -0.550 OA
ATOM      9  O   UNL     1     -15.125 -10.786  49.306  1.00  0.00    -0.550 OA
ENDBRANCH   6   7
ENDBRANCH   5   6
ENDBRANCH   4   5
ENDBRANCH   3   4
ENDBRANCH   2   3
ENDBRANCH   1   2
BRANCH   1  10
ATOM     10  C   UNL     1     -16.874  -7.088  42.894  1.00  0.00     0.000 C 
BRANCH  10  11
ATOM     11  C   UNL     1     -16.843  -6.521  41.463  1.00  0.00    -0.000 C 
BRANCH  11  12
ATOM     12  C   UNL     1     -17.911  -7.145  40.551  1.00  0.00    -0.000 C 
BRANCH  12  13
ATOM     13  C   UNL     1     -17.511  -7.114  39.065  1.00  0.00    -0.000 C 
BRANCH  13  14
ATOM     14  C   UNL     1     -16.655  -5.886  38.703  1.00  0.00    -0.000 C 
BRANCH  14  15
ATOM     15  C   UNL     1     -15.377  -6.197  37.903  1.00  0.00    -0.003 C 
ATOM     16  C   UNL     1     -14.108  -6.129  38.752  1.00  0.00     0.004 C 
ENDBRANCH  14  15
ENDBRANCH  13  14
ENDBRANCH  12  13
ENDBRANCH  11  12
ENDBRANCH  10  11
ENDBRANCH   1  10
TORSDOF 12
ENDMDL
MODEL 3
REMARK VINA RESULT:    -5.185      4.137      7.723
REMARK INTER + INTRA:          -9.458
REMARK INTER:                  -8.714
REMARK INTRA:                  -0.744
REMARK UNBOUND:                -0.635
REMARK SMILES CCCCCCCCCCCCCC(=O)[O-]
REMARK SMILES IDX 8 1 9 2 10 3 11 4 12 5 13 6 14 7 15 8 16 9 7 10 6 11 5 12
REMARK SMILES IDX 4 13 3 14 2 15 1 16
REMARK H PARENT
REMARK Flexibility Score: inf
ROOT
ATOM      1  C   UNL     1     -13.119  -6.859  39.117  1.00  0.00     0.000 C 
ENDROOT
BRANCH   1   2
ATOM      2  C   UNL     1     -11.791  -7.635  39.184  1.00  0.00     0.000 C 
BRANCH   2   3
ATOM      3  C   UNL     1     -11.542  -8.590  38.005  1.00  0.00     0.000 C 
BRANCH   3   4
ATOM      4  C   UNL     1     -10.700  -9.813  38.398  1.00  0.00     0.000 C 
BRANCH   4   5
ATOM      5  C   UNL     1     -10.040  -9.606  39.770  1.00  0.00     0.006 C 
BRANCH   5   6
ATOM      6  C   UNL     1      -9.074 -10.742  40.128  1.00  0.00     0.053 C 
BRANCH   6   7
ATOM      7  C   UNL     1      -7.868 -10.749  39.239  1.00  0.00     0.041 C 
ATOM      8  O   UNL     1      -7.515 -11.809  38.659  1.00  0.00    -0.550 OA
ATOM      9  O   UNL     1      -7.114  -9.594  39.080  1.00  0.00    -0.550 OA
ENDBRANCH   6   7
ENDBRANCH   5   6
ENDBRANCH   4   5
ENDBRANCH   3   4
ENDBRANCH   2   3
ENDBRANCH   1   2
BRANCH   1  10
ATOM     10  C   UNL     1     -13.715  -6.768  37.695  1.00  0.00     0.000 C 
BRANCH  10  11
ATOM     11  C   UNL     1     -14.827  -5.709  37.597  1.00  0.00    -0.000 C 
BRANCH  11  12
ATOM     12  C   UNL     1     -15.758  -5.706  38.821  1.00  0.00    -0.000 C 
BRANCH  12  13
ATOM     13  C   UNL     1     -17.009  -6.578  38.614  1.00  0.00    -0.000 C 
BRANCH  13  14
ATOM     14  C   UNL     1     -17.777  -6.842  39.922  1.00  0.00    -0.000 C 
BRANCH  14  15
ATOM     15  C   UNL     1     -16.992  -6.537  41.210  1.00  0.00    -0.003 C 
ATOM     16  C   UNL     1     -17.893  -6.357  42.433  1.00  0.00     0.004 C 
ENDBRANCH  14  15
ENDBRANCH  13  14
ENDBRANCH  12  13
ENDBRANCH  11  12
ENDBRANCH  10  11
ENDBRANCH   1  10
TORSDOF 12
ENDMDL
MODEL 4
REMARK VINA RESULT:    -5.141      3.054      5.623
REMARK INTER + INTRA:          -9.383
REMARK INTER:                  -8.607
REMARK INTRA:                  -0.775
REMARK UNBOUND:                -0.635
REMARK SMILES CCCCCCCCCCCCCC(=O)[O-]
REMARK SMILES IDX 8 1 9 2 10 3 11 4 12 5 13 6 14 7 15 8 16 9 7 10 6 11 5 12
REMARK SMILES IDX 4 13 3 14 2 15 1 16
REMARK H PARENT
REMARK Flexibility Score: inf
ROOT
ATOM      1  C   UNL     1     -16.818  -6.797  42.015  1.00  0.00     0.000 C 
ENDROOT
BRANCH   1   2
ATOM      2  C   UNL     1     -17.728  -6.705  43.254  1.00  0.00     0.000 C 
BRANCH   2   3
ATOM      3  C   UNL     1     -17.619  -7.894  44.224  1.00  0.00     0.000 C 
BRANCH   3   4
ATOM      4  C   UNL     1     -17.481  -9.241  43.499  1.00  0.00     0.000 C 
BRANCH   4   5
ATOM      5  C   UNL     1     -16.656 -10.231  44.336  1.00  0.00     0.006 C 
BRANCH   5   6
ATOM      6  C   UNL     1     -15.452  -9.560  45.009  1.00  0.00     0.053 C 
BRANCH   6   7
ATOM      7  C   UNL     1     -15.214 -10.098  46.388  1.00  0.00     0.041 C 
ATOM      8  O   UNL     1     -15.293 -11.335  46.606  1.00  0.00    -0.550 OA
ATOM      9  O   UNL     1     -14.940  -9.230  47.436  1.00  0.00    -0.550 OA
ENDBRANCH   6   7
ENDBRANCH   5   6
ENDBRANCH   4   5
ENDBRANCH   3   4
ENDBRANCH   2   3
ENDBRANCH   1   2
BRANCH   1  10
ATOM     10  C   UNL     1     -17.590  -6.814  40.677  1.00  0.00     0.000 C 
BRANCH  10  11
ATOM     11  C   UNL     1     -16.930  -5.919  39.614  1.00  0.00    -0.000 C 
BRANCH  11  12
ATOM     12  C   UNL     1     -15.454  -5.616  39.922  1.00  0.00    -0.000 C 
BRANCH  12  13
ATOM     13  C   UNL     1     -14.653  -5.239  38.663  1.00  0.00    -0.000 C 
BRANCH  13  14
ATOM     14  C   UNL     1     -15.111  -6.009  37.410  1.00  0.00    -0.000 C 
BRANCH  14  15
ATOM     15  C   UNL     1     -13.996  -6.771  36.671  1.00  0.00    -0.003 C 
ATOM     16  C   UNL     1     -12.914  -7.307  37.609  1.00  0.00     0.004 C 
ENDBRANCH  14  15
ENDBRANCH  13  14
ENDBRANCH  12  13
ENDBRANCH  11  12
ENDBRANCH  10  11
ENDBRANCH   1  10
TORSDOF 12
ENDMDL
MODEL 5
REMARK VINA RESULT:    -5.091      3.730      7.037
REMARK INTER + INTRA:          -9.299
REMARK INTER:                  -8.501
REMARK INTRA:                  -0.798
REMARK UNBOUND:                -0.635
REMARK SMILES CCCCCCCCCCCCCC(=O)[O-]
REMARK SMILES IDX 8 1 9 2 10 3 11 4 12 5 13 6 14 7 15 8 16 9 7 10 6 11 5 12
REMARK SMILES IDX 4 13 3 14 2 15 1 16
REMARK H PARENT
REMARK Flexibility Score: inf
ROOT
ATOM      1  C   UNL     1     -16.967  -6.655  42.461  1.00  0.00     0.000 C 
ENDROOT
BRANCH   1   2
ATOM      2  C   UNL     1     -18.074  -6.694  41.391  1.00  0.00     0.000 C 
BRANCH   2   3
ATOM      3  C   UNL     1     -17.574  -6.916  39.953  1.00  0.00     0.000 C 
BRANCH   3   4
ATOM      4  C   UNL     1     -16.811  -5.705  39.396  1.00  0.00     0.000 C 
BRANCH   4   5
ATOM      5  C   UNL     1     -16.197  -6.028  38.025  1.00  0.00     0.006 C 
BRANCH   5   6
ATOM      6  C   UNL     1     -14.754  -5.524  37.902  1.00  0.00     0.053 C 
BRANCH   6   7
ATOM      7  C   UNL     1     -13.787  -6.649  37.686  1.00  0.00     0.041 C 
ATOM      8  O   UNL     1     -13.709  -7.208  36.561  1.00  0.00    -0.550 OA
ATOM      9  O   UNL     1     -13.000  -7.101  38.736  1.00  0.00    -0.550 OA
ENDBRANCH   6   7
ENDBRANCH   5   6
ENDBRANCH   4   5
ENDBRANCH   3   4
ENDBRANCH   2   3
ENDBRANCH   1   2
BRANCH   1  10
ATOM     10  C   UNL     1     -17.220  -7.605  43.652  1.00  0.00     0.000 C 
BRANCH  10  11
ATOM     11  C   UNL     1     -17.786  -8.964  43.202  1.00  0.00    -0.000 C 
BRANCH  11  12
ATOM     12  C   UNL     1     -17.077 -10.155  43.866  1.00  0.00    -0.000 C 
BRANCH  12  13
ATOM     13  C   UNL     1     -16.018  -9.715  44.892  1.00  0.00    -0.000 C 
BRANCH  13  14
ATOM     14  C   UNL     1     -15.995 -10.606  46.148  1.00  0.00    -0.000 C 
BRANCH  14  15
ATOM     15  C   UNL     1     -16.860 -10.103  47.318  1.00  0.00    -0.003 C 
ATOM     16  C   UNL     1     -17.189  -8.612  47.223  1.00  0.00     0.004 C 
ENDBRANCH  14  15
ENDBRANCH  13  14
ENDBRANCH  12  13
ENDBRANCH  11  12
ENDBRANCH  10  11
ENDBRANCH   1  10
TORSDOF 12
ENDMDL
MODEL 6
REMARK VINA RESULT:    -5.074      3.912      6.902
REMARK INTER + INTRA:          -9.268
REMARK INTER:                  -8.308
REMARK INTRA:                  -0.960
REMARK UNBOUND:                -0.635
REMARK SMILES CCCCCCCCCCCCCC(=O)[O-]
REMARK SMILES IDX 8 1 9 2 10 3 11 4 12 5 13 6 14 7 15 8 16 9 7 10 6 11 5 12
REMARK SMILES IDX 4 13 3 14 2 15 1 16
REMARK H PARENT
REMARK Flexibility Score: inf
ROOT
ATOM      1  C   UNL     1     -12.904  -7.416  37.789  1.00  0.00     0.000 C 
ENDROOT
BRANCH   1   2
ATOM      2  C   UNL     1     -11.899  -8.473  37.292  1.00  0.00     0.000 C 
BRANCH   2   3
ATOM      3  C   UNL     1     -10.928  -8.994  38.365  1.00  0.00     0.000 C 
BRANCH   3   4
ATOM      4  C   UNL     1     -11.273  -8.489  39.774  1.00  0.00     0.000 C 
BRANCH   4   5
ATOM      5  C   UNL     1     -10.339  -9.111  40.823  1.00  0.00     0.006 C 
BRANCH   5   6
ATOM      6  C   UNL     1      -9.866 -10.514  40.421  1.00  0.00     0.053 C 
BRANCH   6   7
ATOM      7  C   UNL     1      -8.436 -10.750  40.801  1.00  0.00     0.041 C 
ATOM      8  O   UNL     1      -7.886 -10.028  41.674  1.00  0.00    -0.550 OA
ATOM      9  O   UNL     1      -7.702 -11.744  40.167  1.00  0.00    -0.550 OA
ENDBRANCH   6   7
ENDBRANCH   5   6
ENDBRANCH   4   5
ENDBRANCH   3   4
ENDBRANCH   2   3
ENDBRANCH   1   2
BRANCH   1  10
ATOM     10  C   UNL     1     -13.813  -6.851  36.676  1.00  0.00     0.000 C 
BRANCH  10  11
ATOM     11  C   UNL     1     -14.754  -5.751  37.197  1.00  0.00    -0.000 C 
BRANCH  11  12
ATOM     12  C   UNL     1     -15.925  -6.308  38.023  1.00  0.00    -0.000 C 
BRANCH  12  13
ATOM     13  C   UNL     1     -16.055  -5.627  39.397  1.00  0.00    -0.000 C 
BRANCH  13  14
ATOM     14  C   UNL     1     -14.748  -4.959  39.859  1.00  0.00    -0.000 C 
BRANCH  14  15
ATOM     15  C   UNL     1     -13.930  -5.767  40.882  1.00  0.00    -0.003 C 
ATOM     16  C   UNL     1     -14.550  -5.768  42.279  1.00  0.00     0.004 C 
ENDBRANCH  14  15
ENDBRANCH  13  14
ENDBRANCH  12  13
ENDBRANCH  11  12
ENDBRANCH  10  11
ENDBRANCH   1  10
TORSDOF 12
ENDMDL
MODEL 7
REMARK VINA RESULT:    -5.066      3.290      6.605
REMARK INTER + INTRA:          -9.255
REMARK INTER:                  -8.633
REMARK INTRA:                  -0.622
REMARK UNBOUND:                -0.635
REMARK SMILES CCCCCCCCCCCCCC(=O)[O-]
REMARK SMILES IDX 8 1 9 2 10 3 11 4 12 5 13 6 14 7 15 8 16 9 7 10 6 11 5 12
REMARK SMILES IDX 4 13 3 14 2 15 1 16
REMARK H PARENT
REMARK Flexibility Score: inf
ROOT
ATOM      1  C   UNL     1     -16.696  -5.842  39.072  1.00  0.00     0.000 C 
ENDROOT
BRANCH   1   2
ATOM      2  C   UNL     1     -16.014  -6.311  37.773  1.00  0.00     0.000 C 
BRANCH   2   3
ATOM      3  C   UNL     1     -14.525  -5.943  37.657  1.00  0.00     0.000 C 
BRANCH   3   4
ATOM      4  C   UNL     1     -13.687  -6.481  38.827  1.00  0.00     0.000 C 
BRANCH   4   5
ATOM      5  C   UNL     1     -12.518  -7.336  38.315  1.00  0.00     0.006 C 
BRANCH   5   6
ATOM      6  C   UNL     1     -11.746  -8.007  39.458  1.00  0.00     0.053 C 
BRANCH   6   7
ATOM      7  C   UNL     1     -10.969  -9.197  38.981  1.00  0.00     0.041 C 
ATOM      8  O   UNL     1     -10.965  -9.502  37.760  1.00  0.00    -0.550 OA
ATOM      9  O   UNL     1     -10.280  -9.988  39.891  1.00  0.00    -0.550 OA
ENDBRANCH   6   7
ENDBRANCH   5   6
ENDBRANCH   4   5
ENDBRANCH   3   4
ENDBRANCH   2   3
ENDBRANCH   1   2
BRANCH   1  10
ATOM     10  C   UNL     1     -17.732  -6.843  39.628  1.00  0.00     0.000 C 
BRANCH  10  11
ATOM     11  C   UNL     1     -17.984  -6.646  41.133  1.00  0.00    -0.000 C 
BRANCH  11  12
ATOM     12  C   UNL     1     -16.685  -6.608  41.955  1.00  0.00    -0.000 C 
BRANCH  12  13
ATOM     13  C   UNL     1     -16.896  -7.052  43.413  1.00  0.00    -0.000 C 
BRANCH  13  14
ATOM     14  C   UNL     1     -17.468  -8.477  43.527  1.00  0.00    -0.000 C 
BRANCH  14  15
ATOM     15  C   UNL     1     -16.974  -9.281  44.743  1.00  0.00    -0.003 C 
ATOM     16  C   UNL     1     -16.451 -10.669  44.372  1.00  0.00     0.004 C 
ENDBRANCH  14  15
ENDBRANCH  13  14
ENDBRANCH  12  13
ENDBRANCH  11  12
ENDBRANCH  10  11
ENDBRANCH   1  10
TORSDOF 12
ENDMDL
MODEL 8
REMARK VINA RESULT:    -5.059      3.905      6.545
REMARK INTER + INTRA:          -9.244
REMARK INTER:                  -8.403
REMARK INTRA:                  -0.841
REMARK UNBOUND:                -0.635
REMARK SMILES CCCCCCCCCCCCCC(=O)[O-]
REMARK SMILES IDX 8 1 9 2 10 3 11 4 12 5 13 6 14 7 15 8 16 9 7 10 6 11 5 12
REMARK SMILES IDX 4 13 3 14 2 15 1 16
REMARK H PARENT
REMARK Flexibility Score: inf
ROOT
ATOM      1  C   UNL     1     -17.066  -6.687  43.271  1.00  0.00     0.000 C 
ENDROOT
BRANCH   1   2
ATOM      2  C   UNL     1     -16.866  -6.589  41.747  1.00  0.00     0.000 C 
BRANCH   2   3
ATOM      3  C   UNL     1     -17.884  -7.382  40.910  1.00  0.00     0.000 C 
BRANCH   3   4
ATOM      4  C   UNL     1     -17.762  -7.104  39.405  1.00  0.00     0.000 C 
BRANCH   4   5
ATOM      5  C   UNL     1     -16.865  -5.884  39.145  1.00  0.00     0.006 C 
BRANCH   5   6
ATOM      6  C   UNL     1     -15.799  -6.164  38.077  1.00  0.00     0.053 C 
BRANCH   6   7
ATOM      7  C   UNL     1     -14.411  -6.011  38.620  1.00  0.00     0.041 C 
ATOM      8  O   UNL     1     -14.168  -5.141  39.498  1.00  0.00    -0.550 OA
ATOM      9  O   UNL     1     -13.381  -6.804  38.133  1.00  0.00    -0.550 OA
ENDBRANCH   6   7
ENDBRANCH   5   6
ENDBRANCH   4   5
ENDBRANCH   3   4
ENDBRANCH   2   3
ENDBRANCH   1   2
BRANCH   1  10
ATOM     10  C   UNL     1     -18.092  -7.761  43.695  1.00  0.00     0.000 C 
BRANCH  10  11
ATOM     11  C   UNL     1     -17.481  -8.806  44.645  1.00  0.00    -0.000 C 
BRANCH  11  12
ATOM     12  C   UNL     1     -17.109 -10.116  43.931  1.00  0.00    -0.000 C 
BRANCH  12  13
ATOM     13  C   UNL     1     -16.027 -10.911  44.681  1.00  0.00    -0.000 C 
BRANCH  13  14
ATOM     14  C   UNL     1     -14.992 -10.006  45.374  1.00  0.00    -0.000 C 
BRANCH  14  15
ATOM     15  C   UNL     1     -14.902 -10.171  46.902  1.00  0.00    -0.003 C 
ATOM     16  C   UNL     1     -13.879 -11.222  47.332  1.00  0.00     0.004 C 
ENDBRANCH  14  15
ENDBRANCH  13  14
ENDBRANCH  12  13
ENDBRANCH  11  12
ENDBRANCH  10  11
ENDBRANCH   1  10
TORSDOF 12
ENDMDL
MODEL 9
REMARK VINA RESULT:    -5.035      1.598      3.041
REMARK INTER + INTRA:          -9.202
REMARK INTER:                  -8.382
REMARK INTRA:                  -0.820
REMARK UNBOUND:                -0.635
REMARK SMILES CCCCCCCCCCCCCC(=O)[O-]
REMARK SMILES IDX 8 1 9 2 10 3 11 4 12 5 13 6 14 7 15 8 16 9 7 10 6 11 5 12
REMARK SMILES IDX 4 13 3 14 2 15 1 16
REMARK H PARENT
REMARK Flexibility Score: inf
ROOT
ATOM      1  C   UNL     1     -16.652  -6.786  38.840  1.00  0.00     0.000 C 
ENDROOT
BRANCH   1   2
ATOM      2  C   UNL     1     -17.725  -6.175  39.762  1.00  0.00     0.000 C 
BRANCH   2   3
ATOM      3  C   UNL     1     -17.657  -6.641  41.226  1.00  0.00     0.000 C 
BRANCH   3   4
ATOM      4  C   UNL     1     -16.280  -6.400  41.863  1.00  0.00     0.000 C 
BRANCH   4   5
ATOM      5  C   UNL     1     -16.269  -6.854  43.331  1.00  0.00     0.006 C 
BRANCH   5   6
ATOM      6  C   UNL     1     -17.303  -7.953  43.606  1.00  0.00     0.053 C 
BRANCH   6   7
ATOM      7  C   UNL     1     -17.452  -8.223  45.073  1.00  0.00     0.041 C 
ATOM      8  O   UNL     1     -17.504  -7.266  45.890  1.00  0.00    -0.550 OA
ATOM      9  O   UNL     1     -17.497  -9.530  45.540  1.00  0.00    -0.550 OA
ENDBRANCH   6   7
ENDBRANCH   5   6
ENDBRANCH   4   5
ENDBRANCH   3   4
ENDBRANCH   2   3
ENDBRANCH   1   2
BRANCH   1  10
ATOM     10  C   UNL     1     -15.944  -5.751  37.939  1.00  0.00     0.000 C 
BRANCH  10  11
ATOM     11  C   UNL     1     -14.494  -5.489  38.383  1.00  0.00    -0.000 C 
BRANCH  11  12
ATOM     12  C   UNL     1     -13.642  -6.769  38.424  1.00  0.00    -0.000 C 
BRANCH  12  13
ATOM     13  C   UNL     1     -12.686  -6.804  39.630  1.00  0.00    -0.000 C 
BRANCH  13  14
ATOM     14  C   UNL     1     -11.702  -7.987  39.579  1.00  0.00    -0.000 C 
BRANCH  14  15
ATOM     15  C   UNL     1     -11.301  -8.439  38.163  1.00  0.00    -0.003 C 
ATOM     16  C   UNL     1     -10.703  -9.846  38.130  1.00  0.00     0.004 C 
ENDBRANCH  14  15
ENDBRANCH  13  14
ENDBRANCH  12  13
ENDBRANCH  11  12
ENDBRANCH  10  11
ENDBRANCH   1  10
TORSDOF 12
ENDMDL
