MODEL 1
REMARK VINA RESULT:    -4.111      0.000      0.000
REMARK INTER + INTRA:          -9.592
REMARK INTER:                  -7.475
REMARK INTRA:                  -2.116
REMARK UNBOUND:                -2.116
REMARK SMILES CCCCCCCCCCCCCCCC(=O)[O-]
REMARK SMILES IDX 9 1 10 2 11 3 12 4 13 5 14 6 15 7 16 8 17 9 18 10 8 11 7 12
REMARK SMILES IDX 6 13 5 14 4 15 3 16 2 17 1 18
REMARK H PARENT
REMARK Flexibility Score: inf
ROOT
ATOM      1  C   UNL     1     162.781 163.215 182.508  1.00  0.00     0.000 C 
ENDROOT
BRANCH   1   2
ATOM      2  C   UNL     1     161.774 162.740 183.562  1.00  0.00     0.000 C 
BRANCH   2   3
ATOM      3  C   UNL     1     160.336 162.829 183.027  1.00  0.00     0.000 C 
BRANCH   3   4
ATOM      4  C   UNL     1     160.226 162.427 181.547  1.00  0.00     0.000 C 
BRANCH   4   5
ATOM      5  C   UNL     1     160.108 160.905 181.356  1.00  0.00     0.000 C 
BRANCH   5   6
ATOM      6  C   UNL     1     161.086 160.359 180.299  1.00  0.00     0.006 C 
BRANCH   6   7
ATOM      7  C   UNL     1     161.731 161.438 179.413  1.00  0.00     0.053 C 
BRANCH   7   8
ATOM      8  C   UNL     1     162.987 160.951 178.759  1.00  0.00     0.041 C 
ATOM      9  O   UNL     1     163.743 160.142 179.361  1.00  0.00    -0.550 OA
ATOM     10  O   UNL     1     163.340 161.414 177.498  1.00  0.00    -0.550 OA
ENDBRANCH   7   8
ENDBRANCH   6   7
ENDBRANCH   5   6
ENDBRANCH   4   5
ENDBRANCH   3   4
ENDBRANCH   2   3
ENDBRANCH   1   2
BRANCH   1  11
ATOM     11  C   UNL     1     163.934 162.211 182.357  1.00  0.00     0.000 C 
BRANCH  11  12
ATOM     12  C   UNL     1     163.617 160.851 182.998  1.00  0.00    -0.000 C 
BRANCH  12  13
ATOM     13  C   UNL     1     164.806 159.876 182.932  1.00  0.00    -0.000 C 
BRANCH  13  14
ATOM     14  C   UNL     1     165.980 160.442 182.103  1.00  0.00    -0.000 C 
BRANCH  14  15
ATOM     15  C   UNL     1     167.295 160.566 182.897  1.00  0.00    -0.000 C 
BRANCH  15  16
ATOM     16  C   UNL     1     167.124 160.643 184.423  1.00  0.00    -0.000 C 
BRANCH  16  17
ATOM     17  C   UNL     1     167.412 162.044 184.982  1.00  0.00    -0.003 C 
ATOM     18  C   UNL     1     167.162 163.117 183.925  1.00  0.00     0.004 C 
ENDBRANCH  16  17
ENDBRANCH  15  16
ENDBRANCH  14  15
ENDBRANCH  13  14
ENDBRANCH  12  13
ENDBRANCH  11  12
ENDBRANCH   1  11
TORSDOF 14
ENDMDL
MODEL 2
REMARK VINA RESULT:    -4.036      2.657      6.059
REMARK INTER + INTRA:          -9.456
REMARK INTER:                  -7.320
REMARK INTRA:                  -2.136
REMARK UNBOUND:                -2.116
REMARK SMILES CCCCCCCCCCCCCCCC(=O)[O-]
REMARK SMILES IDX 9 1 10 2 11 3 12 4 13 5 14 6 15 7 16 8 17 9 18 10 8 11 7 12
REMARK SMILES IDX 6 13 5 14 4 15 3 16 2 17 1 18
REMARK H PARENT
REMARK Flexibility Score: inf
ROOT
ATOM      1  C   UNL     1     161.993 163.649 182.496  1.00  0.00     0.000 C 
ENDROOT
BRANCH   1   2
ATOM      2  C   UNL     1     163.061 162.898 183.299  1.00  0.00     0.000 C 
BRANCH   2   3
ATOM      3  C   UNL     1     163.998 162.113 182.368  1.00  0.00     0.000 C 
BRANCH   3   4
ATOM      4  C   UNL     1     164.245 160.674 182.850  1.00  0.00     0.000 C 
BRANCH   4   5
ATOM      5  C   UNL     1     165.727 160.268 182.764  1.00  0.00     0.000 C 
BRANCH   5   6
ATOM      6  C   UNL     1     166.579 160.887 183.887  1.00  0.00     0.006 C 
BRANCH   6   7
ATOM      7  C   UNL     1     167.517 162.015 183.426  1.00  0.00     0.053 C 
BRANCH   7   8
ATOM      8  C   UNL     1     167.368 163.248 184.264  1.00  0.00     0.041 C 
ATOM      9  O   UNL     1     168.361 163.992 184.478  1.00  0.00    -0.550 OA
ATOM     10  O   UNL     1     166.140 163.557 184.835  1.00  0.00    -0.550 OA
ENDBRANCH   7   8
ENDBRANCH   6   7
ENDBRANCH   5   6
ENDBRANCH   4   5
ENDBRANCH   3   4
ENDBRANCH   2   3
ENDBRANCH   1   2
BRANCH   1  11
ATOM     11  C   UNL     1     160.587 163.122 182.822  1.00  0.00     0.000 C 
BRANCH  11  12
ATOM     12  C   UNL     1     160.621 161.781 183.573  1.00  0.00    -0.000 C 
BRANCH  12  13
ATOM     13  C   UNL     1     160.121 160.609 182.710  1.00  0.00    -0.000 C 
BRANCH  13  14
ATOM     14  C   UNL     1     160.083 160.964 181.208  1.00  0.00    -0.000 C 
BRANCH  14  15
ATOM     15  C   UNL     1     161.282 160.415 180.411  1.00  0.00    -0.000 C 
BRANCH  15  16
ATOM     16  C   UNL     1     161.687 161.258 179.191  1.00  0.00    -0.000 C 
BRANCH  16  17
ATOM     17  C   UNL     1     160.906 162.576 179.095  1.00  0.00    -0.003 C 
ATOM     18  C   UNL     1     161.843 163.750 178.823  1.00  0.00     0.004 C 
ENDBRANCH  16  17
ENDBRANCH  15  16
ENDBRANCH  14  15
ENDBRANCH  13  14
ENDBRANCH  12  13
ENDBRANCH  11  12
ENDBRANCH   1  11
TORSDOF 14
ENDMDL
MODEL 3
REMARK VINA RESULT:    -3.982      2.587      5.984
REMARK INTER + INTRA:          -9.357
REMARK INTER:                  -7.253
REMARK INTRA:                  -2.104
REMARK UNBOUND:                -2.116
REMARK SMILES CCCCCCCCCCCCCCCC(=O)[O-]
REMARK SMILES IDX 9 1 10 2 11 3 12 4 13 5 14 6 15 7 16 8 17 9 18 10 8 11 7 12
REMARK SMILES IDX 6 13 5 14 4 15 3 16 2 17 1 18
REMARK H PARENT
REMARK Flexibility Score: inf
ROOT
ATOM      1  C   UNL     1     163.571 161.532 180.001  1.00  0.00     0.000 C 
ENDROOT
BRANCH   1   2
ATOM      2  C   UNL     1     164.696 161.191 180.985  1.00  0.00     0.000 C 
BRANCH   2   3
ATOM      3  C   UNL     1     164.150 160.426 182.200  1.00  0.00     0.000 C 
BRANCH   3   4
ATOM      4  C   UNL     1     165.224 160.163 183.269  1.00  0.00     0.000 C 
BRANCH   4   5
ATOM      5  C   UNL     1     166.533 160.921 182.990  1.00  0.00     0.000 C 
BRANCH   5   6
ATOM      6  C   UNL     1     167.442 161.016 184.230  1.00  0.00     0.006 C 
BRANCH   6   7
ATOM      7  C   UNL     1     167.270 162.307 185.047  1.00  0.00     0.053 C 
BRANCH   7   8
ATOM      8  C   UNL     1     167.491 163.533 184.214  1.00  0.00     0.041 C 
ATOM      9  O   UNL     1     168.648 163.825 183.812  1.00  0.00    -0.550 OA
ATOM     10  O   UNL     1     166.424 164.370 183.911  1.00  0.00    -0.550 OA
ENDBRANCH   7   8
ENDBRANCH   6   7
ENDBRANCH   5   6
ENDBRANCH   4   5
ENDBRANCH   3   4
ENDBRANCH   2   3
ENDBRANCH   1   2
BRANCH   1  11
ATOM     11  C   UNL     1     162.392 160.559 180.153  1.00  0.00     0.000 C 
BRANCH  11  12
ATOM     12  C   UNL     1     161.050 161.194 179.757  1.00  0.00    -0.000 C 
BRANCH  12  13
ATOM     13  C   UNL     1     160.237 161.666 180.975  1.00  0.00    -0.000 C 
BRANCH  13  14
ATOM     14  C   UNL     1     160.325 160.673 182.155  1.00  0.00    -0.000 C 
BRANCH  14  15
ATOM     15  C   UNL     1     160.700 161.335 183.494  1.00  0.00    -0.000 C 
BRANCH  15  16
ATOM     16  C   UNL     1     160.965 162.848 183.416  1.00  0.00    -0.000 C 
BRANCH  16  17
ATOM     17  C   UNL     1     162.461 163.190 183.438  1.00  0.00    -0.003 C 
ATOM     18  C   UNL     1     162.813 164.184 182.335  1.00  0.00     0.004 C 
ENDBRANCH  16  17
ENDBRANCH  15  16
ENDBRANCH  14  15
ENDBRANCH  13  14
ENDBRANCH  12  13
ENDBRANCH  11  12
ENDBRANCH   1  11
TORSDOF 14
ENDMDL
MODEL 4
REMARK VINA RESULT:    -3.980      1.932      5.595
REMARK INTER + INTRA:          -9.354
REMARK INTER:                  -7.260
REMARK INTRA:                  -2.093
REMARK UNBOUND:                -2.116
REMARK SMILES CCCCCCCCCCCCCCCC(=O)[O-]
REMARK SMILES IDX 9 1 10 2 11 3 12 4 13 5 14 6 15 7 16 8 17 9 18 10 8 11 7 12
REMARK SMILES IDX 6 13 5 14 4 15 3 16 2 17 1 18
REMARK H PARENT
REMARK Flexibility Score: inf
ROOT
ATOM      1  C   UNL     1     162.389 163.883 182.469  1.00  0.00     0.000 C 
ENDROOT
BRANCH   1   2
ATOM      2  C   UNL     1     163.256 163.022 183.395  1.00  0.00     0.000 C 
BRANCH   2   3
ATOM      3  C   UNL     1     164.213 162.135 182.584  1.00  0.00     0.000 C 
BRANCH   3   4
ATOM      4  C   UNL     1     164.009 160.636 182.856  1.00  0.00     0.000 C 
BRANCH   4   5
ATOM      5  C   UNL     1     165.330 159.902 183.142  1.00  0.00     0.000 C 
BRANCH   5   6
ATOM      6  C   UNL     1     166.504 160.866 183.393  1.00  0.00     0.006 C 
BRANCH   6   7
ATOM      7  C   UNL     1     167.881 160.306 182.999  1.00  0.00     0.053 C 
BRANCH   7   8
ATOM      8  C   UNL     1     168.177 160.512 181.545  1.00  0.00     0.041 C 
ATOM      9  O   UNL     1     169.131 159.895 181.000  1.00  0.00    -0.550 OA
ATOM     10  O   UNL     1     167.422 161.408 180.801  1.00  0.00    -0.550 OA
ENDBRANCH   7   8
ENDBRANCH   6   7
ENDBRANCH   5   6
ENDBRANCH   4   5
ENDBRANCH   3   4
ENDBRANCH   2   3
ENDBRANCH   1   2
BRANCH   1  11
ATOM     11  C   UNL     1     160.920 163.432 182.513  1.00  0.00     0.000 C 
BRANCH  11  12
ATOM     12  C   UNL     1     160.704 162.223 183.438  1.00  0.00    -0.000 C 
BRANCH  12  13
ATOM     13  C   UNL     1     160.196 160.984 182.680  1.00  0.00    -0.000 C 
BRANCH  13  14
ATOM     14  C   UNL     1     160.149 161.212 181.154  1.00  0.00    -0.000 C 
BRANCH  14  15
ATOM     15  C   UNL     1     161.299 160.528 180.390  1.00  0.00    -0.000 C 
BRANCH  15  16
ATOM     16  C   UNL     1     161.875 161.344 179.221  1.00  0.00    -0.000 C 
BRANCH  16  17
ATOM     17  C   UNL     1     161.035 162.588 178.897  1.00  0.00    -0.003 C 
ATOM     18  C   UNL     1     161.914 163.832 178.801  1.00  0.00     0.004 C 
ENDBRANCH  16  17
ENDBRANCH  15  16
ENDBRANCH  14  15
ENDBRANCH  13  14
ENDBRANCH  12  13
ENDBRANCH  11  12
ENDBRANCH   1  11
TORSDOF 14
ENDMDL
MODEL 5
REMARK VINA RESULT:    -3.968      2.481      5.573
REMARK INTER + INTRA:          -9.332
REMARK INTER:                  -6.664
REMARK INTRA:                  -2.668
REMARK UNBOUND:                -2.116
REMARK SMILES CCCCCCCCCCCCCCCC(=O)[O-]
REMARK SMILES IDX 9 1 10 2 11 3 12 4 13 5 14 6 15 7 16 8 17 9 18 10 8 11 7 12
REMARK SMILES IDX 6 13 5 14 4 15 3 16 2 17 1 18
REMARK H PARENT
REMARK Flexibility Score: inf
ROOT
ATOM      1  C   UNL     1     160.796 161.116 179.820  1.00  0.00     0.000 C 
ENDROOT
BRANCH   1   2
ATOM      2  C   UNL     1     162.246 160.623 179.875  1.00  0.00     0.000 C 
BRANCH   2   3
ATOM      3  C   UNL     1     163.231 161.786 179.679  1.00  0.00     0.000 C 
BRANCH   3   4
ATOM      4  C   UNL     1     164.464 161.682 180.592  1.00  0.00     0.000 C 
BRANCH   4   5
ATOM      5  C   UNL     1     164.497 160.369 181.393  1.00  0.00     0.000 C 
BRANCH   5   6
ATOM      6  C   UNL     1     164.721 160.595 182.899  1.00  0.00     0.006 C 
BRANCH   6   7
ATOM      7  C   UNL     1     165.746 161.692 183.232  1.00  0.00     0.053 C 
BRANCH   7   8
ATOM      8  C   UNL     1     167.024 161.123 183.768  1.00  0.00     0.041 C 
ATOM      9  O   UNL     1     167.372 161.358 184.956  1.00  0.00    -0.550 OA
ATOM     10  O   UNL     1     167.846 160.362 182.947  1.00  0.00    -0.550 OA
ENDBRANCH   7   8
ENDBRANCH   6   7
ENDBRANCH   5   6
ENDBRANCH   4   5
ENDBRANCH   3   4
ENDBRANCH   2   3
ENDBRANCH   1   2
BRANCH   1  11
ATOM     11  C   UNL     1     160.000 160.624 181.038  1.00  0.00     0.000 C 
BRANCH  11  12
ATOM     12  C   UNL     1     160.885 160.427 182.279  1.00  0.00    -0.000 C 
BRANCH  12  13
ATOM     13  C   UNL     1     160.274 161.053 183.545  1.00  0.00    -0.000 C 
BRANCH  13  14
ATOM     14  C   UNL     1     160.717 162.519 183.743  1.00  0.00    -0.000 C 
BRANCH  14  15
ATOM     15  C   UNL     1     162.060 162.856 183.067  1.00  0.00    -0.000 C 
BRANCH  15  16
ATOM     16  C   UNL     1     162.084 164.194 182.310  1.00  0.00    -0.000 C 
BRANCH  16  17
ATOM     17  C   UNL     1     160.790 164.454 181.525  1.00  0.00    -0.003 C 
ATOM     18  C   UNL     1     161.093 164.834 180.078  1.00  0.00     0.004 C 
ENDBRANCH  16  17
ENDBRANCH  15  16
ENDBRANCH  14  15
ENDBRANCH  13  14
ENDBRANCH  12  13
ENDBRANCH  11  12
ENDBRANCH   1  11
TORSDOF 14
ENDMDL
MODEL 6
REMARK VINA RESULT:    -3.897      1.377      5.485
REMARK INTER + INTRA:          -9.203
REMARK INTER:                  -6.989
REMARK INTRA:                  -2.213
REMARK UNBOUND:                -2.116
REMARK SMILES CCCCCCCCCCCCCCCC(=O)[O-]
REMARK SMILES IDX 9 1 10 2 11 3 12 4 13 5 14 6 15 7 16 8 17 9 18 10 8 11 7 12
REMARK SMILES IDX 6 13 5 14 4 15 3 16 2 17 1 18
REMARK H PARENT
REMARK Flexibility Score: inf
ROOT
ATOM      1  C   UNL     1     163.866 162.094 182.548  1.00  0.00     0.000 C 
ENDROOT
BRANCH   1   2
ATOM      2  C   UNL     1     163.755 160.612 182.924  1.00  0.00     0.000 C 
BRANCH   2   3
ATOM      3  C   UNL     1     165.135 160.024 183.256  1.00  0.00     0.000 C 
BRANCH   3   4
ATOM      4  C   UNL     1     166.184 161.105 183.564  1.00  0.00     0.000 C 
BRANCH   4   5
ATOM      5  C   UNL     1     167.598 160.703 183.111  1.00  0.00     0.000 C 
BRANCH   5   6
ATOM      6  C   UNL     1     167.644 160.243 181.642  1.00  0.00     0.006 C 
BRANCH   6   7
ATOM      7  C   UNL     1     167.354 161.354 180.619  1.00  0.00     0.053 C 
BRANCH   7   8
ATOM      8  C   UNL     1     166.208 161.004 179.719  1.00  0.00     0.041 C 
ATOM      9  O   UNL     1     165.644 159.882 179.819  1.00  0.00    -0.550 OA
ATOM     10  O   UNL     1     165.785 161.903 178.749  1.00  0.00    -0.550 OA
ENDBRANCH   7   8
ENDBRANCH   6   7
ENDBRANCH   5   6
ENDBRANCH   4   5
ENDBRANCH   3   4
ENDBRANCH   2   3
ENDBRANCH   1   2
BRANCH   1  11
ATOM     11  C   UNL     1     162.597 162.861 182.950  1.00  0.00     0.000 C 
BRANCH  11  12
ATOM     12  C   UNL     1     161.587 161.976 183.698  1.00  0.00    -0.000 C 
BRANCH  12  13
ATOM     13  C   UNL     1     160.250 161.841 182.947  1.00  0.00    -0.000 C 
BRANCH  13  14
ATOM     14  C   UNL     1     159.876 160.366 182.683  1.00  0.00    -0.000 C 
BRANCH  14  15
ATOM     15  C   UNL     1     160.003 159.950 181.205  1.00  0.00    -0.000 C 
BRANCH  15  16
ATOM     16  C   UNL     1     160.525 161.051 180.267  1.00  0.00    -0.000 C 
BRANCH  16  17
ATOM     17  C   UNL     1     161.903 160.721 179.673  1.00  0.00    -0.003 C 
ATOM     18  C   UNL     1     162.443 161.892 178.857  1.00  0.00     0.004 C 
ENDBRANCH  16  17
ENDBRANCH  15  16
ENDBRANCH  14  15
ENDBRANCH  13  14
ENDBRANCH  12  13
ENDBRANCH  11  12
ENDBRANCH   1  11
TORSDOF 14
ENDMDL
MODEL 7
REMARK VINA RESULT:    -3.852      2.275      5.040
REMARK INTER + INTRA:          -9.121
REMARK INTER:                  -6.788
REMARK INTRA:                  -2.333
REMARK UNBOUND:                -2.116
REMARK SMILES CCCCCCCCCCCCCCCC(=O)[O-]
REMARK SMILES IDX 9 1 10 2 11 3 12 4 13 5 14 6 15 7 16 8 17 9 18 10 8 11 7 12
REMARK SMILES IDX 6 13 5 14 4 15 3 16 2 17 1 18
REMARK H PARENT
REMARK Flexibility Score: inf
ROOT
ATOM      1  C   UNL     1     160.236 162.094 182.267  1.00  0.00     0.000 C 
ENDROOT
BRANCH   1   2
ATOM      2  C   UNL     1     161.165 162.060 183.486  1.00  0.00     0.000 C 
BRANCH   2   3
ATOM      3  C   UNL     1     162.410 162.929 183.253  1.00  0.00     0.000 C 
BRANCH   3   4
ATOM      4  C   UNL     1     163.630 162.110 182.800  1.00  0.00     0.000 C 
BRANCH   4   5
ATOM      5  C   UNL     1     163.504 160.618 183.153  1.00  0.00     0.000 C 
BRANCH   5   6
ATOM      6  C   UNL     1     164.851 159.875 183.088  1.00  0.00     0.006 C 
BRANCH   6   7
ATOM      7  C   UNL     1     165.563 159.967 181.728  1.00  0.00     0.053 C 
BRANCH   7   8
ATOM      8  C   UNL     1     167.024 160.264 181.877  1.00  0.00     0.041 C 
ATOM      9  O   UNL     1     167.828 159.967 180.954  1.00  0.00    -0.550 OA
ATOM     10  O   UNL     1     167.502 160.838 183.048  1.00  0.00    -0.550 OA
ENDBRANCH   7   8
ENDBRANCH   6   7
ENDBRANCH   5   6
ENDBRANCH   4   5
ENDBRANCH   3   4
ENDBRANCH   2   3
ENDBRANCH   1   2
BRANCH   1  11
ATOM     11  C   UNL     1     160.054 160.688 181.675  1.00  0.00     0.000 C 
BRANCH  11  12
ATOM     12  C   UNL     1     160.350 160.643 180.167  1.00  0.00    -0.000 C 
BRANCH  12  13
ATOM     13  C   UNL     1     161.842 160.416 179.865  1.00  0.00    -0.000 C 
BRANCH  13  14
ATOM     14  C   UNL     1     162.523 161.684 179.305  1.00  0.00    -0.000 C 
BRANCH  14  15
ATOM     15  C   UNL     1     161.530 162.768 178.845  1.00  0.00    -0.000 C 
BRANCH  15  16
ATOM     16  C   UNL     1     162.040 164.212 178.984  1.00  0.00    -0.000 C 
BRANCH  16  17
ATOM     17  C   UNL     1     163.375 164.299 179.736  1.00  0.00    -0.003 C 
ATOM     18  C   UNL     1     163.336 165.397 180.796  1.00  0.00     0.004 C 
ENDBRANCH  16  17
ENDBRANCH  15  16
ENDBRANCH  14  15
ENDBRANCH  13  14
ENDBRANCH  12  13
ENDBRANCH  11  12
ENDBRANCH   1  11
TORSDOF 14
ENDMDL
MODEL 8
REMARK VINA RESULT:    -3.839      2.783      5.323
REMARK INTER + INTRA:          -9.097
REMARK INTER:                  -7.257
REMARK INTRA:                  -1.840
REMARK UNBOUND:                -2.116
REMARK SMILES CCCCCCCCCCCCCCCC(=O)[O-]
REMARK SMILES IDX 9 1 10 2 11 3 12 4 13 5 14 6 15 7 16 8 17 9 18 10 8 11 7 12
REMARK SMILES IDX 6 13 5 14 4 15 3 16 2 17 1 18
REMARK H PARENT
REMARK Flexibility Score: inf
ROOT
ATOM      1  C   UNL     1     161.552 161.347 183.037  1.00  0.00     0.000 C 
ENDROOT
BRANCH   1   2
ATOM      2  C   UNL     1     160.231 160.802 182.482  1.00  0.00     0.000 C 
BRANCH   2   3
ATOM      3  C   UNL     1     160.427 160.216 181.075  1.00  0.00     0.000 C 
BRANCH   3   4
ATOM      4  C   UNL     1     160.276 161.269 179.965  1.00  0.00     0.000 C 
BRANCH   4   5
ATOM      5  C   UNL     1     161.629 161.708 179.380  1.00  0.00     0.000 C 
BRANCH   5   6
ATOM      6  C   UNL     1     162.664 160.568 179.351  1.00  0.00     0.006 C 
BRANCH   6   7
ATOM      7  C   UNL     1     164.120 161.026 179.534  1.00  0.00     0.053 C 
BRANCH   7   8
ATOM      8  C   UNL     1     164.517 161.075 180.978  1.00  0.00     0.041 C 
ATOM      9  O   UNL     1     164.709 160.007 181.618  1.00  0.00    -0.550 OA
ATOM     10  O   UNL     1     164.643 162.298 181.625  1.00  0.00    -0.550 OA
ENDBRANCH   7   8
ENDBRANCH   6   7
ENDBRANCH   5   6
ENDBRANCH   4   5
ENDBRANCH   3   4
ENDBRANCH   2   3
ENDBRANCH   1   2
BRANCH   1  11
ATOM     11  C   UNL     1     161.489 162.872 183.210  1.00  0.00     0.000 C 
BRANCH  11  12
ATOM     12  C   UNL     1     160.097 163.443 182.898  1.00  0.00    -0.000 C 
BRANCH  12  13
ATOM     13  C   UNL     1     160.132 164.518 181.799  1.00  0.00    -0.000 C 
BRANCH  13  14
ATOM     14  C   UNL     1     161.568 165.005 181.504  1.00  0.00    -0.000 C 
BRANCH  14  15
ATOM     15  C   UNL     1     161.864 166.418 182.040  1.00  0.00    -0.000 C 
BRANCH  15  16
ATOM     16  C   UNL     1     160.641 167.171 182.590  1.00  0.00    -0.000 C 
BRANCH  16  17
ATOM     17  C   UNL     1     161.019 168.485 183.290  1.00  0.00    -0.003 C 
ATOM     18  C   UNL     1     159.987 168.856 184.351  1.00  0.00     0.004 C 
ENDBRANCH  16  17
ENDBRANCH  15  16
ENDBRANCH  14  15
ENDBRANCH  13  14
ENDBRANCH  12  13
ENDBRANCH  11  12
ENDBRANCH   1  11
TORSDOF 14
ENDMDL
MODEL 9
REMARK VINA RESULT:    -3.824      1.523      2.756
REMARK INTER + INTRA:          -9.069
REMARK INTER:                  -7.106
REMARK INTRA:                  -1.964
REMARK UNBOUND:                -2.116
REMARK SMILES CCCCCCCCCCCCCCCC(=O)[O-]
REMARK SMILES IDX 9 1 10 2 11 3 12 4 13 5 14 6 15 7 16 8 17 9 18 10 8 11 7 12
REMARK SMILES IDX 6 13 5 14 4 15 3 16 2 17 1 18
REMARK H PARENT
REMARK Flexibility Score: inf
ROOT
ATOM      1  C   UNL     1     163.695 161.964 182.429  1.00  0.00     0.000 C 
ENDROOT
BRANCH   1   2
ATOM      2  C   UNL     1     162.590 162.731 183.164  1.00  0.00     0.000 C 
BRANCH   2   3
ATOM      3  C   UNL     1     161.461 161.785 183.601  1.00  0.00     0.000 C 
BRANCH   3   4
ATOM      4  C   UNL     1     160.276 161.780 182.621  1.00  0.00     0.000 C 
BRANCH   4   5
ATOM      5  C   UNL     1     159.938 160.369 182.110  1.00  0.00     0.000 C 
BRANCH   5   6
ATOM      6  C   UNL     1     159.964 160.270 180.573  1.00  0.00     0.006 C 
BRANCH   6   7
ATOM      7  C   UNL     1     161.299 160.684 179.932  1.00  0.00     0.053 C 
BRANCH   7   8
ATOM      8  C   UNL     1     161.122 161.772 178.918  1.00  0.00     0.041 C 
ATOM      9  O   UNL     1     161.810 161.772 177.862  1.00  0.00    -0.550 OA
ATOM     10  O   UNL     1     160.221 162.803 179.152  1.00  0.00    -0.550 OA
ENDBRANCH   7   8
ENDBRANCH   6   7
ENDBRANCH   5   6
ENDBRANCH   4   5
ENDBRANCH   3   4
ENDBRANCH   2   3
ENDBRANCH   1   2
BRANCH   1  11
ATOM     11  C   UNL     1     163.701 160.483 182.836  1.00  0.00     0.000 C 
BRANCH  11  12
ATOM     12  C   UNL     1     165.052 160.039 183.421  1.00  0.00    -0.000 C 
BRANCH  12  13
ATOM     13  C   UNL     1     166.139 161.119 183.279  1.00  0.00    -0.000 C 
BRANCH  13  14
ATOM     14  C   UNL     1     167.531 160.512 183.002  1.00  0.00    -0.000 C 
BRANCH  14  15
ATOM     15  C   UNL     1     167.916 160.503 181.510  1.00  0.00    -0.000 C 
BRANCH  15  16
ATOM     16  C   UNL     1     166.892 161.165 180.574  1.00  0.00    -0.000 C 
BRANCH  16  17
ATOM     17  C   UNL     1     166.074 160.143 179.771  1.00  0.00    -0.003 C 
ATOM     18  C   UNL     1     165.181 160.838 178.747  1.00  0.00     0.004 C 
ENDBRANCH  16  17
ENDBRANCH  15  16
ENDBRANCH  14  15
ENDBRANCH  13  14
ENDBRANCH  12  13
ENDBRANCH  11  12
ENDBRANCH   1  11
TORSDOF 14
ENDMDL
