MODEL 1
REMARK VINA RESULT:    -1.678      0.000      0.000
REMARK INTER + INTRA:          -6.286
REMARK INTER:                  -3.247
REMARK INTRA:                  -3.039
REMARK UNBOUND:                -3.039
REMARK SMILES CCCCCCCCCCCCCCCCCC(=O)[O-]
REMARK SMILES IDX 10 1 11 2 12 3 13 4 14 5 15 6 16 7 17 8 18 9 19 10 20 11
REMARK SMILES IDX 9 12 8 13 7 14 6 15 5 16 4 17 3 18 2 19 1 20
REMARK H PARENT
REMARK Flexibility Score: inf
ROOT
ATOM      1  C   UNL     1     116.450  14.018  25.332  1.00  0.00     0.000 C 
ENDROOT
BRANCH   1   2
ATOM      2  C   UNL     1     115.752  12.688  25.674  1.00  0.00     0.000 C 
BRANCH   2   3
ATOM      3  C   UNL     1     114.456  12.896  26.478  1.00  0.00     0.000 C 
BRANCH   3   4
ATOM      4  C   UNL     1     114.510  12.246  27.870  1.00  0.00     0.000 C 
BRANCH   4   5
ATOM      5  C   UNL     1     115.358  13.055  28.868  1.00  0.00     0.000 C 
BRANCH   5   6
ATOM      6  C   UNL     1     114.785  14.459  29.125  1.00  0.00     0.000 C 
BRANCH   6   7
ATOM      7  C   UNL     1     115.829  15.571  28.919  1.00  0.00     0.006 C 
BRANCH   7   8
ATOM      8  C   UNL     1     117.242  15.009  28.718  1.00  0.00     0.053 C 
BRANCH   8   9
ATOM      9  C   UNL     1     118.216  16.080  28.330  1.00  0.00     0.041 C 
ATOM     10  O   UNL     1     118.466  17.027  29.122  1.00  0.00    -0.550 OA
ATOM     11  O   UNL     1     118.865  16.018  27.103  1.00  0.00    -0.550 OA
ENDBRANCH   8   9
ENDBRANCH   7   8
ENDBRANCH   6   7
ENDBRANCH   5   6
ENDBRANCH   4   5
ENDBRANCH   3   4
ENDBRANCH   2   3
ENDBRANCH   1   2
BRANCH   1  12
ATOM     12  C   UNL     1     115.487  15.207  25.162  1.00  0.00     0.000 C 
BRANCH  12  13
ATOM     13  C   UNL     1     116.039  16.278  24.204  1.00  0.00    -0.000 C 
BRANCH  13  14
ATOM     14  C   UNL     1     117.523  16.056  23.868  1.00  0.00    -0.000 C 
BRANCH  14  15
ATOM     15  C   UNL     1     117.778  15.945  22.355  1.00  0.00    -0.000 C 
BRANCH  15  16
ATOM     16  C   UNL     1     117.976  14.482  21.906  1.00  0.00    -0.000 C 
BRANCH  16  17
ATOM     17  C   UNL     1     116.786  13.915  21.113  1.00  0.00    -0.000 C 
BRANCH  17  18
ATOM     18  C   UNL     1     116.100  12.739  21.823  1.00  0.00    -0.000 C 
BRANCH  18  19
ATOM     19  C   UNL     1     114.651  13.087  22.187  1.00  0.00    -0.003 C 
ATOM     20  C   UNL     1     114.211  14.384  21.515  1.00  0.00     0.004 C 
ENDBRANCH  18  19
ENDBRANCH  17  18
ENDBRANCH  16  17
ENDBRANCH  15  16
ENDBRANCH  14  15
ENDBRANCH  13  14
ENDBRANCH  12  13
ENDBRANCH   1  12
TORSDOF 16
ENDMDL
MODEL 2
REMARK VINA RESULT:    -1.657      1.432      2.079
REMARK INTER + INTRA:          -6.247
REMARK INTER:                  -3.024
REMARK INTRA:                  -3.223
REMARK UNBOUND:                -3.039
REMARK SMILES CCCCCCCCCCCCCCCCCC(=O)[O-]
REMARK SMILES IDX 10 1 11 2 12 3 13 4 14 5 15 6 16 7 17 8 18 9 19 10 20 11
REMARK SMILES IDX 9 12 8 13 7 14 6 15 5 16 4 17 3 18 2 19 1 20
REMARK H PARENT
REMARK Flexibility Score: inf
ROOT
ATOM      1  C   UNL     1     113.741  14.266  22.917  1.00  0.00     0.000 C 
ENDROOT
BRANCH   1   2
ATOM      2  C   UNL     1     113.712  12.929  23.680  1.00  0.00     0.000 C 
BRANCH   2   3
ATOM      3  C   UNL     1     113.995  13.106  25.183  1.00  0.00     0.000 C 
BRANCH   3   4
ATOM      4  C   UNL     1     115.418  12.674  25.574  1.00  0.00     0.000 C 
BRANCH   4   5
ATOM      5  C   UNL     1     116.098  13.673  26.528  1.00  0.00     0.000 C 
BRANCH   5   6
ATOM      6  C   UNL     1     115.254  14.938  26.756  1.00  0.00     0.000 C 
BRANCH   6   7
ATOM      7  C   UNL     1     115.999  16.006  27.578  1.00  0.00     0.006 C 
BRANCH   7   8
ATOM      8  C   UNL     1     117.091  15.396  28.466  1.00  0.00     0.053 C 
BRANCH   8   9
ATOM      9  C   UNL     1     118.437  15.988  28.176  1.00  0.00     0.041 C 
ATOM     10  O   UNL     1     119.264  16.169  29.108  1.00  0.00    -0.550 OA
ATOM     11  O   UNL     1     118.785  16.317  26.872  1.00  0.00    -0.550 OA
ENDBRANCH   8   9
ENDBRANCH   7   8
ENDBRANCH   6   7
ENDBRANCH   5   6
ENDBRANCH   4   5
ENDBRANCH   3   4
ENDBRANCH   2   3
ENDBRANCH   1   2
BRANCH   1  12
ATOM     12  C   UNL     1     113.250  15.470  23.741  1.00  0.00     0.000 C 
BRANCH  12  13
ATOM     13  C   UNL     1     114.151  16.706  23.569  1.00  0.00    -0.000 C 
BRANCH  13  14
ATOM     14  C   UNL     1     115.454  16.384  22.820  1.00  0.00    -0.000 C 
BRANCH  14  15
ATOM     15  C   UNL     1     116.693  16.445  23.731  1.00  0.00    -0.000 C 
BRANCH  15  16
ATOM     16  C   UNL     1     117.608  15.217  23.549  1.00  0.00    -0.000 C 
BRANCH  16  17
ATOM     17  C   UNL     1     117.398  14.485  22.212  1.00  0.00    -0.000 C 
BRANCH  17  18
ATOM     18  C   UNL     1     117.202  12.971  22.383  1.00  0.00    -0.000 C 
BRANCH  18  19
ATOM     19  C   UNL     1     116.975  12.290  21.028  1.00  0.00    -0.003 C 
ATOM     20  C   UNL     1     115.812  12.932  20.277  1.00  0.00     0.004 C 
ENDBRANCH  18  19
ENDBRANCH  17  18
ENDBRANCH  16  17
ENDBRANCH  15  16
ENDBRANCH  14  15
ENDBRANCH  13  14
ENDBRANCH  12  13
ENDBRANCH   1  12
TORSDOF 16
ENDMDL
MODEL 3
REMARK VINA RESULT:    -1.646      2.922      4.747
REMARK INTER + INTRA:          -6.224
REMARK INTER:                  -3.747
REMARK INTRA:                  -2.476
REMARK UNBOUND:                -3.039
REMARK SMILES CCCCCCCCCCCCCCCCCC(=O)[O-]
REMARK SMILES IDX 10 1 11 2 12 3 13 4 14 5 15 6 16 7 17 8 18 9 19 10 20 11
REMARK SMILES IDX 9 12 8 13 7 14 6 15 5 16 4 17 3 18 2 19 1 20
REMARK H PARENT
REMARK Flexibility Score: inf
ROOT
ATOM      1  C   UNL     1     117.166  17.802  25.635  1.00  0.00     0.000 C 
ENDROOT
BRANCH   1   2
ATOM      2  C   UNL     1     117.417  18.292  27.073  1.00  0.00     0.000 C 
BRANCH   2   3
ATOM      3  C   UNL     1     118.603  17.573  27.740  1.00  0.00     0.000 C 
BRANCH   3   4
ATOM      4  C   UNL     1     118.548  16.047  27.563  1.00  0.00     0.000 C 
BRANCH   4   5
ATOM      5  C   UNL     1     117.794  15.345  28.706  1.00  0.00     0.000 C 
BRANCH   5   6
ATOM      6  C   UNL     1     116.753  14.337  28.193  1.00  0.00     0.000 C 
BRANCH   6   7
ATOM      7  C   UNL     1     116.608  14.363  26.660  1.00  0.00     0.006 C 
BRANCH   7   8
ATOM      8  C   UNL     1     115.206  13.938  26.204  1.00  0.00     0.053 C 
BRANCH   8   9
ATOM      9  C   UNL     1     115.250  12.719  25.334  1.00  0.00     0.041 C 
ATOM     10  O   UNL     1     114.239  11.977  25.230  1.00  0.00    -0.550 OA
ATOM     11  O   UNL     1     116.403  12.417  24.620  1.00  0.00    -0.550 OA
ENDBRANCH   8   9
ENDBRANCH   7   8
ENDBRANCH   6   7
ENDBRANCH   5   6
ENDBRANCH   4   5
ENDBRANCH   3   4
ENDBRANCH   2   3
ENDBRANCH   1   2
BRANCH   1  12
ATOM     12  C   UNL     1     117.393  18.877  24.556  1.00  0.00     0.000 C 
BRANCH  12  13
ATOM     13  C   UNL     1     118.662  19.710  24.815  1.00  0.00    -0.000 C 
BRANCH  13  14
ATOM     14  C   UNL     1     119.869  19.207  24.008  1.00  0.00    -0.000 C 
BRANCH  14  15
ATOM     15  C   UNL     1     120.787  18.282  24.827  1.00  0.00    -0.000 C 
BRANCH  15  16
ATOM     16  C   UNL     1     120.529  16.792  24.522  1.00  0.00    -0.000 C 
BRANCH  16  17
ATOM     17  C   UNL     1     121.011  16.356  23.127  1.00  0.00    -0.000 C 
BRANCH  17  18
ATOM     18  C   UNL     1     119.856  16.055  22.162  1.00  0.00    -0.000 C 
BRANCH  18  19
ATOM     19  C   UNL     1     118.571  15.721  22.929  1.00  0.00    -0.003 C 
ATOM     20  C   UNL     1     117.782  14.618  22.229  1.00  0.00     0.004 C 
ENDBRANCH  18  19
ENDBRANCH  17  18
ENDBRANCH  16  17
ENDBRANCH  15  16
ENDBRANCH  14  15
ENDBRANCH  13  14
ENDBRANCH  12  13
ENDBRANCH   1  12
TORSDOF 16
ENDMDL
MODEL 4
REMARK VINA RESULT:    -1.613      3.005      6.205
REMARK INTER + INTRA:          -6.161
REMARK INTER:                  -3.597
REMARK INTRA:                  -2.564
REMARK UNBOUND:                -3.039
REMARK SMILES CCCCCCCCCCCCCCCCCC(=O)[O-]
REMARK SMILES IDX 10 1 11 2 12 3 13 4 14 5 15 6 16 7 17 8 18 9 19 10 20 11
REMARK SMILES IDX 9 12 8 13 7 14 6 15 5 16 4 17 3 18 2 19 1 20
REMARK H PARENT
REMARK Flexibility Score: inf
ROOT
ATOM      1  C   UNL     1     116.717  15.844  22.916  1.00  0.00     0.000 C 
ENDROOT
BRANCH   1   2
ATOM      2  C   UNL     1     117.186  16.758  24.063  1.00  0.00     0.000 C 
BRANCH   2   3
ATOM      3  C   UNL     1     117.947  15.985  25.155  1.00  0.00     0.000 C 
BRANCH   3   4
ATOM      4  C   UNL     1     119.183  16.742  25.667  1.00  0.00     0.000 C 
BRANCH   4   5
ATOM      5  C   UNL     1     119.971  17.424  24.535  1.00  0.00     0.000 C 
BRANCH   5   6
ATOM      6  C   UNL     1     120.962  16.470  23.849  1.00  0.00     0.000 C 
BRANCH   6   7
ATOM      7  C   UNL     1     120.742  16.379  22.328  1.00  0.00     0.006 C 
BRANCH   7   8
ATOM      8  C   UNL     1     119.990  17.599  21.778  1.00  0.00     0.053 C 
BRANCH   8   9
ATOM      9  C   UNL     1     119.282  17.283  20.496  1.00  0.00     0.041 C 
ATOM     10  O   UNL     1     119.823  16.536  19.640  1.00  0.00    -0.550 OA
ATOM     11  O   UNL     1     118.013  17.797  20.259  1.00  0.00    -0.550 OA
ENDBRANCH   8   9
ENDBRANCH   7   8
ENDBRANCH   6   7
ENDBRANCH   5   6
ENDBRANCH   4   5
ENDBRANCH   3   4
ENDBRANCH   2   3
ENDBRANCH   1   2
BRANCH   1  12
ATOM     12  C   UNL     1     117.559  14.566  22.748  1.00  0.00     0.000 C 
BRANCH  12  13
ATOM     13  C   UNL     1     116.861  13.515  21.865  1.00  0.00    -0.000 C 
BRANCH  13  14
ATOM     14  C   UNL     1     117.102  12.079  22.360  1.00  0.00    -0.000 C 
BRANCH  14  15
ATOM     15  C   UNL     1     116.672  11.875  23.823  1.00  0.00    -0.000 C 
BRANCH  15  16
ATOM     16  C   UNL     1     115.148  12.029  24.006  1.00  0.00    -0.000 C 
BRANCH  16  17
ATOM     17  C   UNL     1     114.757  12.887  25.221  1.00  0.00    -0.000 C 
BRANCH  17  18
ATOM     18  C   UNL     1     115.971  13.386  26.017  1.00  0.00    -0.000 C 
BRANCH  18  19
ATOM     19  C   UNL     1     115.556  13.858  27.416  1.00  0.00    -0.003 C 
ATOM     20  C   UNL     1     116.772  14.036  28.320  1.00  0.00     0.004 C 
ENDBRANCH  18  19
ENDBRANCH  17  18
ENDBRANCH  16  17
ENDBRANCH  15  16
ENDBRANCH  14  15
ENDBRANCH  13  14
ENDBRANCH  12  13
ENDBRANCH   1  12
TORSDOF 16
ENDMDL
MODEL 5
REMARK VINA RESULT:    -1.581      3.236      5.694
REMARK INTER + INTRA:          -6.098
REMARK INTER:                  -3.105
REMARK INTRA:                  -2.993
REMARK UNBOUND:                -3.039
REMARK SMILES CCCCCCCCCCCCCCCCCC(=O)[O-]
REMARK SMILES IDX 10 1 11 2 12 3 13 4 14 5 15 6 16 7 17 8 18 9 19 10 20 11
REMARK SMILES IDX 9 12 8 13 7 14 6 15 5 16 4 17 3 18 2 19 1 20
REMARK H PARENT
REMARK Flexibility Score: inf
ROOT
ATOM      1  C   UNL     1     116.606  14.441  25.248  1.00  0.00     0.000 C 
ENDROOT
BRANCH   1   2
ATOM      2  C   UNL     1     117.149  15.253  26.438  1.00  0.00     0.000 C 
BRANCH   2   3
ATOM      3  C   UNL     1     118.138  16.348  25.999  1.00  0.00     0.000 C 
BRANCH   3   4
ATOM      4  C   UNL     1     118.104  16.605  24.483  1.00  0.00     0.000 C 
BRANCH   4   5
ATOM      5  C   UNL     1     119.501  16.873  23.896  1.00  0.00     0.000 C 
BRANCH   5   6
ATOM      6  C   UNL     1     119.824  15.958  22.703  1.00  0.00     0.000 C 
BRANCH   6   7
ATOM      7  C   UNL     1     118.578  15.239  22.155  1.00  0.00     0.006 C 
BRANCH   7   8
ATOM      8  C   UNL     1     118.658  15.018  20.638  1.00  0.00     0.053 C 
BRANCH   8   9
ATOM      9  C   UNL     1     117.986  16.123  19.880  1.00  0.00     0.041 C 
ATOM     10  O   UNL     1     116.871  15.927  19.329  1.00  0.00    -0.550 OA
ATOM     11  O   UNL     1     118.583  17.375  19.804  1.00  0.00    -0.550 OA
ENDBRANCH   8   9
ENDBRANCH   7   8
ENDBRANCH   6   7
ENDBRANCH   5   6
ENDBRANCH   4   5
ENDBRANCH   3   4
ENDBRANCH   2   3
ENDBRANCH   1   2
BRANCH   1  12
ATOM     12  C   UNL     1     115.524  13.415  25.630  1.00  0.00     0.000 C 
BRANCH  12  13
ATOM     13  C   UNL     1     115.485  12.215  24.666  1.00  0.00    -0.000 C 
BRANCH  13  14
ATOM     14  C   UNL     1     116.792  12.056  23.873  1.00  0.00    -0.000 C 
BRANCH  14  15
ATOM     15  C   UNL     1     116.573  12.116  22.351  1.00  0.00    -0.000 C 
BRANCH  15  16
ATOM     16  C   UNL     1     115.113  12.454  21.987  1.00  0.00    -0.000 C 
BRANCH  16  17
ATOM     17  C   UNL     1     114.941  13.848  21.360  1.00  0.00    -0.000 C 
BRANCH  17  18
ATOM     18  C   UNL     1     114.232  14.841  22.292  1.00  0.00    -0.000 C 
BRANCH  18  19
ATOM     19  C   UNL     1     115.022  16.150  22.405  1.00  0.00    -0.003 C 
ATOM     20  C   UNL     1     114.502  17.010  23.552  1.00  0.00     0.004 C 
ENDBRANCH  18  19
ENDBRANCH  17  18
ENDBRANCH  16  17
ENDBRANCH  15  16
ENDBRANCH  14  15
ENDBRANCH  13  14
ENDBRANCH  12  13
ENDBRANCH   1  12
TORSDOF 16
ENDMDL
MODEL 6
REMARK VINA RESULT:    -1.579      2.844      5.998
REMARK INTER + INTRA:          -6.095
REMARK INTER:                  -3.296
REMARK INTRA:                  -2.799
REMARK UNBOUND:                -3.039
REMARK SMILES CCCCCCCCCCCCCCCCCC(=O)[O-]
REMARK SMILES IDX 10 1 11 2 12 3 13 4 14 5 15 6 16 7 17 8 18 9 19 10 20 11
REMARK SMILES IDX 9 12 8 13 7 14 6 15 5 16 4 17 3 18 2 19 1 20
REMARK H PARENT
REMARK Flexibility Score: inf
ROOT
ATOM      1  C   UNL     1     117.095  15.845  27.688  1.00  0.00     0.000 C 
ENDROOT
BRANCH   1   2
ATOM      2  C   UNL     1     118.483  16.492  27.527  1.00  0.00     0.000 C 
BRANCH   2   3
ATOM      3  C   UNL     1     118.997  16.425  26.077  1.00  0.00     0.000 C 
BRANCH   3   4
ATOM      4  C   UNL     1     118.498  17.596  25.215  1.00  0.00     0.000 C 
BRANCH   4   5
ATOM      5  C   UNL     1     118.326  17.211  23.735  1.00  0.00     0.000 C 
BRANCH   5   6
ATOM      6  C   UNL     1     119.515  16.400  23.195  1.00  0.00     0.000 C 
BRANCH   6   7
ATOM      7  C   UNL     1     119.128  15.499  22.008  1.00  0.00     0.006 C 
BRANCH   7   8
ATOM      8  C   UNL     1     117.733  15.829  21.462  1.00  0.00     0.053 C 
BRANCH   8   9
ATOM      9  C   UNL     1     117.000  14.595  21.030  1.00  0.00     0.041 C 
ATOM     10  O   UNL     1     115.800  14.668  20.658  1.00  0.00    -0.550 OA
ATOM     11  O   UNL     1     117.652  13.369  21.017  1.00  0.00    -0.550 OA
ENDBRANCH   8   9
ENDBRANCH   7   8
ENDBRANCH   6   7
ENDBRANCH   5   6
ENDBRANCH   4   5
ENDBRANCH   3   4
ENDBRANCH   2   3
ENDBRANCH   1   2
BRANCH   1  12
ATOM     12  C   UNL     1     117.116  14.484  28.407  1.00  0.00     0.000 C 
BRANCH  12  13
ATOM     13  C   UNL     1     115.704  13.902  28.605  1.00  0.00    -0.000 C 
BRANCH  13  14
ATOM     14  C   UNL     1     115.473  12.629  27.774  1.00  0.00    -0.000 C 
BRANCH  14  15
ATOM     15  C   UNL     1     114.842  12.923  26.401  1.00  0.00    -0.000 C 
BRANCH  15  16
ATOM     16  C   UNL     1     115.869  12.814  25.256  1.00  0.00    -0.000 C 
BRANCH  16  17
ATOM     17  C   UNL     1     116.259  14.171  24.646  1.00  0.00    -0.000 C 
BRANCH  17  18
ATOM     18  C   UNL     1     115.051  14.962  24.123  1.00  0.00    -0.000 C 
BRANCH  18  19
ATOM     19  C   UNL     1     114.986  16.354  24.762  1.00  0.00    -0.003 C 
ATOM     20  C   UNL     1     113.920  16.410  25.852  1.00  0.00     0.004 C 
ENDBRANCH  18  19
ENDBRANCH  17  18
ENDBRANCH  16  17
ENDBRANCH  15  16
ENDBRANCH  14  15
ENDBRANCH  13  14
ENDBRANCH  12  13
ENDBRANCH   1  12
TORSDOF 16
ENDMDL
MODEL 7
REMARK VINA RESULT:    -1.543      2.499      5.397
REMARK INTER + INTRA:          -6.025
REMARK INTER:                  -3.063
REMARK INTRA:                  -2.963
REMARK UNBOUND:                -3.039
REMARK SMILES CCCCCCCCCCCCCCCCCC(=O)[O-]
REMARK SMILES IDX 10 1 11 2 12 3 13 4 14 5 15 6 16 7 17 8 18 9 19 10 20 11
REMARK SMILES IDX 9 12 8 13 7 14 6 15 5 16 4 17 3 18 2 19 1 20
REMARK H PARENT
REMARK Flexibility Score: inf
ROOT
ATOM      1  C   UNL     1     113.887  16.359  26.186  1.00  0.00     0.000 C 
ENDROOT
BRANCH   1   2
ATOM      2  C   UNL     1     114.433  15.107  25.475  1.00  0.00     0.000 C 
BRANCH   2   3
ATOM      3  C   UNL     1     114.027  13.804  26.187  1.00  0.00     0.000 C 
BRANCH   3   4
ATOM      4  C   UNL     1     115.071  12.688  26.022  1.00  0.00     0.000 C 
BRANCH   4   5
ATOM      5  C   UNL     1     116.187  13.063  25.031  1.00  0.00     0.000 C 
BRANCH   5   6
ATOM      6  C   UNL     1     116.105  12.261  23.721  1.00  0.00     0.000 C 
BRANCH   6   7
ATOM      7  C   UNL     1     117.103  12.758  22.660  1.00  0.00     0.006 C 
BRANCH   7   8
ATOM      8  C   UNL     1     117.224  14.287  22.649  1.00  0.00     0.053 C 
BRANCH   8   9
ATOM      9  C   UNL     1     118.301  14.753  21.717  1.00  0.00     0.041 C 
ATOM     10  O   UNL     1     118.210  14.531  20.481  1.00  0.00    -0.550 OA
ATOM     11  O   UNL     1     119.394  15.452  22.213  1.00  0.00    -0.550 OA
ENDBRANCH   8   9
ENDBRANCH   7   8
ENDBRANCH   6   7
ENDBRANCH   5   6
ENDBRANCH   4   5
ENDBRANCH   3   4
ENDBRANCH   2   3
ENDBRANCH   1   2
BRANCH   1  12
ATOM     12  C   UNL     1     113.951  16.286  27.723  1.00  0.00     0.000 C 
BRANCH  12  13
ATOM     13  C   UNL     1     115.328  16.701  28.273  1.00  0.00    -0.000 C 
BRANCH  13  14
ATOM     14  C   UNL     1     116.127  15.506  28.819  1.00  0.00    -0.000 C 
BRANCH  14  15
ATOM     15  C   UNL     1     117.313  15.123  27.917  1.00  0.00    -0.000 C 
BRANCH  15  16
ATOM     16  C   UNL     1     117.915  16.349  27.199  1.00  0.00    -0.000 C 
BRANCH  16  17
ATOM     17  C   UNL     1     118.149  16.128  25.694  1.00  0.00    -0.000 C 
BRANCH  17  18
ATOM     18  C   UNL     1     118.090  17.430  24.882  1.00  0.00    -0.000 C 
BRANCH  18  19
ATOM     19  C   UNL     1     116.736  18.126  25.057  1.00  0.00    -0.003 C 
ATOM     20  C   UNL     1     116.911  19.550  25.578  1.00  0.00     0.004 C 
ENDBRANCH  18  19
ENDBRANCH  17  18
ENDBRANCH  16  17
ENDBRANCH  15  16
ENDBRANCH  14  15
ENDBRANCH  13  14
ENDBRANCH  12  13
ENDBRANCH   1  12
TORSDOF 16
ENDMDL
MODEL 8
REMARK VINA RESULT:    -1.524      1.874      3.302
REMARK INTER + INTRA:          -5.989
REMARK INTER:                  -3.208
REMARK INTRA:                  -2.781
REMARK UNBOUND:                -3.039
REMARK SMILES CCCCCCCCCCCCCCCCCC(=O)[O-]
REMARK SMILES IDX 10 1 11 2 12 3 13 4 14 5 15 6 16 7 17 8 18 9 19 10 20 11
REMARK SMILES IDX 9 12 8 13 7 14 6 15 5 16 4 17 3 18 2 19 1 20
REMARK H PARENT
REMARK Flexibility Score: inf
ROOT
ATOM      1  C   UNL     1     115.054  14.606  25.062  1.00  0.00     0.000 C 
ENDROOT
BRANCH   1   2
ATOM      2  C   UNL     1     114.686  15.234  26.419  1.00  0.00     0.000 C 
BRANCH   2   3
ATOM      3  C   UNL     1     115.026  14.312  27.604  1.00  0.00     0.000 C 
BRANCH   3   4
ATOM      4  C   UNL     1     115.927  14.991  28.647  1.00  0.00     0.000 C 
BRANCH   4   5
ATOM      5  C   UNL     1     117.411  14.616  28.482  1.00  0.00     0.000 C 
BRANCH   5   6
ATOM      6  C   UNL     1     118.305  15.843  28.235  1.00  0.00     0.000 C 
BRANCH   6   7
ATOM      7  C   UNL     1     118.266  16.318  26.771  1.00  0.00     0.006 C 
BRANCH   7   8
ATOM      8  C   UNL     1     117.566  17.675  26.621  1.00  0.00     0.053 C 
BRANCH   8   9
ATOM      9  C   UNL     1     117.265  17.989  25.187  1.00  0.00     0.041 C 
ATOM     10  O   UNL     1     116.073  18.106  24.800  1.00  0.00    -0.550 OA
ATOM     11  O   UNL     1     118.304  18.176  24.284  1.00  0.00    -0.550 OA
ENDBRANCH   8   9
ENDBRANCH   7   8
ENDBRANCH   6   7
ENDBRANCH   5   6
ENDBRANCH   4   5
ENDBRANCH   3   4
ENDBRANCH   2   3
ENDBRANCH   1   2
BRANCH   1  12
ATOM     12  C   UNL     1     116.272  13.666  25.115  1.00  0.00     0.000 C 
BRANCH  12  13
ATOM     13  C   UNL     1     115.945  12.251  24.604  1.00  0.00    -0.000 C 
BRANCH  13  14
ATOM     14  C   UNL     1     116.590  11.955  23.241  1.00  0.00    -0.000 C 
BRANCH  14  15
ATOM     15  C   UNL     1     115.687  12.348  22.059  1.00  0.00    -0.000 C 
BRANCH  15  16
ATOM     16  C   UNL     1     116.304  13.477  21.208  1.00  0.00    -0.000 C 
BRANCH  16  17
ATOM     17  C   UNL     1     117.706  13.905  21.676  1.00  0.00    -0.000 C 
BRANCH  17  18
ATOM     18  C   UNL     1     117.746  15.346  22.206  1.00  0.00    -0.000 C 
BRANCH  18  19
ATOM     19  C   UNL     1     116.402  16.050  21.986  1.00  0.00    -0.003 C 
ATOM     20  C   UNL     1     116.579  17.336  21.184  1.00  0.00     0.004 C 
ENDBRANCH  18  19
ENDBRANCH  17  18
ENDBRANCH  16  17
ENDBRANCH  15  16
ENDBRANCH  14  15
ENDBRANCH  13  14
ENDBRANCH  12  13
ENDBRANCH   1  12
TORSDOF 16
ENDMDL
MODEL 9
REMARK VINA RESULT:    -1.516      2.511      4.630
REMARK INTER + INTRA:          -5.973
REMARK INTER:                  -2.737
REMARK INTRA:                  -3.236
REMARK UNBOUND:                -3.039
REMARK SMILES CCCCCCCCCCCCCCCCCC(=O)[O-]
REMARK SMILES IDX 10 1 11 2 12 3 13 4 14 5 15 6 16 7 17 8 18 9 19 10 20 11
REMARK SMILES IDX 9 12 8 13 7 14 6 15 5 16 4 17 3 18 2 19 1 20
REMARK H PARENT
REMARK Flexibility Score: inf
ROOT
ATOM      1  C   UNL     1     114.644  16.510  23.199  1.00  0.00     0.000 C 
ENDROOT
BRANCH   1   2
ATOM      2  C   UNL     1     115.194  16.443  21.762  1.00  0.00     0.000 C 
BRANCH   2   3
ATOM      3  C   UNL     1     116.717  16.661  21.706  1.00  0.00     0.000 C 
BRANCH   3   4
ATOM      4  C   UNL     1     117.495  15.361  21.446  1.00  0.00     0.000 C 
BRANCH   4   5
ATOM      5  C   UNL     1     118.844  15.320  22.185  1.00  0.00     0.000 C 
BRANCH   5   6
ATOM      6  C   UNL     1     119.217  16.677  22.805  1.00  0.00     0.000 C 
BRANCH   6   7
ATOM      7  C   UNL     1     120.208  16.541  23.976  1.00  0.00     0.006 C 
BRANCH   7   8
ATOM      8  C   UNL     1     119.527  16.737  25.337  1.00  0.00     0.053 C 
BRANCH   8   9
ATOM      9  C   UNL     1     119.334  18.188  25.657  1.00  0.00     0.041 C 
ATOM     10  O   UNL     1     118.187  18.628  25.933  1.00  0.00    -0.550 OA
ATOM     11  O   UNL     1     120.425  19.047  25.673  1.00  0.00    -0.550 OA
ENDBRANCH   8   9
ENDBRANCH   7   8
ENDBRANCH   6   7
ENDBRANCH   5   6
ENDBRANCH   4   5
ENDBRANCH   3   4
ENDBRANCH   2   3
ENDBRANCH   1   2
BRANCH   1  12
ATOM     12  C   UNL     1     115.722  16.748  24.272  1.00  0.00     0.000 C 
BRANCH  12  13
ATOM     13  C   UNL     1     115.689  15.683  25.384  1.00  0.00    -0.000 C 
BRANCH  13  14
ATOM     14  C   UNL     1     116.640  14.508  25.099  1.00  0.00    -0.000 C 
BRANCH  14  15
ATOM     15  C   UNL     1     115.893  13.229  24.682  1.00  0.00    -0.000 C 
BRANCH  15  16
ATOM     16  C   UNL     1     116.723  12.364  23.710  1.00  0.00    -0.000 C 
BRANCH  16  17
ATOM     17  C   UNL     1     115.984  12.026  22.404  1.00  0.00    -0.000 C 
BRANCH  17  18
ATOM     18  C   UNL     1     114.669  12.801  22.242  1.00  0.00    -0.000 C 
BRANCH  18  19
ATOM     19  C   UNL     1     114.347  13.035  20.761  1.00  0.00    -0.003 C 
ATOM     20  C   UNL     1     115.534  12.667  19.875  1.00  0.00     0.004 C 
ENDBRANCH  18  19
ENDBRANCH  17  18
ENDBRANCH  16  17
ENDBRANCH  15  16
ENDBRANCH  14  15
ENDBRANCH  13  14
ENDBRANCH  12  13
ENDBRANCH   1  12
TORSDOF 16
ENDMDL
