MODEL 1
REMARK VINA RESULT:    -2.587      0.000      0.000
REMARK INTER + INTRA:         -11.813
REMARK INTER:                  -6.519
REMARK INTRA:                  -5.294
REMARK UNBOUND:                -5.294
REMARK SMILES CCCCCCCCCCCCCCCCCCCCCCCCCCCC(=O)[O-]
REMARK SMILES IDX 15 1 16 2 17 3 18 4 19 5 20 6 21 7 22 8 23 9 24 10 25 11
REMARK SMILES IDX 26 12 27 13 28 14 29 15 30 16 14 17 13 18 12 19 11 20 10 21
REMARK SMILES IDX 9 22 8 23 7 24 6 25 5 26 4 27 3 28 2 29 1 30
REMARK H PARENT
REMARK Flexibility Score: inf
ROOT
ATOM      1  C   UNL     1       7.231  -1.866  -3.257  1.00  0.00     0.000 C 
ENDROOT
BRANCH   1   2
ATOM      2  C   UNL     1       7.012  -0.343  -3.337  1.00  0.00     0.000 C 
BRANCH   2   3
ATOM      3  C   UNL     1       7.476   0.449  -2.099  1.00  0.00     0.000 C 
BRANCH   3   4
ATOM      4  C   UNL     1       7.326   1.979  -2.213  1.00  0.00     0.000 C 
BRANCH   4   5
ATOM      5  C   UNL     1       8.649   2.734  -2.488  1.00  0.00     0.000 C 
BRANCH   5   6
ATOM      6  C   UNL     1       9.907   1.942  -2.084  1.00  0.00     0.000 C 
BRANCH   6   7
ATOM      7  C   UNL     1      10.710   2.586  -0.941  1.00  0.00     0.000 C 
BRANCH   7   8
ATOM      8  C   UNL     1       9.939   3.710  -0.208  1.00  0.00     0.000 C 
BRANCH   8   9
ATOM      9  C   UNL     1       9.475   3.287   1.195  1.00  0.00     0.000 C 
BRANCH   9  10
ATOM     10  C   UNL     1       7.943   3.112   1.280  1.00  0.00     0.000 C 
BRANCH  10  11
ATOM     11  C   UNL     1       7.406   3.030   2.722  1.00  0.00     0.000 C 
BRANCH  11  12
ATOM     12  C   UNL     1       7.353   1.611   3.312  1.00  0.00     0.006 C 
BRANCH  12  13
ATOM     13  C   UNL     1       8.283   1.435   4.519  1.00  0.00     0.053 C 
BRANCH  13  14
ATOM     14  C   UNL     1       7.599   1.879   5.774  1.00  0.00     0.041 C 
ATOM     15  O   UNL     1       7.842   3.015   6.261  1.00  0.00    -0.550 OA
ATOM     16  O   UNL     1       6.730   1.019   6.434  1.00  0.00    -0.550 OA
ENDBRANCH  13  14
ENDBRANCH  12  13
ENDBRANCH  11  12
ENDBRANCH  10  11
ENDBRANCH   9  10
ENDBRANCH   8   9
ENDBRANCH   7   8
ENDBRANCH   6   7
ENDBRANCH   5   6
ENDBRANCH   4   5
ENDBRANCH   3   4
ENDBRANCH   2   3
ENDBRANCH   1   2
BRANCH   1  17
ATOM     17  C   UNL     1       8.002  -2.318  -1.998  1.00  0.00     0.000 C 
BRANCH  17  18
ATOM     18  C   UNL     1       8.937  -3.506  -2.286  1.00  0.00     0.000 C 
BRANCH  18  19
ATOM     19  C   UNL     1      10.413  -3.079  -2.434  1.00  0.00     0.000 C 
BRANCH  19  20
ATOM     20  C   UNL     1      11.355  -3.717  -1.393  1.00  0.00     0.000 C 
BRANCH  20  21
ATOM     21  C   UNL     1      11.670  -2.834  -0.172  1.00  0.00     0.000 C 
BRANCH  21  22
ATOM     22  C   UNL     1      11.373  -1.331  -0.357  1.00  0.00    -0.000 C 
BRANCH  22  23
ATOM     23  C   UNL     1      10.874  -0.607   0.907  1.00  0.00    -0.000 C 
BRANCH  23  24
ATOM     24  C   UNL     1       9.351  -0.388   0.907  1.00  0.00    -0.000 C 
BRANCH  24  25
ATOM     25  C   UNL     1       8.606  -1.479   1.705  1.00  0.00    -0.000 C 
BRANCH  25  26
ATOM     26  C   UNL     1       9.419  -2.042   2.884  1.00  0.00    -0.000 C 
BRANCH  26  27
ATOM     27  C   UNL     1       9.522  -3.575   2.855  1.00  0.00    -0.000 C 
BRANCH  27  28
ATOM     28  C   UNL     1       8.364  -4.233   2.088  1.00  0.00    -0.000 C 
BRANCH  28  29
ATOM     29  C   UNL     1       8.847  -5.170   0.971  1.00  0.00    -0.003 C 
ATOM     30  C   UNL     1      10.095  -5.938   1.400  1.00  0.00     0.004 C 
ENDBRANCH  28  29
ENDBRANCH  27  28
ENDBRANCH  26  27
ENDBRANCH  25  26
ENDBRANCH  24  25
ENDBRANCH  23  24
ENDBRANCH  22  23
ENDBRANCH  21  22
ENDBRANCH  20  21
ENDBRANCH  19  20
ENDBRANCH  18  19
ENDBRANCH  17  18
ENDBRANCH   1  17
TORSDOF 26
ENDMDL
MODEL 2
REMARK VINA RESULT:    -2.543      5.728      9.932
REMARK INTER + INTRA:         -11.702
REMARK INTER:                  -8.222
REMARK INTRA:                  -3.481
REMARK UNBOUND:                -5.294
REMARK SMILES CCCCCCCCCCCCCCCCCCCCCCCCCCCC(=O)[O-]
REMARK SMILES IDX 15 1 16 2 17 3 18 4 19 5 20 6 21 7 22 8 23 9 24 10 25 11
REMARK SMILES IDX 26 12 27 13 28 14 29 15 30 16 14 17 13 18 12 19 11 20 10 21
REMARK SMILES IDX 9 22 8 23 7 24 6 25 5 26 4 27 3 28 2 29 1 30
REMARK H PARENT
REMARK Flexibility Score: inf
ROOT
ATOM      1  C   UNL     1       7.584  -4.744  -3.250  1.00  0.00     0.000 C 
ENDROOT
BRANCH   1   2
ATOM      2  C   UNL     1       6.506  -4.881  -4.343  1.00  0.00     0.000 C 
BRANCH   2   3
ATOM      3  C   UNL     1       6.105  -3.562  -5.033  1.00  0.00     0.000 C 
BRANCH   3   4
ATOM      4  C   UNL     1       4.586  -3.319  -5.137  1.00  0.00     0.000 C 
BRANCH   4   5
ATOM      5  C   UNL     1       3.951  -3.792  -6.466  1.00  0.00     0.000 C 
BRANCH   5   6
ATOM      6  C   UNL     1       2.412  -3.858  -6.426  1.00  0.00     0.000 C 
BRANCH   6   7
ATOM      7  C   UNL     1       1.839  -4.239  -5.050  1.00  0.00     0.000 C 
BRANCH   7   8
ATOM      8  C   UNL     1       1.131  -5.615  -5.040  1.00  0.00     0.000 C 
BRANCH   8   9
ATOM      9  C   UNL     1       1.594  -6.505  -3.875  1.00  0.00     0.000 C 
BRANCH   9  10
ATOM     10  C   UNL     1       3.098  -6.341  -3.570  1.00  0.00     0.000 C 
BRANCH  10  11
ATOM     11  C   UNL     1       3.928  -7.613  -3.829  1.00  0.00     0.000 C 
BRANCH  11  12
ATOM     12  C   UNL     1       4.731  -8.118  -2.619  1.00  0.00     0.006 C 
BRANCH  12  13
ATOM     13  C   UNL     1       6.239  -8.182  -2.892  1.00  0.00     0.053 C 
BRANCH  13  14
ATOM     14  C   UNL     1       6.967  -8.689  -1.687  1.00  0.00     0.041 C 
ATOM     15  O   UNL     1       8.204  -8.488  -1.562  1.00  0.00    -0.550 OA
ATOM     16  O   UNL     1       6.289  -9.429  -0.726  1.00  0.00    -0.550 OA
ENDBRANCH  13  14
ENDBRANCH  12  13
ENDBRANCH  11  12
ENDBRANCH  10  11
ENDBRANCH   9  10
ENDBRANCH   8   9
ENDBRANCH   7   8
ENDBRANCH   6   7
ENDBRANCH   5   6
ENDBRANCH   4   5
ENDBRANCH   3   4
ENDBRANCH   2   3
ENDBRANCH   1   2
BRANCH   1  17
ATOM     17  C   UNL     1       8.291  -3.371  -3.243  1.00  0.00     0.000 C 
BRANCH  17  18
ATOM     18  C   UNL     1       8.295  -2.727  -1.846  1.00  0.00     0.000 C 
BRANCH  18  19
ATOM     19  C   UNL     1       8.205  -1.187  -1.899  1.00  0.00     0.000 C 
BRANCH  19  20
ATOM     20  C   UNL     1       7.157  -0.657  -2.898  1.00  0.00     0.000 C 
BRANCH  20  21
ATOM     21  C   UNL     1       7.011   0.875  -2.938  1.00  0.00     0.000 C 
BRANCH  21  22
ATOM     22  C   UNL     1       5.981   1.407  -3.957  1.00  0.00    -0.000 C 
BRANCH  22  23
ATOM     23  C   UNL     1       5.085   0.330  -4.598  1.00  0.00    -0.000 C 
BRANCH  23  24
ATOM     24  C   UNL     1       3.738   0.890  -5.088  1.00  0.00    -0.000 C 
BRANCH  24  25
ATOM     25  C   UNL     1       2.777  -0.227  -5.547  1.00  0.00    -0.000 C 
BRANCH  25  26
ATOM     26  C   UNL     1       1.728  -0.608  -4.489  1.00  0.00    -0.000 C 
BRANCH  26  27
ATOM     27  C   UNL     1       0.646   0.469  -4.309  1.00  0.00    -0.000 C 
BRANCH  27  28
ATOM     28  C   UNL     1       0.605   1.034  -2.881  1.00  0.00    -0.000 C 
BRANCH  28  29
ATOM     29  C   UNL     1       0.851   2.551  -2.835  1.00  0.00    -0.003 C 
ATOM     30  C   UNL     1       1.007   3.039  -1.397  1.00  0.00     0.004 C 
ENDBRANCH  28  29
ENDBRANCH  27  28
ENDBRANCH  26  27
ENDBRANCH  25  26
ENDBRANCH  24  25
ENDBRANCH  23  24
ENDBRANCH  22  23
ENDBRANCH  21  22
ENDBRANCH  20  21
ENDBRANCH  19  20
ENDBRANCH  18  19
ENDBRANCH  17  18
ENDBRANCH   1  17
TORSDOF 26
ENDMDL
MODEL 3
REMARK VINA RESULT:    -2.534      2.474      5.403
REMARK INTER + INTRA:         -11.680
REMARK INTER:                  -6.392
REMARK INTRA:                  -5.288
REMARK UNBOUND:                -5.294
REMARK SMILES CCCCCCCCCCCCCCCCCCCCCCCCCCCC(=O)[O-]
REMARK SMILES IDX 15 1 16 2 17 3 18 4 19 5 20 6 21 7 22 8 23 9 24 10 25 11
REMARK SMILES IDX 26 12 27 13 28 14 29 15 30 16 14 17 13 18 12 19 11 20 10 21
REMARK SMILES IDX 9 22 8 23 7 24 6 25 5 26 4 27 3 28 2 29 1 30
REMARK H PARENT
REMARK Flexibility Score: inf
ROOT
ATOM      1  C   UNL     1       6.862  -2.356  -3.964  1.00  0.00     0.000 C 
ENDROOT
BRANCH   1   2
ATOM      2  C   UNL     1       7.514  -3.724  -3.686  1.00  0.00     0.000 C 
BRANCH   2   3
ATOM      3  C   UNL     1       8.350  -3.798  -2.393  1.00  0.00     0.000 C 
BRANCH   3   4
ATOM      4  C   UNL     1       9.876  -3.838  -2.607  1.00  0.00     0.000 C 
BRANCH   4   5
ATOM      5  C   UNL     1      10.352  -3.214  -3.941  1.00  0.00     0.000 C 
BRANCH   5   6
ATOM      6  C   UNL     1      11.031  -1.841  -3.773  1.00  0.00     0.000 C 
BRANCH   6   7
ATOM      7  C   UNL     1      11.302  -1.454  -2.309  1.00  0.00     0.000 C 
BRANCH   7   8
ATOM      8  C   UNL     1      10.699  -0.083  -1.916  1.00  0.00     0.000 C 
BRANCH   8   9
ATOM      9  C   UNL     1      10.539   0.074  -0.395  1.00  0.00     0.000 C 
BRANCH   9  10
ATOM     10  C   UNL     1       9.123  -0.302   0.090  1.00  0.00     0.000 C 
BRANCH  10  11
ATOM     11  C   UNL     1       8.958  -1.796   0.430  1.00  0.00     0.000 C 
BRANCH  11  12
ATOM     12  C   UNL     1       8.614  -2.091   1.899  1.00  0.00     0.006 C 
BRANCH  12  13
ATOM     13  C   UNL     1       9.380  -3.297   2.457  1.00  0.00     0.053 C 
BRANCH  13  14
ATOM     14  C   UNL     1       8.813  -4.571   1.915  1.00  0.00     0.041 C 
ATOM     15  O   UNL     1       7.864  -5.148   2.510  1.00  0.00    -0.550 OA
ATOM     16  O   UNL     1       9.366  -5.150   0.779  1.00  0.00    -0.550 OA
ENDBRANCH  13  14
ENDBRANCH  12  13
ENDBRANCH  11  12
ENDBRANCH  10  11
ENDBRANCH   9  10
ENDBRANCH   8   9
ENDBRANCH   7   8
ENDBRANCH   6   7
ENDBRANCH   5   6
ENDBRANCH   4   5
ENDBRANCH   3   4
ENDBRANCH   2   3
ENDBRANCH   1   2
BRANCH   1  17
ATOM     17  C   UNL     1       7.231  -1.269  -2.931  1.00  0.00     0.000 C 
BRANCH  17  18
ATOM     18  C   UNL     1       7.559   0.078  -3.598  1.00  0.00     0.000 C 
BRANCH  18  19
ATOM     19  C   UNL     1       6.862   1.270  -2.907  1.00  0.00     0.000 C 
BRANCH  19  20
ATOM     20  C   UNL     1       7.838   2.328  -2.354  1.00  0.00     0.000 C 
BRANCH  20  21
ATOM     21  C   UNL     1       7.667   2.653  -0.859  1.00  0.00     0.000 C 
BRANCH  21  22
ATOM     22  C   UNL     1       8.822   3.460  -0.229  1.00  0.00    -0.000 C 
BRANCH  22  23
ATOM     23  C   UNL     1       9.025   3.234   1.280  1.00  0.00    -0.000 C 
BRANCH  23  24
ATOM     24  C   UNL     1       7.794   3.630   2.114  1.00  0.00    -0.000 C 
BRANCH  24  25
ATOM     25  C   UNL     1       7.216   2.435   2.902  1.00  0.00    -0.000 C 
BRANCH  25  26
ATOM     26  C   UNL     1       8.219   1.284   3.096  1.00  0.00    -0.000 C 
BRANCH  26  27
ATOM     27  C   UNL     1       8.706   1.159   4.549  1.00  0.00    -0.000 C 
BRANCH  27  28
ATOM     28  C   UNL     1      10.196   0.796   4.645  1.00  0.00    -0.000 C 
BRANCH  28  29
ATOM     29  C   UNL     1      10.899   0.806   3.278  1.00  0.00    -0.003 C 
ATOM     30  C   UNL     1      11.735  -0.456   3.081  1.00  0.00     0.004 C 
ENDBRANCH  28  29
ENDBRANCH  27  28
ENDBRANCH  26  27
ENDBRANCH  25  26
ENDBRANCH  24  25
ENDBRANCH  23  24
ENDBRANCH  22  23
ENDBRANCH  21  22
ENDBRANCH  20  21
ENDBRANCH  19  20
ENDBRANCH  18  19
ENDBRANCH  17  18
ENDBRANCH   1  17
TORSDOF 26
ENDMDL
MODEL 4
REMARK VINA RESULT:    -2.519      3.837      6.374
REMARK INTER + INTRA:         -11.641
REMARK INTER:                  -7.698
REMARK INTRA:                  -3.943
REMARK UNBOUND:                -5.294
REMARK SMILES CCCCCCCCCCCCCCCCCCCCCCCCCCCC(=O)[O-]
REMARK SMILES IDX 15 1 16 2 17 3 18 4 19 5 20 6 21 7 22 8 23 9 24 10 25 11
REMARK SMILES IDX 26 12 27 13 28 14 29 15 30 16 14 17 13 18 12 19 11 20 10 21
REMARK SMILES IDX 9 22 8 23 7 24 6 25 5 26 4 27 3 28 2 29 1 30
REMARK H PARENT
REMARK Flexibility Score: inf
ROOT
ATOM      1  C   UNL     1       4.656  -2.370  -6.489  1.00  0.00     0.000 C 
ENDROOT
BRANCH   1   2
ATOM      2  C   UNL     1       5.403  -2.804  -5.213  1.00  0.00     0.000 C 
BRANCH   2   3
ATOM      3  C   UNL     1       6.323  -1.730  -4.599  1.00  0.00     0.000 C 
BRANCH   3   4
ATOM      4  C   UNL     1       5.692  -0.330  -4.469  1.00  0.00     0.000 C 
BRANCH   4   5
ATOM      5  C   UNL     1       6.512   0.666  -3.614  1.00  0.00     0.000 C 
BRANCH   5   6
ATOM      6  C   UNL     1       7.220   0.010  -2.413  1.00  0.00     0.000 C 
BRANCH   6   7
ATOM      7  C   UNL     1       8.520   0.719  -1.992  1.00  0.00     0.000 C 
BRANCH   7   8
ATOM      8  C   UNL     1       8.644   0.914  -0.462  1.00  0.00     0.000 C 
BRANCH   8   9
ATOM      9  C   UNL     1      10.094   0.783   0.032  1.00  0.00     0.000 C 
BRANCH   9  10
ATOM     10  C   UNL     1      10.263  -0.353   1.064  1.00  0.00     0.000 C 
BRANCH  10  11
ATOM     11  C   UNL     1       8.965  -0.714   1.811  1.00  0.00     0.000 C 
BRANCH  11  12
ATOM     12  C   UNL     1       8.523  -2.180   1.666  1.00  0.00     0.006 C 
BRANCH  12  13
ATOM     13  C   UNL     1       9.588  -3.172   2.152  1.00  0.00     0.053 C 
BRANCH  13  14
ATOM     14  C   UNL     1       9.012  -4.550   2.250  1.00  0.00     0.041 C 
ATOM     15  O   UNL     1       7.765  -4.712   2.314  1.00  0.00    -0.550 OA
ATOM     16  O   UNL     1       9.855  -5.652   2.322  1.00  0.00    -0.550 OA
ENDBRANCH  13  14
ENDBRANCH  12  13
ENDBRANCH  11  12
ENDBRANCH  10  11
ENDBRANCH   9  10
ENDBRANCH   8   9
ENDBRANCH   7   8
ENDBRANCH   6   7
ENDBRANCH   5   6
ENDBRANCH   4   5
ENDBRANCH   3   4
ENDBRANCH   2   3
ENDBRANCH   1   2
BRANCH   1  17
ATOM     17  C   UNL     1       3.219  -2.928  -6.589  1.00  0.00     0.000 C 
BRANCH  17  18
ATOM     18  C   UNL     1       2.366  -2.558  -5.363  1.00  0.00     0.000 C 
BRANCH  18  19
ATOM     19  C   UNL     1       1.640  -3.776  -4.753  1.00  0.00     0.000 C 
BRANCH  19  20
ATOM     20  C   UNL     1       2.385  -5.111  -4.953  1.00  0.00     0.000 C 
BRANCH  20  21
ATOM     21  C   UNL     1       2.664  -5.901  -3.661  1.00  0.00     0.000 C 
BRANCH  21  22
ATOM     22  C   UNL     1       4.014  -6.648  -3.630  1.00  0.00    -0.000 C 
BRANCH  22  23
ATOM     23  C   UNL     1       4.908  -6.425  -4.864  1.00  0.00    -0.000 C 
BRANCH  23  24
ATOM     24  C   UNL     1       6.357  -6.894  -4.643  1.00  0.00    -0.000 C 
BRANCH  24  25
ATOM     25  C   UNL     1       6.926  -6.408  -3.293  1.00  0.00    -0.000 C 
BRANCH  25  26
ATOM     26  C   UNL     1       7.598  -5.026  -3.371  1.00  0.00    -0.000 C 
BRANCH  26  27
ATOM     27  C   UNL     1       8.528  -4.750  -2.179  1.00  0.00    -0.000 C 
BRANCH  27  28
ATOM     28  C   UNL     1       8.539  -3.270  -1.766  1.00  0.00    -0.000 C 
BRANCH  28  29
ATOM     29  C   UNL     1       9.943  -2.648  -1.819  1.00  0.00    -0.003 C 
ATOM     30  C   UNL     1      10.984  -3.592  -1.220  1.00  0.00     0.004 C 
ENDBRANCH  28  29
ENDBRANCH  27  28
ENDBRANCH  26  27
ENDBRANCH  25  26
ENDBRANCH  24  25
ENDBRANCH  23  24
ENDBRANCH  22  23
ENDBRANCH  21  22
ENDBRANCH  20  21
ENDBRANCH  19  20
ENDBRANCH  18  19
ENDBRANCH  17  18
ENDBRANCH   1  17
TORSDOF 26
ENDMDL
MODEL 5
REMARK VINA RESULT:    -2.491      4.001      8.172
REMARK INTER + INTRA:         -11.572
REMARK INTER:                  -7.466
REMARK INTRA:                  -4.106
REMARK UNBOUND:                -5.294
REMARK SMILES CCCCCCCCCCCCCCCCCCCCCCCCCCCC(=O)[O-]
REMARK SMILES IDX 15 1 16 2 17 3 18 4 19 5 20 6 21 7 22 8 23 9 24 10 25 11
REMARK SMILES IDX 26 12 27 13 28 14 29 15 30 16 14 17 13 18 12 19 11 20 10 21
REMARK SMILES IDX 9 22 8 23 7 24 6 25 5 26 4 27 3 28 2 29 1 30
REMARK H PARENT
REMARK Flexibility Score: inf
ROOT
ATOM      1  C   UNL     1       4.252  -4.630  -6.165  1.00  0.00     0.000 C 
ENDROOT
BRANCH   1   2
ATOM      2  C   UNL     1       3.129  -4.152  -5.225  1.00  0.00     0.000 C 
BRANCH   2   3
ATOM      3  C   UNL     1       2.499  -5.252  -4.348  1.00  0.00     0.000 C 
BRANCH   3   4
ATOM      4  C   UNL     1       3.061  -6.669  -4.580  1.00  0.00     0.000 C 
BRANCH   4   5
ATOM      5  C   UNL     1       3.786  -7.278  -3.355  1.00  0.00     0.000 C 
BRANCH   5   6
ATOM      6  C   UNL     1       5.286  -6.934  -3.293  1.00  0.00     0.000 C 
BRANCH   6   7
ATOM      7  C   UNL     1       6.154  -8.040  -2.667  1.00  0.00     0.000 C 
BRANCH   7   8
ATOM      8  C   UNL     1       7.673  -7.766  -2.782  1.00  0.00     0.000 C 
BRANCH   8   9
ATOM      9  C   UNL     1       7.992  -6.267  -2.898  1.00  0.00     0.000 C 
BRANCH   9  10
ATOM     10  C   UNL     1       8.876  -5.761  -1.737  1.00  0.00     0.000 C 
BRANCH  10  11
ATOM     11  C   UNL     1       8.790  -4.240  -1.506  1.00  0.00     0.000 C 
BRANCH  11  12
ATOM     12  C   UNL     1       8.988  -3.796  -0.048  1.00  0.00     0.006 C 
BRANCH  12  13
ATOM     13  C   UNL     1       9.494  -4.928   0.854  1.00  0.00     0.053 C 
BRANCH  13  14
ATOM     14  C   UNL     1       8.421  -5.358   1.805  1.00  0.00     0.041 C 
ATOM     15  O   UNL     1       7.732  -4.497   2.414  1.00  0.00    -0.550 OA
ATOM     16  O   UNL     1       8.216  -6.709   2.057  1.00  0.00    -0.550 OA
ENDBRANCH  13  14
ENDBRANCH  12  13
ENDBRANCH  11  12
ENDBRANCH  10  11
ENDBRANCH   9  10
ENDBRANCH   8   9
ENDBRANCH   7   8
ENDBRANCH   6   7
ENDBRANCH   5   6
ENDBRANCH   4   5
ENDBRANCH   3   4
ENDBRANCH   2   3
ENDBRANCH   1   2
BRANCH   1  17
ATOM     17  C   UNL     1       5.549  -3.798  -6.060  1.00  0.00     0.000 C 
BRANCH  17  18
ATOM     18  C   UNL     1       6.004  -3.615  -4.601  1.00  0.00     0.000 C 
BRANCH  18  19
ATOM     19  C   UNL     1       7.123  -2.562  -4.454  1.00  0.00     0.000 C 
BRANCH  19  20
ATOM     20  C   UNL     1       6.960  -1.645  -3.225  1.00  0.00     0.000 C 
BRANCH  20  21
ATOM     21  C   UNL     1       8.188  -0.779  -2.891  1.00  0.00     0.000 C 
BRANCH  21  22
ATOM     22  C   UNL     1       8.171  -0.134  -1.489  1.00  0.00    -0.000 C 
BRANCH  22  23
ATOM     23  C   UNL     1       8.040   1.401  -1.482  1.00  0.00    -0.000 C 
BRANCH  23  24
ATOM     24  C   UNL     1       7.888   1.993  -2.894  1.00  0.00    -0.000 C 
BRANCH  24  25
ATOM     25  C   UNL     1       6.528   2.698  -3.086  1.00  0.00    -0.000 C 
BRANCH  25  26
ATOM     26  C   UNL     1       5.520   1.877  -3.907  1.00  0.00    -0.000 C 
BRANCH  26  27
ATOM     27  C   UNL     1       6.133   1.296  -5.191  1.00  0.00    -0.000 C 
BRANCH  27  28
ATOM     28  C   UNL     1       5.198   0.301  -5.897  1.00  0.00    -0.000 C 
BRANCH  28  29
ATOM     29  C   UNL     1       4.014  -0.129  -5.016  1.00  0.00    -0.003 C 
ATOM     30  C   UNL     1       2.958  -0.865  -5.837  1.00  0.00     0.004 C 
ENDBRANCH  28  29
ENDBRANCH  27  28
ENDBRANCH  26  27
ENDBRANCH  25  26
ENDBRANCH  24  25
ENDBRANCH  23  24
ENDBRANCH  22  23
ENDBRANCH  21  22
ENDBRANCH  20  21
ENDBRANCH  19  20
ENDBRANCH  18  19
ENDBRANCH  17  18
ENDBRANCH   1  17
TORSDOF 26
ENDMDL
MODEL 6
REMARK VINA RESULT:    -2.437      1.990      5.716
REMARK INTER + INTRA:         -11.437
REMARK INTER:                  -6.617
REMARK INTRA:                  -4.820
REMARK UNBOUND:                -5.294
REMARK SMILES CCCCCCCCCCCCCCCCCCCCCCCCCCCC(=O)[O-]
REMARK SMILES IDX 15 1 16 2 17 3 18 4 19 5 20 6 21 7 22 8 23 9 24 10 25 11
REMARK SMILES IDX 26 12 27 13 28 14 29 15 30 16 14 17 13 18 12 19 11 20 10 21
REMARK SMILES IDX 9 22 8 23 7 24 6 25 5 26 4 27 3 28 2 29 1 30
REMARK H PARENT
REMARK Flexibility Score: inf
ROOT
ATOM      1  C   UNL     1      10.342  -2.504  -0.967  1.00  0.00     0.000 C 
ENDROOT
BRANCH   1   2
ATOM      2  C   UNL     1      10.177  -3.161   0.417  1.00  0.00     0.000 C 
BRANCH   2   3
ATOM      3  C   UNL     1       8.911  -4.026   0.582  1.00  0.00     0.000 C 
BRANCH   3   4
ATOM      4  C   UNL     1       8.279  -3.990   1.988  1.00  0.00     0.000 C 
BRANCH   4   5
ATOM      5  C   UNL     1       8.570  -5.240   2.853  1.00  0.00     0.000 C 
BRANCH   5   6
ATOM      6  C   UNL     1      10.066  -5.445   3.156  1.00  0.00     0.000 C 
BRANCH   6   7
ATOM      7  C   UNL     1      10.537  -4.777   4.460  1.00  0.00     0.000 C 
BRANCH   7   8
ATOM      8  C   UNL     1      10.883  -3.278   4.290  1.00  0.00     0.000 C 
BRANCH   8   9
ATOM      9  C   UNL     1      10.066  -2.376   5.229  1.00  0.00     0.000 C 
BRANCH   9  10
ATOM     10  C   UNL     1       9.918  -0.939   4.684  1.00  0.00     0.000 C 
BRANCH  10  11
ATOM     11  C   UNL     1       9.930  -0.853   3.146  1.00  0.00     0.000 C 
BRANCH  11  12
ATOM     12  C   UNL     1       8.645  -0.286   2.520  1.00  0.00     0.006 C 
BRANCH  12  13
ATOM     13  C   UNL     1       8.693   1.237   2.343  1.00  0.00     0.053 C 
BRANCH  13  14
ATOM     14  C   UNL     1       7.660   1.894   3.203  1.00  0.00     0.041 C 
ATOM     15  O   UNL     1       7.504   1.529   4.399  1.00  0.00    -0.550 OA
ATOM     16  O   UNL     1       6.834   2.876   2.671  1.00  0.00    -0.550 OA
ENDBRANCH  13  14
ENDBRANCH  12  13
ENDBRANCH  11  12
ENDBRANCH  10  11
ENDBRANCH   9  10
ENDBRANCH   8   9
ENDBRANCH   7   8
ENDBRANCH   6   7
ENDBRANCH   5   6
ENDBRANCH   4   5
ENDBRANCH   3   4
ENDBRANCH   2   3
ENDBRANCH   1   2
BRANCH   1  17
ATOM     17  C   UNL     1       9.858  -1.039  -1.022  1.00  0.00     0.000 C 
BRANCH  17  18
ATOM     18  C   UNL     1       8.325  -0.937  -1.108  1.00  0.00     0.000 C 
BRANCH  18  19
ATOM     19  C   UNL     1       7.852  -0.028  -2.263  1.00  0.00     0.000 C 
BRANCH  19  20
ATOM     20  C   UNL     1       7.069  -0.772  -3.363  1.00  0.00     0.000 C 
BRANCH  20  21
ATOM     21  C   UNL     1       7.648  -2.142  -3.762  1.00  0.00     0.000 C 
BRANCH  21  22
ATOM     22  C   UNL     1       6.609  -3.176  -4.243  1.00  0.00    -0.000 C 
BRANCH  22  23
ATOM     23  C   UNL     1       6.861  -4.620  -3.768  1.00  0.00    -0.000 C 
BRANCH  23  24
ATOM     24  C   UNL     1       8.062  -4.731  -2.811  1.00  0.00    -0.000 C 
BRANCH  24  25
ATOM     25  C   UNL     1       9.096  -5.770  -3.294  1.00  0.00    -0.000 C 
BRANCH  25  26
ATOM     26  C   UNL     1      10.376  -5.806  -2.441  1.00  0.00    -0.000 C 
BRANCH  26  27
ATOM     27  C   UNL     1      10.599  -7.166  -1.762  1.00  0.00    -0.000 C 
BRANCH  27  28
ATOM     28  C   UNL     1      10.634  -7.065  -0.229  1.00  0.00    -0.000 C 
BRANCH  28  29
ATOM     29  C   UNL     1       9.577  -7.950   0.449  1.00  0.00    -0.003 C 
ATOM     30  C   UNL     1       8.178  -7.639  -0.079  1.00  0.00     0.004 C 
ENDBRANCH  28  29
ENDBRANCH  27  28
ENDBRANCH  26  27
ENDBRANCH  25  26
ENDBRANCH  24  25
ENDBRANCH  23  24
ENDBRANCH  22  23
ENDBRANCH  21  22
ENDBRANCH  20  21
ENDBRANCH  19  20
ENDBRANCH  18  19
ENDBRANCH  17  18
ENDBRANCH   1  17
TORSDOF 26
ENDMDL
MODEL 7
REMARK VINA RESULT:    -2.436      4.218      7.232
REMARK INTER + INTRA:         -11.434
REMARK INTER:                  -6.259
REMARK INTRA:                  -5.175
REMARK UNBOUND:                -5.294
REMARK SMILES CCCCCCCCCCCCCCCCCCCCCCCCCCCC(=O)[O-]
REMARK SMILES IDX 15 1 16 2 17 3 18 4 19 5 20 6 21 7 22 8 23 9 24 10 25 11
REMARK SMILES IDX 26 12 27 13 28 14 29 15 30 16 14 17 13 18 12 19 11 20 10 21
REMARK SMILES IDX 9 22 8 23 7 24 6 25 5 26 4 27 3 28 2 29 1 30
REMARK H PARENT
REMARK Flexibility Score: inf
ROOT
ATOM      1  C   UNL     1       9.467  -3.920  -4.455  1.00  0.00     0.000 C 
ENDROOT
BRANCH   1   2
ATOM      2  C   UNL     1      10.612  -2.930  -4.739  1.00  0.00     0.000 C 
BRANCH   2   3
ATOM      3  C   UNL     1      10.228  -1.440  -4.635  1.00  0.00     0.000 C 
BRANCH   3   4
ATOM      4  C   UNL     1      10.331  -0.649  -5.953  1.00  0.00     0.000 C 
BRANCH   4   5
ATOM      5  C   UNL     1       9.018   0.049  -6.385  1.00  0.00     0.000 C 
BRANCH   5   6
ATOM      6  C   UNL     1       7.748  -0.735  -6.005  1.00  0.00     0.000 C 
BRANCH   6   7
ATOM      7  C   UNL     1       6.553   0.158  -5.627  1.00  0.00     0.000 C 
BRANCH   7   8
ATOM      8  C   UNL     1       6.104  -0.010  -4.156  1.00  0.00     0.000 C 
BRANCH   8   9
ATOM      9  C   UNL     1       6.879   0.909  -3.197  1.00  0.00     0.000 C 
BRANCH   9  10
ATOM     10  C   UNL     1       7.665   0.117  -2.130  1.00  0.00     0.000 C 
BRANCH  10  11
ATOM     11  C   UNL     1       7.677  -1.405  -2.368  1.00  0.00     0.000 C 
BRANCH  11  12
ATOM     12  C   UNL     1       8.487  -2.214  -1.340  1.00  0.00     0.006 C 
BRANCH  12  13
ATOM     13  C   UNL     1       9.109  -1.333  -0.249  1.00  0.00     0.053 C 
BRANCH  13  14
ATOM     14  C   UNL     1       9.032  -2.017   1.080  1.00  0.00     0.041 C 
ATOM     15  O   UNL     1       9.234  -3.257   1.168  1.00  0.00    -0.550 OA
ATOM     16  O   UNL     1       8.687  -1.293   2.215  1.00  0.00    -0.550 OA
ENDBRANCH  13  14
ENDBRANCH  12  13
ENDBRANCH  11  12
ENDBRANCH  10  11
ENDBRANCH   9  10
ENDBRANCH   8   9
ENDBRANCH   7   8
ENDBRANCH   6   7
ENDBRANCH   5   6
ENDBRANCH   4   5
ENDBRANCH   3   4
ENDBRANCH   2   3
ENDBRANCH   1   2
BRANCH   1  17
ATOM     17  C   UNL     1       8.810  -4.494  -5.730  1.00  0.00     0.000 C 
BRANCH  17  18
ATOM     18  C   UNL     1       7.398  -5.042  -5.459  1.00  0.00     0.000 C 
BRANCH  18  19
ATOM     19  C   UNL     1       6.631  -4.216  -4.404  1.00  0.00     0.000 C 
BRANCH  19  20
ATOM     20  C   UNL     1       5.424  -3.444  -4.973  1.00  0.00     0.000 C 
BRANCH  20  21
ATOM     21  C   UNL     1       5.142  -3.685  -6.467  1.00  0.00     0.000 C 
BRANCH  21  22
ATOM     22  C   UNL     1       4.118  -2.722  -7.103  1.00  0.00    -0.000 C 
BRANCH  22  23
ATOM     23  C   UNL     1       3.474  -1.720  -6.126  1.00  0.00    -0.000 C 
BRANCH  23  24
ATOM     24  C   UNL     1       1.952  -1.906  -5.998  1.00  0.00    -0.000 C 
BRANCH  24  25
ATOM     25  C   UNL     1       1.575  -2.825  -4.817  1.00  0.00    -0.000 C 
BRANCH  25  26
ATOM     26  C   UNL     1       0.860  -4.118  -5.248  1.00  0.00    -0.000 C 
BRANCH  26  27
ATOM     27  C   UNL     1       1.829  -5.294  -5.447  1.00  0.00    -0.000 C 
BRANCH  27  28
ATOM     28  C   UNL     1       2.600  -5.650  -4.166  1.00  0.00    -0.000 C 
BRANCH  28  29
ATOM     29  C   UNL     1       3.603  -6.795  -4.375  1.00  0.00    -0.003 C 
ATOM     30  C   UNL     1       4.452  -7.017  -3.125  1.00  0.00     0.004 C 
ENDBRANCH  28  29
ENDBRANCH  27  28
ENDBRANCH  26  27
ENDBRANCH  25  26
ENDBRANCH  24  25
ENDBRANCH  23  24
ENDBRANCH  22  23
ENDBRANCH  21  22
ENDBRANCH  20  21
ENDBRANCH  19  20
ENDBRANCH  18  19
ENDBRANCH  17  18
ENDBRANCH   1  17
TORSDOF 26
ENDMDL
MODEL 8
REMARK VINA RESULT:    -2.404      5.166      8.814
REMARK INTER + INTRA:         -11.352
REMARK INTER:                  -6.530
REMARK INTRA:                  -4.822
REMARK UNBOUND:                -5.294
REMARK SMILES CCCCCCCCCCCCCCCCCCCCCCCCCCCC(=O)[O-]
REMARK SMILES IDX 15 1 16 2 17 3 18 4 19 5 20 6 21 7 22 8 23 9 24 10 25 11
REMARK SMILES IDX 26 12 27 13 28 14 29 15 30 16 14 17 13 18 12 19 11 20 10 21
REMARK SMILES IDX 9 22 8 23 7 24 6 25 5 26 4 27 3 28 2 29 1 30
REMARK H PARENT
REMARK Flexibility Score: inf
ROOT
ATOM      1  C   UNL     1       6.348  -2.726  -5.307  1.00  0.00     0.000 C 
ENDROOT
BRANCH   1   2
ATOM      2  C   UNL     1       6.897  -3.349  -4.010  1.00  0.00     0.000 C 
BRANCH   2   3
ATOM      3  C   UNL     1       8.167  -2.678  -3.450  1.00  0.00     0.000 C 
BRANCH   3   4
ATOM      4  C   UNL     1       7.986  -1.981  -2.086  1.00  0.00     0.000 C 
BRANCH   4   5
ATOM      5  C   UNL     1       8.045  -0.436  -2.144  1.00  0.00     0.000 C 
BRANCH   5   6
ATOM      6  C   UNL     1       6.884   0.197  -2.935  1.00  0.00     0.000 C 
BRANCH   6   7
ATOM      7  C   UNL     1       7.327   0.945  -4.204  1.00  0.00     0.000 C 
BRANCH   7   8
ATOM      8  C   UNL     1       6.235   0.994  -5.299  1.00  0.00     0.000 C 
BRANCH   8   9
ATOM      9  C   UNL     1       4.814   0.972  -4.713  1.00  0.00     0.000 C 
BRANCH   9  10
ATOM     10  C   UNL     1       4.059   2.299  -4.947  1.00  0.00     0.000 C 
BRANCH  10  11
ATOM     11  C   UNL     1       3.748   3.075  -3.654  1.00  0.00     0.000 C 
BRANCH  11  12
ATOM     12  C   UNL     1       4.688   4.257  -3.368  1.00  0.00     0.006 C 
BRANCH  12  13
ATOM     13  C   UNL     1       4.648   4.707  -1.901  1.00  0.00     0.053 C 
BRANCH  13  14
ATOM     14  C   UNL     1       5.875   4.246  -1.180  1.00  0.00     0.041 C 
ATOM     15  O   UNL     1       6.025   4.500   0.044  1.00  0.00    -0.550 OA
ATOM     16  O   UNL     1       6.879   3.580  -1.873  1.00  0.00    -0.550 OA
ENDBRANCH  13  14
ENDBRANCH  12  13
ENDBRANCH  11  12
ENDBRANCH  10  11
ENDBRANCH   9  10
ENDBRANCH   8   9
ENDBRANCH   7   8
ENDBRANCH   6   7
ENDBRANCH   5   6
ENDBRANCH   4   5
ENDBRANCH   3   4
ENDBRANCH   2   3
ENDBRANCH   1   2
BRANCH   1  17
ATOM     17  C   UNL     1       4.807  -2.757  -5.409  1.00  0.00     0.000 C 
BRANCH  17  18
ATOM     18  C   UNL     1       4.298  -2.089  -6.698  1.00  0.00     0.000 C 
BRANCH  18  19
ATOM     19  C   UNL     1       2.871  -1.520  -6.550  1.00  0.00     0.000 C 
BRANCH  19  20
ATOM     20  C   UNL     1       2.156  -1.957  -5.255  1.00  0.00     0.000 C 
BRANCH  20  21
ATOM     21  C   UNL     1       1.616  -0.806  -4.387  1.00  0.00     0.000 C 
BRANCH  21  22
ATOM     22  C   UNL     1       0.602   0.122  -5.088  1.00  0.00    -0.000 C 
BRANCH  22  23
ATOM     23  C   UNL     1       0.369   1.475  -4.390  1.00  0.00    -0.000 C 
BRANCH  23  24
ATOM     24  C   UNL     1       0.631   1.417  -2.875  1.00  0.00    -0.000 C 
BRANCH  24  25
ATOM     25  C   UNL     1      -0.500   2.084  -2.063  1.00  0.00    -0.000 C 
BRANCH  25  26
ATOM     26  C   UNL     1      -0.008   2.785  -0.785  1.00  0.00    -0.000 C 
BRANCH  26  27
ATOM     27  C   UNL     1       1.095   3.819  -1.062  1.00  0.00    -0.000 C 
BRANCH  27  28
ATOM     28  C   UNL     1       0.537   5.159  -1.569  1.00  0.00    -0.000 C 
BRANCH  28  29
ATOM     29  C   UNL     1       1.187   5.613  -2.885  1.00  0.00    -0.003 C 
ATOM     30  C   UNL     1       0.364   5.160  -4.089  1.00  0.00     0.004 C 
ENDBRANCH  28  29
ENDBRANCH  27  28
ENDBRANCH  26  27
ENDBRANCH  25  26
ENDBRANCH  24  25
ENDBRANCH  23  24
ENDBRANCH  22  23
ENDBRANCH  21  22
ENDBRANCH  20  21
ENDBRANCH  19  20
ENDBRANCH  18  19
ENDBRANCH  17  18
ENDBRANCH   1  17
TORSDOF 26
ENDMDL
MODEL 9
REMARK VINA RESULT:    -2.396      1.950      5.933
REMARK INTER + INTRA:         -11.333
REMARK INTER:                  -6.324
REMARK INTRA:                  -5.008
REMARK UNBOUND:                -5.294
REMARK SMILES CCCCCCCCCCCCCCCCCCCCCCCCCCCC(=O)[O-]
REMARK SMILES IDX 15 1 16 2 17 3 18 4 19 5 20 6 21 7 22 8 23 9 24 10 25 11
REMARK SMILES IDX 26 12 27 13 28 14 29 15 30 16 14 17 13 18 12 19 11 20 10 21
REMARK SMILES IDX 9 22 8 23 7 24 6 25 5 26 4 27 3 28 2 29 1 30
REMARK H PARENT
REMARK Flexibility Score: inf
ROOT
ATOM      1  C   UNL     1       6.882  -1.793  -3.581  1.00  0.00     0.000 C 
ENDROOT
BRANCH   1   2
ATOM      2  C   UNL     1       7.405  -3.219  -3.838  1.00  0.00     0.000 C 
BRANCH   2   3
ATOM      3  C   UNL     1       8.940  -3.362  -3.839  1.00  0.00     0.000 C 
BRANCH   3   4
ATOM      4  C   UNL     1       9.484  -4.535  -3.001  1.00  0.00     0.000 C 
BRANCH   4   5
ATOM      5  C   UNL     1       8.611  -4.907  -1.778  1.00  0.00     0.000 C 
BRANCH   5   6
ATOM      6  C   UNL     1       9.276  -4.585  -0.425  1.00  0.00     0.000 C 
BRANCH   6   7
ATOM      7  C   UNL     1       9.094  -3.126   0.028  1.00  0.00     0.000 C 
BRANCH   7   8
ATOM      8  C   UNL     1       8.699  -2.993   1.519  1.00  0.00     0.000 C 
BRANCH   8   9
ATOM      9  C   UNL     1       8.797  -1.544   2.025  1.00  0.00     0.000 C 
BRANCH   9  10
ATOM     10  C   UNL     1       9.039  -0.536   0.881  1.00  0.00     0.000 C 
BRANCH  10  11
ATOM     11  C   UNL     1      10.206   0.435   1.144  1.00  0.00     0.000 C 
BRANCH  11  12
ATOM     12  C   UNL     1       9.799   1.778   1.774  1.00  0.00     0.006 C 
BRANCH  12  13
ATOM     13  C   UNL     1       8.417   2.257   1.311  1.00  0.00     0.053 C 
BRANCH  13  14
ATOM     14  C   UNL     1       7.544   2.548   2.491  1.00  0.00     0.041 C 
ATOM     15  O   UNL     1       6.705   3.487   2.443  1.00  0.00    -0.550 OA
ATOM     16  O   UNL     1       7.691   1.816   3.662  1.00  0.00    -0.550 OA
ENDBRANCH  13  14
ENDBRANCH  12  13
ENDBRANCH  11  12
ENDBRANCH  10  11
ENDBRANCH   9  10
ENDBRANCH   8   9
ENDBRANCH   7   8
ENDBRANCH   6   7
ENDBRANCH   5   6
ENDBRANCH   4   5
ENDBRANCH   3   4
ENDBRANCH   2   3
ENDBRANCH   1   2
BRANCH   1  17
ATOM     17  C   UNL     1       7.701  -1.009  -2.532  1.00  0.00     0.000 C 
BRANCH  17  18
ATOM     18  C   UNL     1       7.263   0.462  -2.434  1.00  0.00     0.000 C 
BRANCH  18  19
ATOM     19  C   UNL     1       6.464   0.929  -3.669  1.00  0.00     0.000 C 
BRANCH  19  20
ATOM     20  C   UNL     1       5.885   2.352  -3.536  1.00  0.00     0.000 C 
BRANCH  20  21
ATOM     21  C   UNL     1       6.825   3.380  -2.880  1.00  0.00     0.000 C 
BRANCH  21  22
ATOM     22  C   UNL     1       7.760   4.126  -3.854  1.00  0.00    -0.000 C 
BRANCH  22  23
ATOM     23  C   UNL     1       9.114   3.438  -4.111  1.00  0.00    -0.000 C 
BRANCH  23  24
ATOM     24  C   UNL     1      10.118   3.652  -2.965  1.00  0.00    -0.000 C 
BRANCH  24  25
ATOM     25  C   UNL     1      10.152   2.456  -1.990  1.00  0.00    -0.000 C 
BRANCH  25  26
ATOM     26  C   UNL     1      11.404   1.574  -2.141  1.00  0.00    -0.000 C 
BRANCH  26  27
ATOM     27  C   UNL     1      11.130   0.284  -2.929  1.00  0.00    -0.000 C 
BRANCH  27  28
ATOM     28  C   UNL     1      11.446   0.426  -4.427  1.00  0.00    -0.000 C 
BRANCH  28  29
ATOM     29  C   UNL     1      10.621  -0.531  -5.301  1.00  0.00    -0.003 C 
ATOM     30  C   UNL     1       9.319   0.124  -5.755  1.00  0.00     0.004 C 
ENDBRANCH  28  29
ENDBRANCH  27  28
ENDBRANCH  26  27
ENDBRANCH  25  26
ENDBRANCH  24  25
ENDBRANCH  23  24
ENDBRANCH  22  23
ENDBRANCH  21  22
ENDBRANCH  20  21
ENDBRANCH  19  20
ENDBRANCH  18  19
ENDBRANCH  17  18
ENDBRANCH   1  17
TORSDOF 26
ENDMDL
