MODEL 1
REMARK VINA RESULT:    -4.319      0.000      0.000
REMARK INTER + INTRA:          -7.744
REMARK INTER:                  -6.845
REMARK INTRA:                  -0.900
REMARK UNBOUND:                -0.900
REMARK SMILES CCCCCCCCCCCC(=O)[O-]
REMARK SMILES IDX 7 1 8 2 9 3 10 4 11 5 12 6 13 7 14 8 6 9 5 10 4 11 3 12 2 13
REMARK SMILES IDX 1 14
REMARK H PARENT
REMARK Flexibility Score: inf
ROOT
ATOM      1  C   UNL     1      36.241 -11.095  26.378  1.00  0.00     0.000 C 
ENDROOT
BRANCH   1   2
ATOM      2  C   UNL     1      36.889 -11.455  27.725  1.00  0.00     0.000 C 
BRANCH   2   3
ATOM      3  C   UNL     1      38.277 -12.098  27.561  1.00  0.00     0.000 C 
BRANCH   3   4
ATOM      4  C   UNL     1      39.026 -12.233  28.897  1.00  0.00     0.006 C 
BRANCH   4   5
ATOM      5  C   UNL     1      40.513 -11.878  28.781  1.00  0.00     0.053 C 
BRANCH   5   6
ATOM      6  C   UNL     1      41.246 -12.292  30.017  1.00  0.00     0.041 C 
ATOM      7  O   UNL     1      41.699 -13.462  30.123  1.00  0.00    -0.550 OA
ATOM      8  O   UNL     1      41.387 -11.401  31.073  1.00  0.00    -0.550 OA
ENDBRANCH   5   6
ENDBRANCH   4   5
ENDBRANCH   3   4
ENDBRANCH   2   3
ENDBRANCH   1   2
BRANCH   1   9
ATOM      9  C   UNL     1      36.270  -9.586  26.089  1.00  0.00     0.000 C 
BRANCH   9  10
ATOM     10  C   UNL     1      36.645  -9.317  24.624  1.00  0.00    -0.000 C 
BRANCH  10  11
ATOM     11  C   UNL     1      38.128  -8.945  24.442  1.00  0.00    -0.000 C 
BRANCH  11  12
ATOM     12  C   UNL     1      38.928  -8.802  25.750  1.00  0.00    -0.000 C 
BRANCH  12  13
ATOM     13  C   UNL     1      40.172  -9.701  25.791  1.00  0.00    -0.003 C 
ATOM     14  C   UNL     1      41.122  -9.376  24.641  1.00  0.00     0.004 C 
ENDBRANCH  12  13
ENDBRANCH  11  12
ENDBRANCH  10  11
ENDBRANCH   9  10
ENDBRANCH   1   9
TORSDOF 10
ENDMDL
MODEL 2
REMARK VINA RESULT:    -4.300      2.764      4.879
REMARK INTER + INTRA:          -7.713
REMARK INTER:                  -6.586
REMARK INTRA:                  -1.128
REMARK UNBOUND:                -0.900
REMARK SMILES CCCCCCCCCCCC(=O)[O-]
REMARK SMILES IDX 7 1 8 2 9 3 10 4 11 5 12 6 13 7 14 8 6 9 5 10 4 11 3 12 2 13
REMARK SMILES IDX 1 14
REMARK H PARENT
REMARK Flexibility Score: inf
ROOT
ATOM      1  C   UNL     1      37.425 -11.505  27.793  1.00  0.00     0.000 C 
ENDROOT
BRANCH   1   2
ATOM      2  C   UNL     1      38.798 -12.173  27.617  1.00  0.00     0.000 C 
BRANCH   2   3
ATOM      3  C   UNL     1      39.938 -11.151  27.464  1.00  0.00     0.000 C 
BRANCH   3   4
ATOM      4  C   UNL     1      41.173 -11.746  26.767  1.00  0.00     0.006 C 
BRANCH   4   5
ATOM      5  C   UNL     1      41.734 -12.971  27.499  1.00  0.00     0.053 C 
BRANCH   5   6
ATOM      6  C   UNL     1      43.147 -13.226  27.081  1.00  0.00     0.041 C 
ATOM      7  O   UNL     1      44.009 -13.567  27.933  1.00  0.00    -0.550 OA
ATOM      8  O   UNL     1      43.524 -13.040  25.757  1.00  0.00    -0.550 OA
ENDBRANCH   5   6
ENDBRANCH   4   5
ENDBRANCH   3   4
ENDBRANCH   2   3
ENDBRANCH   1   2
BRANCH   1   9
ATOM      9  C   UNL     1      36.891 -11.613  29.230  1.00  0.00     0.000 C 
BRANCH   9  10
ATOM     10  C   UNL     1      37.526 -12.806  29.961  1.00  0.00    -0.000 C 
BRANCH  10  11
ATOM     11  C   UNL     1      37.680 -12.571  31.475  1.00  0.00    -0.000 C 
BRANCH  11  12
ATOM     12  C   UNL     1      39.029 -11.965  31.905  1.00  0.00    -0.000 C 
BRANCH  12  13
ATOM     13  C   UNL     1      40.218 -12.534  31.118  1.00  0.00    -0.003 C 
ATOM     14  C   UNL     1      41.384 -11.550  31.098  1.00  0.00     0.004 C 
ENDBRANCH  12  13
ENDBRANCH  11  12
ENDBRANCH  10  11
ENDBRANCH   9  10
ENDBRANCH   1   9
TORSDOF 10
ENDMDL
MODEL 3
REMARK VINA RESULT:    -4.260     11.293     13.218
REMARK INTER + INTRA:          -7.650
REMARK INTER:                  -6.529
REMARK INTRA:                  -1.122
REMARK UNBOUND:                -0.900
REMARK SMILES CCCCCCCCCCCC(=O)[O-]
REMARK SMILES IDX 7 1 8 2 9 3 10 4 11 5 12 6 13 7 14 8 6 9 5 10 4 11 3 12 2 13
REMARK SMILES IDX 1 14
REMARK H PARENT
REMARK Flexibility Score: inf
ROOT
ATOM      1  C   UNL     1      44.044   1.692  21.428  1.00  0.00     0.000 C 
ENDROOT
BRANCH   1   2
ATOM      2  C   UNL     1      45.080   1.085  22.387  1.00  0.00     0.000 C 
BRANCH   2   3
ATOM      3  C   UNL     1      45.229   1.895  23.687  1.00  0.00     0.000 C 
BRANCH   3   4
ATOM      4  C   UNL     1      45.031   1.033  24.944  1.00  0.00     0.006 C 
BRANCH   4   5
ATOM      5  C   UNL     1      45.009  -0.469  24.636  1.00  0.00     0.053 C 
BRANCH   5   6
ATOM      6  C   UNL     1      43.748  -1.088  25.150  1.00  0.00     0.041 C 
ATOM      7  O   UNL     1      42.760  -0.365  25.443  1.00  0.00    -0.550 OA
ATOM      8  O   UNL     1      43.680  -2.460  25.354  1.00  0.00    -0.550 OA
ENDBRANCH   5   6
ENDBRANCH   4   5
ENDBRANCH   3   4
ENDBRANCH   2   3
ENDBRANCH   1   2
BRANCH   1   9
ATOM      9  C   UNL     1      42.598   1.349  21.821  1.00  0.00     0.000 C 
BRANCH   9  10
ATOM     10  C   UNL     1      42.412  -0.171  21.947  1.00  0.00    -0.000 C 
BRANCH  10  11
ATOM     11  C   UNL     1      42.412  -0.892  20.586  1.00  0.00    -0.000 C 
BRANCH  11  12
ATOM     12  C   UNL     1      41.212  -0.567  19.678  1.00  0.00    -0.000 C 
BRANCH  12  13
ATOM     13  C   UNL     1      41.628   0.055  18.337  1.00  0.00    -0.003 C 
ATOM     14  C   UNL     1      41.501   1.575  18.375  1.00  0.00     0.004 C 
ENDBRANCH  12  13
ENDBRANCH  11  12
ENDBRANCH  10  11
ENDBRANCH   9  10
ENDBRANCH   1   9
TORSDOF 10
ENDMDL
MODEL 4
REMARK VINA RESULT:    -4.241      2.722      4.611
REMARK INTER + INTRA:          -7.620
REMARK INTER:                  -6.687
REMARK INTRA:                  -0.933
REMARK UNBOUND:                -0.900
REMARK SMILES CCCCCCCCCCCC(=O)[O-]
REMARK SMILES IDX 7 1 8 2 9 3 10 4 11 5 12 6 13 7 14 8 6 9 5 10 4 11 3 12 2 13
REMARK SMILES IDX 1 14
REMARK H PARENT
REMARK Flexibility Score: inf
ROOT
ATOM      1  C   UNL     1      36.687 -11.282  26.807  1.00  0.00     0.000 C 
ENDROOT
BRANCH   1   2
ATOM      2  C   UNL     1      36.264 -10.012  26.050  1.00  0.00     0.000 C 
BRANCH   2   3
ATOM      3  C   UNL     1      37.456  -9.280  25.411  1.00  0.00     0.000 C 
BRANCH   3   4
ATOM      4  C   UNL     1      38.782  -9.570  26.132  1.00  0.00     0.006 C 
BRANCH   4   5
ATOM      5  C   UNL     1      39.947  -8.730  25.594  1.00  0.00     0.053 C 
BRANCH   5   6
ATOM      6  C   UNL     1      40.976  -9.610  24.961  1.00  0.00     0.041 C 
ATOM      7  O   UNL     1      41.497 -10.550  25.618  1.00  0.00    -0.550 OA
ATOM      8  O   UNL     1      41.398  -9.363  23.661  1.00  0.00    -0.550 OA
ENDBRANCH   5   6
ENDBRANCH   4   5
ENDBRANCH   3   4
ENDBRANCH   2   3
ENDBRANCH   1   2
BRANCH   1   9
ATOM      9  C   UNL     1      36.378 -11.209  28.310  1.00  0.00     0.000 C 
BRANCH   9  10
ATOM     10  C   UNL     1      37.461 -11.931  29.127  1.00  0.00    -0.000 C 
BRANCH  10  11
ATOM     11  C   UNL     1      38.621 -12.452  28.258  1.00  0.00    -0.000 C 
BRANCH  11  12
ATOM     12  C   UNL     1      40.019 -11.960  28.676  1.00  0.00    -0.000 C 
BRANCH  12  13
ATOM     13  C   UNL     1      41.150 -12.854  28.150  1.00  0.00    -0.003 C 
ATOM     14  C   UNL     1      40.682 -13.688  26.960  1.00  0.00     0.004 C 
ENDBRANCH  12  13
ENDBRANCH  11  12
ENDBRANCH  10  11
ENDBRANCH   9  10
ENDBRANCH   1   9
TORSDOF 10
ENDMDL
MODEL 5
REMARK VINA RESULT:    -4.220     11.201     13.249
REMARK INTER + INTRA:          -7.587
REMARK INTER:                  -6.335
REMARK INTRA:                  -1.252
REMARK UNBOUND:                -0.900
REMARK SMILES CCCCCCCCCCCC(=O)[O-]
REMARK SMILES IDX 7 1 8 2 9 3 10 4 11 5 12 6 13 7 14 8 6 9 5 10 4 11 3 12 2 13
REMARK SMILES IDX 1 14
REMARK H PARENT
REMARK Flexibility Score: inf
ROOT
ATOM      1  C   UNL     1      41.262  -0.999  19.908  1.00  0.00     0.000 C 
ENDROOT
BRANCH   1   2
ATOM      2  C   UNL     1      41.854  -0.488  21.231  1.00  0.00     0.000 C 
BRANCH   2   3
ATOM      3  C   UNL     1      43.386  -0.626  21.287  1.00  0.00     0.000 C 
BRANCH   3   4
ATOM      4  C   UNL     1      43.969  -0.183  22.638  1.00  0.00     0.006 C 
BRANCH   4   5
ATOM      5  C   UNL     1      43.097  -0.604  23.827  1.00  0.00     0.053 C 
BRANCH   5   6
ATOM      6  C   UNL     1      43.915  -1.345  24.837  1.00  0.00     0.041 C 
ATOM      7  O   UNL     1      45.090  -0.974  25.096  1.00  0.00    -0.550 OA
ATOM      8  O   UNL     1      43.397  -2.474  25.457  1.00  0.00    -0.550 OA
ENDBRANCH   5   6
ENDBRANCH   4   5
ENDBRANCH   3   4
ENDBRANCH   2   3
ENDBRANCH   1   2
BRANCH   1   9
ATOM      9  C   UNL     1      41.921  -0.358  18.676  1.00  0.00     0.000 C 
BRANCH   9  10
ATOM     10  C   UNL     1      41.206   0.945  18.289  1.00  0.00    -0.000 C 
BRANCH  10  11
ATOM     11  C   UNL     1      41.882   2.199  18.875  1.00  0.00    -0.000 C 
BRANCH  11  12
ATOM     12  C   UNL     1      43.421   2.161  18.889  1.00  0.00    -0.000 C 
BRANCH  12  13
ATOM     13  C   UNL     1      44.028   2.948  20.058  1.00  0.00    -0.003 C 
ATOM     14  C   UNL     1      43.003   3.157  21.170  1.00  0.00     0.004 C 
ENDBRANCH  12  13
ENDBRANCH  11  12
ENDBRANCH  10  11
ENDBRANCH   9  10
ENDBRANCH   1   9
TORSDOF 10
ENDMDL
MODEL 6
REMARK VINA RESULT:    -4.207      3.019      5.568
REMARK INTER + INTRA:          -7.566
REMARK INTER:                  -6.635
REMARK INTRA:                  -0.931
REMARK UNBOUND:                -0.900
REMARK SMILES CCCCCCCCCCCC(=O)[O-]
REMARK SMILES IDX 7 1 8 2 9 3 10 4 11 5 12 6 13 7 14 8 6 9 5 10 4 11 3 12 2 13
REMARK SMILES IDX 1 14
REMARK H PARENT
REMARK Flexibility Score: inf
ROOT
ATOM      1  C   UNL     1      36.823 -11.518  29.427  1.00  0.00     0.000 C 
ENDROOT
BRANCH   1   2
ATOM      2  C   UNL     1      37.143 -11.490  27.924  1.00  0.00     0.000 C 
BRANCH   2   3
ATOM      3  C   UNL     1      38.546 -12.036  27.607  1.00  0.00     0.000 C 
BRANCH   3   4
ATOM      4  C   UNL     1      39.632 -10.950  27.680  1.00  0.00     0.006 C 
BRANCH   4   5
ATOM      5  C   UNL     1      40.526 -10.920  26.435  1.00  0.00     0.053 C 
BRANCH   5   6
ATOM      6  C   UNL     1      40.326  -9.645  25.680  1.00  0.00     0.041 C 
ATOM      7  O   UNL     1      39.210  -9.063  25.702  1.00  0.00    -0.550 OA
ATOM      8  O   UNL     1      41.358  -9.124  24.910  1.00  0.00    -0.550 OA
ENDBRANCH   5   6
ENDBRANCH   4   5
ENDBRANCH   3   4
ENDBRANCH   2   3
ENDBRANCH   1   2
BRANCH   1   9
ATOM      9  C   UNL     1      37.487 -12.698  30.154  1.00  0.00     0.000 C 
BRANCH   9  10
ATOM     10  C   UNL     1      38.352 -12.204  31.324  1.00  0.00    -0.000 C 
BRANCH  10  11
ATOM     11  C   UNL     1      39.359 -13.261  31.815  1.00  0.00    -0.000 C 
BRANCH  11  12
ATOM     12  C   UNL     1      40.804 -13.060  31.323  1.00  0.00    -0.000 C 
BRANCH  12  13
ATOM     13  C   UNL     1      41.097 -11.613  30.902  1.00  0.00    -0.003 C 
ATOM     14  C   UNL     1      41.643 -10.800  32.072  1.00  0.00     0.004 C 
ENDBRANCH  12  13
ENDBRANCH  11  12
ENDBRANCH  10  11
ENDBRANCH   9  10
ENDBRANCH   1   9
TORSDOF 10
ENDMDL
MODEL 7
REMARK VINA RESULT:    -4.137     12.423     15.112
REMARK INTER + INTRA:          -7.455
REMARK INTER:                  -6.979
REMARK INTRA:                  -0.476
REMARK UNBOUND:                -0.900
REMARK SMILES CCCCCCCCCCCC(=O)[O-]
REMARK SMILES IDX 7 1 8 2 9 3 10 4 11 5 12 6 13 7 14 8 6 9 5 10 4 11 3 12 2 13
REMARK SMILES IDX 1 14
REMARK H PARENT
REMARK Flexibility Score: inf
ROOT
ATOM      1  C   UNL     1      47.081   1.188  21.168  1.00  0.00     0.000 C 
ENDROOT
BRANCH   1   2
ATOM      2  C   UNL     1      46.385   0.549  22.380  1.00  0.00     0.000 C 
BRANCH   2   3
ATOM      3  C   UNL     1      45.335   1.477  23.016  1.00  0.00     0.000 C 
BRANCH   3   4
ATOM      4  C   UNL     1      45.126   1.192  24.512  1.00  0.00     0.006 C 
BRANCH   4   5
ATOM      5  C   UNL     1      45.239  -0.299  24.854  1.00  0.00     0.053 C 
BRANCH   5   6
ATOM      6  C   UNL     1      43.879  -0.912  24.966  1.00  0.00     0.041 C 
ATOM      7  O   UNL     1      42.850  -0.189  24.906  1.00  0.00    -0.550 OA
ATOM      8  O   UNL     1      43.748  -2.277  25.186  1.00  0.00    -0.550 OA
ENDBRANCH   5   6
ENDBRANCH   4   5
ENDBRANCH   3   4
ENDBRANCH   2   3
ENDBRANCH   1   2
BRANCH   1   9
ATOM      9  C   UNL     1      48.279   0.365  20.668  1.00  0.00     0.000 C 
BRANCH   9  10
ATOM     10  C   UNL     1      49.280   0.110  21.805  1.00  0.00    -0.000 C 
BRANCH  10  11
ATOM     11  C   UNL     1      50.552  -0.617  21.333  1.00  0.00    -0.000 C 
BRANCH  11  12
ATOM     12  C   UNL     1      50.566  -1.003  19.843  1.00  0.00    -0.000 C 
BRANCH  12  13
ATOM     13  C   UNL     1      51.978  -1.006  19.239  1.00  0.00    -0.003 C 
ATOM     14  C   UNL     1      51.923  -1.057  17.715  1.00  0.00     0.004 C 
ENDBRANCH  12  13
ENDBRANCH  11  12
ENDBRANCH  10  11
ENDBRANCH   9  10
ENDBRANCH   1   9
TORSDOF 10
ENDMDL
MODEL 8
REMARK VINA RESULT:    -4.125      3.133      6.068
REMARK INTER + INTRA:          -7.436
REMARK INTER:                  -6.175
REMARK INTRA:                  -1.261
REMARK UNBOUND:                -0.900
REMARK SMILES CCCCCCCCCCCC(=O)[O-]
REMARK SMILES IDX 7 1 8 2 9 3 10 4 11 5 12 6 13 7 14 8 6 9 5 10 4 11 3 12 2 13
REMARK SMILES IDX 1 14
REMARK H PARENT
REMARK Flexibility Score: inf
ROOT
ATOM      1  C   UNL     1      42.176 -13.017  28.723  1.00  0.00     0.000 C 
ENDROOT
BRANCH   1   2
ATOM      2  C   UNL     1      41.119 -13.818  27.945  1.00  0.00     0.000 C 
BRANCH   2   3
ATOM      3  C   UNL     1      40.093 -12.913  27.241  1.00  0.00     0.000 C 
BRANCH   3   4
ATOM      4  C   UNL     1      40.670 -11.535  26.881  1.00  0.00     0.006 C 
BRANCH   4   5
ATOM      5  C   UNL     1      39.642 -10.406  27.025  1.00  0.00     0.053 C 
BRANCH   5   6
ATOM      6  C   UNL     1      39.696  -9.497  25.838  1.00  0.00     0.041 C 
ATOM      7  O   UNL     1      40.795  -9.260  25.272  1.00  0.00    -0.550 OA
ATOM      8  O   UNL     1      38.541  -8.874  25.386  1.00  0.00    -0.550 OA
ENDBRANCH   5   6
ENDBRANCH   4   5
ENDBRANCH   3   4
ENDBRANCH   2   3
ENDBRANCH   1   2
BRANCH   1   9
ATOM      9  C   UNL     1      41.918 -13.006  30.237  1.00  0.00     0.000 C 
BRANCH   9  10
ATOM     10  C   UNL     1      40.951 -11.874  30.619  1.00  0.00    -0.000 C 
BRANCH  10  11
ATOM     11  C   UNL     1      39.784 -12.353  31.502  1.00  0.00    -0.000 C 
BRANCH  11  12
ATOM     12  C   UNL     1      38.720 -13.194  30.774  1.00  0.00    -0.000 C 
BRANCH  12  13
ATOM     13  C   UNL     1      37.362 -12.486  30.675  1.00  0.00    -0.003 C 
ATOM     14  C   UNL     1      37.151 -11.893  29.284  1.00  0.00     0.004 C 
ENDBRANCH  12  13
ENDBRANCH  11  12
ENDBRANCH  10  11
ENDBRANCH   9  10
ENDBRANCH   1   9
TORSDOF 10
ENDMDL
MODEL 9
REMARK VINA RESULT:    -4.095     11.313     13.506
REMARK INTER + INTRA:          -7.389
REMARK INTER:                  -6.309
REMARK INTRA:                  -1.080
REMARK UNBOUND:                -0.900
REMARK SMILES CCCCCCCCCCCC(=O)[O-]
REMARK SMILES IDX 7 1 8 2 9 3 10 4 11 5 12 6 13 7 14 8 6 9 5 10 4 11 3 12 2 13
REMARK SMILES IDX 1 14
REMARK H PARENT
REMARK Flexibility Score: inf
ROOT
ATOM      1  C   UNL     1      42.984   2.220  21.105  1.00  0.00     0.000 C 
ENDROOT
BRANCH   1   2
ATOM      2  C   UNL     1      43.998   1.590  22.073  1.00  0.00     0.000 C 
BRANCH   2   3
ATOM      3  C   UNL     1      44.025   0.054  21.983  1.00  0.00     0.000 C 
BRANCH   3   4
ATOM      4  C   UNL     1      42.963  -0.608  22.875  1.00  0.00     0.006 C 
BRANCH   4   5
ATOM      5  C   UNL     1      43.153  -0.286  24.363  1.00  0.00     0.053 C 
BRANCH   5   6
ATOM      6  C   UNL     1      44.055  -1.291  25.003  1.00  0.00     0.041 C 
ATOM      7  O   UNL     1      45.284  -1.048  25.133  1.00  0.00    -0.550 OA
ATOM      8  O   UNL     1      43.550  -2.518  25.413  1.00  0.00    -0.550 OA
ENDBRANCH   5   6
ENDBRANCH   4   5
ENDBRANCH   3   4
ENDBRANCH   2   3
ENDBRANCH   1   2
BRANCH   1   9
ATOM      9  C   UNL     1      43.654   2.862  19.879  1.00  0.00     0.000 C 
BRANCH   9  10
ATOM     10  C   UNL     1      43.435   2.003  18.624  1.00  0.00    -0.000 C 
BRANCH  10  11
ATOM     11  C   UNL     1      42.024   2.157  18.029  1.00  0.00    -0.000 C 
BRANCH  11  12
ATOM     12  C   UNL     1      41.118   0.920  18.171  1.00  0.00    -0.000 C 
BRANCH  12  13
ATOM     13  C   UNL     1      41.866  -0.309  18.709  1.00  0.00    -0.003 C 
ATOM     14  C   UNL     1      41.087  -0.973  19.841  1.00  0.00     0.004 C 
ENDBRANCH  12  13
ENDBRANCH  11  12
ENDBRANCH  10  11
ENDBRANCH   9  10
ENDBRANCH   1   9
TORSDOF 10
ENDMDL
