MODEL 1
REMARK VINA RESULT:    -4.253      0.000      0.000
REMARK INTER + INTRA:         -10.393
REMARK INTER:                  -8.230
REMARK INTRA:                  -2.162
REMARK UNBOUND:                -2.162
REMARK SMILES CCCCCCCCCCCCCCCCCC(=O)[O-]
REMARK SMILES IDX 10 1 11 2 12 3 13 4 14 5 15 6 16 7 17 8 18 9 19 10 20 11
REMARK SMILES IDX 9 12 8 13 7 14 6 15 5 16 4 17 3 18 2 19 1 20
REMARK H PARENT
REMARK Flexibility Score: inf
ROOT
ATOM      1  C   UNL     1      14.426  17.943  23.840  1.00  0.00     0.000 C 
ENDROOT
BRANCH   1   2
ATOM      2  C   UNL     1      15.146  18.589  25.038  1.00  0.00     0.000 C 
BRANCH   2   3
ATOM      3  C   UNL     1      14.915  17.826  26.354  1.00  0.00     0.000 C 
BRANCH   3   4
ATOM      4  C   UNL     1      13.551  18.082  27.027  1.00  0.00     0.000 C 
BRANCH   4   5
ATOM      5  C   UNL     1      13.114  19.559  27.075  1.00  0.00     0.000 C 
BRANCH   5   6
ATOM      6  C   UNL     1      12.747  20.085  28.477  1.00  0.00     0.000 C 
BRANCH   6   7
ATOM      7  C   UNL     1      12.856  21.612  28.647  1.00  0.00     0.006 C 
BRANCH   7   8
ATOM      8  C   UNL     1      11.720  22.372  27.951  1.00  0.00     0.053 C 
BRANCH   8   9
ATOM      9  C   UNL     1      12.212  23.686  27.431  1.00  0.00     0.041 C 
ATOM     10  O   UNL     1      13.437  23.853  27.187  1.00  0.00    -0.550 OA
ATOM     11  O   UNL     1      11.311  24.712  27.167  1.00  0.00    -0.550 OA
ENDBRANCH   8   9
ENDBRANCH   7   8
ENDBRANCH   6   7
ENDBRANCH   5   6
ENDBRANCH   4   5
ENDBRANCH   3   4
ENDBRANCH   2   3
ENDBRANCH   1   2
BRANCH   1  12
ATOM     12  C   UNL     1      13.857  18.987  22.866  1.00  0.00     0.000 C 
BRANCH  12  13
ATOM     13  C   UNL     1      14.718  19.142  21.601  1.00  0.00    -0.000 C 
BRANCH  13  14
ATOM     14  C   UNL     1      15.851  18.102  21.513  1.00  0.00    -0.000 C 
BRANCH  14  15
ATOM     15  C   UNL     1      17.277  18.681  21.457  1.00  0.00    -0.000 C 
BRANCH  15  16
ATOM     16  C   UNL     1      17.320  20.197  21.709  1.00  0.00    -0.000 C 
BRANCH  16  17
ATOM     17  C   UNL     1      17.718  20.553  23.155  1.00  0.00    -0.000 C 
BRANCH  17  18
ATOM     18  C   UNL     1      17.241  21.932  23.646  1.00  0.00    -0.000 C 
BRANCH  18  19
ATOM     19  C   UNL     1      15.830  22.289  23.152  1.00  0.00    -0.003 C 
ATOM     20  C   UNL     1      14.821  22.249  24.296  1.00  0.00     0.004 C 
ENDBRANCH  18  19
ENDBRANCH  17  18
ENDBRANCH  16  17
ENDBRANCH  15  16
ENDBRANCH  14  15
ENDBRANCH  13  14
ENDBRANCH  12  13
ENDBRANCH   1  12
TORSDOF 16
ENDMDL
MODEL 2
REMARK VINA RESULT:    -4.238      1.422      2.195
REMARK INTER + INTRA:         -10.364
REMARK INTER:                  -7.885
REMARK INTRA:                  -2.479
REMARK UNBOUND:                -2.162
REMARK SMILES CCCCCCCCCCCCCCCCCC(=O)[O-]
REMARK SMILES IDX 10 1 11 2 12 3 13 4 14 5 15 6 16 7 17 8 18 9 19 10 20 11
REMARK SMILES IDX 9 12 8 13 7 14 6 15 5 16 4 17 3 18 2 19 1 20
REMARK H PARENT
REMARK Flexibility Score: inf
ROOT
ATOM      1  C   UNL     1      13.841  18.263  22.884  1.00  0.00     0.000 C 
ENDROOT
BRANCH   1   2
ATOM      2  C   UNL     1      13.839  18.731  24.350  1.00  0.00     0.000 C 
BRANCH   2   3
ATOM      3  C   UNL     1      15.073  18.246  25.133  1.00  0.00     0.000 C 
BRANCH   3   4
ATOM      4  C   UNL     1      14.806  17.867  26.604  1.00  0.00     0.000 C 
BRANCH   4   5
ATOM      5  C   UNL     1      13.428  17.231  26.874  1.00  0.00     0.000 C 
BRANCH   5   6
ATOM      6  C   UNL     1      12.449  18.112  27.677  1.00  0.00     0.000 C 
BRANCH   6   7
ATOM      7  C   UNL     1      12.919  19.560  27.908  1.00  0.00     0.006 C 
BRANCH   7   8
ATOM      8  C   UNL     1      12.595  20.075  29.316  1.00  0.00     0.053 C 
BRANCH   8   9
ATOM      9  C   UNL     1      12.382  21.556  29.296  1.00  0.00     0.041 C 
ATOM     10  O   UNL     1      12.933  22.263  28.412  1.00  0.00    -0.550 OA
ATOM     11  O   UNL     1      11.535  22.150  30.224  1.00  0.00    -0.550 OA
ENDBRANCH   8   9
ENDBRANCH   7   8
ENDBRANCH   6   7
ENDBRANCH   5   6
ENDBRANCH   4   5
ENDBRANCH   3   4
ENDBRANCH   2   3
ENDBRANCH   1   2
BRANCH   1  12
ATOM     12  C   UNL     1      15.137  17.526  22.506  1.00  0.00     0.000 C 
BRANCH  12  13
ATOM     13  C   UNL     1      15.781  18.089  21.227  1.00  0.00    -0.000 C 
BRANCH  13  14
ATOM     14  C   UNL     1      17.202  18.636  21.459  1.00  0.00    -0.000 C 
BRANCH  14  15
ATOM     15  C   UNL     1      17.286  20.137  21.792  1.00  0.00    -0.000 C 
BRANCH  15  16
ATOM     16  C   UNL     1      17.234  20.422  23.303  1.00  0.00    -0.000 C 
BRANCH  16  17
ATOM     17  C   UNL     1      16.231  21.534  23.668  1.00  0.00    -0.000 C 
BRANCH  17  18
ATOM     18  C   UNL     1      15.563  22.235  22.470  1.00  0.00    -0.000 C 
BRANCH  18  19
ATOM     19  C   UNL     1      14.076  21.879  22.321  1.00  0.00    -0.003 C 
ATOM     20  C   UNL     1      13.769  21.381  20.912  1.00  0.00     0.004 C 
ENDBRANCH  18  19
ENDBRANCH  17  18
ENDBRANCH  16  17
ENDBRANCH  15  16
ENDBRANCH  14  15
ENDBRANCH  13  14
ENDBRANCH  12  13
ENDBRANCH   1  12
TORSDOF 16
ENDMDL
MODEL 3
REMARK VINA RESULT:    -4.189      3.239      5.059
REMARK INTER + INTRA:         -10.269
REMARK INTER:                  -7.550
REMARK INTRA:                  -2.719
REMARK UNBOUND:                -2.162
REMARK SMILES CCCCCCCCCCCCCCCCCC(=O)[O-]
REMARK SMILES IDX 10 1 11 2 12 3 13 4 14 5 15 6 16 7 17 8 18 9 19 10 20 11
REMARK SMILES IDX 9 12 8 13 7 14 6 15 5 16 4 17 3 18 2 19 1 20
REMARK H PARENT
REMARK Flexibility Score: inf
ROOT
ATOM      1  C   UNL     1      14.741  20.023  21.701  1.00  0.00     0.000 C 
ENDROOT
BRANCH   1   2
ATOM      2  C   UNL     1      14.748  19.616  23.186  1.00  0.00     0.000 C 
BRANCH   2   3
ATOM      3  C   UNL     1      16.107  19.863  23.865  1.00  0.00     0.000 C 
BRANCH   3   4
ATOM      4  C   UNL     1      17.232  20.336  22.923  1.00  0.00     0.000 C 
BRANCH   4   5
ATOM      5  C   UNL     1      17.618  21.822  23.061  1.00  0.00     0.000 C 
BRANCH   5   6
ATOM      6  C   UNL     1      17.010  22.542  24.281  1.00  0.00     0.000 C 
BRANCH   6   7
ATOM      7  C   UNL     1      15.806  23.449  23.967  1.00  0.00     0.006 C 
BRANCH   7   8
ATOM      8  C   UNL     1      14.573  23.119  24.818  1.00  0.00     0.053 C 
BRANCH   8   9
ATOM      9  C   UNL     1      14.147  24.316  25.608  1.00  0.00     0.041 C 
ATOM     10  O   UNL     1      14.096  24.261  26.866  1.00  0.00    -0.550 OA
ATOM     11  O   UNL     1      13.854  25.510  24.958  1.00  0.00    -0.550 OA
ENDBRANCH   8   9
ENDBRANCH   7   8
ENDBRANCH   6   7
ENDBRANCH   5   6
ENDBRANCH   4   5
ENDBRANCH   3   4
ENDBRANCH   2   3
ENDBRANCH   1   2
BRANCH   1  12
ATOM     12  C   UNL     1      13.969  21.330  21.455  1.00  0.00     0.000 C 
BRANCH  12  13
ATOM     13  C   UNL     1      14.734  22.299  20.537  1.00  0.00    -0.000 C 
BRANCH  13  14
ATOM     14  C   UNL     1      13.939  22.686  19.276  1.00  0.00    -0.000 C 
BRANCH  14  15
ATOM     15  C   UNL     1      12.508  22.123  19.197  1.00  0.00    -0.000 C 
BRANCH  15  16
ATOM     16  C   UNL     1      11.442  23.214  19.004  1.00  0.00    -0.000 C 
BRANCH  16  17
ATOM     17  C   UNL     1      11.710  24.471  19.854  1.00  0.00    -0.000 C 
BRANCH  17  18
ATOM     18  C   UNL     1      10.795  24.641  21.081  1.00  0.00    -0.000 C 
BRANCH  18  19
ATOM     19  C   UNL     1      11.539  24.457  22.413  1.00  0.00    -0.003 C 
ATOM     20  C   UNL     1      11.323  23.054  22.973  1.00  0.00     0.004 C 
ENDBRANCH  18  19
ENDBRANCH  17  18
ENDBRANCH  16  17
ENDBRANCH  15  16
ENDBRANCH  14  15
ENDBRANCH  13  14
ENDBRANCH  12  13
ENDBRANCH   1  12
TORSDOF 16
ENDMDL
MODEL 4
REMARK VINA RESULT:    -4.178      3.424      6.146
REMARK INTER + INTRA:         -10.248
REMARK INTER:                  -7.700
REMARK INTRA:                  -2.548
REMARK UNBOUND:                -2.162
REMARK SMILES CCCCCCCCCCCCCCCCCC(=O)[O-]
REMARK SMILES IDX 10 1 11 2 12 3 13 4 14 5 15 6 16 7 17 8 18 9 19 10 20 11
REMARK SMILES IDX 9 12 8 13 7 14 6 15 5 16 4 17 3 18 2 19 1 20
REMARK H PARENT
REMARK Flexibility Score: inf
ROOT
ATOM      1  C   UNL     1      17.500  21.663  22.982  1.00  0.00     0.000 C 
ENDROOT
BRANCH   1   2
ATOM      2  C   UNL     1      16.342  21.965  23.950  1.00  0.00     0.000 C 
BRANCH   2   3
ATOM      3  C   UNL     1      15.198  22.753  23.286  1.00  0.00     0.000 C 
BRANCH   3   4
ATOM      4  C   UNL     1      13.966  21.911  22.895  1.00  0.00     0.000 C 
BRANCH   4   5
ATOM      5  C   UNL     1      13.935  21.445  21.426  1.00  0.00     0.000 C 
BRANCH   5   6
ATOM      6  C   UNL     1      14.759  22.308  20.450  1.00  0.00     0.000 C 
BRANCH   6   7
ATOM      7  C   UNL     1      13.948  22.962  19.316  1.00  0.00     0.006 C 
BRANCH   7   8
ATOM      8  C   UNL     1      12.708  22.149  18.925  1.00  0.00     0.053 C 
BRANCH   8   9
ATOM      9  C   UNL     1      11.468  22.969  19.098  1.00  0.00     0.041 C 
ATOM     10  O   UNL     1      10.385  22.419  19.432  1.00  0.00    -0.550 OA
ATOM     11  O   UNL     1      11.520  24.349  18.939  1.00  0.00    -0.550 OA
ENDBRANCH   8   9
ENDBRANCH   7   8
ENDBRANCH   6   7
ENDBRANCH   5   6
ENDBRANCH   4   5
ENDBRANCH   3   4
ENDBRANCH   2   3
ENDBRANCH   1   2
BRANCH   1  12
ATOM     12  C   UNL     1      17.751  20.155  22.820  1.00  0.00     0.000 C 
BRANCH  12  13
ATOM     13  C   UNL     1      17.257  19.619  21.466  1.00  0.00    -0.000 C 
BRANCH  13  14
ATOM     14  C   UNL     1      16.181  18.526  21.607  1.00  0.00    -0.000 C 
BRANCH  14  15
ATOM     15  C   UNL     1      15.531  18.414  22.999  1.00  0.00    -0.000 C 
BRANCH  15  16
ATOM     16  C   UNL     1      14.028  18.092  22.937  1.00  0.00    -0.000 C 
BRANCH  16  17
ATOM     17  C   UNL     1      13.299  18.377  24.264  1.00  0.00    -0.000 C 
BRANCH  17  18
ATOM     18  C   UNL     1      14.186  18.936  25.393  1.00  0.00    -0.000 C 
BRANCH  18  19
ATOM     19  C   UNL     1      14.589  17.869  26.422  1.00  0.00    -0.003 C 
ATOM     20  C   UNL     1      13.361  17.180  27.008  1.00  0.00     0.004 C 
ENDBRANCH  18  19
ENDBRANCH  17  18
ENDBRANCH  16  17
ENDBRANCH  15  16
ENDBRANCH  14  15
ENDBRANCH  13  14
ENDBRANCH  12  13
ENDBRANCH   1  12
TORSDOF 16
ENDMDL
MODEL 5
REMARK VINA RESULT:    -4.135      3.303      4.208
REMARK INTER + INTRA:         -10.166
REMARK INTER:                  -8.402
REMARK INTRA:                  -1.764
REMARK UNBOUND:                -2.162
REMARK SMILES CCCCCCCCCCCCCCCCCC(=O)[O-]
REMARK SMILES IDX 10 1 11 2 12 3 13 4 14 5 15 6 16 7 17 8 18 9 19 10 20 11
REMARK SMILES IDX 9 12 8 13 7 14 6 15 5 16 4 17 3 18 2 19 1 20
REMARK H PARENT
REMARK Flexibility Score: inf
ROOT
ATOM      1  C   UNL     1      13.782  18.104  22.613  1.00  0.00     0.000 C 
ENDROOT
BRANCH   1   2
ATOM      2  C   UNL     1      13.602  18.678  24.030  1.00  0.00     0.000 C 
BRANCH   2   3
ATOM      3  C   UNL     1      14.857  18.510  24.906  1.00  0.00     0.000 C 
BRANCH   3   4
ATOM      4  C   UNL     1      14.589  18.034  26.348  1.00  0.00     0.000 C 
BRANCH   4   5
ATOM      5  C   UNL     1      13.371  17.103  26.511  1.00  0.00     0.000 C 
BRANCH   5   6
ATOM      6  C   UNL     1      12.435  17.454  27.685  1.00  0.00     0.000 C 
BRANCH   6   7
ATOM      7  C   UNL     1      12.037  16.264  28.577  1.00  0.00     0.006 C 
BRANCH   7   8
ATOM      8  C   UNL     1      10.928  16.613  29.578  1.00  0.00     0.053 C 
BRANCH   8   9
ATOM      9  C   UNL     1      11.519  17.047  30.883  1.00  0.00     0.041 C 
ATOM     10  O   UNL     1      11.587  18.271  31.172  1.00  0.00    -0.550 OA
ATOM     11  O   UNL     1      11.948  16.096  31.802  1.00  0.00    -0.550 OA
ENDBRANCH   8   9
ENDBRANCH   7   8
ENDBRANCH   6   7
ENDBRANCH   5   6
ENDBRANCH   4   5
ENDBRANCH   3   4
ENDBRANCH   2   3
ENDBRANCH   1   2
BRANCH   1  12
ATOM     12  C   UNL     1      15.126  17.378  22.442  1.00  0.00     0.000 C 
BRANCH  12  13
ATOM     13  C   UNL     1      15.905  17.866  21.209  1.00  0.00    -0.000 C 
BRANCH  13  14
ATOM     14  C   UNL     1      17.311  18.394  21.555  1.00  0.00    -0.000 C 
BRANCH  14  15
ATOM     15  C   UNL     1      17.475  19.924  21.497  1.00  0.00    -0.000 C 
BRANCH  15  16
ATOM     16  C   UNL     1      16.989  20.630  22.774  1.00  0.00    -0.000 C 
BRANCH  16  17
ATOM     17  C   UNL     1      15.686  21.424  22.560  1.00  0.00    -0.000 C 
BRANCH  17  18
ATOM     18  C   UNL     1      15.245  21.578  21.092  1.00  0.00    -0.000 C 
BRANCH  18  19
ATOM     19  C   UNL     1      14.123  22.611  20.908  1.00  0.00    -0.003 C 
ATOM     20  C   UNL     1      13.776  22.789  19.433  1.00  0.00     0.004 C 
ENDBRANCH  18  19
ENDBRANCH  17  18
ENDBRANCH  16  17
ENDBRANCH  15  16
ENDBRANCH  14  15
ENDBRANCH  13  14
ENDBRANCH  12  13
ENDBRANCH   1  12
TORSDOF 16
ENDMDL
MODEL 6
REMARK VINA RESULT:    -4.102      3.118      6.786
REMARK INTER + INTRA:         -10.101
REMARK INTER:                  -7.967
REMARK INTRA:                  -2.133
REMARK UNBOUND:                -2.162
REMARK SMILES CCCCCCCCCCCCCCCCCC(=O)[O-]
REMARK SMILES IDX 10 1 11 2 12 3 13 4 14 5 15 6 16 7 17 8 18 9 19 10 20 11
REMARK SMILES IDX 9 12 8 13 7 14 6 15 5 16 4 17 3 18 2 19 1 20
REMARK H PARENT
REMARK Flexibility Score: inf
ROOT
ATOM      1  C   UNL     1      10.650  17.195  32.621  1.00  0.00     0.000 C 
ENDROOT
BRANCH   1   2
ATOM      2  C   UNL     1      10.270  18.675  32.804  1.00  0.00     0.000 C 
BRANCH   2   3
ATOM      3  C   UNL     1       9.293  19.178  31.726  1.00  0.00     0.000 C 
BRANCH   3   4
ATOM      4  C   UNL     1       9.855  20.272  30.795  1.00  0.00     0.000 C 
BRANCH   4   5
ATOM      5  C   UNL     1      11.320  20.667  31.063  1.00  0.00     0.000 C 
BRANCH   5   6
ATOM      6  C   UNL     1      12.327  20.206  29.989  1.00  0.00     0.000 C 
BRANCH   6   7
ATOM      7  C   UNL     1      13.114  21.340  29.308  1.00  0.00     0.006 C 
BRANCH   7   8
ATOM      8  C   UNL     1      12.666  21.593  27.862  1.00  0.00     0.053 C 
BRANCH   8   9
ATOM      9  C   UNL     1      12.594  23.062  27.586  1.00  0.00     0.041 C 
ATOM     10  O   UNL     1      11.517  23.689  27.766  1.00  0.00    -0.550 OA
ATOM     11  O   UNL     1      13.732  23.749  27.178  1.00  0.00    -0.550 OA
ENDBRANCH   8   9
ENDBRANCH   7   8
ENDBRANCH   6   7
ENDBRANCH   5   6
ENDBRANCH   4   5
ENDBRANCH   3   4
ENDBRANCH   2   3
ENDBRANCH   1   2
BRANCH   1  12
ATOM     12  C   UNL     1      11.807  17.006  31.626  1.00  0.00     0.000 C 
BRANCH  12  13
ATOM     13  C   UNL     1      11.779  15.627  30.947  1.00  0.00    -0.000 C 
BRANCH  13  14
ATOM     14  C   UNL     1      11.005  15.627  29.615  1.00  0.00    -0.000 C 
BRANCH  14  15
ATOM     15  C   UNL     1      10.761  17.014  28.993  1.00  0.00    -0.000 C 
BRANCH  15  16
ATOM     16  C   UNL     1      11.235  17.110  27.533  1.00  0.00    -0.000 C 
BRANCH  16  17
ATOM     17  C   UNL     1      12.751  16.875  27.378  1.00  0.00    -0.000 C 
BRANCH  17  18
ATOM     18  C   UNL     1      13.583  18.136  27.078  1.00  0.00    -0.000 C 
BRANCH  18  19
ATOM     19  C   UNL     1      14.933  17.819  26.417  1.00  0.00    -0.003 C 
ATOM     20  C   UNL     1      14.989  18.366  24.993  1.00  0.00     0.004 C 
ENDBRANCH  18  19
ENDBRANCH  17  18
ENDBRANCH  16  17
ENDBRANCH  15  16
ENDBRANCH  14  15
ENDBRANCH  13  14
ENDBRANCH  12  13
ENDBRANCH   1  12
TORSDOF 16
ENDMDL
MODEL 7
REMARK VINA RESULT:    -4.100      3.677      7.846
REMARK INTER + INTRA:         -10.098
REMARK INTER:                  -8.465
REMARK INTRA:                  -1.633
REMARK UNBOUND:                -2.162
REMARK SMILES CCCCCCCCCCCCCCCCCC(=O)[O-]
REMARK SMILES IDX 10 1 11 2 12 3 13 4 14 5 15 6 16 7 17 8 18 9 19 10 20 11
REMARK SMILES IDX 9 12 8 13 7 14 6 15 5 16 4 17 3 18 2 19 1 20
REMARK H PARENT
REMARK Flexibility Score: inf
ROOT
ATOM      1  C   UNL     1      11.244  16.926  27.657  1.00  0.00     0.000 C 
ENDROOT
BRANCH   1   2
ATOM      2  C   UNL     1      12.295  17.113  26.548  1.00  0.00     0.000 C 
BRANCH   2   3
ATOM      3  C   UNL     1      13.431  18.069  26.958  1.00  0.00     0.000 C 
BRANCH   3   4
ATOM      4  C   UNL     1      14.813  17.732  26.364  1.00  0.00     0.000 C 
BRANCH   4   5
ATOM      5  C   UNL     1      15.176  18.500  25.078  1.00  0.00     0.000 C 
BRANCH   5   6
ATOM      6  C   UNL     1      14.368  19.791  24.840  1.00  0.00     0.000 C 
BRANCH   6   7
ATOM      7  C   UNL     1      15.044  20.819  23.914  1.00  0.00     0.006 C 
BRANCH   7   8
ATOM      8  C   UNL     1      16.460  20.404  23.495  1.00  0.00     0.053 C 
BRANCH   8   9
ATOM      9  C   UNL     1      16.581  20.389  22.003  1.00  0.00     0.041 C 
ATOM     10  O   UNL     1      15.872  21.159  21.302  1.00  0.00    -0.550 OA
ATOM     11  O   UNL     1      17.513  19.561  21.389  1.00  0.00    -0.550 OA
ENDBRANCH   8   9
ENDBRANCH   7   8
ENDBRANCH   6   7
ENDBRANCH   5   6
ENDBRANCH   4   5
ENDBRANCH   3   4
ENDBRANCH   2   3
ENDBRANCH   1   2
BRANCH   1  12
ATOM     12  C   UNL     1      11.849  16.344  28.946  1.00  0.00     0.000 C 
BRANCH  12  13
ATOM     13  C   UNL     1      10.862  15.437  29.700  1.00  0.00    -0.000 C 
BRANCH  13  14
ATOM     14  C   UNL     1      11.070  15.460  31.226  1.00  0.00    -0.000 C 
BRANCH  14  15
ATOM     15  C   UNL     1      11.749  16.725  31.782  1.00  0.00    -0.000 C 
BRANCH  15  16
ATOM     16  C   UNL     1      10.747  17.746  32.347  1.00  0.00    -0.000 C 
BRANCH  16  17
ATOM     17  C   UNL     1      10.347  18.824  31.320  1.00  0.00    -0.000 C 
BRANCH  17  18
ATOM     18  C   UNL     1      11.384  19.942  31.104  1.00  0.00    -0.000 C 
BRANCH  18  19
ATOM     19  C   UNL     1      11.835  20.067  29.641  1.00  0.00    -0.003 C 
ATOM     20  C   UNL     1      13.191  20.759  29.541  1.00  0.00     0.004 C 
ENDBRANCH  18  19
ENDBRANCH  17  18
ENDBRANCH  16  17
ENDBRANCH  15  16
ENDBRANCH  14  15
ENDBRANCH  13  14
ENDBRANCH  12  13
ENDBRANCH   1  12
TORSDOF 16
ENDMDL
MODEL 8
REMARK VINA RESULT:    -4.048      4.739      6.111
REMARK INTER + INTRA:          -9.996
REMARK INTER:                  -8.672
REMARK INTRA:                  -1.324
REMARK UNBOUND:                -2.162
REMARK SMILES CCCCCCCCCCCCCCCCCC(=O)[O-]
REMARK SMILES IDX 10 1 11 2 12 3 13 4 14 5 15 6 16 7 17 8 18 9 19 10 20 11
REMARK SMILES IDX 9 12 8 13 7 14 6 15 5 16 4 17 3 18 2 19 1 20
REMARK H PARENT
REMARK Flexibility Score: inf
ROOT
ATOM      1  C   UNL     1      12.850  16.594  27.131  1.00  0.00     0.000 C 
ENDROOT
BRANCH   1   2
ATOM      2  C   UNL     1      12.055  16.391  28.433  1.00  0.00     0.000 C 
BRANCH   2   3
ATOM      3  C   UNL     1      11.172  17.601  28.789  1.00  0.00     0.000 C 
BRANCH   3   4
ATOM      4  C   UNL     1      11.425  18.207  30.184  1.00  0.00     0.000 C 
BRANCH   4   5
ATOM      5  C   UNL     1      11.809  17.190  31.277  1.00  0.00     0.000 C 
BRANCH   5   6
ATOM      6  C   UNL     1      10.913  17.213  32.532  1.00  0.00     0.000 C 
BRANCH   6   7
ATOM      7  C   UNL     1       9.890  16.066  32.621  1.00  0.00     0.006 C 
BRANCH   7   8
ATOM      8  C   UNL     1      10.376  14.780  31.941  1.00  0.00     0.053 C 
BRANCH   8   9
ATOM      9  C   UNL     1       9.540  14.477  30.738  1.00  0.00     0.041 C 
ATOM     10  O   UNL     1       8.833  15.378  30.213  1.00  0.00    -0.550 OA
ATOM     11  O   UNL     1       9.579  13.211  30.163  1.00  0.00    -0.550 OA
ENDBRANCH   8   9
ENDBRANCH   7   8
ENDBRANCH   6   7
ENDBRANCH   5   6
ENDBRANCH   4   5
ENDBRANCH   3   4
ENDBRANCH   2   3
ENDBRANCH   1   2
BRANCH   1  12
ATOM     12  C   UNL     1      13.604  17.933  27.108  1.00  0.00     0.000 C 
BRANCH  12  13
ATOM     13  C   UNL     1      14.980  17.821  26.430  1.00  0.00    -0.000 C 
BRANCH  13  14
ATOM     14  C   UNL     1      15.004  18.421  25.011  1.00  0.00    -0.000 C 
BRANCH  14  15
ATOM     15  C   UNL     1      14.033  19.593  24.774  1.00  0.00    -0.000 C 
BRANCH  15  16
ATOM     16  C   UNL     1      14.726  20.842  24.203  1.00  0.00    -0.000 C 
BRANCH  16  17
ATOM     17  C   UNL     1      15.362  20.595  22.821  1.00  0.00    -0.000 C 
BRANCH  17  18
ATOM     18  C   UNL     1      16.897  20.718  22.775  1.00  0.00    -0.000 C 
BRANCH  18  19
ATOM     19  C   UNL     1      17.516  20.031  21.549  1.00  0.00    -0.003 C 
ATOM     20  C   UNL     1      17.092  18.567  21.466  1.00  0.00     0.004 C 
ENDBRANCH  18  19
ENDBRANCH  17  18
ENDBRANCH  16  17
ENDBRANCH  15  16
ENDBRANCH  14  15
ENDBRANCH  13  14
ENDBRANCH  12  13
ENDBRANCH   1  12
TORSDOF 16
ENDMDL
MODEL 9
REMARK VINA RESULT:    -4.034      1.874      3.099
REMARK INTER + INTRA:          -9.969
REMARK INTER:                  -7.763
REMARK INTRA:                  -2.205
REMARK UNBOUND:                -2.162
REMARK SMILES CCCCCCCCCCCCCCCCCC(=O)[O-]
REMARK SMILES IDX 10 1 11 2 12 3 13 4 14 5 15 6 16 7 17 8 18 9 19 10 20 11
REMARK SMILES IDX 9 12 8 13 7 14 6 15 5 16 4 17 3 18 2 19 1 20
REMARK H PARENT
REMARK Flexibility Score: inf
ROOT
ATOM      1  C   UNL     1      13.628  19.271  23.484  1.00  0.00     0.000 C 
ENDROOT
BRANCH   1   2
ATOM      2  C   UNL     1      14.549  18.139  23.975  1.00  0.00     0.000 C 
BRANCH   2   3
ATOM      3  C   UNL     1      15.240  18.469  25.310  1.00  0.00     0.000 C 
BRANCH   3   4
ATOM      4  C   UNL     1      14.738  17.660  26.523  1.00  0.00     0.000 C 
BRANCH   4   5
ATOM      5  C   UNL     1      13.214  17.701  26.749  1.00  0.00     0.000 C 
BRANCH   5   6
ATOM      6  C   UNL     1      12.646  19.087  27.112  1.00  0.00     0.000 C 
BRANCH   6   7
ATOM      7  C   UNL     1      12.610  19.401  28.619  1.00  0.00     0.006 C 
BRANCH   7   8
ATOM      8  C   UNL     1      12.317  20.878  28.913  1.00  0.00     0.053 C 
BRANCH   8   9
ATOM      9  C   UNL     1      12.321  21.128  30.388  1.00  0.00     0.041 C 
ATOM     10  O   UNL     1      11.323  20.810  31.088  1.00  0.00    -0.550 OA
ATOM     11  O   UNL     1      13.448  21.667  31.000  1.00  0.00    -0.550 OA
ENDBRANCH   8   9
ENDBRANCH   7   8
ENDBRANCH   6   7
ENDBRANCH   5   6
ENDBRANCH   4   5
ENDBRANCH   3   4
ENDBRANCH   2   3
ENDBRANCH   1   2
BRANCH   1  12
ATOM     12  C   UNL     1      13.491  19.292  21.953  1.00  0.00     0.000 C 
BRANCH  12  13
ATOM     13  C   UNL     1      13.894  20.647  21.347  1.00  0.00    -0.000 C 
BRANCH  13  14
ATOM     14  C   UNL     1      13.781  21.812  22.348  1.00  0.00    -0.000 C 
BRANCH  14  15
ATOM     15  C   UNL     1      15.034  22.699  22.474  1.00  0.00    -0.000 C 
BRANCH  15  16
ATOM     16  C   UNL     1      15.783  22.496  23.802  1.00  0.00    -0.000 C 
BRANCH  16  17
ATOM     17  C   UNL     1      17.222  21.982  23.605  1.00  0.00    -0.000 C 
BRANCH  17  18
ATOM     18  C   UNL     1      17.344  20.478  23.297  1.00  0.00    -0.000 C 
BRANCH  18  19
ATOM     19  C   UNL     1      17.649  20.192  21.818  1.00  0.00    -0.003 C 
ATOM     20  C   UNL     1      17.130  18.818  21.406  1.00  0.00     0.004 C 
ENDBRANCH  18  19
ENDBRANCH  17  18
ENDBRANCH  16  17
ENDBRANCH  15  16
ENDBRANCH  14  15
ENDBRANCH  13  14
ENDBRANCH  12  13
ENDBRANCH   1  12
TORSDOF 16
ENDMDL
