MODEL 1
REMARK VINA RESULT:    -4.335      0.000      0.000
REMARK INTER + INTRA:          -9.187
REMARK INTER:                  -7.377
REMARK INTRA:                  -1.810
REMARK UNBOUND:                -1.810
REMARK SMILES CCCCCCCCCCCCCC(=O)[O-]
REMARK SMILES IDX 8 1 9 2 10 3 11 4 12 5 13 6 14 7 15 8 16 9 7 10 6 11 5 12
REMARK SMILES IDX 4 13 3 14 2 15 1 16
REMARK H PARENT
REMARK Flexibility Score: inf
ROOT
ATOM      1  C   UNL     1      11.754   1.612  -0.634  1.00  0.00     0.000 C 
ENDROOT
BRANCH   1   2
ATOM      2  C   UNL     1      10.298   2.049  -0.407  1.00  0.00     0.000 C 
BRANCH   2   3
ATOM      3  C   UNL     1      10.148   3.031   0.768  1.00  0.00     0.000 C 
BRANCH   3   4
ATOM      4  C   UNL     1       8.703   3.530   0.940  1.00  0.00     0.000 C 
BRANCH   4   5
ATOM      5  C   UNL     1       8.627   5.046   1.178  1.00  0.00     0.006 C 
BRANCH   5   6
ATOM      6  C   UNL     1       9.973   5.645   1.611  1.00  0.00     0.053 C 
BRANCH   6   7
ATOM      7  C   UNL     1       9.854   6.266   2.966  1.00  0.00     0.041 C 
ATOM      8  O   UNL     1      10.872   6.392   3.697  1.00  0.00    -0.550 OA
ATOM      9  O   UNL     1       8.629   6.751   3.405  1.00  0.00    -0.550 OA
ENDBRANCH   6   7
ENDBRANCH   5   6
ENDBRANCH   4   5
ENDBRANCH   3   4
ENDBRANCH   2   3
ENDBRANCH   1   2
BRANCH   1  10
ATOM     10  C   UNL     1      12.254   2.067  -2.014  1.00  0.00     0.000 C 
BRANCH  10  11
ATOM     11  C   UNL     1      11.482   1.414  -3.171  1.00  0.00    -0.000 C 
BRANCH  11  12
ATOM     12  C   UNL     1      11.256   2.379  -4.349  1.00  0.00    -0.000 C 
BRANCH  12  13
ATOM     13  C   UNL     1      11.015   3.826  -3.890  1.00  0.00    -0.000 C 
BRANCH  13  14
ATOM     14  C   UNL     1       9.580   4.059  -3.393  1.00  0.00    -0.000 C 
BRANCH  14  15
ATOM     15  C   UNL     1       9.535   5.193  -2.362  1.00  0.00    -0.003 C 
ATOM     16  C   UNL     1      10.940   5.604  -1.932  1.00  0.00     0.004 C 
ENDBRANCH  14  15
ENDBRANCH  13  14
ENDBRANCH  12  13
ENDBRANCH  11  12
ENDBRANCH  10  11
ENDBRANCH   1  10
TORSDOF 12
ENDMDL
MODEL 2
REMARK VINA RESULT:    -4.110      2.035      3.628
REMARK INTER + INTRA:          -8.803
REMARK INTER:                  -7.131
REMARK INTRA:                  -1.671
REMARK UNBOUND:                -1.810
REMARK SMILES CCCCCCCCCCCCCC(=O)[O-]
REMARK SMILES IDX 8 1 9 2 10 3 11 4 12 5 13 6 14 7 15 8 16 9 7 10 6 11 5 12
REMARK SMILES IDX 4 13 3 14 2 15 1 16
REMARK H PARENT
REMARK Flexibility Score: inf
ROOT
ATOM      1  C   UNL     1      10.140   2.849   0.587  1.00  0.00     0.000 C 
ENDROOT
BRANCH   1   2
ATOM      2  C   UNL     1       8.855   3.663   0.368  1.00  0.00     0.000 C 
BRANCH   2   3
ATOM      3  C   UNL     1       8.317   3.553  -1.068  1.00  0.00     0.000 C 
BRANCH   3   4
ATOM      4  C   UNL     1       8.271   4.911  -1.788  1.00  0.00     0.000 C 
BRANCH   4   5
ATOM      5  C   UNL     1       9.417   5.083  -2.798  1.00  0.00     0.006 C 
BRANCH   5   6
ATOM      6  C   UNL     1      10.745   5.459  -2.128  1.00  0.00     0.053 C 
BRANCH   6   7
ATOM      7  C   UNL     1      10.603   6.744  -1.375  1.00  0.00     0.041 C 
ATOM      8  O   UNL     1      10.505   6.735  -0.119  1.00  0.00    -0.550 OA
ATOM      9  O   UNL     1      10.629   7.955  -2.054  1.00  0.00    -0.550 OA
ENDBRANCH   6   7
ENDBRANCH   5   6
ENDBRANCH   4   5
ENDBRANCH   3   4
ENDBRANCH   2   3
ENDBRANCH   1   2
BRANCH   1  10
ATOM     10  C   UNL     1      10.414   1.925  -0.610  1.00  0.00     0.000 C 
BRANCH  10  11
ATOM     11  C   UNL     1      11.914   1.748  -0.894  1.00  0.00    -0.000 C 
BRANCH  11  12
ATOM     12  C   UNL     1      12.283   2.082  -2.350  1.00  0.00    -0.000 C 
BRANCH  12  13
ATOM     13  C   UNL     1      11.114   1.854  -3.323  1.00  0.00    -0.000 C 
BRANCH  13  14
ATOM     14  C   UNL     1      11.485   0.927  -4.490  1.00  0.00    -0.000 C 
BRANCH  14  15
ATOM     15  C   UNL     1      11.465   1.689  -5.821  1.00  0.00    -0.003 C 
ATOM     16  C   UNL     1      11.076   3.150  -5.615  1.00  0.00     0.004 C 
ENDBRANCH  14  15
ENDBRANCH  13  14
ENDBRANCH  12  13
ENDBRANCH  11  12
ENDBRANCH  10  11
ENDBRANCH   1  10
TORSDOF 12
ENDMDL
MODEL 3
REMARK VINA RESULT:    -4.093      3.417      5.545
REMARK INTER + INTRA:          -8.774
REMARK INTER:                  -7.134
REMARK INTRA:                  -1.640
REMARK UNBOUND:                -1.810
REMARK SMILES CCCCCCCCCCCCCC(=O)[O-]
REMARK SMILES IDX 8 1 9 2 10 3 11 4 12 5 13 6 14 7 15 8 16 9 7 10 6 11 5 12
REMARK SMILES IDX 4 13 3 14 2 15 1 16
REMARK H PARENT
REMARK Flexibility Score: inf
ROOT
ATOM      1  C   UNL     1       8.499   3.841   0.936  1.00  0.00     0.000 C 
ENDROOT
BRANCH   1   2
ATOM      2  C   UNL     1       9.903   3.217   0.955  1.00  0.00     0.000 C 
BRANCH   2   3
ATOM      3  C   UNL     1      10.251   2.492  -0.355  1.00  0.00     0.000 C 
BRANCH   3   4
ATOM      4  C   UNL     1      11.489   1.588  -0.220  1.00  0.00     0.000 C 
BRANCH   4   5
ATOM      5  C   UNL     1      12.401   1.650  -1.456  1.00  0.00     0.006 C 
BRANCH   5   6
ATOM      6  C   UNL     1      11.986   2.749  -2.444  1.00  0.00     0.053 C 
BRANCH   6   7
ATOM      7  C   UNL     1      11.691   2.158  -3.786  1.00  0.00     0.041 C 
ATOM      8  O   UNL     1      11.712   0.909  -3.947  1.00  0.00    -0.550 OA
ATOM      9  O   UNL     1      11.344   2.982  -4.848  1.00  0.00    -0.550 OA
ENDBRANCH   6   7
ENDBRANCH   5   6
ENDBRANCH   4   5
ENDBRANCH   3   4
ENDBRANCH   2   3
ENDBRANCH   1   2
BRANCH   1  10
ATOM     10  C   UNL     1       8.553   5.326   1.327  1.00  0.00     0.000 C 
BRANCH  10  11
ATOM     11  C   UNL     1       9.971   5.913   1.241  1.00  0.00    -0.000 C 
BRANCH  11  12
ATOM     12  C   UNL     1      10.140   6.879   0.056  1.00  0.00    -0.000 C 
BRANCH  12  13
ATOM     13  C   UNL     1      10.619   6.169  -1.221  1.00  0.00    -0.000 C 
BRANCH  13  14
ATOM     14  C   UNL     1       9.637   6.325  -2.391  1.00  0.00    -0.000 C 
BRANCH  14  15
ATOM     15  C   UNL     1       9.065   4.966  -2.811  1.00  0.00    -0.003 C 
ATOM     16  C   UNL     1       8.334   5.063  -4.147  1.00  0.00     0.004 C 
ENDBRANCH  14  15
ENDBRANCH  13  14
ENDBRANCH  12  13
ENDBRANCH  11  12
ENDBRANCH  10  11
ENDBRANCH   1  10
TORSDOF 12
ENDMDL
MODEL 4
REMARK VINA RESULT:    -4.081      1.397      3.479
REMARK INTER + INTRA:          -8.754
REMARK INTER:                  -7.574
REMARK INTRA:                  -1.179
REMARK UNBOUND:                -1.810
REMARK SMILES CCCCCCCCCCCCCC(=O)[O-]
REMARK SMILES IDX 8 1 9 2 10 3 11 4 12 5 13 6 14 7 15 8 16 9 7 10 6 11 5 12
REMARK SMILES IDX 4 13 3 14 2 15 1 16
REMARK H PARENT
REMARK Flexibility Score: inf
ROOT
ATOM      1  C   UNL     1       8.617   3.399  -2.121  1.00  0.00     0.000 C 
ENDROOT
BRANCH   1   2
ATOM      2  C   UNL     1       7.494   4.264  -1.527  1.00  0.00     0.000 C 
BRANCH   2   3
ATOM      3  C   UNL     1       7.851   4.836  -0.145  1.00  0.00     0.000 C 
BRANCH   3   4
ATOM      4  C   UNL     1       8.601   3.824   0.737  1.00  0.00     0.000 C 
BRANCH   4   5
ATOM      5  C   UNL     1       9.933   4.378   1.268  1.00  0.00     0.006 C 
BRANCH   5   6
ATOM      6  C   UNL     1       9.978   5.912   1.267  1.00  0.00     0.053 C 
BRANCH   6   7
ATOM      7  C   UNL     1       9.886   6.437   2.665  1.00  0.00     0.041 C 
ATOM      8  O   UNL     1      10.809   6.207   3.490  1.00  0.00    -0.550 OA
ATOM      9  O   UNL     1       8.804   7.221   3.044  1.00  0.00    -0.550 OA
ENDBRANCH   6   7
ENDBRANCH   5   6
ENDBRANCH   4   5
ENDBRANCH   3   4
ENDBRANCH   2   3
ENDBRANCH   1   2
BRANCH   1  10
ATOM     10  C   UNL     1       9.787   4.272  -2.599  1.00  0.00     0.000 C 
BRANCH  10  11
ATOM     11  C   UNL     1      10.978   3.445  -3.109  1.00  0.00    -0.000 C 
BRANCH  11  12
ATOM     12  C   UNL     1      11.959   3.066  -1.985  1.00  0.00    -0.000 C 
BRANCH  12  13
ATOM     13  C   UNL     1      12.048   1.547  -1.766  1.00  0.00    -0.000 C 
BRANCH  13  14
ATOM     14  C   UNL     1      11.971   1.156  -0.283  1.00  0.00    -0.000 C 
BRANCH  14  15
ATOM     15  C   UNL     1      13.065   0.142   0.073  1.00  0.00    -0.003 C 
ATOM     16  C   UNL     1      12.914  -0.352   1.509  1.00  0.00     0.004 C 
ENDBRANCH  14  15
ENDBRANCH  13  14
ENDBRANCH  12  13
ENDBRANCH  11  12
ENDBRANCH  10  11
ENDBRANCH   1  10
TORSDOF 12
ENDMDL
MODEL 5
REMARK VINA RESULT:    -4.040      1.031      3.169
REMARK INTER + INTRA:          -8.683
REMARK INTER:                  -6.794
REMARK INTRA:                  -1.890
REMARK UNBOUND:                -1.810
REMARK SMILES CCCCCCCCCCCCCC(=O)[O-]
REMARK SMILES IDX 8 1 9 2 10 3 11 4 12 5 13 6 14 7 15 8 16 9 7 10 6 11 5 12
REMARK SMILES IDX 4 13 3 14 2 15 1 16
REMARK H PARENT
REMARK Flexibility Score: inf
ROOT
ATOM      1  C   UNL     1      11.057   3.769  -3.704  1.00  0.00     0.000 C 
ENDROOT
BRANCH   1   2
ATOM      2  C   UNL     1       9.593   4.063  -3.342  1.00  0.00     0.000 C 
BRANCH   2   3
ATOM      3  C   UNL     1       9.448   5.216  -2.335  1.00  0.00     0.000 C 
BRANCH   3   4
ATOM      4  C   UNL     1      10.795   5.640  -1.725  1.00  0.00     0.000 C 
BRANCH   4   5
ATOM      5  C   UNL     1      10.668   6.872  -0.814  1.00  0.00     0.006 C 
BRANCH   5   6
ATOM      6  C   UNL     1       9.485   6.768   0.159  1.00  0.00     0.053 C 
BRANCH   6   7
ATOM      7  C   UNL     1       9.935   7.055   1.557  1.00  0.00     0.041 C 
ATOM      8  O   UNL     1      10.414   6.134   2.270  1.00  0.00    -0.550 OA
ATOM      9  O   UNL     1       9.872   8.349   2.056  1.00  0.00    -0.550 OA
ENDBRANCH   6   7
ENDBRANCH   5   6
ENDBRANCH   4   5
ENDBRANCH   3   4
ENDBRANCH   2   3
ENDBRANCH   1   2
BRANCH   1  10
ATOM     10  C   UNL     1      11.214   2.337  -4.236  1.00  0.00     0.000 C 
BRANCH  10  11
ATOM     11  C   UNL     1      11.602   1.333  -3.139  1.00  0.00    -0.000 C 
BRANCH  11  12
ATOM     12  C   UNL     1      12.351   1.996  -1.969  1.00  0.00    -0.000 C 
BRANCH  12  13
ATOM     13  C   UNL     1      11.792   1.579  -0.599  1.00  0.00    -0.000 C 
BRANCH  13  14
ATOM     14  C   UNL     1      10.311   1.948  -0.424  1.00  0.00    -0.000 C 
BRANCH  14  15
ATOM     15  C   UNL     1      10.130   2.967   0.707  1.00  0.00    -0.003 C 
ATOM     16  C   UNL     1       8.665   3.362   0.865  1.00  0.00     0.004 C 
ENDBRANCH  14  15
ENDBRANCH  13  14
ENDBRANCH  12  13
ENDBRANCH  11  12
ENDBRANCH  10  11
ENDBRANCH   1  10
TORSDOF 12
ENDMDL
MODEL 6
REMARK VINA RESULT:    -4.015      3.751      5.714
REMARK INTER + INTRA:          -8.642
REMARK INTER:                  -6.990
REMARK INTRA:                  -1.652
REMARK UNBOUND:                -1.810
REMARK SMILES CCCCCCCCCCCCCC(=O)[O-]
REMARK SMILES IDX 8 1 9 2 10 3 11 4 12 5 13 6 14 7 15 8 16 9 7 10 6 11 5 12
REMARK SMILES IDX 4 13 3 14 2 15 1 16
REMARK H PARENT
REMARK Flexibility Score: inf
ROOT
ATOM      1  C   UNL     1       9.642   4.272   0.817  1.00  0.00     0.000 C 
ENDROOT
BRANCH   1   2
ATOM      2  C   UNL     1       9.945   2.777   0.630  1.00  0.00     0.000 C 
BRANCH   2   3
ATOM      3  C   UNL     1      10.214   2.404  -0.837  1.00  0.00     0.000 C 
BRANCH   3   4
ATOM      4  C   UNL     1      11.694   2.076  -1.101  1.00  0.00     0.000 C 
BRANCH   4   5
ATOM      5  C   UNL     1      12.125   2.412  -2.538  1.00  0.00     0.006 C 
BRANCH   5   6
ATOM      6  C   UNL     1      11.785   1.295  -3.534  1.00  0.00     0.053 C 
BRANCH   6   7
ATOM      7  C   UNL     1      11.437   1.875  -4.868  1.00  0.00     0.041 C 
ATOM      8  O   UNL     1      11.426   1.144  -5.894  1.00  0.00    -0.550 OA
ATOM      9  O   UNL     1      11.075   3.212  -4.972  1.00  0.00    -0.550 OA
ENDBRANCH   6   7
ENDBRANCH   5   6
ENDBRANCH   4   5
ENDBRANCH   3   4
ENDBRANCH   2   3
ENDBRANCH   1   2
BRANCH   1  10
ATOM     10  C   UNL     1       8.129   4.515   0.934  1.00  0.00     0.000 C 
BRANCH  10  11
ATOM     11  C   UNL     1       7.543   5.225  -0.296  1.00  0.00    -0.000 C 
BRANCH  11  12
ATOM     12  C   UNL     1       7.275   4.259  -1.464  1.00  0.00    -0.000 C 
BRANCH  12  13
ATOM     13  C   UNL     1       8.001   4.676  -2.753  1.00  0.00    -0.000 C 
BRANCH  13  14
ATOM     14  C   UNL     1       8.747   6.011  -2.609  1.00  0.00    -0.000 C 
BRANCH  14  15
ATOM     15  C   UNL     1      10.229   5.852  -2.968  1.00  0.00    -0.003 C 
ATOM     16  C   UNL     1      11.119   6.059  -1.746  1.00  0.00     0.004 C 
ENDBRANCH  14  15
ENDBRANCH  13  14
ENDBRANCH  12  13
ENDBRANCH  11  12
ENDBRANCH  10  11
ENDBRANCH   1  10
TORSDOF 12
ENDMDL
MODEL 7
REMARK VINA RESULT:    -3.989      3.219      5.114
REMARK INTER + INTRA:          -8.596
REMARK INTER:                  -6.668
REMARK INTRA:                  -1.929
REMARK UNBOUND:                -1.810
REMARK SMILES CCCCCCCCCCCCCC(=O)[O-]
REMARK SMILES IDX 8 1 9 2 10 3 11 4 12 5 13 6 14 7 15 8 16 9 7 10 6 11 5 12
REMARK SMILES IDX 4 13 3 14 2 15 1 16
REMARK H PARENT
REMARK Flexibility Score: inf
ROOT
ATOM      1  C   UNL     1       9.669   4.883   1.262  1.00  0.00     0.000 C 
ENDROOT
BRANCH   1   2
ATOM      2  C   UNL     1       8.495   5.346   0.385  1.00  0.00     0.000 C 
BRANCH   2   3
ATOM      3  C   UNL     1       8.934   6.288  -0.749  1.00  0.00     0.000 C 
BRANCH   3   4
ATOM      4  C   UNL     1      10.464   6.382  -0.879  1.00  0.00     0.000 C 
BRANCH   4   5
ATOM      5  C   UNL     1      11.016   5.499  -2.009  1.00  0.00     0.006 C 
BRANCH   5   6
ATOM      6  C   UNL     1       9.966   5.192  -3.086  1.00  0.00     0.053 C 
BRANCH   6   7
ATOM      7  C   UNL     1      10.299   5.910  -4.356  1.00  0.00     0.041 C 
ATOM      8  O   UNL     1      10.592   7.134  -4.335  1.00  0.00    -0.550 OA
ATOM      9  O   UNL     1      10.333   5.216  -5.559  1.00  0.00    -0.550 OA
ENDBRANCH   6   7
ENDBRANCH   5   6
ENDBRANCH   4   5
ENDBRANCH   3   4
ENDBRANCH   2   3
ENDBRANCH   1   2
BRANCH   1  10
ATOM     10  C   UNL     1       9.947   3.385   1.059  1.00  0.00     0.000 C 
BRANCH  10  11
ATOM     11  C   UNL     1       9.050   2.753  -0.017  1.00  0.00    -0.000 C 
BRANCH  11  12
ATOM     12  C   UNL     1       9.853   1.976  -1.075  1.00  0.00    -0.000 C 
BRANCH  12  13
ATOM     13  C   UNL     1      11.359   1.942  -0.765  1.00  0.00    -0.000 C 
BRANCH  13  14
ATOM     14  C   UNL     1      12.227   2.042  -2.028  1.00  0.00    -0.000 C 
BRANCH  14  15
ATOM     15  C   UNL     1      11.614   1.236  -3.179  1.00  0.00    -0.003 C 
ATOM     16  C   UNL     1      11.513   2.076  -4.449  1.00  0.00     0.004 C 
ENDBRANCH  14  15
ENDBRANCH  13  14
ENDBRANCH  12  13
ENDBRANCH  11  12
ENDBRANCH  10  11
ENDBRANCH   1  10
TORSDOF 12
ENDMDL
MODEL 8
REMARK VINA RESULT:    -3.969      1.727      3.365
REMARK INTER + INTRA:          -8.564
REMARK INTER:                  -7.279
REMARK INTRA:                  -1.285
REMARK UNBOUND:                -1.810
REMARK SMILES CCCCCCCCCCCCCC(=O)[O-]
REMARK SMILES IDX 8 1 9 2 10 3 11 4 12 5 13 6 14 7 15 8 16 9 7 10 6 11 5 12
REMARK SMILES IDX 4 13 3 14 2 15 1 16
REMARK H PARENT
REMARK Flexibility Score: inf
ROOT
ATOM      1  C   UNL     1       9.944   3.062   0.801  1.00  0.00     0.000 C 
ENDROOT
BRANCH   1   2
ATOM      2  C   UNL     1       8.764   4.027   0.604  1.00  0.00     0.000 C 
BRANCH   2   3
ATOM      3  C   UNL     1       8.293   4.101  -0.857  1.00  0.00     0.000 C 
BRANCH   3   4
ATOM      4  C   UNL     1       8.705   5.414  -1.545  1.00  0.00     0.000 C 
BRANCH   4   5
ATOM      5  C   UNL     1      10.044   5.959  -1.023  1.00  0.00     0.006 C 
BRANCH   5   6
ATOM      6  C   UNL     1      10.064   7.491  -0.930  1.00  0.00     0.053 C 
BRANCH   6   7
ATOM      7  C   UNL     1       9.770   7.932   0.469  1.00  0.00     0.041 C 
ATOM      8  O   UNL     1       9.194   9.032   0.679  1.00  0.00    -0.550 OA
ATOM      9  O   UNL     1      10.088   7.106   1.540  1.00  0.00    -0.550 OA
ENDBRANCH   6   7
ENDBRANCH   5   6
ENDBRANCH   4   5
ENDBRANCH   3   4
ENDBRANCH   2   3
ENDBRANCH   1   2
BRANCH   1  10
ATOM     10  C   UNL     1      10.124   2.158  -0.428  1.00  0.00     0.000 C 
BRANCH  10  11
ATOM     11  C   UNL     1      11.559   1.627  -0.572  1.00  0.00    -0.000 C 
BRANCH  11  12
ATOM     12  C   UNL     1      12.276   2.188  -1.813  1.00  0.00    -0.000 C 
BRANCH  12  13
ATOM     13  C   UNL     1      11.317   2.913  -2.771  1.00  0.00    -0.000 C 
BRANCH  13  14
ATOM     14  C   UNL     1      11.430   2.410  -4.217  1.00  0.00    -0.000 C 
BRANCH  14  15
ATOM     15  C   UNL     1      11.456   0.877  -4.263  1.00  0.00    -0.003 C 
ATOM     16  C   UNL     1      11.726   0.372  -5.677  1.00  0.00     0.004 C 
ENDBRANCH  14  15
ENDBRANCH  13  14
ENDBRANCH  12  13
ENDBRANCH  11  12
ENDBRANCH  10  11
ENDBRANCH   1  10
TORSDOF 12
ENDMDL
MODEL 9
REMARK VINA RESULT:    -3.952      2.873      4.674
REMARK INTER + INTRA:          -8.534
REMARK INTER:                  -7.224
REMARK INTRA:                  -1.310
REMARK UNBOUND:                -1.810
REMARK SMILES CCCCCCCCCCCCCC(=O)[O-]
REMARK SMILES IDX 8 1 9 2 10 3 11 4 12 5 13 6 14 7 15 8 16 9 7 10 6 11 5 12
REMARK SMILES IDX 4 13 3 14 2 15 1 16
REMARK H PARENT
REMARK Flexibility Score: inf
ROOT
ATOM      1  C   UNL     1       9.997   3.062   0.680  1.00  0.00     0.000 C 
ENDROOT
BRANCH   1   2
ATOM      2  C   UNL     1       9.126   4.318   0.525  1.00  0.00     0.000 C 
BRANCH   2   3
ATOM      3  C   UNL     1       9.957   5.602   0.363  1.00  0.00     0.000 C 
BRANCH   3   4
ATOM      4  C   UNL     1      10.357   5.866  -1.099  1.00  0.00     0.000 C 
BRANCH   4   5
ATOM      5  C   UNL     1       9.141   6.087  -2.012  1.00  0.00     0.006 C 
BRANCH   5   6
ATOM      6  C   UNL     1       8.966   4.966  -3.047  1.00  0.00     0.053 C 
BRANCH   6   7
ATOM      7  C   UNL     1       7.532   4.550  -3.127  1.00  0.00     0.041 C 
ATOM      8  O   UNL     1       7.077   3.687  -2.331  1.00  0.00    -0.550 OA
ATOM      9  O   UNL     1       6.683   5.150  -4.048  1.00  0.00    -0.550 OA
ENDBRANCH   6   7
ENDBRANCH   5   6
ENDBRANCH   4   5
ENDBRANCH   3   4
ENDBRANCH   2   3
ENDBRANCH   1   2
BRANCH   1  10
ATOM     10  C   UNL     1      10.060   2.273  -0.637  1.00  0.00     0.000 C 
BRANCH  10  11
ATOM     11  C   UNL     1      11.444   1.656  -0.895  1.00  0.00    -0.000 C 
BRANCH  11  12
ATOM     12  C   UNL     1      12.243   2.422  -1.964  1.00  0.00    -0.000 C 
BRANCH  12  13
ATOM     13  C   UNL     1      11.534   2.445  -3.328  1.00  0.00    -0.000 C 
BRANCH  13  14
ATOM     14  C   UNL     1      11.416   1.049  -3.959  1.00  0.00    -0.000 C 
BRANCH  14  15
ATOM     15  C   UNL     1      11.487   1.133  -5.489  1.00  0.00    -0.003 C 
ATOM     16  C   UNL     1      11.917  -0.200  -6.095  1.00  0.00     0.004 C 
ENDBRANCH  14  15
ENDBRANCH  13  14
ENDBRANCH  12  13
ENDBRANCH  11  12
ENDBRANCH  10  11
ENDBRANCH   1  10
TORSDOF 12
ENDMDL
