MODEL 1
REMARK VINA RESULT:    -6.206      0.000      0.000
REMARK INTER + INTRA:          -7.804
REMARK INTER:                  -7.476
REMARK INTRA:                  -0.329
REMARK UNBOUND:                -0.329
REMARK SMILES O=c1c(O)c(-c2ccc(O)c(O)c2)oc2cc(O)cc(O)c12
REMARK SMILES IDX 5 1 3 2 2 3 1 4 22 5 20 6 19 7 17 8 16 9 15 10 14 11 6 12
REMARK SMILES IDX 7 13 8 14 9 15 13 16 11 17 10 18 12 20 4 22 21 24 18 26
REMARK H PARENT 10 19 12 21 4 23 21 25 18 27
REMARK Flexibility Score: inf
ROOT
ATOM      1  C   UNL     1      18.733  41.024   6.250  1.00  0.00     0.180 A 
ATOM      2  C   UNL     1      19.090  41.328   4.925  1.00  0.00     0.208 A 
ATOM      3  C   UNL     1      20.013  40.505   4.260  1.00  0.00     0.238 A 
ATOM      4  O   UNL     1      20.369  40.814   3.093  1.00  0.00    -0.285 OA
ATOM      5  C   UNL     1      20.556  39.378   4.923  1.00  0.00     0.111 A 
ATOM      6  C   UNL     1      21.469  38.452   4.335  1.00  0.00     0.134 A 
ATOM      7  C   UNL     1      22.042  37.449   5.125  1.00  0.00     0.093 A 
ATOM      8  C   UNL     1      21.685  37.298   6.467  1.00  0.00     0.123 A 
ATOM      9  C   UNL     1      20.751  38.160   7.035  1.00  0.00     0.094 A 
ATOM     10  C   UNL     1      20.189  39.194   6.282  1.00  0.00     0.146 A 
ATOM     11  O   UNL     1      19.310  39.999   6.866  1.00  0.00    -0.452 OA
ENDROOT
BRANCH   1  12
ATOM     12  C   UNL     1      17.748  41.830   7.005  1.00  0.00     0.025 A 
ATOM     13  C   UNL     1      18.201  42.821   7.891  1.00  0.00     0.016 A 
ATOM     14  C   UNL     1      17.290  43.579   8.630  1.00  0.00     0.051 A 
ATOM     15  C   UNL     1      15.915  43.351   8.507  1.00  0.00     0.157 A 
ATOM     16  C   UNL     1      16.367  41.588   6.899  1.00  0.00     0.062 A 
ATOM     17  C   UNL     1      15.451  42.347   7.640  1.00  0.00     0.158 A 
BRANCH  15  18
ATOM     18  O   UNL     1      15.030  44.125   9.256  1.00  0.00    -0.504 OA
ATOM     19  H   UNL     1      14.026  44.001   9.200  1.00  0.00     0.293 HD
ENDBRANCH  15  18
BRANCH  17  20
ATOM     20  O   UNL     1      14.083  42.105   7.525  1.00  0.00    -0.504 OA
ATOM     21  H   UNL     1      13.397  42.815   7.752  1.00  0.00     0.293 HD
ENDBRANCH  17  20
ENDBRANCH   1  12
BRANCH   2  22
ATOM     22  O   UNL     1      18.558  42.459   4.296  1.00  0.00    -0.502 OA
ATOM     23  H   UNL     1      17.620  42.791   4.478  1.00  0.00     0.293 HD
ENDBRANCH   2  22
BRANCH   6  24
ATOM     24  O   UNL     1      21.821  38.458   2.981  1.00  0.00    -0.507 OA
ATOM     25  H   UNL     1      21.198  38.217   2.224  1.00  0.00     0.293 HD
ENDBRANCH   6  24
BRANCH   8  26
ATOM     26  O   UNL     1      22.248  36.287   7.243  1.00  0.00    -0.508 OA
ATOM     27  H   UNL     1      23.109  36.432   7.759  1.00  0.00     0.293 HD
ENDBRANCH   8  26
TORSDOF 6
ENDMDL
MODEL 2
REMARK VINA RESULT:    -6.124      1.544      6.477
REMARK INTER + INTRA:          -7.706
REMARK INTER:                  -7.477
REMARK INTRA:                  -0.229
REMARK UNBOUND:                -0.329
REMARK SMILES O=c1c(O)c(-c2ccc(O)c(O)c2)oc2cc(O)cc(O)c12
REMARK SMILES IDX 5 1 3 2 2 3 1 4 22 5 20 6 19 7 17 8 16 9 15 10 14 11 6 12
REMARK SMILES IDX 7 13 8 14 9 15 13 16 11 17 10 18 12 20 4 22 21 24 18 26
REMARK H PARENT 10 19 12 21 4 23 21 25 18 27
REMARK Flexibility Score: inf
ROOT
ATOM      1  C   UNL     1      20.669  39.201   6.489  1.00  0.00     0.180 A 
ATOM      2  C   UNL     1      21.077  39.556   5.191  1.00  0.00     0.208 A 
ATOM      3  C   UNL     1      20.356  40.540   4.495  1.00  0.00     0.238 A 
ATOM      4  O   UNL     1      20.693  40.814   3.314  1.00  0.00    -0.285 OA
ATOM      5  C   UNL     1      19.246  41.167   5.111  1.00  0.00     0.111 A 
ATOM      6  C   UNL     1      18.467  42.204   4.516  1.00  0.00     0.134 A 
ATOM      7  C   UNL     1      17.313  42.661   5.163  1.00  0.00     0.093 A 
ATOM      8  C   UNL     1      16.946  42.163   6.416  1.00  0.00     0.123 A 
ATOM      9  C   UNL     1      17.732  41.193   7.032  1.00  0.00     0.094 A 
ATOM     10  C   UNL     1      18.870  40.692   6.395  1.00  0.00     0.146 A 
ATOM     11  O   UNL     1      19.586  39.760   7.013  1.00  0.00    -0.452 OA
ENDROOT
BRANCH   1  12
ATOM     12  C   UNL     1      21.394  38.192   7.294  1.00  0.00     0.025 A 
ATOM     13  C   UNL     1      22.202  38.612   8.362  1.00  0.00     0.016 A 
ATOM     14  C   UNL     1      22.912  37.679   9.122  1.00  0.00     0.051 A 
ATOM     15  C   UNL     1      22.838  36.316   8.818  1.00  0.00     0.157 A 
ATOM     16  C   UNL     1      21.338  36.823   6.977  1.00  0.00     0.062 A 
ATOM     17  C   UNL     1      22.050  35.885   7.737  1.00  0.00     0.158 A 
BRANCH  15  18
ATOM     18  O   UNL     1      23.555  35.408   9.596  1.00  0.00    -0.504 OA
ATOM     19  H   UNL     1      23.181  34.501   9.848  1.00  0.00     0.293 HD
ENDBRANCH  15  18
BRANCH  17  20
ATOM     20  O   UNL     1      21.983  34.530   7.420  1.00  0.00    -0.504 OA
ATOM     21  H   UNL     1      21.254  33.932   7.793  1.00  0.00     0.293 HD
ENDBRANCH  17  20
ENDBRANCH   1  12
BRANCH   2  22
ATOM     22  O   UNL     1      22.162  38.908   4.593  1.00  0.00    -0.502 OA
ATOM     23  H   UNL     1      22.715  39.337   3.862  1.00  0.00     0.293 HD
ENDBRANCH   2  22
BRANCH   6  24
ATOM     24  O   UNL     1      18.797  42.834   3.312  1.00  0.00    -0.507 OA
ATOM     25  H   UNL     1      19.522  43.529   3.206  1.00  0.00     0.293 HD
ENDBRANCH   6  24
BRANCH   8  26
ATOM     26  O   UNL     1      15.804  42.633   7.061  1.00  0.00    -0.508 OA
ATOM     27  H   UNL     1      14.930  42.762   6.565  1.00  0.00     0.293 HD
ENDBRANCH   8  26
TORSDOF 6
ENDMDL
MODEL 3
REMARK VINA RESULT:    -5.862      3.552      5.236
REMARK INTER + INTRA:          -7.390
REMARK INTER:                  -7.464
REMARK INTRA:                   0.074
REMARK UNBOUND:                -0.329
REMARK SMILES O=c1c(O)c(-c2ccc(O)c(O)c2)oc2cc(O)cc(O)c12
REMARK SMILES IDX 5 1 3 2 2 3 1 4 22 5 20 6 19 7 17 8 16 9 15 10 14 11 6 12
REMARK SMILES IDX 7 13 8 14 9 15 13 16 11 17 10 18 12 20 4 22 21 24 18 26
REMARK H PARENT 10 19 12 21 4 23 21 25 18 27
REMARK Flexibility Score: inf
ROOT
ATOM      1  C   UNL     1      21.066  40.650   5.294  1.00  0.00     0.180 A 
ATOM      2  C   UNL     1      21.081  41.350   6.512  1.00  0.00     0.208 A 
ATOM      3  C   UNL     1      21.299  40.641   7.704  1.00  0.00     0.238 A 
ATOM      4  O   UNL     1      21.257  41.266   8.796  1.00  0.00    -0.285 OA
ATOM      5  C   UNL     1      21.515  39.242   7.662  1.00  0.00     0.111 A 
ATOM      6  C   UNL     1      21.786  38.428   8.802  1.00  0.00     0.134 A 
ATOM      7  C   UNL     1      21.854  37.037   8.659  1.00  0.00     0.093 A 
ATOM      8  C   UNL     1      21.726  36.436   7.404  1.00  0.00     0.123 A 
ATOM      9  C   UNL     1      21.521  37.226   6.277  1.00  0.00     0.094 A 
ATOM     10  C   UNL     1      21.412  38.614   6.393  1.00  0.00     0.146 A 
ATOM     11  O   UNL     1      21.206  39.329   5.293  1.00  0.00    -0.452 OA
ENDROOT
BRANCH   1  12
ATOM     12  C   UNL     1      20.867  41.332   3.995  1.00  0.00     0.025 A 
ATOM     13  C   UNL     1      21.741  41.058   2.931  1.00  0.00     0.016 A 
ATOM     14  C   UNL     1      21.585  41.706   1.703  1.00  0.00     0.051 A 
ATOM     15  C   UNL     1      20.565  42.646   1.523  1.00  0.00     0.157 A 
ATOM     16  C   UNL     1      19.856  42.292   3.819  1.00  0.00     0.062 A 
ATOM     17  C   UNL     1      19.698  42.944   2.588  1.00  0.00     0.158 A 
BRANCH  15  18
ATOM     18  O   UNL     1      20.433  43.275   0.286  1.00  0.00    -0.504 OA
ATOM     19  H   UNL     1      20.902  44.147   0.072  1.00  0.00     0.293 HD
ENDBRANCH  15  18
BRANCH  17  20
ATOM     20  O   UNL     1      18.689  43.891   2.420  1.00  0.00    -0.504 OA
ATOM     21  H   UNL     1      17.866  43.696   1.862  1.00  0.00     0.293 HD
ENDBRANCH  17  20
ENDBRANCH   1  12
BRANCH   2  22
ATOM     22  O   UNL     1      20.842  42.728   6.534  1.00  0.00    -0.502 OA
ATOM     23  H   UNL     1      20.165  43.172   5.926  1.00  0.00     0.293 HD
ENDBRANCH   2  22
BRANCH   6  24
ATOM     24  O   UNL     1      22.021  38.936  10.084  1.00  0.00    -0.507 OA
ATOM     25  H   UNL     1      21.534  38.641  10.918  1.00  0.00     0.293 HD
ENDBRANCH   6  24
BRANCH   8  26
ATOM     26  O   UNL     1      21.811  35.052   7.267  1.00  0.00    -0.508 OA
ATOM     27  H   UNL     1      21.868  34.612   6.356  1.00  0.00     0.293 HD
ENDBRANCH   8  26
TORSDOF 6
ENDMDL
MODEL 4
REMARK VINA RESULT:    -5.789      2.462      6.351
REMARK INTER + INTRA:          -7.302
REMARK INTER:                  -7.199
REMARK INTRA:                  -0.104
REMARK UNBOUND:                -0.329
REMARK SMILES O=c1c(O)c(-c2ccc(O)c(O)c2)oc2cc(O)cc(O)c12
REMARK SMILES IDX 5 1 3 2 2 3 1 4 22 5 20 6 19 7 17 8 16 9 15 10 14 11 6 12
REMARK SMILES IDX 7 13 8 14 9 15 13 16 11 17 10 18 12 20 4 22 21 24 18 26
REMARK H PARENT 10 19 12 21 4 23 21 25 18 27
REMARK Flexibility Score: inf
ROOT
ATOM      1  C   UNL     1      20.447  40.164   6.030  1.00  0.00     0.180 A 
ATOM      2  C   UNL     1      19.453  40.985   6.591  1.00  0.00     0.208 A 
ATOM      3  C   UNL     1      18.945  42.055   5.837  1.00  0.00     0.238 A 
ATOM      4  O   UNL     1      18.094  42.817   6.365  1.00  0.00    -0.285 OA
ATOM      5  C   UNL     1      19.426  42.281   4.524  1.00  0.00     0.111 A 
ATOM      6  C   UNL     1      18.955  43.310   3.654  1.00  0.00     0.134 A 
ATOM      7  C   UNL     1      19.594  43.523   2.427  1.00  0.00     0.093 A 
ATOM      8  C   UNL     1      20.645  42.702   2.010  1.00  0.00     0.123 A 
ATOM      9  C   UNL     1      21.072  41.658   2.826  1.00  0.00     0.094 A 
ATOM     10  C   UNL     1      20.479  41.443   4.072  1.00  0.00     0.146 A 
ATOM     11  O   UNL     1      20.924  40.443   4.823  1.00  0.00    -0.452 OA
ENDROOT
BRANCH   1  12
ATOM     12  C   UNL     1      21.012  39.004   6.755  1.00  0.00     0.025 A 
ATOM     13  C   UNL     1      21.698  39.211   7.963  1.00  0.00     0.016 A 
ATOM     14  C   UNL     1      22.257  38.132   8.653  1.00  0.00     0.051 A 
ATOM     15  C   UNL     1      22.153  36.834   8.141  1.00  0.00     0.157 A 
ATOM     16  C   UNL     1      20.927  37.701   6.232  1.00  0.00     0.062 A 
ATOM     17  C   UNL     1      21.489  36.618   6.922  1.00  0.00     0.158 A 
BRANCH  15  18
ATOM     18  O   UNL     1      22.719  35.778   8.853  1.00  0.00    -0.504 OA
ATOM     19  H   UNL     1      22.261  35.362   9.655  1.00  0.00     0.293 HD
ENDBRANCH  15  18
BRANCH  17  20
ATOM     20  O   UNL     1      21.394  35.329   6.400  1.00  0.00    -0.504 OA
ATOM     21  H   UNL     1      22.192  34.867   5.979  1.00  0.00     0.293 HD
ENDBRANCH  17  20
ENDBRANCH   1  12
BRANCH   2  22
ATOM     22  O   UNL     1      19.008  40.757   7.897  1.00  0.00    -0.502 OA
ATOM     23  H   UNL     1      18.055  40.939   8.186  1.00  0.00     0.293 HD
ENDBRANCH   2  22
BRANCH   6  24
ATOM     24  O   UNL     1      17.854  44.125   3.935  1.00  0.00    -0.507 OA
ATOM     25  H   UNL     1      17.619  44.477   4.851  1.00  0.00     0.293 HD
ENDBRANCH   6  24
BRANCH   8  26
ATOM     26  O   UNL     1      21.265  42.911   0.780  1.00  0.00    -0.508 OA
ATOM     27  H   UNL     1      21.069  43.734   0.220  1.00  0.00     0.293 HD
ENDBRANCH   8  26
TORSDOF 6
ENDMDL
MODEL 5
REMARK VINA RESULT:    -5.683      1.925      2.533
REMARK INTER + INTRA:          -7.175
REMARK INTER:                  -7.112
REMARK INTRA:                  -0.063
REMARK UNBOUND:                -0.329
REMARK SMILES O=c1c(O)c(-c2ccc(O)c(O)c2)oc2cc(O)cc(O)c12
REMARK SMILES IDX 5 1 3 2 2 3 1 4 22 5 20 6 19 7 17 8 16 9 15 10 14 11 6 12
REMARK SMILES IDX 7 13 8 14 9 15 13 16 11 17 10 18 12 20 4 22 21 24 18 26
REMARK H PARENT 10 19 12 21 4 23 21 25 18 27
REMARK Flexibility Score: inf
ROOT
ATOM      1  C   UNL     1      18.575  41.735   5.767  1.00  0.00     0.180 A 
ATOM      2  C   UNL     1      18.733  42.872   4.956  1.00  0.00     0.208 A 
ATOM      3  C   UNL     1      19.665  42.836   3.905  1.00  0.00     0.238 A 
ATOM      4  O   UNL     1      19.840  43.875   3.217  1.00  0.00    -0.285 OA
ATOM      5  C   UNL     1      20.414  41.659   3.669  1.00  0.00     0.111 A 
ATOM      6  C   UNL     1      21.356  41.495   2.610  1.00  0.00     0.134 A 
ATOM      7  C   UNL     1      22.136  40.335   2.550  1.00  0.00     0.093 A 
ATOM      8  C   UNL     1      21.961  39.302   3.475  1.00  0.00     0.123 A 
ATOM      9  C   UNL     1      21.003  39.426   4.477  1.00  0.00     0.094 A 
ATOM     10  C   UNL     1      20.235  40.588   4.584  1.00  0.00     0.146 A 
ATOM     11  O   UNL     1      19.340  40.670   5.561  1.00  0.00    -0.452 OA
ENDROOT
BRANCH   1  12
ATOM     12  C   UNL     1      17.595  41.689   6.876  1.00  0.00     0.025 A 
ATOM     13  C   UNL     1      18.014  41.272   8.150  1.00  0.00     0.016 A 
ATOM     14  C   UNL     1      17.102  41.202   9.206  1.00  0.00     0.051 A 
ATOM     15  C   UNL     1      15.758  41.531   9.004  1.00  0.00     0.157 A 
ATOM     16  C   UNL     1      16.240  42.000   6.670  1.00  0.00     0.062 A 
ATOM     17  C   UNL     1      15.323  41.929   7.728  1.00  0.00     0.158 A 
BRANCH  15  18
ATOM     18  O   UNL     1      14.872  41.453  10.078  1.00  0.00    -0.504 OA
ATOM     19  H   UNL     1      14.563  40.567  10.457  1.00  0.00     0.293 HD
ENDBRANCH  15  18
BRANCH  17  20
ATOM     20  O   UNL     1      13.982  42.245   7.517  1.00  0.00    -0.504 OA
ATOM     21  H   UNL     1      13.701  42.933   6.828  1.00  0.00     0.293 HD
ENDBRANCH  17  20
ENDBRANCH   1  12
BRANCH   2  22
ATOM     22  O   UNL     1      17.999  44.032   5.220  1.00  0.00    -0.502 OA
ATOM     23  H   UNL     1      17.588  44.595   4.485  1.00  0.00     0.293 HD
ENDBRANCH   2  22
BRANCH   6  24
ATOM     24  O   UNL     1      21.543  42.426   1.582  1.00  0.00    -0.507 OA
ATOM     25  H   UNL     1      20.921  42.548   0.797  1.00  0.00     0.293 HD
ENDBRANCH   6  24
BRANCH   8  26
ATOM     26  O   UNL     1      22.730  38.142   3.399  1.00  0.00    -0.508 OA
ATOM     27  H   UNL     1      23.568  38.098   2.830  1.00  0.00     0.293 HD
ENDBRANCH   8  26
TORSDOF 6
ENDMDL
MODEL 6
REMARK VINA RESULT:    -5.634      3.620      5.300
REMARK INTER + INTRA:          -7.115
REMARK INTER:                  -7.212
REMARK INTRA:                   0.097
REMARK UNBOUND:                -0.329
REMARK SMILES O=c1c(O)c(-c2ccc(O)c(O)c2)oc2cc(O)cc(O)c12
REMARK SMILES IDX 5 1 3 2 2 3 1 4 22 5 20 6 19 7 17 8 16 9 15 10 14 11 6 12
REMARK SMILES IDX 7 13 8 14 9 15 13 16 11 17 10 18 12 20 4 22 21 24 18 26
REMARK H PARENT 10 19 12 21 4 23 21 25 18 27
REMARK Flexibility Score: inf
ROOT
ATOM      1  C   UNL     1      20.819  40.345   4.179  1.00  0.00     0.180 A 
ATOM      2  C   UNL     1      21.061  38.987   3.909  1.00  0.00     0.208 A 
ATOM      3  C   UNL     1      21.299  38.110   4.979  1.00  0.00     0.238 A 
ATOM      4  O   UNL     1      21.568  36.907   4.727  1.00  0.00    -0.285 OA
ATOM      5  C   UNL     1      21.276  38.599   6.308  1.00  0.00     0.111 A 
ATOM      6  C   UNL     1      21.464  37.795   7.472  1.00  0.00     0.134 A 
ATOM      7  C   UNL     1      21.552  38.406   8.728  1.00  0.00     0.093 A 
ATOM      8  C   UNL     1      21.392  39.787   8.869  1.00  0.00     0.123 A 
ATOM      9  C   UNL     1      21.149  40.574   7.747  1.00  0.00     0.094 A 
ATOM     10  C   UNL     1      21.093  39.997   6.475  1.00  0.00     0.146 A 
ATOM     11  O   UNL     1      20.870  40.785   5.430  1.00  0.00    -0.452 OA
ENDROOT
BRANCH   1  12
ATOM     12  C   UNL     1      20.535  41.324   3.105  1.00  0.00     0.025 A 
ATOM     13  C   UNL     1      21.352  41.352   1.963  1.00  0.00     0.016 A 
ATOM     14  C   UNL     1      21.115  42.281   0.947  1.00  0.00     0.051 A 
ATOM     15  C   UNL     1      20.070  43.204   1.060  1.00  0.00     0.157 A 
ATOM     16  C   UNL     1      19.498  42.266   3.226  1.00  0.00     0.062 A 
ATOM     17  C   UNL     1      19.259  43.199   2.208  1.00  0.00     0.158 A 
BRANCH  15  18
ATOM     18  O   UNL     1      19.856  44.117   0.029  1.00  0.00    -0.504 OA
ATOM     19  H   UNL     1      20.615  44.477  -0.537  1.00  0.00     0.293 HD
ENDBRANCH  15  18
BRANCH  17  20
ATOM     20  O   UNL     1      18.225  44.125   2.334  1.00  0.00    -0.504 OA
ATOM     21  H   UNL     1      17.283  43.839   2.573  1.00  0.00     0.293 HD
ENDBRANCH  17  20
ENDBRANCH   1  12
BRANCH   2  22
ATOM     22  O   UNL     1      21.101  38.529   2.588  1.00  0.00    -0.502 OA
ATOM     23  H   UNL     1      20.390  37.921   2.202  1.00  0.00     0.293 HD
ENDBRANCH   2  22
BRANCH   6  24
ATOM     24  O   UNL     1      21.543  36.399   7.450  1.00  0.00    -0.507 OA
ATOM     25  H   UNL     1      21.716  35.845   6.624  1.00  0.00     0.293 HD
ENDBRANCH   6  24
BRANCH   8  26
ATOM     26  O   UNL     1      21.465  40.386  10.125  1.00  0.00    -0.508 OA
ATOM     27  H   UNL     1      21.722  39.857  10.951  1.00  0.00     0.293 HD
ENDBRANCH   8  26
TORSDOF 6
ENDMDL
MODEL 7
REMARK VINA RESULT:    -5.551      1.748      3.608
REMARK INTER + INTRA:          -7.016
REMARK INTER:                  -6.696
REMARK INTRA:                  -0.320
REMARK UNBOUND:                -0.329
REMARK SMILES O=c1c(O)c(-c2ccc(O)c(O)c2)oc2cc(O)cc(O)c12
REMARK SMILES IDX 5 1 3 2 2 3 1 4 22 5 20 6 19 7 17 8 16 9 15 10 14 11 6 12
REMARK SMILES IDX 7 13 8 14 9 15 13 16 11 17 10 18 12 20 4 22 21 24 18 26
REMARK H PARENT 10 19 12 21 4 23 21 25 18 27
REMARK Flexibility Score: inf
ROOT
ATOM      1  C   UNL     1      18.960  41.539   5.811  1.00  0.00     0.180 A 
ATOM      2  C   UNL     1      19.789  40.429   6.049  1.00  0.00     0.208 A 
ATOM      3  C   UNL     1      20.777  40.101   5.107  1.00  0.00     0.238 A 
ATOM      4  O   UNL     1      21.479  39.075   5.300  1.00  0.00    -0.285 OA
ATOM      5  C   UNL     1      20.935  40.896   3.946  1.00  0.00     0.111 A 
ATOM      6  C   UNL     1      21.928  40.681   2.944  1.00  0.00     0.134 A 
ATOM      7  C   UNL     1      21.908  41.449   1.774  1.00  0.00     0.093 A 
ATOM      8  C   UNL     1      20.970  42.470   1.599  1.00  0.00     0.123 A 
ATOM      9  C   UNL     1      20.034  42.727   2.597  1.00  0.00     0.094 A 
ATOM     10  C   UNL     1      20.005  41.953   3.760  1.00  0.00     0.146 A 
ATOM     11  O   UNL     1      19.089  42.225   4.682  1.00  0.00    -0.452 OA
ENDROOT
BRANCH   1  12
ATOM     12  C   UNL     1      17.915  41.962   6.770  1.00  0.00     0.025 A 
ATOM     13  C   UNL     1      18.260  42.796   7.845  1.00  0.00     0.016 A 
ATOM     14  C   UNL     1      17.294  43.191   8.773  1.00  0.00     0.051 A 
ATOM     15  C   UNL     1      15.973  42.747   8.652  1.00  0.00     0.157 A 
ATOM     16  C   UNL     1      16.591  41.500   6.661  1.00  0.00     0.062 A 
ATOM     17  C   UNL     1      15.620  41.894   7.592  1.00  0.00     0.158 A 
BRANCH  15  18
ATOM     18  O   UNL     1      15.030  43.159   9.592  1.00  0.00    -0.504 OA
ATOM     19  H   UNL     1      14.476  43.998   9.468  1.00  0.00     0.293 HD
ENDBRANCH  15  18
BRANCH  17  20
ATOM     20  O   UNL     1      14.308  41.437   7.474  1.00  0.00    -0.504 OA
ATOM     21  H   UNL     1      13.877  41.291   6.569  1.00  0.00     0.293 HD
ENDBRANCH  17  20
ENDBRANCH   1  12
BRANCH   2  22
ATOM     22  O   UNL     1      19.602  39.645   7.191  1.00  0.00    -0.502 OA
ATOM     23  H   UNL     1      18.689  39.315   7.480  1.00  0.00     0.293 HD
ENDBRANCH   2  22
BRANCH   6  24
ATOM     24  O   UNL     1      22.965  39.750   3.061  1.00  0.00    -0.507 OA
ATOM     25  H   UNL     1      23.086  39.119   3.840  1.00  0.00     0.293 HD
ENDBRANCH   6  24
BRANCH   8  26
ATOM     26  O   UNL     1      20.966  43.240   0.439  1.00  0.00    -0.508 OA
ATOM     27  H   UNL     1      20.427  42.970  -0.376  1.00  0.00     0.293 HD
ENDBRANCH   8  26
TORSDOF 6
ENDMDL
MODEL 8
REMARK VINA RESULT:    -5.362      2.563      6.529
REMARK INTER + INTRA:          -6.788
REMARK INTER:                  -6.684
REMARK INTRA:                  -0.104
REMARK UNBOUND:                -0.329
REMARK SMILES O=c1c(O)c(-c2ccc(O)c(O)c2)oc2cc(O)cc(O)c12
REMARK SMILES IDX 5 1 3 2 2 3 1 4 22 5 20 6 19 7 17 8 16 9 15 10 14 11 6 12
REMARK SMILES IDX 7 13 8 14 9 15 13 16 11 17 10 18 12 20 4 22 21 24 18 26
REMARK H PARENT 10 19 12 21 4 23 21 25 18 27
REMARK Flexibility Score: inf
ROOT
ATOM      1  C   UNL     1      20.813  39.818   6.318  1.00  0.00     0.180 A 
ATOM      2  C   UNL     1      19.817  40.619   6.903  1.00  0.00     0.208 A 
ATOM      3  C   UNL     1      19.278  41.685   6.165  1.00  0.00     0.238 A 
ATOM      4  O   UNL     1      18.425  42.431   6.714  1.00  0.00    -0.285 OA
ATOM      5  C   UNL     1      19.729  41.927   4.845  1.00  0.00     0.111 A 
ATOM      6  C   UNL     1      19.226  42.954   3.991  1.00  0.00     0.134 A 
ATOM      7  C   UNL     1      19.837  43.185   2.753  1.00  0.00     0.093 A 
ATOM      8  C   UNL     1      20.893  42.383   2.311  1.00  0.00     0.123 A 
ATOM      9  C   UNL     1      21.352  41.341   3.112  1.00  0.00     0.094 A 
ATOM     10  C   UNL     1      20.787  41.109   4.368  1.00  0.00     0.146 A 
ATOM     11  O   UNL     1      21.262  40.111   5.104  1.00  0.00    -0.452 OA
ENDROOT
BRANCH   1  12
ATOM     12  C   UNL     1      21.410  38.662   7.024  1.00  0.00     0.025 A 
ATOM     13  C   UNL     1      21.253  37.372   6.492  1.00  0.00     0.016 A 
ATOM     14  C   UNL     1      21.790  36.265   7.153  1.00  0.00     0.051 A 
ATOM     15  C   UNL     1      22.478  36.426   8.360  1.00  0.00     0.157 A 
ATOM     16  C   UNL     1      22.084  38.819   8.248  1.00  0.00     0.062 A 
ATOM     17  C   UNL     1      22.623  37.709   8.913  1.00  0.00     0.158 A 
BRANCH  15  18
ATOM     18  O   UNL     1      23.005  35.302   8.995  1.00  0.00    -0.504 OA
ATOM     19  H   UNL     1      23.259  34.464   8.485  1.00  0.00     0.293 HD
ENDBRANCH  15  18
BRANCH  17  20
ATOM     20  O   UNL     1      23.295  37.875  10.123  1.00  0.00    -0.504 OA
ATOM     21  H   UNL     1      23.668  38.774  10.405  1.00  0.00     0.293 HD
ENDBRANCH  17  20
ENDBRANCH   1  12
BRANCH   2  22
ATOM     22  O   UNL     1      19.401  40.377   8.216  1.00  0.00    -0.502 OA
ATOM     23  H   UNL     1      18.563  40.790   8.605  1.00  0.00     0.293 HD
ENDBRANCH   2  22
BRANCH   6  24
ATOM     24  O   UNL     1      18.118  43.750   4.297  1.00  0.00    -0.507 OA
ATOM     25  H   UNL     1      17.992  44.703   3.990  1.00  0.00     0.293 HD
ENDBRANCH   6  24
BRANCH   8  26
ATOM     26  O   UNL     1      21.486  42.609   1.071  1.00  0.00    -0.508 OA
ATOM     27  H   UNL     1      21.739  41.844   0.456  1.00  0.00     0.293 HD
ENDBRANCH   8  26
TORSDOF 6
ENDMDL
MODEL 9
REMARK VINA RESULT:    -4.602      2.313      3.175
REMARK INTER + INTRA:          -5.873
REMARK INTER:                  -5.791
REMARK INTRA:                  -0.082
REMARK UNBOUND:                -0.329
REMARK SMILES O=c1c(O)c(-c2ccc(O)c(O)c2)oc2cc(O)cc(O)c12
REMARK SMILES IDX 5 1 3 2 2 3 1 4 22 5 20 6 19 7 17 8 16 9 15 10 14 11 6 12
REMARK SMILES IDX 7 13 8 14 9 15 13 16 11 17 10 18 12 20 4 22 21 24 18 26
REMARK H PARENT 10 19 12 21 4 23 21 25 18 27
REMARK Flexibility Score: inf
ROOT
ATOM      1  C   UNL     1      18.993  42.247   6.720  1.00  0.00     0.180 A 
ATOM      2  C   UNL     1      20.047  43.167   6.854  1.00  0.00     0.208 A 
ATOM      3  C   UNL     1      21.142  43.083   5.978  1.00  0.00     0.238 A 
ATOM      4  O   UNL     1      22.106  43.876   6.139  1.00  0.00    -0.285 OA
ATOM      5  C   UNL     1      21.161  42.091   4.968  1.00  0.00     0.111 A 
ATOM      6  C   UNL     1      22.198  41.939   4.000  1.00  0.00     0.134 A 
ATOM      7  C   UNL     1      22.178  40.842   3.131  1.00  0.00     0.093 A 
ATOM      8  C   UNL     1      21.121  39.928   3.151  1.00  0.00     0.123 A 
ATOM      9  C   UNL     1      20.074  40.101   4.052  1.00  0.00     0.094 A 
ATOM     10  C   UNL     1      20.085  41.165   4.957  1.00  0.00     0.146 A 
ATOM     11  O   UNL     1      19.072  41.287   5.806  1.00  0.00    -0.452 OA
ENDROOT
BRANCH   1  12
ATOM     12  C   UNL     1      17.796  42.288   7.590  1.00  0.00     0.025 A 
ATOM     13  C   UNL     1      17.025  43.460   7.648  1.00  0.00     0.016 A 
ATOM     14  C   UNL     1      15.903  43.528   8.478  1.00  0.00     0.051 A 
ATOM     15  C   UNL     1      15.542  42.435   9.271  1.00  0.00     0.157 A 
ATOM     16  C   UNL     1      17.443  41.197   8.404  1.00  0.00     0.062 A 
ATOM     17  C   UNL     1      16.318  41.264   9.238  1.00  0.00     0.158 A 
BRANCH  15  18
ATOM     18  O   UNL     1      14.416  42.532  10.087  1.00  0.00    -0.504 OA
ATOM     19  H   UNL     1      14.336  42.020  10.958  1.00  0.00     0.293 HD
ENDBRANCH  15  18
BRANCH  17  20
ATOM     20  O   UNL     1      15.972  40.176  10.037  1.00  0.00    -0.504 OA
ATOM     21  H   UNL     1      15.334  39.460   9.711  1.00  0.00     0.293 HD
ENDBRANCH  17  20
ENDBRANCH   1  12
BRANCH   2  22
ATOM     22  O   UNL     1      20.019  44.125   7.873  1.00  0.00    -0.502 OA
ATOM     23  H   UNL     1      19.157  44.536   8.208  1.00  0.00     0.293 HD
ENDBRANCH   2  22
BRANCH   6  24
ATOM     24  O   UNL     1      23.250  42.846   3.835  1.00  0.00    -0.507 OA
ATOM     25  H   UNL     1      24.164  42.608   3.478  1.00  0.00     0.293 HD
ENDBRANCH   6  24
BRANCH   8  26
ATOM     26  O   UNL     1      21.100  38.848   2.272  1.00  0.00    -0.508 OA
ATOM     27  H   UNL     1      20.230  38.487   1.896  1.00  0.00     0.293 HD
ENDBRANCH   8  26
TORSDOF 6
ENDMDL
