MODEL 1
REMARK VINA RESULT:     0.869      0.000      0.000
REMARK INTER + INTRA:           0.757
REMARK INTER:                   1.021
REMARK INTRA:                  -0.264
REMARK UNBOUND:                -0.264
REMARK SMILES O=c1cc(-c2ccc(O)c(O)c2)oc2cc(O)cc(O)c12
REMARK SMILES IDX 4 1 3 2 2 3 1 4 21 5 19 6 18 7 16 8 15 9 14 10 13 11 5 12
REMARK SMILES IDX 6 13 7 14 8 15 12 16 10 17 9 18 11 20 20 22 17 24
REMARK H PARENT 9 19 11 21 20 23 17 25
REMARK Flexibility Score: inf
ROOT
ATOM      1  C   UNL     1      75.500  40.736  24.342  1.00  0.00     0.138 A 
ATOM      2  C   UNL     1      76.247  41.766  23.755  1.00  0.00     0.100 A 
ATOM      3  C   UNL     1      75.972  42.157  22.444  1.00  0.00     0.197 A 
ATOM      4  O   UNL     1      76.617  43.125  21.965  1.00  0.00    -0.289 OA
ATOM      5  C   UNL     1      74.963  41.490  21.708  1.00  0.00     0.107 A 
ATOM      6  C   UNL     1      74.624  41.777  20.352  1.00  0.00     0.134 A 
ATOM      7  C   UNL     1      73.528  41.132  19.764  1.00  0.00     0.093 A 
ATOM      8  C   UNL     1      72.799  40.167  20.464  1.00  0.00     0.123 A 
ATOM      9  C   UNL     1      73.157  39.841  21.770  1.00  0.00     0.094 A 
ATOM     10  C   UNL     1      74.222  40.492  22.396  1.00  0.00     0.146 A 
ATOM     11  O   UNL     1      74.521  40.163  23.648  1.00  0.00    -0.456 OA
ENDROOT
BRANCH   1  12
ATOM     12  C   UNL     1      75.751  40.278  25.732  1.00  0.00     0.021 A 
ATOM     13  C   UNL     1      76.259  38.994  26.009  1.00  0.00     0.016 A 
ATOM     14  C   UNL     1      76.477  38.587  27.327  1.00  0.00     0.051 A 
ATOM     15  C   UNL     1      76.187  39.448  28.392  1.00  0.00     0.157 A 
ATOM     16  C   UNL     1      75.450  41.133  26.809  1.00  0.00     0.062 A 
ATOM     17  C   UNL     1      75.668  40.727  28.129  1.00  0.00     0.158 A 
BRANCH  15  18
ATOM     18  O   UNL     1      76.407  39.038  29.705  1.00  0.00    -0.504 OA
ATOM     19  H   UNL     1      76.462  39.705  30.467  1.00  0.00     0.293 HD
ENDBRANCH  15  18
BRANCH  17  20
ATOM     20  O   UNL     1      75.365  41.608  29.167  1.00  0.00    -0.504 OA
ATOM     21  H   UNL     1      76.076  41.971  29.790  1.00  0.00     0.293 HD
ENDBRANCH  17  20
ENDBRANCH   1  12
BRANCH   6  22
ATOM     22  O   UNL     1      75.338  42.661  19.537  1.00  0.00    -0.507 OA
ATOM     23  H   UNL     1      74.929  43.259  18.837  1.00  0.00     0.293 HD
ENDBRANCH   6  22
BRANCH   8  24
ATOM     24  O   UNL     1      71.721  39.519  19.865  1.00  0.00    -0.508 OA
ATOM     25  H   UNL     1      70.798  39.528  20.283  1.00  0.00     0.293 HD
ENDBRANCH   8  24
TORSDOF 5
ENDMDL
MODEL 2
REMARK VINA RESULT:     1.471      2.820      4.759
REMARK INTER + INTRA:           1.465
REMARK INTER:                   1.736
REMARK INTRA:                  -0.271
REMARK UNBOUND:                -0.264
REMARK SMILES O=c1cc(-c2ccc(O)c(O)c2)oc2cc(O)cc(O)c12
REMARK SMILES IDX 4 1 3 2 2 3 1 4 21 5 19 6 18 7 16 8 15 9 14 10 13 11 5 12
REMARK SMILES IDX 6 13 7 14 8 15 12 16 10 17 9 18 11 20 20 22 17 24
REMARK H PARENT 9 19 11 21 20 23 17 25
REMARK Flexibility Score: inf
ROOT
ATOM      1  C   UNL     1      73.881  40.805  21.446  1.00  0.00     0.138 A 
ATOM      2  C   UNL     1      72.671  41.484  21.250  1.00  0.00     0.100 A 
ATOM      3  C   UNL     1      71.628  40.854  20.568  1.00  0.00     0.197 A 
ATOM      4  O   UNL     1      70.534  41.464  20.461  1.00  0.00    -0.289 OA
ATOM      5  C   UNL     1      71.813  39.548  20.054  1.00  0.00     0.107 A 
ATOM      6  C   UNL     1      70.834  38.823  19.308  1.00  0.00     0.134 A 
ATOM      7  C   UNL     1      71.087  37.493  18.951  1.00  0.00     0.093 A 
ATOM      8  C   UNL     1      72.305  36.881  19.260  1.00  0.00     0.123 A 
ATOM      9  C   UNL     1      73.286  37.598  19.940  1.00  0.00     0.094 A 
ATOM     10  C   UNL     1      73.052  38.916  20.341  1.00  0.00     0.146 A 
ATOM     11  O   UNL     1      74.008  39.559  21.001  1.00  0.00    -0.456 OA
ENDROOT
BRANCH   1  12
ATOM     12  C   UNL     1      75.022  41.429  22.162  1.00  0.00     0.021 A 
ATOM     13  C   UNL     1      75.786  42.460  21.582  1.00  0.00     0.016 A 
ATOM     14  C   UNL     1      76.860  43.022  22.275  1.00  0.00     0.051 A 
ATOM     15  C   UNL     1      77.198  42.561  23.553  1.00  0.00     0.157 A 
ATOM     16  C   UNL     1      75.377  40.962  23.441  1.00  0.00     0.062 A 
ATOM     17  C   UNL     1      76.453  41.524  24.137  1.00  0.00     0.158 A 
BRANCH  15  18
ATOM     18  O   UNL     1      78.271  43.125  24.241  1.00  0.00    -0.504 OA
ATOM     19  H   UNL     1      78.474  42.876  25.203  1.00  0.00     0.293 HD
ENDBRANCH  15  18
BRANCH  17  20
ATOM     20  O   UNL     1      76.765  41.039  25.406  1.00  0.00    -0.504 OA
ATOM     21  H   UNL     1      77.073  40.086  25.558  1.00  0.00     0.293 HD
ENDBRANCH  17  20
ENDBRANCH   1  12
BRANCH   6  22
ATOM     22  O   UNL     1      69.621  39.367  18.876  1.00  0.00    -0.507 OA
ATOM     23  H   UNL     1      69.352  39.482  17.911  1.00  0.00     0.293 HD
ENDBRANCH   6  22
BRANCH   8  24
ATOM     24  O   UNL     1      72.552  35.562  18.886  1.00  0.00    -0.508 OA
ATOM     25  H   UNL     1      73.453  35.126  19.047  1.00  0.00     0.293 HD
ENDBRANCH   8  24
TORSDOF 5
ENDMDL
MODEL 3
REMARK VINA RESULT:     2.444      0.887      1.602
REMARK INTER + INTRA:           2.609
REMARK INTER:                   2.872
REMARK INTRA:                  -0.262
REMARK UNBOUND:                -0.264
REMARK SMILES O=c1cc(-c2ccc(O)c(O)c2)oc2cc(O)cc(O)c12
REMARK SMILES IDX 4 1 3 2 2 3 1 4 21 5 19 6 18 7 16 8 15 9 14 10 13 11 5 12
REMARK SMILES IDX 6 13 7 14 8 15 12 16 10 17 9 18 11 20 20 22 17 24
REMARK H PARENT 9 19 11 21 20 23 17 25
REMARK Flexibility Score: inf
ROOT
ATOM      1  C   UNL     1      75.509  40.608  24.334  1.00  0.00     0.138 A 
ATOM      2  C   UNL     1      76.261  41.650  23.775  1.00  0.00     0.100 A 
ATOM      3  C   UNL     1      75.922  42.149  22.516  1.00  0.00     0.197 A 
ATOM      4  O   UNL     1      76.576  43.125  22.068  1.00  0.00    -0.289 OA
ATOM      5  C   UNL     1      74.842  41.577  21.802  1.00  0.00     0.107 A 
ATOM      6  C   UNL     1      74.431  41.977  20.494  1.00  0.00     0.134 A 
ATOM      7  C   UNL     1      73.275  41.419  19.934  1.00  0.00     0.093 A 
ATOM      8  C   UNL     1      72.550  40.432  20.608  1.00  0.00     0.123 A 
ATOM      9  C   UNL     1      72.975  39.997  21.862  1.00  0.00     0.094 A 
ATOM     10  C   UNL     1      74.104  40.559  22.463  1.00  0.00     0.146 A 
ATOM     11  O   UNL     1      74.466  40.127  23.665  1.00  0.00    -0.456 OA
ENDROOT
BRANCH   1  12
ATOM     12  C   UNL     1      75.827  40.039  25.668  1.00  0.00     0.021 A 
ATOM     13  C   UNL     1      75.186  40.491  26.837  1.00  0.00     0.016 A 
ATOM     14  C   UNL     1      75.512  39.944  28.080  1.00  0.00     0.051 A 
ATOM     15  C   UNL     1      76.487  38.944  28.181  1.00  0.00     0.157 A 
ATOM     16  C   UNL     1      76.815  39.043  25.779  1.00  0.00     0.062 A 
ATOM     17  C   UNL     1      77.142  38.494  27.023  1.00  0.00     0.158 A 
BRANCH  15  18
ATOM     18  O   UNL     1      76.808  38.401  29.423  1.00  0.00    -0.504 OA
ATOM     19  H   UNL     1      77.587  38.750  29.970  1.00  0.00     0.293 HD
ENDBRANCH  15  18
BRANCH  17  20
ATOM     20  O   UNL     1      78.120  37.502  27.089  1.00  0.00    -0.504 OA
ATOM     21  H   UNL     1      78.177  36.756  26.406  1.00  0.00     0.293 HD
ENDBRANCH  17  20
ENDBRANCH   1  12
BRANCH   6  22
ATOM     22  O   UNL     1      75.130  42.891  19.701  1.00  0.00    -0.507 OA
ATOM     23  H   UNL     1      75.045  42.970  18.699  1.00  0.00     0.293 HD
ENDBRANCH   6  22
BRANCH   8  24
ATOM     24  O   UNL     1      71.411  39.871  20.036  1.00  0.00    -0.508 OA
ATOM     25  H   UNL     1      70.811  40.405  19.417  1.00  0.00     0.293 HD
ENDBRANCH   8  24
TORSDOF 5
ENDMDL
MODEL 4
REMARK VINA RESULT:     2.791      1.486      2.745
REMARK INTER + INTRA:           3.016
REMARK INTER:                   3.279
REMARK INTRA:                  -0.263
REMARK UNBOUND:                -0.264
REMARK SMILES O=c1cc(-c2ccc(O)c(O)c2)oc2cc(O)cc(O)c12
REMARK SMILES IDX 4 1 3 2 2 3 1 4 21 5 19 6 18 7 16 8 15 9 14 10 13 11 5 12
REMARK SMILES IDX 6 13 7 14 8 15 12 16 10 17 9 18 11 20 20 22 17 24
REMARK H PARENT 9 19 11 21 20 23 17 25
REMARK Flexibility Score: inf
ROOT
ATOM      1  C   UNL     1      75.307  40.918  23.796  1.00  0.00     0.138 A 
ATOM      2  C   UNL     1      73.964  40.968  23.399  1.00  0.00     0.100 A 
ATOM      3  C   UNL     1      73.633  41.484  22.145  1.00  0.00     0.197 A 
ATOM      4  O   UNL     1      72.426  41.460  21.792  1.00  0.00    -0.289 OA
ATOM      5  C   UNL     1      74.652  41.982  21.299  1.00  0.00     0.107 A 
ATOM      6  C   UNL     1      74.429  42.567  20.016  1.00  0.00     0.134 A 
ATOM      7  C   UNL     1      75.525  42.917  19.218  1.00  0.00     0.093 A 
ATOM      8  C   UNL     1      76.834  42.759  19.680  1.00  0.00     0.123 A 
ATOM      9  C   UNL     1      77.061  42.238  20.952  1.00  0.00     0.094 A 
ATOM     10  C   UNL     1      75.990  41.847  21.759  1.00  0.00     0.146 A 
ATOM     11  O   UNL     1      76.249  41.341  22.959  1.00  0.00    -0.456 OA
ENDROOT
BRANCH   1  12
ATOM     12  C   UNL     1      75.715  40.381  25.118  1.00  0.00     0.021 A 
ATOM     13  C   UNL     1      76.288  39.102  25.253  1.00  0.00     0.016 A 
ATOM     14  C   UNL     1      76.654  38.618  26.511  1.00  0.00     0.051 A 
ATOM     15  C   UNL     1      76.448  39.396  27.657  1.00  0.00     0.157 A 
ATOM     16  C   UNL     1      75.499  41.151  26.276  1.00  0.00     0.062 A 
ATOM     17  C   UNL     1      75.865  40.668  27.537  1.00  0.00     0.158 A 
BRANCH  15  18
ATOM     18  O   UNL     1      76.815  38.910  28.910  1.00  0.00    -0.504 OA
ATOM     19  H   UNL     1      76.121  38.651  29.603  1.00  0.00     0.293 HD
ENDBRANCH  15  18
BRANCH  17  20
ATOM     20  O   UNL     1      75.642  41.467  28.658  1.00  0.00    -0.504 OA
ATOM     21  H   UNL     1      76.107  42.358  28.785  1.00  0.00     0.293 HD
ENDBRANCH  17  20
ENDBRANCH   1  12
BRANCH   6  22
ATOM     22  O   UNL     1      73.162  42.847  19.495  1.00  0.00    -0.507 OA
ATOM     23  H   UNL     1      72.664  43.714  19.624  1.00  0.00     0.293 HD
ENDBRANCH   6  22
BRANCH   8  24
ATOM     24  O   UNL     1      77.918  43.125  18.884  1.00  0.00    -0.508 OA
ATOM     25  H   UNL     1      78.790  42.609  18.906  1.00  0.00     0.293 HD
ENDBRANCH   8  24
TORSDOF 5
ENDMDL
MODEL 5
REMARK VINA RESULT:     2.985      2.551      4.527
REMARK INTER + INTRA:           3.245
REMARK INTER:                   3.526
REMARK INTRA:                  -0.280
REMARK UNBOUND:                -0.264
REMARK SMILES O=c1cc(-c2ccc(O)c(O)c2)oc2cc(O)cc(O)c12
REMARK SMILES IDX 4 1 3 2 2 3 1 4 21 5 19 6 18 7 16 8 15 9 14 10 13 11 5 12
REMARK SMILES IDX 6 13 7 14 8 15 12 16 10 17 9 18 11 20 20 22 17 24
REMARK H PARENT 9 19 11 21 20 23 17 25
REMARK Flexibility Score: inf
ROOT
ATOM      1  C   UNL     1      73.699  40.457  21.814  1.00  0.00     0.138 A 
ATOM      2  C   UNL     1      73.525  39.134  21.385  1.00  0.00     0.100 A 
ATOM      3  C   UNL     1      72.466  38.819  20.532  1.00  0.00     0.197 A 
ATOM      4  O   UNL     1      72.371  37.636  20.115  1.00  0.00    -0.289 OA
ATOM      5  C   UNL     1      71.559  39.830  20.133  1.00  0.00     0.107 A 
ATOM      6  C   UNL     1      70.420  39.617  19.299  1.00  0.00     0.134 A 
ATOM      7  C   UNL     1      69.661  40.715  18.875  1.00  0.00     0.093 A 
ATOM      8  C   UNL     1      69.964  42.010  19.304  1.00  0.00     0.123 A 
ATOM      9  C   UNL     1      71.041  42.221  20.161  1.00  0.00     0.094 A 
ATOM     10  C   UNL     1      71.839  41.152  20.574  1.00  0.00     0.146 A 
ATOM     11  O   UNL     1      72.866  41.398  21.380  1.00  0.00    -0.456 OA
ENDROOT
BRANCH   1  12
ATOM     12  C   UNL     1      74.807  40.848  22.722  1.00  0.00     0.021 A 
ATOM     13  C   UNL     1      75.516  42.052  22.549  1.00  0.00     0.016 A 
ATOM     14  C   UNL     1      76.559  42.389  23.414  1.00  0.00     0.051 A 
ATOM     15  C   UNL     1      76.920  41.531  24.459  1.00  0.00     0.157 A 
ATOM     16  C   UNL     1      75.184  39.984  23.767  1.00  0.00     0.062 A 
ATOM     17  C   UNL     1      76.229  40.321  24.634  1.00  0.00     0.158 A 
BRANCH  15  18
ATOM     18  O   UNL     1      77.962  41.872  25.320  1.00  0.00    -0.504 OA
ATOM     19  H   UNL     1      78.701  42.503  25.034  1.00  0.00     0.293 HD
ENDBRANCH  15  18
BRANCH  17  20
ATOM     20  O   UNL     1      76.564  39.441  25.662  1.00  0.00    -0.504 OA
ATOM     21  H   UNL     1      76.354  39.642  26.633  1.00  0.00     0.293 HD
ENDBRANCH  17  20
ENDBRANCH   1  12
BRANCH   6  22
ATOM     22  O   UNL     1      69.982  38.356  18.883  1.00  0.00    -0.507 OA
ATOM     23  H   UNL     1      69.526  37.680  19.476  1.00  0.00     0.293 HD
ENDBRANCH   6  22
BRANCH   8  24
ATOM     24  O   UNL     1      69.193  43.094  18.889  1.00  0.00    -0.508 OA
ATOM     25  H   UNL     1      68.940  43.224  17.917  1.00  0.00     0.293 HD
ENDBRANCH   8  24
TORSDOF 5
ENDMDL
