MODEL 1
REMARK VINA RESULT:    -4.340      0.000      0.000
REMARK INTER + INTRA:         -14.313
REMARK INTER:                  -9.922
REMARK INTRA:                  -4.390
REMARK UNBOUND:                -4.390
REMARK SMILES CCCCCCCCCCCCCCCCCCCCCCCC(=O)[O-]
REMARK SMILES IDX 13 1 14 2 15 3 16 4 17 5 18 6 19 7 20 8 21 9 22 10 23 11
REMARK SMILES IDX 24 12 25 13 26 14 12 15 11 16 10 17 9 18 8 19 7 20 6 21 5 22
REMARK SMILES IDX 4 23 3 24 2 25 1 26
REMARK H PARENT
REMARK Flexibility Score: inf
ROOT
ATOM      1  C   UNL     1      52.290  28.614  35.668  1.00  0.00     0.000 C 
ENDROOT
BRANCH   1   2
ATOM      2  C   UNL     1      53.018  29.960  35.813  1.00  0.00     0.000 C 
BRANCH   2   3
ATOM      3  C   UNL     1      53.212  30.391  37.278  1.00  0.00     0.000 C 
BRANCH   3   4
ATOM      4  C   UNL     1      54.524  31.141  37.579  1.00  0.00     0.000 C 
BRANCH   4   5
ATOM      5  C   UNL     1      55.104  30.815  38.963  1.00  0.00     0.000 C 
BRANCH   5   6
ATOM      6  C   UNL     1      54.505  29.515  39.520  1.00  0.00     0.000 C 
BRANCH   6   7
ATOM      7  C   UNL     1      55.489  28.332  39.468  1.00  0.00     0.000 C 
BRANCH   7   8
ATOM      8  C   UNL     1      55.287  27.370  38.283  1.00  0.00     0.000 C 
BRANCH   8   9
ATOM      9  C   UNL     1      56.500  27.238  37.343  1.00  0.00     0.000 C 
BRANCH   9  10
ATOM     10  C   UNL     1      56.811  28.525  36.549  1.00  0.00     0.006 C 
BRANCH  10  11
ATOM     11  C   UNL     1      58.278  28.953  36.682  1.00  0.00     0.053 C 
BRANCH  11  12
ATOM     12  C   UNL     1      58.388  30.200  37.502  1.00  0.00     0.041 C 
ATOM     13  O   UNL     1      58.267  31.329  36.958  1.00  0.00    -0.550 OA
ATOM     14  O   UNL     1      58.586  30.114  38.874  1.00  0.00    -0.550 OA
ENDBRANCH  11  12
ENDBRANCH  10  11
ENDBRANCH   9  10
ENDBRANCH   8   9
ENDBRANCH   7   8
ENDBRANCH   6   7
ENDBRANCH   5   6
ENDBRANCH   4   5
ENDBRANCH   3   4
ENDBRANCH   2   3
ENDBRANCH   1   2
BRANCH   1  15
ATOM     15  C   UNL     1      53.223  27.478  35.217  1.00  0.00     0.000 C 
BRANCH  15  16
ATOM     16  C   UNL     1      54.185  27.873  34.077  1.00  0.00     0.000 C 
BRANCH  16  17
ATOM     17  C   UNL     1      55.104  26.710  33.663  1.00  0.00     0.000 C 
BRANCH  17  18
ATOM     18  C   UNL     1      55.005  25.511  34.621  1.00  0.00    -0.000 C 
BRANCH  18  19
ATOM     19  C   UNL     1      54.456  24.254  33.929  1.00  0.00    -0.000 C 
BRANCH  19  20
ATOM     20  C   UNL     1      52.991  24.009  34.320  1.00  0.00    -0.000 C 
BRANCH  20  21
ATOM     21  C   UNL     1      52.833  23.628  35.801  1.00  0.00    -0.000 C 
BRANCH  21  22
ATOM     22  C   UNL     1      51.723  24.431  36.502  1.00  0.00    -0.000 C 
BRANCH  22  23
ATOM     23  C   UNL     1      50.466  24.603  35.628  1.00  0.00    -0.000 C 
BRANCH  23  24
ATOM     24  C   UNL     1      49.754  25.960  35.777  1.00  0.00    -0.000 C 
BRANCH  24  25
ATOM     25  C   UNL     1      49.240  26.516  34.441  1.00  0.00    -0.003 C 
ATOM     26  C   UNL     1      50.250  26.282  33.322  1.00  0.00     0.004 C 
ENDBRANCH  24  25
ENDBRANCH  23  24
ENDBRANCH  22  23
ENDBRANCH  21  22
ENDBRANCH  20  21
ENDBRANCH  19  20
ENDBRANCH  18  19
ENDBRANCH  17  18
ENDBRANCH  16  17
ENDBRANCH  15  16
ENDBRANCH   1  15
TORSDOF 22
ENDMDL
MODEL 2
REMARK VINA RESULT:    -4.201      3.272      7.869
REMARK INTER + INTRA:         -13.994
REMARK INTER:                 -10.428
REMARK INTRA:                  -3.566
REMARK UNBOUND:                -4.390
REMARK SMILES CCCCCCCCCCCCCCCCCCCCCCCC(=O)[O-]
REMARK SMILES IDX 13 1 14 2 15 3 16 4 17 5 18 6 19 7 20 8 21 9 22 10 23 11
REMARK SMILES IDX 24 12 25 13 26 14 12 15 11 16 10 17 9 18 8 19 7 20 6 21 5 22
REMARK SMILES IDX 4 23 3 24 2 25 1 26
REMARK H PARENT
REMARK Flexibility Score: inf
ROOT
ATOM      1  C   UNL     1      53.842  30.090  38.440  1.00  0.00     0.000 C 
ENDROOT
BRANCH   1   2
ATOM      2  C   UNL     1      53.772  30.325  36.922  1.00  0.00     0.000 C 
BRANCH   2   3
ATOM      3  C   UNL     1      52.703  29.465  36.223  1.00  0.00     0.000 C 
BRANCH   3   4
ATOM      4  C   UNL     1      52.935  29.216  34.720  1.00  0.00     0.000 C 
BRANCH   4   5
ATOM      5  C   UNL     1      53.927  28.077  34.441  1.00  0.00     0.000 C 
BRANCH   5   6
ATOM      6  C   UNL     1      53.901  27.035  35.569  1.00  0.00     0.000 C 
BRANCH   6   7
ATOM      7  C   UNL     1      53.116  25.764  35.192  1.00  0.00     0.000 C 
BRANCH   7   8
ATOM      8  C   UNL     1      53.004  25.495  33.679  1.00  0.00     0.000 C 
BRANCH   8   9
ATOM      9  C   UNL     1      51.569  25.267  33.167  1.00  0.00     0.000 C 
BRANCH   9  10
ATOM     10  C   UNL     1      50.602  26.423  33.503  1.00  0.00     0.006 C 
BRANCH  10  11
ATOM     11  C   UNL     1      49.294  25.926  34.132  1.00  0.00     0.053 C 
BRANCH  11  12
ATOM     12  C   UNL     1      49.470  25.705  35.602  1.00  0.00     0.041 C 
ATOM     13  O   UNL     1      49.668  24.545  36.050  1.00  0.00    -0.550 OA
ATOM     14  O   UNL     1      49.455  26.787  36.474  1.00  0.00    -0.550 OA
ENDBRANCH  11  12
ENDBRANCH  10  11
ENDBRANCH   9  10
ENDBRANCH   8   9
ENDBRANCH   7   8
ENDBRANCH   6   7
ENDBRANCH   5   6
ENDBRANCH   4   5
ENDBRANCH   3   4
ENDBRANCH   2   3
ENDBRANCH   1   2
BRANCH   1  15
ATOM     15  C   UNL     1      54.854  29.000  38.827  1.00  0.00     0.000 C 
BRANCH  15  16
ATOM     16  C   UNL     1      55.704  29.346  40.068  1.00  0.00     0.000 C 
BRANCH  16  17
ATOM     17  C   UNL     1      55.720  30.858  40.357  1.00  0.00     0.000 C 
BRANCH  17  18
ATOM     18  C   UNL     1      57.111  31.482  40.155  1.00  0.00    -0.000 C 
BRANCH  18  19
ATOM     19  C   UNL     1      57.071  32.721  39.249  1.00  0.00    -0.000 C 
BRANCH  19  20
ATOM     20  C   UNL     1      56.672  32.339  37.815  1.00  0.00    -0.000 C 
BRANCH  20  21
ATOM     21  C   UNL     1      57.823  31.674  37.042  1.00  0.00    -0.000 C 
BRANCH  21  22
ATOM     22  C   UNL     1      57.501  30.224  36.638  1.00  0.00    -0.000 C 
BRANCH  22  23
ATOM     23  C   UNL     1      58.692  29.268  36.843  1.00  0.00    -0.000 C 
BRANCH  23  24
ATOM     24  C   UNL     1      58.825  28.697  38.267  1.00  0.00    -0.000 C 
BRANCH  24  25
ATOM     25  C   UNL     1      58.431  27.215  38.357  1.00  0.00    -0.003 C 
ATOM     26  C   UNL     1      58.479  26.719  39.799  1.00  0.00     0.004 C 
ENDBRANCH  24  25
ENDBRANCH  23  24
ENDBRANCH  22  23
ENDBRANCH  21  22
ENDBRANCH  20  21
ENDBRANCH  19  20
ENDBRANCH  18  19
ENDBRANCH  17  18
ENDBRANCH  16  17
ENDBRANCH  15  16
ENDBRANCH   1  15
TORSDOF 22
ENDMDL
MODEL 3
REMARK VINA RESULT:    -4.189      3.143      7.503
REMARK INTER + INTRA:         -13.966
REMARK INTER:                 -10.170
REMARK INTRA:                  -3.796
REMARK UNBOUND:                -4.390
REMARK SMILES CCCCCCCCCCCCCCCCCCCCCCCC(=O)[O-]
REMARK SMILES IDX 13 1 14 2 15 3 16 4 17 5 18 6 19 7 20 8 21 9 22 10 23 11
REMARK SMILES IDX 24 12 25 13 26 14 12 15 11 16 10 17 9 18 8 19 7 20 6 21 5 22
REMARK SMILES IDX 4 23 3 24 2 25 1 26
REMARK H PARENT
REMARK Flexibility Score: inf
ROOT
ATOM      1  C   UNL     1      53.520  30.463  38.122  1.00  0.00     0.000 C 
ENDROOT
BRANCH   1   2
ATOM      2  C   UNL     1      53.580  30.141  36.620  1.00  0.00     0.000 C 
BRANCH   2   3
ATOM      3  C   UNL     1      52.421  29.246  36.144  1.00  0.00     0.000 C 
BRANCH   3   4
ATOM      4  C   UNL     1      52.566  28.679  34.718  1.00  0.00     0.000 C 
BRANCH   4   5
ATOM      5  C   UNL     1      54.018  28.349  34.344  1.00  0.00     0.000 C 
BRANCH   5   6
ATOM      6  C   UNL     1      54.169  26.865  33.977  1.00  0.00     0.000 C 
BRANCH   6   7
ATOM      7  C   UNL     1      52.922  26.032  34.326  1.00  0.00     0.000 C 
BRANCH   7   8
ATOM      8  C   UNL     1      52.575  24.924  33.313  1.00  0.00     0.000 C 
BRANCH   8   9
ATOM      9  C   UNL     1      51.120  24.940  32.810  1.00  0.00     0.000 C 
BRANCH   9  10
ATOM     10  C   UNL     1      50.364  26.245  33.140  1.00  0.00     0.006 C 
BRANCH  10  11
ATOM     11  C   UNL     1      49.090  25.992  33.956  1.00  0.00     0.053 C 
BRANCH  11  12
ATOM     12  C   UNL     1      49.426  25.774  35.398  1.00  0.00     0.041 C 
ATOM     13  O   UNL     1      49.455  24.609  35.873  1.00  0.00    -0.550 OA
ATOM     14  O   UNL     1      49.744  26.856  36.209  1.00  0.00    -0.550 OA
ENDBRANCH  11  12
ENDBRANCH  10  11
ENDBRANCH   9  10
ENDBRANCH   8   9
ENDBRANCH   7   8
ENDBRANCH   6   7
ENDBRANCH   5   6
ENDBRANCH   4   5
ENDBRANCH   3   4
ENDBRANCH   2   3
ENDBRANCH   1   2
BRANCH   1  15
ATOM     15  C   UNL     1      54.822  30.109  38.859  1.00  0.00     0.000 C 
BRANCH  15  16
ATOM     16  C   UNL     1      54.713  28.861  39.760  1.00  0.00     0.000 C 
BRANCH  16  17
ATOM     17  C   UNL     1      55.585  27.699  39.252  1.00  0.00     0.000 C 
BRANCH  17  18
ATOM     18  C   UNL     1      55.014  27.045  37.983  1.00  0.00    -0.000 C 
BRANCH  18  19
ATOM     19  C   UNL     1      56.111  26.459  37.082  1.00  0.00    -0.000 C 
BRANCH  19  20
ATOM     20  C   UNL     1      56.989  27.573  36.492  1.00  0.00    -0.000 C 
BRANCH  20  21
ATOM     21  C   UNL     1      58.440  27.508  36.997  1.00  0.00    -0.000 C 
BRANCH  21  22
ATOM     22  C   UNL     1      59.120  28.889  37.014  1.00  0.00    -0.000 C 
BRANCH  22  23
ATOM     23  C   UNL     1      58.199  30.004  37.545  1.00  0.00    -0.000 C 
BRANCH  23  24
ATOM     24  C   UNL     1      58.479  30.438  38.995  1.00  0.00    -0.000 C 
BRANCH  24  25
ATOM     25  C   UNL     1      59.420  29.476  39.736  1.00  0.00    -0.003 C 
ATOM     26  C   UNL     1      58.687  28.743  40.856  1.00  0.00     0.004 C 
ENDBRANCH  24  25
ENDBRANCH  23  24
ENDBRANCH  22  23
ENDBRANCH  21  22
ENDBRANCH  20  21
ENDBRANCH  19  20
ENDBRANCH  18  19
ENDBRANCH  17  18
ENDBRANCH  16  17
ENDBRANCH  15  16
ENDBRANCH   1  15
TORSDOF 22
ENDMDL
MODEL 4
REMARK VINA RESULT:    -4.181      1.985      4.226
REMARK INTER + INTRA:         -13.948
REMARK INTER:                 -10.525
REMARK INTRA:                  -3.422
REMARK UNBOUND:                -4.390
REMARK SMILES CCCCCCCCCCCCCCCCCCCCCCCC(=O)[O-]
REMARK SMILES IDX 13 1 14 2 15 3 16 4 17 5 18 6 19 7 20 8 21 9 22 10 23 11
REMARK SMILES IDX 24 12 25 13 26 14 12 15 11 16 10 17 9 18 8 19 7 20 6 21 5 22
REMARK SMILES IDX 4 23 3 24 2 25 1 26
REMARK H PARENT
REMARK Flexibility Score: inf
ROOT
ATOM      1  C   UNL     1      55.053  27.220  37.608  1.00  0.00     0.000 C 
ENDROOT
BRANCH   1   2
ATOM      2  C   UNL     1      56.524  26.774  37.608  1.00  0.00     0.000 C 
BRANCH   2   3
ATOM      3  C   UNL     1      57.261  27.114  36.299  1.00  0.00     0.000 C 
BRANCH   3   4
ATOM      4  C   UNL     1      58.319  28.229  36.407  1.00  0.00     0.000 C 
BRANCH   4   5
ATOM      5  C   UNL     1      58.799  28.471  37.846  1.00  0.00     0.000 C 
BRANCH   5   6
ATOM      6  C   UNL     1      58.388  29.867  38.336  1.00  0.00     0.000 C 
BRANCH   6   7
ATOM      7  C   UNL     1      58.317  30.904  37.200  1.00  0.00     0.000 C 
BRANCH   7   8
ATOM      8  C   UNL     1      57.257  32.005  37.390  1.00  0.00     0.000 C 
BRANCH   8   9
ATOM      9  C   UNL     1      56.530  31.976  38.747  1.00  0.00     0.000 C 
BRANCH   9  10
ATOM     10  C   UNL     1      56.781  33.230  39.611  1.00  0.00     0.006 C 
BRANCH  10  11
ATOM     11  C   UNL     1      57.396  32.887  40.974  1.00  0.00     0.053 C 
BRANCH  11  12
ATOM     12  C   UNL     1      56.615  31.799  41.642  1.00  0.00     0.041 C 
ATOM     13  O   UNL     1      57.144  30.676  41.852  1.00  0.00    -0.550 OA
ATOM     14  O   UNL     1      55.315  32.039  42.070  1.00  0.00    -0.550 OA
ENDBRANCH  11  12
ENDBRANCH  10  11
ENDBRANCH   9  10
ENDBRANCH   8   9
ENDBRANCH   7   8
ENDBRANCH   6   7
ENDBRANCH   5   6
ENDBRANCH   4   5
ENDBRANCH   3   4
ENDBRANCH   2   3
ENDBRANCH   1   2
BRANCH   1  15
ATOM     15  C   UNL     1      54.886  28.720  37.902  1.00  0.00     0.000 C 
BRANCH  15  16
ATOM     16  C   UNL     1      54.588  29.574  36.651  1.00  0.00     0.000 C 
BRANCH  16  17
ATOM     17  C   UNL     1      53.081  29.650  36.346  1.00  0.00     0.000 C 
BRANCH  17  18
ATOM     18  C   UNL     1      52.713  28.967  35.019  1.00  0.00    -0.000 C 
BRANCH  18  19
ATOM     19  C   UNL     1      53.949  28.479  34.249  1.00  0.00    -0.000 C 
BRANCH  19  20
ATOM     20  C   UNL     1      53.943  26.949  34.117  1.00  0.00    -0.000 C 
BRANCH  20  21
ATOM     21  C   UNL     1      52.581  26.332  34.477  1.00  0.00    -0.000 C 
BRANCH  21  22
ATOM     22  C   UNL     1      51.987  25.504  33.323  1.00  0.00    -0.000 C 
BRANCH  22  23
ATOM     23  C   UNL     1      50.531  25.889  32.999  1.00  0.00    -0.000 C 
BRANCH  23  24
ATOM     24  C   UNL     1      49.842  26.764  34.061  1.00  0.00    -0.000 C 
BRANCH  24  25
ATOM     25  C   UNL     1      48.774  26.004  34.863  1.00  0.00    -0.003 C 
ATOM     26  C   UNL     1      48.436  24.671  34.203  1.00  0.00     0.004 C 
ENDBRANCH  24  25
ENDBRANCH  23  24
ENDBRANCH  22  23
ENDBRANCH  21  22
ENDBRANCH  20  21
ENDBRANCH  19  20
ENDBRANCH  18  19
ENDBRANCH  17  18
ENDBRANCH  16  17
ENDBRANCH  15  16
ENDBRANCH   1  15
TORSDOF 22
ENDMDL
MODEL 5
REMARK VINA RESULT:    -4.176      3.937      7.856
REMARK INTER + INTRA:         -13.937
REMARK INTER:                  -9.751
REMARK INTRA:                  -4.186
REMARK UNBOUND:                -4.390
REMARK SMILES CCCCCCCCCCCCCCCCCCCCCCCC(=O)[O-]
REMARK SMILES IDX 13 1 14 2 15 3 16 4 17 5 18 6 19 7 20 8 21 9 22 10 23 11
REMARK SMILES IDX 24 12 25 13 26 14 12 15 11 16 10 17 9 18 8 19 7 20 6 21 5 22
REMARK SMILES IDX 4 23 3 24 2 25 1 26
REMARK H PARENT
REMARK Flexibility Score: inf
ROOT
ATOM      1  C   UNL     1      56.165  25.744  34.634  1.00  0.00     0.000 C 
ENDROOT
BRANCH   1   2
ATOM      2  C   UNL     1      56.216  26.276  36.075  1.00  0.00     0.000 C 
BRANCH   2   3
ATOM      3  C   UNL     1      55.196  25.600  37.010  1.00  0.00     0.000 C 
BRANCH   3   4
ATOM      4  C   UNL     1      53.743  25.579  36.497  1.00  0.00     0.000 C 
BRANCH   4   5
ATOM      5  C   UNL     1      53.206  24.160  36.258  1.00  0.00     0.000 C 
BRANCH   5   6
ATOM      6  C   UNL     1      52.138  24.154  35.154  1.00  0.00     0.000 C 
BRANCH   6   7
ATOM      7  C   UNL     1      52.525  25.020  33.942  1.00  0.00     0.000 C 
BRANCH   7   8
ATOM      8  C   UNL     1      51.443  26.015  33.481  1.00  0.00     0.000 C 
BRANCH   8   9
ATOM      9  C   UNL     1      50.524  26.536  34.602  1.00  0.00     0.000 C 
BRANCH   9  10
ATOM     10  C   UNL     1      49.020  26.347  34.307  1.00  0.00     0.006 C 
BRANCH  10  11
ATOM     11  C   UNL     1      48.769  25.359  33.161  1.00  0.00     0.053 C 
BRANCH  11  12
ATOM     12  C   UNL     1      48.131  24.108  33.678  1.00  0.00     0.041 C 
ATOM     13  O   UNL     1      47.062  23.683  33.167  1.00  0.00    -0.550 OA
ATOM     14  O   UNL     1      48.739  23.390  34.700  1.00  0.00    -0.550 OA
ENDBRANCH  11  12
ENDBRANCH  10  11
ENDBRANCH   9  10
ENDBRANCH   8   9
ENDBRANCH   7   8
ENDBRANCH   6   7
ENDBRANCH   5   6
ENDBRANCH   4   5
ENDBRANCH   3   4
ENDBRANCH   2   3
ENDBRANCH   1   2
BRANCH   1  15
ATOM     15  C   UNL     1      55.818  26.836  33.608  1.00  0.00     0.000 C 
BRANCH  15  16
ATOM     16  C   UNL     1      55.391  28.177  34.241  1.00  0.00     0.000 C 
BRANCH  16  17
ATOM     17  C   UNL     1      53.926  28.528  33.924  1.00  0.00     0.000 C 
BRANCH  17  18
ATOM     18  C   UNL     1      53.162  29.039  35.157  1.00  0.00    -0.000 C 
BRANCH  18  19
ATOM     19  C   UNL     1      54.077  29.229  36.375  1.00  0.00    -0.000 C 
BRANCH  19  20
ATOM     20  C   UNL     1      53.519  30.305  37.318  1.00  0.00    -0.000 C 
BRANCH  20  21
ATOM     21  C   UNL     1      54.165  30.257  38.713  1.00  0.00    -0.000 C 
BRANCH  21  22
ATOM     22  C   UNL     1      55.383  29.317  38.767  1.00  0.00    -0.000 C 
BRANCH  22  23
ATOM     23  C   UNL     1      56.710  30.069  38.978  1.00  0.00    -0.000 C 
BRANCH  23  24
ATOM     24  C   UNL     1      57.258  30.779  37.727  1.00  0.00    -0.000 C 
BRANCH  24  25
ATOM     25  C   UNL     1      57.733  29.800  36.643  1.00  0.00    -0.003 C 
ATOM     26  C   UNL     1      58.738  28.800  37.207  1.00  0.00     0.004 C 
ENDBRANCH  24  25
ENDBRANCH  23  24
ENDBRANCH  22  23
ENDBRANCH  21  22
ENDBRANCH  20  21
ENDBRANCH  19  20
ENDBRANCH  18  19
ENDBRANCH  17  18
ENDBRANCH  16  17
ENDBRANCH  15  16
ENDBRANCH   1  15
TORSDOF 22
ENDMDL
MODEL 6
REMARK VINA RESULT:    -4.164      3.894      8.161
REMARK INTER + INTRA:         -13.911
REMARK INTER:                 -10.083
REMARK INTRA:                  -3.827
REMARK UNBOUND:                -4.390
REMARK SMILES CCCCCCCCCCCCCCCCCCCCCCCC(=O)[O-]
REMARK SMILES IDX 13 1 14 2 15 3 16 4 17 5 18 6 19 7 20 8 21 9 22 10 23 11
REMARK SMILES IDX 24 12 25 13 26 14 12 15 11 16 10 17 9 18 8 19 7 20 6 21 5 22
REMARK SMILES IDX 4 23 3 24 2 25 1 26
REMARK H PARENT
REMARK Flexibility Score: inf
ROOT
ATOM      1  C   UNL     1      55.713  28.098  33.822  1.00  0.00     0.000 C 
ENDROOT
BRANCH   1   2
ATOM      2  C   UNL     1      56.221  26.668  33.581  1.00  0.00     0.000 C 
BRANCH   2   3
ATOM      3  C   UNL     1      55.117  25.601  33.705  1.00  0.00     0.000 C 
BRANCH   3   4
ATOM      4  C   UNL     1      55.299  24.593  34.857  1.00  0.00     0.000 C 
BRANCH   4   5
ATOM      5  C   UNL     1      53.970  24.038  35.390  1.00  0.00     0.000 C 
BRANCH   5   6
ATOM      6  C   UNL     1      52.780  24.846  34.853  1.00  0.00     0.000 C 
BRANCH   6   7
ATOM      7  C   UNL     1      51.938  25.488  35.971  1.00  0.00     0.000 C 
BRANCH   7   8
ATOM      8  C   UNL     1      50.846  26.461  35.487  1.00  0.00     0.000 C 
BRANCH   8   9
ATOM      9  C   UNL     1      50.788  26.661  33.961  1.00  0.00     0.000 C 
BRANCH   9  10
ATOM     10  C   UNL     1      49.445  26.233  33.331  1.00  0.00     0.006 C 
BRANCH  10  11
ATOM     11  C   UNL     1      48.606  25.365  34.277  1.00  0.00     0.053 C 
BRANCH  11  12
ATOM     12  C   UNL     1      48.370  24.014  33.679  1.00  0.00     0.041 C 
ATOM     13  O   UNL     1      47.226  23.696  33.263  1.00  0.00    -0.550 OA
ATOM     14  O   UNL     1      49.425  23.120  33.546  1.00  0.00    -0.550 OA
ENDBRANCH  11  12
ENDBRANCH  10  11
ENDBRANCH   9  10
ENDBRANCH   8   9
ENDBRANCH   7   8
ENDBRANCH   6   7
ENDBRANCH   5   6
ENDBRANCH   4   5
ENDBRANCH   3   4
ENDBRANCH   2   3
ENDBRANCH   1   2
BRANCH   1  15
ATOM     15  C   UNL     1      54.179  28.184  33.875  1.00  0.00     0.000 C 
BRANCH  15  16
ATOM     16  C   UNL     1      53.632  28.819  35.171  1.00  0.00     0.000 C 
BRANCH  16  17
ATOM     17  C   UNL     1      54.424  28.377  36.414  1.00  0.00     0.000 C 
BRANCH  17  18
ATOM     18  C   UNL     1      54.277  29.360  37.587  1.00  0.00    -0.000 C 
BRANCH  18  19
ATOM     19  C   UNL     1      53.667  30.701  37.153  1.00  0.00    -0.000 C 
BRANCH  19  20
ATOM     20  C   UNL     1      54.639  31.859  37.424  1.00  0.00    -0.000 C 
BRANCH  20  21
ATOM     21  C   UNL     1      55.947  31.387  38.079  1.00  0.00    -0.000 C 
BRANCH  21  22
ATOM     22  C   UNL     1      57.173  32.176  37.584  1.00  0.00    -0.000 C 
BRANCH  22  23
ATOM     23  C   UNL     1      58.293  31.266  37.045  1.00  0.00    -0.000 C 
BRANCH  23  24
ATOM     24  C   UNL     1      57.815  29.912  36.491  1.00  0.00    -0.000 C 
BRANCH  24  25
ATOM     25  C   UNL     1      58.763  28.755  36.841  1.00  0.00    -0.003 C 
ATOM     26  C   UNL     1      58.031  27.417  36.816  1.00  0.00     0.004 C 
ENDBRANCH  24  25
ENDBRANCH  23  24
ENDBRANCH  22  23
ENDBRANCH  21  22
ENDBRANCH  20  21
ENDBRANCH  19  20
ENDBRANCH  18  19
ENDBRANCH  17  18
ENDBRANCH  16  17
ENDBRANCH  15  16
ENDBRANCH   1  15
TORSDOF 22
ENDMDL
MODEL 7
REMARK VINA RESULT:    -4.130      3.313      7.411
REMARK INTER + INTRA:         -13.832
REMARK INTER:                  -9.936
REMARK INTRA:                  -3.896
REMARK UNBOUND:                -4.390
REMARK SMILES CCCCCCCCCCCCCCCCCCCCCCCC(=O)[O-]
REMARK SMILES IDX 13 1 14 2 15 3 16 4 17 5 18 6 19 7 20 8 21 9 22 10 23 11
REMARK SMILES IDX 24 12 25 13 26 14 12 15 11 16 10 17 9 18 8 19 7 20 6 21 5 22
REMARK SMILES IDX 4 23 3 24 2 25 1 26
REMARK H PARENT
REMARK Flexibility Score: inf
ROOT
ATOM      1  C   UNL     1      53.869  28.444  33.976  1.00  0.00     0.000 C 
ENDROOT
BRANCH   1   2
ATOM      2  C   UNL     1      55.356  28.111  34.183  1.00  0.00     0.000 C 
BRANCH   2   3
ATOM      3  C   UNL     1      55.675  27.616  35.606  1.00  0.00     0.000 C 
BRANCH   3   4
ATOM      4  C   UNL     1      55.794  26.087  35.762  1.00  0.00     0.000 C 
BRANCH   4   5
ATOM      5  C   UNL     1      54.727  25.490  36.692  1.00  0.00     0.000 C 
BRANCH   5   6
ATOM      6  C   UNL     1      53.800  24.535  35.925  1.00  0.00     0.000 C 
BRANCH   6   7
ATOM      7  C   UNL     1      54.176  24.399  34.438  1.00  0.00     0.000 C 
BRANCH   7   8
ATOM      8  C   UNL     1      53.042  24.724  33.448  1.00  0.00     0.000 C 
BRANCH   8   9
ATOM      9  C   UNL     1      51.792  25.362  34.082  1.00  0.00     0.000 C 
BRANCH   9  10
ATOM     10  C   UNL     1      50.858  26.043  33.059  1.00  0.00     0.006 C 
BRANCH  10  11
ATOM     11  C   UNL     1      49.767  26.884  33.733  1.00  0.00     0.053 C 
BRANCH  11  12
ATOM     12  C   UNL     1      49.101  26.103  34.822  1.00  0.00     0.041 C 
ATOM     13  O   UNL     1      48.378  25.112  34.541  1.00  0.00    -0.550 OA
ATOM     14  O   UNL     1      49.311  26.448  36.152  1.00  0.00    -0.550 OA
ENDBRANCH  11  12
ENDBRANCH  10  11
ENDBRANCH   9  10
ENDBRANCH   8   9
ENDBRANCH   7   8
ENDBRANCH   6   7
ENDBRANCH   5   6
ENDBRANCH   4   5
ENDBRANCH   3   4
ENDBRANCH   2   3
ENDBRANCH   1   2
BRANCH   1  15
ATOM     15  C   UNL     1      53.091  28.538  35.299  1.00  0.00     0.000 C 
BRANCH  15  16
ATOM     16  C   UNL     1      52.785  29.983  35.745  1.00  0.00     0.000 C 
BRANCH  16  17
ATOM     17  C   UNL     1      53.155  30.227  37.218  1.00  0.00     0.000 C 
BRANCH  17  18
ATOM     18  C   UNL     1      54.424  31.082  37.373  1.00  0.00    -0.000 C 
BRANCH  18  19
ATOM     19  C   UNL     1      55.564  30.317  38.063  1.00  0.00    -0.000 C 
BRANCH  19  20
ATOM     20  C   UNL     1      55.245  30.080  39.547  1.00  0.00    -0.000 C 
BRANCH  20  21
ATOM     21  C   UNL     1      55.959  28.840  40.111  1.00  0.00    -0.000 C 
BRANCH  21  22
ATOM     22  C   UNL     1      56.615  27.987  39.010  1.00  0.00    -0.000 C 
BRANCH  22  23
ATOM     23  C   UNL     1      58.119  27.751  39.252  1.00  0.00    -0.000 C 
BRANCH  23  24
ATOM     24  C   UNL     1      59.049  28.788  38.596  1.00  0.00    -0.000 C 
BRANCH  24  25
ATOM     25  C   UNL     1      58.787  28.960  37.093  1.00  0.00    -0.003 C 
ATOM     26  C   UNL     1      59.174  27.704  36.318  1.00  0.00     0.004 C 
ENDBRANCH  24  25
ENDBRANCH  23  24
ENDBRANCH  22  23
ENDBRANCH  21  22
ENDBRANCH  20  21
ENDBRANCH  19  20
ENDBRANCH  18  19
ENDBRANCH  17  18
ENDBRANCH  16  17
ENDBRANCH  15  16
ENDBRANCH   1  15
TORSDOF 22
ENDMDL
MODEL 8
REMARK VINA RESULT:    -4.121      3.606      8.201
REMARK INTER + INTRA:         -13.812
REMARK INTER:                 -10.084
REMARK INTRA:                  -3.728
REMARK UNBOUND:                -4.390
REMARK SMILES CCCCCCCCCCCCCCCCCCCCCCCC(=O)[O-]
REMARK SMILES IDX 13 1 14 2 15 3 16 4 17 5 18 6 19 7 20 8 21 9 22 10 23 11
REMARK SMILES IDX 24 12 25 13 26 14 12 15 11 16 10 17 9 18 8 19 7 20 6 21 5 22
REMARK SMILES IDX 4 23 3 24 2 25 1 26
REMARK H PARENT
REMARK Flexibility Score: inf
ROOT
ATOM      1  C   UNL     1      55.031  28.217  38.068  1.00  0.00     0.000 C 
ENDROOT
BRANCH   1   2
ATOM      2  C   UNL     1      55.084  26.835  37.397  1.00  0.00     0.000 C 
BRANCH   2   3
ATOM      3  C   UNL     1      55.517  26.893  35.920  1.00  0.00     0.000 C 
BRANCH   3   4
ATOM      4  C   UNL     1      55.428  28.282  35.259  1.00  0.00     0.000 C 
BRANCH   4   5
ATOM      5  C   UNL     1      54.277  28.400  34.249  1.00  0.00     0.000 C 
BRANCH   5   6
ATOM      6  C   UNL     1      53.130  29.249  34.817  1.00  0.00     0.000 C 
BRANCH   6   7
ATOM      7  C   UNL     1      52.007  28.398  35.439  1.00  0.00     0.000 C 
BRANCH   7   8
ATOM      8  C   UNL     1      51.664  27.110  34.667  1.00  0.00     0.000 C 
BRANCH   8   9
ATOM      9  C   UNL     1      50.159  26.795  34.571  1.00  0.00     0.000 C 
BRANCH   9  10
ATOM     10  C   UNL     1      49.608  26.027  35.791  1.00  0.00     0.006 C 
BRANCH  10  11
ATOM     11  C   UNL     1      50.486  24.829  36.173  1.00  0.00     0.053 C 
BRANCH  11  12
ATOM     12  C   UNL     1      50.208  23.667  35.273  1.00  0.00     0.041 C 
ATOM     13  O   UNL     1      49.022  23.347  34.998  1.00  0.00    -0.550 OA
ATOM     14  O   UNL     1      51.261  22.959  34.706  1.00  0.00    -0.550 OA
ENDBRANCH  11  12
ENDBRANCH  10  11
ENDBRANCH   9  10
ENDBRANCH   8   9
ENDBRANCH   7   8
ENDBRANCH   6   7
ENDBRANCH   5   6
ENDBRANCH   4   5
ENDBRANCH   3   4
ENDBRANCH   2   3
ENDBRANCH   1   2
BRANCH   1  15
ATOM     15  C   UNL     1      55.012  28.133  39.603  1.00  0.00     0.000 C 
BRANCH  15  16
ATOM     16  C   UNL     1      55.129  29.501  40.307  1.00  0.00     0.000 C 
BRANCH  16  17
ATOM     17  C   UNL     1      55.319  30.655  39.306  1.00  0.00     0.000 C 
BRANCH  17  18
ATOM     18  C   UNL     1      56.277  31.738  39.830  1.00  0.00    -0.000 C 
BRANCH  18  19
ATOM     19  C   UNL     1      56.908  32.559  38.695  1.00  0.00    -0.000 C 
BRANCH  19  20
ATOM     20  C   UNL     1      56.884  31.777  37.373  1.00  0.00    -0.000 C 
BRANCH  20  21
ATOM     21  C   UNL     1      58.249  31.157  37.031  1.00  0.00    -0.000 C 
BRANCH  21  22
ATOM     22  C   UNL     1      58.165  29.637  36.801  1.00  0.00    -0.000 C 
BRANCH  22  23
ATOM     23  C   UNL     1      59.119  28.841  37.711  1.00  0.00    -0.000 C 
BRANCH  23  24
ATOM     24  C   UNL     1      58.602  28.605  39.142  1.00  0.00    -0.000 C 
BRANCH  24  25
ATOM     25  C   UNL     1      59.272  29.518  40.179  1.00  0.00    -0.003 C 
ATOM     26  C   UNL     1      58.652  29.331  41.560  1.00  0.00     0.004 C 
ENDBRANCH  24  25
ENDBRANCH  23  24
ENDBRANCH  22  23
ENDBRANCH  21  22
ENDBRANCH  20  21
ENDBRANCH  19  20
ENDBRANCH  18  19
ENDBRANCH  17  18
ENDBRANCH  16  17
ENDBRANCH  15  16
ENDBRANCH   1  15
TORSDOF 22
ENDMDL
MODEL 9
REMARK VINA RESULT:    -4.102      3.220      7.366
REMARK INTER + INTRA:         -13.768
REMARK INTER:                  -9.764
REMARK INTRA:                  -4.003
REMARK UNBOUND:                -4.390
REMARK SMILES CCCCCCCCCCCCCCCCCCCCCCCC(=O)[O-]
REMARK SMILES IDX 13 1 14 2 15 3 16 4 17 5 18 6 19 7 20 8 21 9 22 10 23 11
REMARK SMILES IDX 24 12 25 13 26 14 12 15 11 16 10 17 9 18 8 19 7 20 6 21 5 22
REMARK SMILES IDX 4 23 3 24 2 25 1 26
REMARK H PARENT
REMARK Flexibility Score: inf
ROOT
ATOM      1  C   UNL     1      55.556  27.001  37.930  1.00  0.00     0.000 C 
ENDROOT
BRANCH   1   2
ATOM      2  C   UNL     1      54.780  26.030  37.026  1.00  0.00     0.000 C 
BRANCH   2   3
ATOM      3  C   UNL     1      55.620  25.486  35.856  1.00  0.00     0.000 C 
BRANCH   3   4
ATOM      4  C   UNL     1      55.296  26.087  34.474  1.00  0.00     0.000 C 
BRANCH   4   5
ATOM      5  C   UNL     1      55.518  27.605  34.407  1.00  0.00     0.000 C 
BRANCH   5   6
ATOM      6  C   UNL     1      54.241  28.329  33.953  1.00  0.00     0.000 C 
BRANCH   6   7
ATOM      7  C   UNL     1      53.419  28.887  35.130  1.00  0.00     0.000 C 
BRANCH   7   8
ATOM      8  C   UNL     1      52.047  28.220  35.338  1.00  0.00     0.000 C 
BRANCH   8   9
ATOM      9  C   UNL     1      51.697  27.125  34.314  1.00  0.00     0.000 C 
BRANCH   9  10
ATOM     10  C   UNL     1      50.260  26.578  34.457  1.00  0.00     0.006 C 
BRANCH  10  11
ATOM     11  C   UNL     1      49.942  26.143  35.893  1.00  0.00     0.053 C 
BRANCH  11  12
ATOM     12  C   UNL     1      50.300  24.704  36.097  1.00  0.00     0.041 C 
ATOM     13  O   UNL     1      51.355  24.394  36.710  1.00  0.00    -0.550 OA
ATOM     14  O   UNL     1      49.449  23.705  35.643  1.00  0.00    -0.550 OA
ENDBRANCH  11  12
ENDBRANCH  10  11
ENDBRANCH   9  10
ENDBRANCH   8   9
ENDBRANCH   7   8
ENDBRANCH   6   7
ENDBRANCH   5   6
ENDBRANCH   4   5
ENDBRANCH   3   4
ENDBRANCH   2   3
ENDBRANCH   1   2
BRANCH   1  15
ATOM     15  C   UNL     1      56.466  26.278  38.936  1.00  0.00     0.000 C 
BRANCH  15  16
ATOM     16  C   UNL     1      57.952  26.685  38.842  1.00  0.00     0.000 C 
BRANCH  16  17
ATOM     17  C   UNL     1      58.209  28.085  39.427  1.00  0.00     0.000 C 
BRANCH  17  18
ATOM     18  C   UNL     1      59.104  28.948  38.522  1.00  0.00    -0.000 C 
BRANCH  18  19
ATOM     19  C   UNL     1      58.772  28.772  37.032  1.00  0.00    -0.000 C 
BRANCH  19  20
ATOM     20  C   UNL     1      57.655  29.735  36.602  1.00  0.00    -0.000 C 
BRANCH  20  21
ATOM     21  C   UNL     1      57.827  31.140  37.201  1.00  0.00    -0.000 C 
BRANCH  21  22
ATOM     22  C   UNL     1      56.528  31.676  37.831  1.00  0.00    -0.000 C 
BRANCH  22  23
ATOM     23  C   UNL     1      55.325  30.740  37.607  1.00  0.00    -0.000 C 
BRANCH  23  24
ATOM     24  C   UNL     1      54.513  30.418  38.874  1.00  0.00    -0.000 C 
BRANCH  24  25
ATOM     25  C   UNL     1      55.397  30.047  40.074  1.00  0.00    -0.003 C 
ATOM     26  C   UNL     1      54.682  29.072  41.005  1.00  0.00     0.004 C 
ENDBRANCH  24  25
ENDBRANCH  23  24
ENDBRANCH  22  23
ENDBRANCH  21  22
ENDBRANCH  20  21
ENDBRANCH  19  20
ENDBRANCH  18  19
ENDBRANCH  17  18
ENDBRANCH  16  17
ENDBRANCH  15  16
ENDBRANCH   1  15
TORSDOF 22
ENDMDL
