MODEL 1
REMARK VINA RESULT:    -5.153      0.000      0.000
REMARK INTER + INTRA:          -5.650
REMARK INTER:                  -5.605
REMARK INTRA:                  -0.045
REMARK UNBOUND:                -0.045
REMARK SMILES COc1cc2ccc(=O)oc2cc1O
REMARK SMILES IDX 3 1 13 2 12 3 11 4 5 5 4 6 6 7 7 8 8 9 9 10 10 11 2 12 1 13
REMARK SMILES IDX 14 14
REMARK H PARENT 14 15
REMARK Flexibility Score: inf
ROOT
ATOM      1  C   UNL     1      -1.998 -16.224  -8.251  1.00  0.00     0.161 A 
ATOM      2  C   UNL     1      -1.677 -14.958  -7.736  1.00  0.00     0.161 A 
ATOM      3  C   UNL     1      -0.478 -14.760  -7.037  1.00  0.00     0.098 A 
ATOM      4  C   UNL     1       0.409 -15.823  -6.847  1.00  0.00     0.142 A 
ATOM      5  C   UNL     1       0.095 -17.099  -7.361  1.00  0.00     0.022 A 
ATOM      6  C   UNL     1      -1.104 -17.297  -8.060  1.00  0.00     0.062 A 
ATOM      7  C   UNL     1       1.003 -18.142  -7.154  1.00  0.00     0.019 A 
ATOM      8  C   UNL     1       2.183 -17.895  -6.452  1.00  0.00     0.094 A 
ATOM      9  C   UNL     1       2.427 -16.604  -5.971  1.00  0.00     0.336 A 
ATOM     10  O   UNL     1       3.485 -16.361  -5.335  1.00  0.00    -0.246 OA
ATOM     11  O   UNL     1       1.546 -15.630  -6.182  1.00  0.00    -0.423 OA
ENDROOT
BRANCH   1  12
ATOM     12  O   UNL     1      -3.209 -16.376  -8.944  1.00  0.00    -0.493 OA
ATOM     13  C   UNL     1      -3.589 -17.547  -9.658  1.00  0.00     0.278 C 
ENDBRANCH   1  12
BRANCH   2  14
ATOM     14  O   UNL     1      -2.561 -13.896  -7.924  1.00  0.00    -0.504 OA
ATOM     15  H   UNL     1      -2.256 -13.017  -8.327  1.00  0.00     0.293 HD
ENDBRANCH   2  14
TORSDOF 2
ENDMDL
MODEL 2
REMARK VINA RESULT:    -4.852      2.106      3.531
REMARK INTER + INTRA:          -5.323
REMARK INTER:                  -5.274
REMARK INTRA:                  -0.049
REMARK UNBOUND:                -0.045
REMARK SMILES COc1cc2ccc(=O)oc2cc1O
REMARK SMILES IDX 3 1 13 2 12 3 11 4 5 5 4 6 6 7 7 8 8 9 9 10 10 11 2 12 1 13
REMARK SMILES IDX 14 14
REMARK H PARENT 14 15
REMARK Flexibility Score: inf
ROOT
ATOM      1  C   UNL     1      -0.616 -14.527  -6.630  1.00  0.00     0.161 A 
ATOM      2  C   UNL     1      -1.607 -14.927  -7.540  1.00  0.00     0.161 A 
ATOM      3  C   UNL     1      -1.548 -16.193  -8.141  1.00  0.00     0.098 A 
ATOM      4  C   UNL     1      -0.501 -17.067  -7.838  1.00  0.00     0.142 A 
ATOM      5  C   UNL     1       0.499 -16.673  -6.926  1.00  0.00     0.022 A 
ATOM      6  C   UNL     1       0.440 -15.408  -6.324  1.00  0.00     0.062 A 
ATOM      7  C   UNL     1       1.535 -17.570  -6.644  1.00  0.00     0.019 A 
ATOM      8  C   UNL     1       1.548 -18.818  -7.267  1.00  0.00     0.094 A 
ATOM      9  C   UNL     1       0.523 -19.139  -8.162  1.00  0.00     0.336 A 
ATOM     10  O   UNL     1       0.517 -20.260  -8.735  1.00  0.00    -0.246 OA
ATOM     11  O   UNL     1      -0.450 -18.267  -8.413  1.00  0.00    -0.423 OA
ENDROOT
BRANCH   1  12
ATOM     12  O   UNL     1      -0.715 -13.251  -6.053  1.00  0.00    -0.493 OA
ATOM     13  C   UNL     1      -0.319 -12.934  -4.723  1.00  0.00     0.278 C 
ENDBRANCH   1  12
BRANCH   2  14
ATOM     14  O   UNL     1      -2.653 -14.056  -7.843  1.00  0.00    -0.504 OA
ATOM     15  H   UNL     1      -2.481 -13.135  -8.229  1.00  0.00     0.293 HD
ENDBRANCH   2  14
TORSDOF 2
ENDMDL
MODEL 3
REMARK VINA RESULT:    -4.829      2.494      3.626
REMARK INTER + INTRA:          -5.297
REMARK INTER:                  -5.243
REMARK INTRA:                  -0.054
REMARK UNBOUND:                -0.045
REMARK SMILES COc1cc2ccc(=O)oc2cc1O
REMARK SMILES IDX 3 1 13 2 12 3 11 4 5 5 4 6 6 7 7 8 8 9 9 10 10 11 2 12 1 13
REMARK SMILES IDX 14 14
REMARK H PARENT 14 15
REMARK Flexibility Score: inf
ROOT
ATOM      1  C   UNL     1      -1.341 -16.571  -8.141  1.00  0.00     0.161 A 
ATOM      2  C   UNL     1      -0.163 -15.872  -8.448  1.00  0.00     0.161 A 
ATOM      3  C   UNL     1       0.231 -14.772  -7.672  1.00  0.00     0.098 A 
ATOM      4  C   UNL     1      -0.547 -14.363  -6.586  1.00  0.00     0.142 A 
ATOM      5  C   UNL     1      -1.733 -15.059  -6.271  1.00  0.00     0.022 A 
ATOM      6  C   UNL     1      -2.126 -16.159  -7.046  1.00  0.00     0.062 A 
ATOM      7  C   UNL     1      -2.490 -14.624  -5.178  1.00  0.00     0.019 A 
ATOM      8  C   UNL     1      -2.055 -13.525  -4.437  1.00  0.00     0.094 A 
ATOM      9  C   UNL     1      -0.869 -12.884  -4.809  1.00  0.00     0.336 A 
ATOM     10  O   UNL     1      -0.460 -11.890  -4.154  1.00  0.00    -0.246 OA
ATOM     11  O   UNL     1      -0.168 -13.318  -5.853  1.00  0.00    -0.423 OA
ENDROOT
BRANCH   1  12
ATOM     12  O   UNL     1      -1.696 -17.665  -8.945  1.00  0.00    -0.493 OA
ATOM     13  C   UNL     1      -2.991 -17.874  -9.497  1.00  0.00     0.278 C 
ENDBRANCH   1  12
BRANCH   2  14
ATOM     14  O   UNL     1       0.615 -16.279  -9.531  1.00  0.00    -0.504 OA
ATOM     15  H   UNL     1       0.532 -17.211  -9.923  1.00  0.00     0.293 HD
ENDBRANCH   2  14
TORSDOF 2
ENDMDL
MODEL 4
REMARK VINA RESULT:    -4.715      1.108      4.873
REMARK INTER + INTRA:          -5.174
REMARK INTER:                  -5.125
REMARK INTRA:                  -0.049
REMARK UNBOUND:                -0.045
REMARK SMILES COc1cc2ccc(=O)oc2cc1O
REMARK SMILES IDX 3 1 13 2 12 3 11 4 5 5 4 6 6 7 7 8 8 9 9 10 10 11 2 12 1 13
REMARK SMILES IDX 14 14
REMARK H PARENT 14 15
REMARK Flexibility Score: inf
ROOT
ATOM      1  C   UNL     1       0.353 -15.711  -6.765  1.00  0.00     0.161 A 
ATOM      2  C   UNL     1      -0.607 -14.698  -6.622  1.00  0.00     0.161 A 
ATOM      3  C   UNL     1      -1.838 -14.788  -7.289  1.00  0.00     0.098 A 
ATOM      4  C   UNL     1      -2.117 -15.889  -8.103  1.00  0.00     0.142 A 
ATOM      5  C   UNL     1      -1.157 -16.911  -8.253  1.00  0.00     0.022 A 
ATOM      6  C   UNL     1       0.072 -16.822  -7.586  1.00  0.00     0.062 A 
ATOM      7  C   UNL     1      -1.467 -18.001  -9.075  1.00  0.00     0.019 A 
ATOM      8  C   UNL     1      -2.705 -18.044  -9.717  1.00  0.00     0.094 A 
ATOM      9  C   UNL     1      -3.607 -16.993  -9.521  1.00  0.00     0.336 A 
ATOM     10  O   UNL     1      -4.728 -17.013 -10.092  1.00  0.00    -0.246 OA
ATOM     11  O   UNL     1      -3.286 -15.969  -8.735  1.00  0.00    -0.423 OA
ENDROOT
BRANCH   1  12
ATOM     12  O   UNL     1       1.571 -15.579  -6.079  1.00  0.00    -0.493 OA
ATOM     13  C   UNL     1       2.309 -16.665  -5.528  1.00  0.00     0.278 C 
ENDBRANCH   1  12
BRANCH   2  14
ATOM     14  O   UNL     1      -0.330 -13.599  -5.810  1.00  0.00    -0.504 OA
ATOM     15  H   UNL     1      -0.502 -13.620  -4.812  1.00  0.00     0.293 HD
ENDBRANCH   2  14
TORSDOF 2
ENDMDL
MODEL 5
REMARK VINA RESULT:    -4.657      2.070      4.220
REMARK INTER + INTRA:          -5.111
REMARK INTER:                  -5.048
REMARK INTRA:                  -0.063
REMARK UNBOUND:                -0.045
REMARK SMILES COc1cc2ccc(=O)oc2cc1O
REMARK SMILES IDX 3 1 13 2 12 3 11 4 5 5 4 6 6 7 7 8 8 9 9 10 10 11 2 12 1 13
REMARK SMILES IDX 14 14
REMARK H PARENT 14 15
REMARK Flexibility Score: inf
ROOT
ATOM      1  C   UNL     1      -0.598 -15.434  -7.372  1.00  0.00     0.161 A 
ATOM      2  C   UNL     1      -1.888 -15.409  -7.925  1.00  0.00     0.161 A 
ATOM      3  C   UNL     1      -2.430 -16.561  -8.513  1.00  0.00     0.098 A 
ATOM      4  C   UNL     1      -1.688 -17.744  -8.554  1.00  0.00     0.142 A 
ATOM      5  C   UNL     1      -0.391 -17.778  -8.003  1.00  0.00     0.022 A 
ATOM      6  C   UNL     1       0.151 -16.627  -7.414  1.00  0.00     0.062 A 
ATOM      7  C   UNL     1       0.326 -18.978  -8.060  1.00  0.00     0.019 A 
ATOM      8  C   UNL     1      -0.256 -20.096  -8.656  1.00  0.00     0.094 A 
ATOM      9  C   UNL     1      -1.548 -19.988  -9.183  1.00  0.00     0.336 A 
ATOM     10  O   UNL     1      -2.091 -20.985  -9.725  1.00  0.00    -0.246 OA
ATOM     11  O   UNL     1      -2.207 -18.834  -9.115  1.00  0.00    -0.423 OA
ENDROOT
BRANCH   1  12
ATOM     12  O   UNL     1      -0.096 -14.257  -6.793  1.00  0.00    -0.493 OA
ATOM     13  C   UNL     1      -0.104 -13.977  -5.398  1.00  0.00     0.278 C 
ENDBRANCH   1  12
BRANCH   2  14
ATOM     14  O   UNL     1      -2.630 -14.228  -7.884  1.00  0.00    -0.504 OA
ATOM     15  H   UNL     1      -2.195 -13.335  -7.681  1.00  0.00     0.293 HD
ENDBRANCH   2  14
TORSDOF 2
ENDMDL
MODEL 6
REMARK VINA RESULT:    -4.527      1.688      5.394
REMARK INTER + INTRA:          -4.969
REMARK INTER:                  -4.920
REMARK INTRA:                  -0.049
REMARK UNBOUND:                -0.045
REMARK SMILES COc1cc2ccc(=O)oc2cc1O
REMARK SMILES IDX 3 1 13 2 12 3 11 4 5 5 4 6 6 7 7 8 8 9 9 10 10 11 2 12 1 13
REMARK SMILES IDX 14 14
REMARK H PARENT 14 15
REMARK Flexibility Score: inf
ROOT
ATOM      1  C   UNL     1       2.410 -17.469  -5.855  1.00  0.00     0.161 A 
ATOM      2  C   UNL     1       1.873 -18.216  -6.916  1.00  0.00     0.161 A 
ATOM      3  C   UNL     1       0.742 -17.756  -7.606  1.00  0.00     0.098 A 
ATOM      4  C   UNL     1       0.140 -16.549  -7.243  1.00  0.00     0.142 A 
ATOM      5  C   UNL     1       0.672 -15.793  -6.178  1.00  0.00     0.022 A 
ATOM      6  C   UNL     1       1.802 -16.252  -5.488  1.00  0.00     0.062 A 
ATOM      7  C   UNL     1       0.045 -14.589  -5.839  1.00  0.00     0.019 A 
ATOM      8  C   UNL     1      -1.077 -14.175  -6.556  1.00  0.00     0.094 A 
ATOM      9  C   UNL     1      -1.549 -14.978  -7.599  1.00  0.00     0.336 A 
ATOM     10  O   UNL     1      -2.560 -14.622  -8.258  1.00  0.00    -0.246 OA
ATOM     11  O   UNL     1      -0.934 -16.118  -7.901  1.00  0.00    -0.423 OA
ENDROOT
BRANCH   1  12
ATOM     12  O   UNL     1       3.543 -17.968  -5.193  1.00  0.00    -0.493 OA
ATOM     13  C   UNL     1       3.790 -17.826  -3.798  1.00  0.00     0.278 C 
ENDBRANCH   1  12
BRANCH   2  14
ATOM     14  O   UNL     1       2.474 -19.421  -7.280  1.00  0.00    -0.504 OA
ATOM     15  H   UNL     1       3.475 -19.559  -7.202  1.00  0.00     0.293 HD
ENDBRANCH   2  14
TORSDOF 2
ENDMDL
MODEL 7
REMARK VINA RESULT:    -4.479      2.294      5.029
REMARK INTER + INTRA:          -4.917
REMARK INTER:                  -4.856
REMARK INTRA:                  -0.061
REMARK UNBOUND:                -0.045
REMARK SMILES COc1cc2ccc(=O)oc2cc1O
REMARK SMILES IDX 3 1 13 2 12 3 11 4 5 5 4 6 6 7 7 8 8 9 9 10 10 11 2 12 1 13
REMARK SMILES IDX 14 14
REMARK H PARENT 14 15
REMARK Flexibility Score: inf
ROOT
ATOM      1  C   UNL     1       1.407 -19.221  -7.639  1.00  0.00     0.161 A 
ATOM      2  C   UNL     1       0.275 -19.598  -8.378  1.00  0.00     0.161 A 
ATOM      3  C   UNL     1      -0.755 -18.676  -8.618  1.00  0.00     0.098 A 
ATOM      4  C   UNL     1      -0.662 -17.374  -8.121  1.00  0.00     0.142 A 
ATOM      5  C   UNL     1       0.471 -16.987  -7.376  1.00  0.00     0.022 A 
ATOM      6  C   UNL     1       1.501 -17.907  -7.137  1.00  0.00     0.062 A 
ATOM      7  C   UNL     1       0.534 -15.675  -6.892  1.00  0.00     0.019 A 
ATOM      8  C   UNL     1      -0.516 -14.797  -7.157  1.00  0.00     0.094 A 
ATOM      9  C   UNL     1      -1.609 -15.252  -7.902  1.00  0.00     0.336 A 
ATOM     10  O   UNL     1      -2.567 -14.474  -8.152  1.00  0.00    -0.246 OA
ATOM     11  O   UNL     1      -1.643 -16.504  -8.350  1.00  0.00    -0.423 OA
ENDROOT
BRANCH   1  12
ATOM     12  O   UNL     1       2.413 -20.176  -7.424  1.00  0.00    -0.493 OA
ATOM     13  C   UNL     1       2.546 -20.957  -6.242  1.00  0.00     0.278 C 
ENDBRANCH   1  12
BRANCH   2  14
ATOM     14  O   UNL     1       0.182 -20.897  -8.875  1.00  0.00    -0.504 OA
ATOM     15  H   UNL     1       0.100 -21.080  -9.869  1.00  0.00     0.293 HD
ENDBRANCH   2  14
TORSDOF 2
ENDMDL
MODEL 8
REMARK VINA RESULT:    -4.468      1.721      4.912
REMARK INTER + INTRA:          -4.905
REMARK INTER:                  -4.860
REMARK INTRA:                  -0.045
REMARK UNBOUND:                -0.045
REMARK SMILES COc1cc2ccc(=O)oc2cc1O
REMARK SMILES IDX 3 1 13 2 12 3 11 4 5 5 4 6 6 7 7 8 8 9 9 10 10 11 2 12 1 13
REMARK SMILES IDX 14 14
REMARK H PARENT 14 15
REMARK Flexibility Score: inf
ROOT
ATOM      1  C   UNL     1      -0.205 -14.645  -6.102  1.00  0.00     0.161 A 
ATOM      2  C   UNL     1       0.769 -15.572  -6.502  1.00  0.00     0.161 A 
ATOM      3  C   UNL     1       0.445 -16.598  -7.402  1.00  0.00     0.098 A 
ATOM      4  C   UNL     1      -0.853 -16.704  -7.908  1.00  0.00     0.142 A 
ATOM      5  C   UNL     1      -1.839 -15.777  -7.510  1.00  0.00     0.022 A 
ATOM      6  C   UNL     1      -1.514 -14.751  -6.612  1.00  0.00     0.062 A 
ATOM      7  C   UNL     1      -3.129 -15.910  -8.035  1.00  0.00     0.019 A 
ATOM      8  C   UNL     1      -3.402 -16.947  -8.927  1.00  0.00     0.094 A 
ATOM      9  C   UNL     1      -2.374 -17.831  -9.274  1.00  0.00     0.336 A 
ATOM     10  O   UNL     1      -2.600 -18.773 -10.077  1.00  0.00    -0.246 OA
ATOM     11  O   UNL     1      -1.156 -17.681  -8.760  1.00  0.00    -0.423 OA
ENDROOT
BRANCH   1  12
ATOM     12  O   UNL     1       0.165 -13.635  -5.200  1.00  0.00    -0.493 OA
ATOM     13  C   UNL     1      -0.688 -12.576  -4.779  1.00  0.00     0.278 C 
ENDBRANCH   1  12
BRANCH   2  14
ATOM     14  O   UNL     1       2.065 -15.467  -5.998  1.00  0.00    -0.504 OA
ATOM     15  H   UNL     1       2.457 -14.573  -5.725  1.00  0.00     0.293 HD
ENDBRANCH   2  14
TORSDOF 2
ENDMDL
MODEL 9
REMARK VINA RESULT:    -4.426      2.611      3.764
REMARK INTER + INTRA:          -4.860
REMARK INTER:                  -4.805
REMARK INTRA:                  -0.055
REMARK UNBOUND:                -0.045
REMARK SMILES COc1cc2ccc(=O)oc2cc1O
REMARK SMILES IDX 3 1 13 2 12 3 11 4 5 5 4 6 6 7 7 8 8 9 9 10 10 11 2 12 1 13
REMARK SMILES IDX 14 14
REMARK H PARENT 14 15
REMARK Flexibility Score: inf
ROOT
ATOM      1  C   UNL     1      -0.642 -15.979  -7.744  1.00  0.00     0.161 A 
ATOM      2  C   UNL     1      -1.656 -16.618  -8.475  1.00  0.00     0.161 A 
ATOM      3  C   UNL     1      -1.532 -17.970  -8.825  1.00  0.00     0.098 A 
ATOM      4  C   UNL     1      -0.397 -18.693  -8.450  1.00  0.00     0.142 A 
ATOM      5  C   UNL     1       0.627 -18.058  -7.716  1.00  0.00     0.022 A 
ATOM      6  C   UNL     1       0.503 -16.707  -7.365  1.00  0.00     0.062 A 
ATOM      7  C   UNL     1       1.751 -18.809  -7.355  1.00  0.00     0.019 A 
ATOM      8  C   UNL     1       1.827 -20.151  -7.727  1.00  0.00     0.094 A 
ATOM      9  C   UNL     1       0.773 -20.713  -8.456  1.00  0.00     0.336 A 
ATOM     10  O   UNL     1       0.822 -21.922  -8.801  1.00  0.00    -0.246 OA
ATOM     11  O   UNL     1      -0.284 -19.976  -8.786  1.00  0.00    -0.423 OA
ENDROOT
BRANCH   1  12
ATOM     12  O   UNL     1      -0.808 -14.624  -7.415  1.00  0.00    -0.493 OA
ATOM     13  C   UNL     1      -0.639 -14.084  -6.109  1.00  0.00     0.278 C 
ENDBRANCH   1  12
BRANCH   2  14
ATOM     14  O   UNL     1      -2.789 -15.898  -8.851  1.00  0.00    -0.504 OA
ATOM     15  H   UNL     1      -3.410 -15.488  -8.161  1.00  0.00     0.293 HD
ENDBRANCH   2  14
TORSDOF 2
ENDMDL
