MODEL 1
REMARK VINA RESULT:    -7.933      0.000      0.000
REMARK INTER + INTRA:          -9.581
REMARK INTER:                  -9.324
REMARK INTRA:                  -0.257
REMARK UNBOUND:                -0.257
REMARK SMILES O=c1c(O)c(-c2ccc(O)cc2)oc2cc(O)cc(O)c12
REMARK SMILES IDX 5 1 3 2 2 3 1 4 21 5 19 6 18 7 16 8 15 9 14 10 13 11 6 12
REMARK SMILES IDX 7 13 8 14 9 15 12 16 11 17 10 18 4 20 20 22 17 24
REMARK H PARENT 10 19 4 21 20 23 17 25
REMARK Flexibility Score: inf
ROOT
ATOM      1  C   UNL     1     -13.642 -29.462 -12.475  1.00  0.00     0.180 A 
ATOM      2  C   UNL     1     -12.723 -29.867 -11.492  1.00  0.00     0.208 A 
ATOM      3  C   UNL     1     -12.570 -31.238 -11.226  1.00  0.00     0.238 A 
ATOM      4  O   UNL     1     -11.707 -31.596 -10.384  1.00  0.00    -0.285 OA
ATOM      5  C   UNL     1     -13.348 -32.183 -11.935  1.00  0.00     0.111 A 
ATOM      6  C   UNL     1     -13.304 -33.594 -11.719  1.00  0.00     0.134 A 
ATOM      7  C   UNL     1     -14.023 -34.445 -12.568  1.00  0.00     0.093 A 
ATOM      8  C   UNL     1     -14.835 -33.933 -13.583  1.00  0.00     0.123 A 
ATOM      9  C   UNL     1     -14.930 -32.556 -13.764  1.00  0.00     0.094 A 
ATOM     10  C   UNL     1     -14.197 -31.682 -12.957  1.00  0.00     0.146 A 
ATOM     11  O   UNL     1     -14.309 -30.376 -13.169  1.00  0.00    -0.452 OA
ENDROOT
BRANCH   1  12
ATOM     12  C   UNL     1     -13.878 -28.035 -12.794  1.00  0.00     0.021 A 
ATOM     13  C   UNL     1     -14.656 -27.216 -11.956  1.00  0.00     0.016 A 
ATOM     14  C   UNL     1     -14.885 -25.877 -12.290  1.00  0.00     0.047 A 
ATOM     15  C   UNL     1     -14.350 -25.345 -13.472  1.00  0.00     0.115 A 
ATOM     16  C   UNL     1     -13.364 -27.498 -13.987  1.00  0.00     0.016 A 
ATOM     17  C   UNL     1     -13.593 -26.160 -14.318  1.00  0.00     0.047 A 
BRANCH  15  18
ATOM     18  O   UNL     1     -14.571 -24.012 -13.814  1.00  0.00    -0.508 OA
ATOM     19  H   UNL     1     -14.662 -23.723 -14.781  1.00  0.00     0.293 HD
ENDBRANCH  15  18
ENDBRANCH   1  12
BRANCH   2  20
ATOM     20  O   UNL     1     -11.949 -28.918 -10.820  1.00  0.00    -0.502 OA
ATOM     21  H   UNL     1     -11.087 -29.156 -10.344  1.00  0.00     0.293 HD
ENDBRANCH   2  20
BRANCH   6  22
ATOM     22  O   UNL     1     -12.599 -34.202 -10.677  1.00  0.00    -0.507 OA
ATOM     23  H   UNL     1     -12.574 -35.195 -10.502  1.00  0.00     0.293 HD
ENDBRANCH   6  22
BRANCH   8  24
ATOM     24  O   UNL     1     -15.558 -34.787 -14.412  1.00  0.00    -0.508 OA
ATOM     25  H   UNL     1     -16.570 -34.763 -14.445  1.00  0.00     0.293 HD
ENDBRANCH   8  24
TORSDOF 5
ENDMDL
MODEL 2
REMARK VINA RESULT:    -7.915      0.081      1.060
REMARK INTER + INTRA:          -9.560
REMARK INTER:                  -9.307
REMARK INTRA:                  -0.254
REMARK UNBOUND:                -0.257
REMARK SMILES O=c1c(O)c(-c2ccc(O)cc2)oc2cc(O)cc(O)c12
REMARK SMILES IDX 5 1 3 2 2 3 1 4 21 5 19 6 18 7 16 8 15 9 14 10 13 11 6 12
REMARK SMILES IDX 7 13 8 14 9 15 12 16 11 17 10 18 4 20 20 22 17 24
REMARK H PARENT 10 19 4 21 20 23 17 25
REMARK Flexibility Score: inf
ROOT
ATOM      1  C   UNL     1     -13.670 -29.504 -12.568  1.00  0.00     0.180 A 
ATOM      2  C   UNL     1     -12.742 -29.890 -11.586  1.00  0.00     0.208 A 
ATOM      3  C   UNL     1     -12.582 -31.256 -11.301  1.00  0.00     0.238 A 
ATOM      4  O   UNL     1     -11.711 -31.598 -10.460  1.00  0.00    -0.285 OA
ATOM      5  C   UNL     1     -13.362 -32.215 -11.988  1.00  0.00     0.111 A 
ATOM      6  C   UNL     1     -13.310 -33.622 -11.752  1.00  0.00     0.134 A 
ATOM      7  C   UNL     1     -14.033 -34.489 -12.582  1.00  0.00     0.093 A 
ATOM      8  C   UNL     1     -14.854 -33.995 -13.598  1.00  0.00     0.123 A 
ATOM      9  C   UNL     1     -14.957 -32.621 -13.798  1.00  0.00     0.094 A 
ATOM     10  C   UNL     1     -14.221 -31.733 -13.011  1.00  0.00     0.146 A 
ATOM     11  O   UNL     1     -14.339 -30.431 -13.242  1.00  0.00    -0.452 OA
ENDROOT
BRANCH   1  12
ATOM     12  C   UNL     1     -13.914 -28.082 -12.907  1.00  0.00     0.021 A 
ATOM     13  C   UNL     1     -13.329 -27.490 -14.041  1.00  0.00     0.016 A 
ATOM     14  C   UNL     1     -13.553 -26.140 -14.327  1.00  0.00     0.047 A 
ATOM     15  C   UNL     1     -14.353 -25.362 -13.478  1.00  0.00     0.115 A 
ATOM     16  C   UNL     1     -14.697 -27.290 -12.050  1.00  0.00     0.016 A 
ATOM     17  C   UNL     1     -14.920 -25.941 -12.339  1.00  0.00     0.047 A 
BRANCH  15  18
ATOM     18  O   UNL     1     -14.584 -24.016 -13.755  1.00  0.00    -0.508 OA
ATOM     19  H   UNL     1     -14.654 -23.328 -13.014  1.00  0.00     0.293 HD
ENDBRANCH  15  18
ENDBRANCH   1  12
BRANCH   2  20
ATOM     20  O   UNL     1     -11.966 -28.928 -10.935  1.00  0.00    -0.502 OA
ATOM     21  H   UNL     1     -12.191 -28.581 -10.010  1.00  0.00     0.293 HD
ENDBRANCH   2  20
BRANCH   6  22
ATOM     22  O   UNL     1     -12.595 -34.211 -10.706  1.00  0.00    -0.507 OA
ATOM     23  H   UNL     1     -11.589 -34.259 -10.653  1.00  0.00     0.293 HD
ENDBRANCH   6  22
BRANCH   8  24
ATOM     24  O   UNL     1     -15.581 -34.864 -14.408  1.00  0.00    -0.508 OA
ATOM     25  H   UNL     1     -15.437 -35.867 -14.373  1.00  0.00     0.293 HD
ENDBRANCH   8  24
TORSDOF 5
ENDMDL
MODEL 3
REMARK VINA RESULT:    -7.678      1.539      3.639
REMARK INTER + INTRA:          -9.282
REMARK INTER:                  -9.070
REMARK INTRA:                  -0.212
REMARK UNBOUND:                -0.257
REMARK SMILES O=c1c(O)c(-c2ccc(O)cc2)oc2cc(O)cc(O)c12
REMARK SMILES IDX 5 1 3 2 2 3 1 4 21 5 19 6 18 7 16 8 15 9 14 10 13 11 6 12
REMARK SMILES IDX 7 13 8 14 9 15 12 16 11 17 10 18 4 20 20 22 17 24
REMARK H PARENT 10 19 4 21 20 23 17 25
REMARK Flexibility Score: inf
ROOT
ATOM      1  C   UNL     1     -13.402 -29.248 -11.957  1.00  0.00     0.180 A 
ATOM      2  C   UNL     1     -13.907 -30.431 -12.523  1.00  0.00     0.208 A 
ATOM      3  C   UNL     1     -13.487 -31.667 -12.002  1.00  0.00     0.238 A 
ATOM      4  O   UNL     1     -13.984 -32.721 -12.477  1.00  0.00    -0.285 OA
ATOM      5  C   UNL     1     -12.558 -31.703 -10.935  1.00  0.00     0.111 A 
ATOM      6  C   UNL     1     -12.034 -32.899 -10.357  1.00  0.00     0.134 A 
ATOM      7  C   UNL     1     -11.220 -32.817  -9.220  1.00  0.00     0.093 A 
ATOM      8  C   UNL     1     -10.860 -31.580  -8.680  1.00  0.00     0.123 A 
ATOM      9  C   UNL     1     -11.318 -30.406  -9.273  1.00  0.00     0.094 A 
ATOM     10  C   UNL     1     -12.160 -30.456 -10.385  1.00  0.00     0.146 A 
ATOM     11  O   UNL     1     -12.583 -29.314 -10.914  1.00  0.00    -0.452 OA
ENDROOT
BRANCH   1  12
ATOM     12  C   UNL     1     -13.777 -27.908 -12.466  1.00  0.00     0.021 A 
ATOM     13  C   UNL     1     -13.328 -27.449 -13.718  1.00  0.00     0.016 A 
ATOM     14  C   UNL     1     -13.675 -26.171 -14.168  1.00  0.00     0.047 A 
ATOM     15  C   UNL     1     -14.463 -25.332 -13.367  1.00  0.00     0.115 A 
ATOM     16  C   UNL     1     -14.548 -27.053 -11.662  1.00  0.00     0.016 A 
ATOM     17  C   UNL     1     -14.894 -25.776 -12.114  1.00  0.00     0.047 A 
BRANCH  15  18
ATOM     18  O   UNL     1     -14.816 -24.058 -13.805  1.00  0.00    -0.508 OA
ATOM     19  H   UNL     1     -15.770 -23.722 -13.743  1.00  0.00     0.293 HD
ENDBRANCH  15  18
ENDBRANCH   1  12
BRANCH   2  20
ATOM     20  O   UNL     1     -14.840 -30.372 -13.560  1.00  0.00    -0.502 OA
ATOM     21  H   UNL     1     -14.640 -29.925 -14.447  1.00  0.00     0.293 HD
ENDBRANCH   2  20
BRANCH   6  22
ATOM     22  O   UNL     1     -12.258 -34.178 -10.874  1.00  0.00    -0.507 OA
ATOM     23  H   UNL     1     -13.060 -34.752 -10.662  1.00  0.00     0.293 HD
ENDBRANCH   6  22
BRANCH   8  24
ATOM     24  O   UNL     1     -10.037 -31.508  -7.558  1.00  0.00    -0.508 OA
ATOM     25  H   UNL     1      -9.254 -32.138  -7.434  1.00  0.00     0.293 HD
ENDBRANCH   8  24
TORSDOF 5
ENDMDL
MODEL 4
REMARK VINA RESULT:    -7.058      1.896      2.676
REMARK INTER + INTRA:          -8.554
REMARK INTER:                  -8.323
REMARK INTRA:                  -0.231
REMARK UNBOUND:                -0.257
REMARK SMILES O=c1c(O)c(-c2ccc(O)cc2)oc2cc(O)cc(O)c12
REMARK SMILES IDX 5 1 3 2 2 3 1 4 21 5 19 6 18 7 16 8 15 9 14 10 13 11 6 12
REMARK SMILES IDX 7 13 8 14 9 15 12 16 11 17 10 18 4 20 20 22 17 24
REMARK H PARENT 10 19 4 21 20 23 17 25
REMARK Flexibility Score: inf
ROOT
ATOM      1  C   UNL     1     -12.222 -28.106 -11.904  1.00  0.00     0.180 A 
ATOM      2  C   UNL     1     -11.056 -27.965 -11.132  1.00  0.00     0.208 A 
ATOM      3  C   UNL     1     -10.441 -29.116 -10.612  1.00  0.00     0.238 A 
ATOM      4  O   UNL     1      -9.368 -28.987  -9.968  1.00  0.00    -0.285 OA
ATOM      5  C   UNL     1     -11.007 -30.389 -10.856  1.00  0.00     0.111 A 
ATOM      6  C   UNL     1     -10.491 -31.618 -10.345  1.00  0.00     0.134 A 
ATOM      7  C   UNL     1     -11.057 -32.830 -10.758  1.00  0.00     0.093 A 
ATOM      8  C   UNL     1     -12.162 -32.855 -11.612  1.00  0.00     0.123 A 
ATOM      9  C   UNL     1     -12.710 -31.659 -12.069  1.00  0.00     0.094 A 
ATOM     10  C   UNL     1     -12.145 -30.435 -11.704  1.00  0.00     0.146 A 
ATOM     11  O   UNL     1     -12.692 -29.319 -12.170  1.00  0.00    -0.452 OA
ENDROOT
BRANCH   1  12
ATOM     12  C   UNL     1     -12.941 -26.940 -12.465  1.00  0.00     0.021 A 
ATOM     13  C   UNL     1     -14.157 -26.494 -11.914  1.00  0.00     0.016 A 
ATOM     14  C   UNL     1     -14.831 -25.406 -12.476  1.00  0.00     0.047 A 
ATOM     15  C   UNL     1     -14.306 -24.757 -13.603  1.00  0.00     0.115 A 
ATOM     16  C   UNL     1     -12.434 -26.297 -13.607  1.00  0.00     0.016 A 
ATOM     17  C   UNL     1     -13.109 -25.208 -14.166  1.00  0.00     0.047 A 
BRANCH  15  18
ATOM     18  O   UNL     1     -14.968 -23.671 -14.171  1.00  0.00    -0.508 OA
ATOM     19  H   UNL     1     -15.526 -23.038 -13.609  1.00  0.00     0.293 HD
ENDBRANCH  15  18
ENDBRANCH   1  12
BRANCH   2  20
ATOM     20  O   UNL     1     -10.501 -26.700 -10.922  1.00  0.00    -0.502 OA
ATOM     21  H   UNL     1     -10.126 -26.412 -10.026  1.00  0.00     0.293 HD
ENDBRANCH   2  20
BRANCH   6  22
ATOM     22  O   UNL     1      -9.450 -31.700  -9.415  1.00  0.00    -0.507 OA
ATOM     23  H   UNL     1      -8.489 -31.459  -9.605  1.00  0.00     0.293 HD
ENDBRANCH   6  22
BRANCH   8  24
ATOM     24  O   UNL     1     -12.729 -34.065 -12.005  1.00  0.00    -0.508 OA
ATOM     25  H   UNL     1     -13.212 -34.664 -11.346  1.00  0.00     0.293 HD
ENDBRANCH   8  24
TORSDOF 5
ENDMDL
MODEL 5
REMARK VINA RESULT:    -6.755      1.617      6.577
REMARK INTER + INTRA:          -8.197
REMARK INTER:                  -7.959
REMARK INTRA:                  -0.238
REMARK UNBOUND:                -0.257
REMARK SMILES O=c1c(O)c(-c2ccc(O)cc2)oc2cc(O)cc(O)c12
REMARK SMILES IDX 5 1 3 2 2 3 1 4 21 5 19 6 18 7 16 8 15 9 14 10 13 11 6 12
REMARK SMILES IDX 7 13 8 14 9 15 12 16 11 17 10 18 4 20 20 22 17 24
REMARK H PARENT 10 19 4 21 20 23 17 25
REMARK Flexibility Score: inf
ROOT
ATOM      1  C   UNL     1     -13.463 -31.960 -12.550  1.00  0.00     0.180 A 
ATOM      2  C   UNL     1     -12.157 -31.762 -12.069  1.00  0.00     0.208 A 
ATOM      3  C   UNL     1     -11.731 -30.455 -11.779  1.00  0.00     0.238 A 
ATOM      4  O   UNL     1     -10.580 -30.290 -11.297  1.00  0.00    -0.285 OA
ATOM      5  C   UNL     1     -12.608 -29.365 -11.987  1.00  0.00     0.111 A 
ATOM      6  C   UNL     1     -12.267 -27.996 -11.764  1.00  0.00     0.134 A 
ATOM      7  C   UNL     1     -13.256 -27.011 -11.880  1.00  0.00     0.093 A 
ATOM      8  C   UNL     1     -14.556 -27.338 -12.273  1.00  0.00     0.123 A 
ATOM      9  C   UNL     1     -14.883 -28.663 -12.550  1.00  0.00     0.094 A 
ATOM     10  C   UNL     1     -13.928 -29.672 -12.408  1.00  0.00     0.146 A 
ATOM     11  O   UNL     1     -14.284 -30.924 -12.672  1.00  0.00    -0.452 OA
ENDROOT
BRANCH   1  12
ATOM     12  C   UNL     1     -13.977 -33.304 -12.902  1.00  0.00     0.021 A 
ATOM     13  C   UNL     1     -14.114 -33.707 -14.243  1.00  0.00     0.016 A 
ATOM     14  C   UNL     1     -14.625 -34.972 -14.552  1.00  0.00     0.047 A 
ATOM     15  C   UNL     1     -15.017 -35.843 -13.527  1.00  0.00     0.115 A 
ATOM     16  C   UNL     1     -14.392 -34.176 -11.882  1.00  0.00     0.016 A 
ATOM     17  C   UNL     1     -14.902 -35.440 -12.193  1.00  0.00     0.047 A 
BRANCH  15  18
ATOM     18  O   UNL     1     -15.526 -37.106 -13.823  1.00  0.00    -0.508 OA
ATOM     19  H   UNL     1     -16.521 -37.296 -13.789  1.00  0.00     0.293 HD
ENDBRANCH  15  18
ENDBRANCH   1  12
BRANCH   2  20
ATOM     20  O   UNL     1     -11.315 -32.854 -11.849  1.00  0.00    -0.502 OA
ATOM     21  H   UNL     1     -10.653 -32.886 -11.083  1.00  0.00     0.293 HD
ENDBRANCH   2  20
BRANCH   6  22
ATOM     22  O   UNL     1     -10.978 -27.554 -11.458  1.00  0.00    -0.507 OA
ATOM     23  H   UNL     1     -10.517 -27.693 -10.572  1.00  0.00     0.293 HD
ENDBRANCH   6  22
BRANCH   8  24
ATOM     24  O   UNL     1     -15.529 -26.349 -12.400  1.00  0.00    -0.508 OA
ATOM     25  H   UNL     1     -15.622 -25.803 -13.248  1.00  0.00     0.293 HD
ENDBRANCH   8  24
TORSDOF 5
ENDMDL
MODEL 6
REMARK VINA RESULT:    -6.650      1.689      2.628
REMARK INTER + INTRA:          -8.074
REMARK INTER:                  -7.780
REMARK INTRA:                  -0.294
REMARK UNBOUND:                -0.257
REMARK SMILES O=c1c(O)c(-c2ccc(O)cc2)oc2cc(O)cc(O)c12
REMARK SMILES IDX 5 1 3 2 2 3 1 4 21 5 19 6 18 7 16 8 15 9 14 10 13 11 6 12
REMARK SMILES IDX 7 13 8 14 9 15 12 16 11 17 10 18 4 20 20 22 17 24
REMARK H PARENT 10 19 4 21 20 23 17 25
REMARK Flexibility Score: inf
ROOT
ATOM      1  C   UNL     1     -13.672 -31.960 -12.434  1.00  0.00     0.180 A 
ATOM      2  C   UNL     1     -12.590 -32.674 -11.891  1.00  0.00     0.208 A 
ATOM      3  C   UNL     1     -12.648 -34.077 -11.861  1.00  0.00     0.238 A 
ATOM      4  O   UNL     1     -11.653 -34.712 -11.424  1.00  0.00    -0.285 OA
ATOM      5  C   UNL     1     -13.791 -34.746 -12.359  1.00  0.00     0.111 A 
ATOM      6  C   UNL     1     -13.973 -36.163 -12.341  1.00  0.00     0.134 A 
ATOM      7  C   UNL     1     -15.087 -36.723 -12.979  1.00  0.00     0.093 A 
ATOM      8  C   UNL     1     -16.057 -35.916 -13.576  1.00  0.00     0.123 A 
ATOM      9  C   UNL     1     -15.919 -34.530 -13.546  1.00  0.00     0.094 A 
ATOM     10  C   UNL     1     -14.800 -33.943 -12.950  1.00  0.00     0.146 A 
ATOM     11  O   UNL     1     -14.701 -32.619 -12.953  1.00  0.00    -0.452 OA
ENDROOT
BRANCH   1  12
ATOM     12  C   UNL     1     -13.697 -30.480 -12.478  1.00  0.00     0.021 A 
ATOM     13  C   UNL     1     -14.129 -29.721 -11.375  1.00  0.00     0.016 A 
ATOM     14  C   UNL     1     -14.166 -28.325 -11.448  1.00  0.00     0.047 A 
ATOM     15  C   UNL     1     -13.786 -27.671 -12.628  1.00  0.00     0.115 A 
ATOM     16  C   UNL     1     -13.337 -29.816 -13.664  1.00  0.00     0.016 A 
ATOM     17  C   UNL     1     -13.375 -28.421 -13.734  1.00  0.00     0.047 A 
BRANCH  15  18
ATOM     18  O   UNL     1     -13.819 -26.281 -12.713  1.00  0.00    -0.508 OA
ATOM     19  H   UNL     1     -13.360 -25.698 -12.022  1.00  0.00     0.293 HD
ENDBRANCH  15  18
ENDBRANCH   1  12
BRANCH   2  20
ATOM     20  O   UNL     1     -11.462 -31.994 -11.427  1.00  0.00    -0.502 OA
ATOM     21  H   UNL     1     -11.511 -31.061 -11.036  1.00  0.00     0.293 HD
ENDBRANCH   2  20
BRANCH   6  22
ATOM     22  O   UNL     1     -13.111 -37.051 -11.693  1.00  0.00    -0.507 OA
ATOM     23  H   UNL     1     -13.250 -37.410 -10.760  1.00  0.00     0.293 HD
ENDBRANCH   6  22
BRANCH   8  24
ATOM     24  O   UNL     1     -17.170 -36.482 -14.194  1.00  0.00    -0.508 OA
ATOM     25  H   UNL     1     -18.021 -35.953 -14.342  1.00  0.00     0.293 HD
ENDBRANCH   8  24
TORSDOF 5
ENDMDL
MODEL 7
REMARK VINA RESULT:    -6.590      2.001      3.494
REMARK INTER + INTRA:          -8.004
REMARK INTER:                  -7.716
REMARK INTRA:                  -0.287
REMARK UNBOUND:                -0.257
REMARK SMILES O=c1c(O)c(-c2ccc(O)cc2)oc2cc(O)cc(O)c12
REMARK SMILES IDX 5 1 3 2 2 3 1 4 21 5 19 6 18 7 16 8 15 9 14 10 13 11 6 12
REMARK SMILES IDX 7 13 8 14 9 15 12 16 11 17 10 18 4 20 20 22 17 24
REMARK H PARENT 10 19 4 21 20 23 17 25
REMARK Flexibility Score: inf
ROOT
ATOM      1  C   UNL     1     -12.736 -30.023 -12.421  1.00  0.00     0.180 A 
ATOM      2  C   UNL     1     -13.207 -30.995 -13.320  1.00  0.00     0.208 A 
ATOM      3  C   UNL     1     -12.666 -32.291 -13.266  1.00  0.00     0.238 A 
ATOM      4  O   UNL     1     -13.130 -33.170 -14.037  1.00  0.00    -0.285 OA
ATOM      5  C   UNL     1     -11.652 -32.592 -12.327  1.00  0.00     0.111 A 
ATOM      6  C   UNL     1     -11.005 -33.860 -12.211  1.00  0.00     0.134 A 
ATOM      7  C   UNL     1     -10.107 -34.083 -11.159  1.00  0.00     0.093 A 
ATOM      8  C   UNL     1      -9.785 -33.065 -10.258  1.00  0.00     0.123 A 
ATOM      9  C   UNL     1     -10.366 -31.808 -10.399  1.00  0.00     0.094 A 
ATOM     10  C   UNL     1     -11.293 -31.565 -11.415  1.00  0.00     0.146 A 
ATOM     11  O   UNL     1     -11.831 -30.354 -11.507  1.00  0.00    -0.452 OA
ENDROOT
BRANCH   1  12
ATOM     12  C   UNL     1     -13.238 -28.630 -12.432  1.00  0.00     0.021 A 
ATOM     13  C   UNL     1     -14.328 -28.238 -11.633  1.00  0.00     0.016 A 
ATOM     14  C   UNL     1     -14.801 -26.923 -11.678  1.00  0.00     0.047 A 
ATOM     15  C   UNL     1     -14.200 -25.987 -12.531  1.00  0.00     0.115 A 
ATOM     16  C   UNL     1     -12.656 -27.690 -13.299  1.00  0.00     0.016 A 
ATOM     17  C   UNL     1     -13.130 -26.376 -13.342  1.00  0.00     0.047 A 
BRANCH  15  18
ATOM     18  O   UNL     1     -14.662 -24.673 -12.584  1.00  0.00    -0.508 OA
ATOM     19  H   UNL     1     -14.842 -24.141 -11.740  1.00  0.00     0.293 HD
ENDBRANCH  15  18
ENDBRANCH   1  12
BRANCH   2  20
ATOM     20  O   UNL     1     -14.224 -30.682 -14.224  1.00  0.00    -0.502 OA
ATOM     21  H   UNL     1     -14.039 -30.440 -15.190  1.00  0.00     0.293 HD
ENDBRANCH   2  20
BRANCH   6  22
ATOM     22  O   UNL     1     -11.186 -34.912 -13.111  1.00  0.00    -0.507 OA
ATOM     23  H   UNL     1     -11.637 -34.830 -14.010  1.00  0.00     0.293 HD
ENDBRANCH   6  22
BRANCH   8  24
ATOM     24  O   UNL     1      -8.879 -33.293  -9.225  1.00  0.00    -0.508 OA
ATOM     25  H   UNL     1      -8.021 -32.760  -9.145  1.00  0.00     0.293 HD
ENDBRANCH   8  24
TORSDOF 5
ENDMDL
MODEL 8
REMARK VINA RESULT:    -6.517      1.560      1.842
REMARK INTER + INTRA:          -7.917
REMARK INTER:                  -7.713
REMARK INTRA:                  -0.204
REMARK UNBOUND:                -0.257
REMARK SMILES O=c1c(O)c(-c2ccc(O)cc2)oc2cc(O)cc(O)c12
REMARK SMILES IDX 5 1 3 2 2 3 1 4 21 5 19 6 18 7 16 8 15 9 14 10 13 11 6 12
REMARK SMILES IDX 7 13 8 14 9 15 12 16 11 17 10 18 4 20 20 22 17 24
REMARK H PARENT 10 19 4 21 20 23 17 25
REMARK Flexibility Score: inf
ROOT
ATOM      1  C   UNL     1     -13.073 -30.344 -11.980  1.00  0.00     0.180 A 
ATOM      2  C   UNL     1     -12.606 -30.825 -10.744  1.00  0.00     0.208 A 
ATOM      3  C   UNL     1     -12.265 -32.183 -10.628  1.00  0.00     0.238 A 
ATOM      4  O   UNL     1     -11.797 -32.595  -9.536  1.00  0.00    -0.285 OA
ATOM      5  C   UNL     1     -12.410 -33.043 -11.742  1.00  0.00     0.111 A 
ATOM      6  C   UNL     1     -12.133 -34.444 -11.726  1.00  0.00     0.134 A 
ATOM      7  C   UNL     1     -12.188 -35.172 -12.921  1.00  0.00     0.093 A 
ATOM      8  C   UNL     1     -12.573 -34.565 -14.118  1.00  0.00     0.123 A 
ATOM      9  C   UNL     1     -12.903 -33.212 -14.133  1.00  0.00     0.094 A 
ATOM     10  C   UNL     1     -12.822 -32.450 -12.964  1.00  0.00     0.146 A 
ATOM     11  O   UNL     1     -13.135 -31.161 -13.023  1.00  0.00    -0.452 OA
ENDROOT
BRANCH   1  12
ATOM     12  C   UNL     1     -13.476 -28.932 -12.174  1.00  0.00     0.021 A 
ATOM     13  C   UNL     1     -12.521 -27.899 -12.225  1.00  0.00     0.016 A 
ATOM     14  C   UNL     1     -12.927 -26.570 -12.386  1.00  0.00     0.047 A 
ATOM     15  C   UNL     1     -14.289 -26.255 -12.483  1.00  0.00     0.115 A 
ATOM     16  C   UNL     1     -14.840 -28.604 -12.251  1.00  0.00     0.016 A 
ATOM     17  C   UNL     1     -15.242 -27.275 -12.412  1.00  0.00     0.047 A 
BRANCH  15  18
ATOM     18  O   UNL     1     -14.704 -24.935 -12.643  1.00  0.00    -0.508 OA
ATOM     19  H   UNL     1     -14.781 -24.305 -11.853  1.00  0.00     0.293 HD
ENDBRANCH  15  18
ENDBRANCH   1  12
BRANCH   2  20
ATOM     20  O   UNL     1     -12.449 -29.953  -9.664  1.00  0.00    -0.502 OA
ATOM     21  H   UNL     1     -12.268 -30.280  -8.722  1.00  0.00     0.293 HD
ENDBRANCH   2  20
BRANCH   6  22
ATOM     22  O   UNL     1     -11.830 -35.165 -10.568  1.00  0.00    -0.507 OA
ATOM     23  H   UNL     1     -11.279 -36.010 -10.544  1.00  0.00     0.293 HD
ENDBRANCH   6  22
BRANCH   8  24
ATOM     24  O   UNL     1     -12.639 -35.301 -15.299  1.00  0.00    -0.508 OA
ATOM     25  H   UNL     1     -11.984 -35.149 -16.056  1.00  0.00     0.293 HD
ENDBRANCH   8  24
TORSDOF 5
ENDMDL
MODEL 9
REMARK VINA RESULT:    -6.361      2.209      6.934
REMARK INTER + INTRA:          -7.734
REMARK INTER:                  -7.434
REMARK INTRA:                  -0.300
REMARK UNBOUND:                -0.257
REMARK SMILES O=c1c(O)c(-c2ccc(O)cc2)oc2cc(O)cc(O)c12
REMARK SMILES IDX 5 1 3 2 2 3 1 4 21 5 19 6 18 7 16 8 15 9 14 10 13 11 6 12
REMARK SMILES IDX 7 13 8 14 9 15 12 16 11 17 10 18 4 20 20 22 17 24
REMARK H PARENT 10 19 4 21 20 23 17 25
REMARK Flexibility Score: inf
ROOT
ATOM      1  C   UNL     1     -13.172 -31.583 -12.645  1.00  0.00     0.180 A 
ATOM      2  C   UNL     1     -14.084 -30.593 -13.048  1.00  0.00     0.208 A 
ATOM      3  C   UNL     1     -13.805 -29.249 -12.751  1.00  0.00     0.238 A 
ATOM      4  O   UNL     1     -14.599 -28.363 -13.162  1.00  0.00    -0.285 OA
ATOM      5  C   UNL     1     -12.628 -28.914 -12.042  1.00  0.00     0.111 A 
ATOM      6  C   UNL     1     -12.265 -27.588 -11.652  1.00  0.00     0.134 A 
ATOM      7  C   UNL     1     -11.014 -27.359 -11.068  1.00  0.00     0.093 A 
ATOM      8  C   UNL     1     -10.139 -28.414 -10.800  1.00  0.00     0.123 A 
ATOM      9  C   UNL     1     -10.508 -29.718 -11.122  1.00  0.00     0.094 A 
ATOM     10  C   UNL     1     -11.735 -29.975 -11.739  1.00  0.00     0.146 A 
ATOM     11  O   UNL     1     -12.044 -31.231 -12.040  1.00  0.00    -0.452 OA
ENDROOT
BRANCH   1  12
ATOM     12  C   UNL     1     -13.407 -33.023 -12.899  1.00  0.00     0.021 A 
ATOM     13  C   UNL     1     -14.127 -33.819 -11.989  1.00  0.00     0.016 A 
ATOM     14  C   UNL     1     -14.316 -35.182 -12.239  1.00  0.00     0.047 A 
ATOM     15  C   UNL     1     -13.778 -35.768 -13.393  1.00  0.00     0.115 A 
ATOM     16  C   UNL     1     -12.854 -33.624 -14.042  1.00  0.00     0.016 A 
ATOM     17  C   UNL     1     -13.045 -34.986 -14.290  1.00  0.00     0.047 A 
BRANCH  15  18
ATOM     18  O   UNL     1     -13.961 -37.125 -13.652  1.00  0.00    -0.508 OA
ATOM     19  H   UNL     1     -14.704 -37.452 -14.258  1.00  0.00     0.293 HD
ENDBRANCH  15  18
ENDBRANCH   1  12
BRANCH   2  20
ATOM     20  O   UNL     1     -15.229 -30.944 -13.767  1.00  0.00    -0.502 OA
ATOM     21  H   UNL     1     -16.143 -31.014 -13.335  1.00  0.00     0.293 HD
ENDBRANCH   2  20
BRANCH   6  22
ATOM     22  O   UNL     1     -13.103 -26.479 -11.790  1.00  0.00    -0.507 OA
ATOM     23  H   UNL     1     -12.803 -25.566 -12.096  1.00  0.00     0.293 HD
ENDBRANCH   6  22
BRANCH   8  24
ATOM     24  O   UNL     1      -8.902 -28.178 -10.204  1.00  0.00    -0.508 OA
ATOM     25  H   UNL     1      -8.427 -28.893  -9.667  1.00  0.00     0.293 HD
ENDBRANCH   8  24
TORSDOF 5
ENDMDL
