MODEL 1
REMARK VINA RESULT:    -5.188      0.000      0.000
REMARK INTER + INTRA:         -11.136
REMARK INTER:                  -9.434
REMARK INTRA:                  -1.702
REMARK UNBOUND:                -1.702
REMARK SMILES CCCCCCCCCCCCCCCC(=O)[O-]
REMARK SMILES IDX 9 1 10 2 11 3 12 4 13 5 14 6 15 7 16 8 17 9 18 10 8 11 7 12
REMARK SMILES IDX 6 13 5 14 4 15 3 16 2 17 1 18
REMARK H PARENT
REMARK Flexibility Score: inf
ROOT
ATOM      1  C   UNL     1       0.529  45.828   9.893  1.00  0.00     0.000 C 
ENDROOT
BRANCH   1   2
ATOM      2  C   UNL     1       1.275  44.585  10.393  1.00  0.00     0.000 C 
BRANCH   2   3
ATOM      3  C   UNL     1       1.662  43.669   9.222  1.00  0.00     0.000 C 
BRANCH   3   4
ATOM      4  C   UNL     1       2.899  42.807   9.525  1.00  0.00     0.000 C 
BRANCH   4   5
ATOM      5  C   UNL     1       3.837  43.460  10.552  1.00  0.00     0.000 C 
BRANCH   5   6
ATOM      6  C   UNL     1       4.053  42.542  11.760  1.00  0.00     0.006 C 
BRANCH   6   7
ATOM      7  C   UNL     1       2.996  41.434  11.806  1.00  0.00     0.053 C 
BRANCH   7   8
ATOM      8  C   UNL     1       3.543  40.214  12.478  1.00  0.00     0.041 C 
ATOM      9  O   UNL     1       4.716  40.216  12.937  1.00  0.00    -0.550 OA
ATOM     10  O   UNL     1       2.743  39.091  12.635  1.00  0.00    -0.550 OA
ENDBRANCH   7   8
ENDBRANCH   6   7
ENDBRANCH   5   6
ENDBRANCH   4   5
ENDBRANCH   3   4
ENDBRANCH   2   3
ENDBRANCH   1   2
BRANCH   1  11
ATOM     11  C   UNL     1       0.226  45.721   8.390  1.00  0.00     0.000 C 
BRANCH  11  12
ATOM     12  C   UNL     1       0.614  46.990   7.616  1.00  0.00    -0.000 C 
BRANCH  12  13
ATOM     13  C   UNL     1       1.639  47.852   8.366  1.00  0.00    -0.000 C 
BRANCH  13  14
ATOM     14  C   UNL     1       2.796  48.256   7.445  1.00  0.00    -0.000 C 
BRANCH  14  15
ATOM     15  C   UNL     1       4.152  47.996   8.114  1.00  0.00    -0.000 C 
BRANCH  15  16
ATOM     16  C   UNL     1       4.038  46.901   9.180  1.00  0.00    -0.000 C 
BRANCH  16  17
ATOM     17  C   UNL     1       5.377  46.691   9.898  1.00  0.00    -0.003 C 
ATOM     18  C   UNL     1       6.461  47.595   9.318  1.00  0.00     0.004 C 
ENDBRANCH  16  17
ENDBRANCH  15  16
ENDBRANCH  14  15
ENDBRANCH  13  14
ENDBRANCH  12  13
ENDBRANCH  11  12
ENDBRANCH   1  11
TORSDOF 14
ENDMDL
MODEL 2
REMARK VINA RESULT:    -4.902      1.102      3.381
REMARK INTER + INTRA:         -10.616
REMARK INTER:                  -8.936
REMARK INTRA:                  -1.680
REMARK UNBOUND:                -1.702
REMARK SMILES CCCCCCCCCCCCCCCC(=O)[O-]
REMARK SMILES IDX 9 1 10 2 11 3 12 4 13 5 14 6 15 7 16 8 17 9 18 10 8 11 7 12
REMARK SMILES IDX 6 13 5 14 4 15 3 16 2 17 1 18
REMARK H PARENT
REMARK Flexibility Score: inf
ROOT
ATOM      1  C   UNL     1       5.312  46.801   9.600  1.00  0.00     0.000 C 
ENDROOT
BRANCH   1   2
ATOM      2  C   UNL     1       4.304  46.269  10.626  1.00  0.00     0.000 C 
BRANCH   2   3
ATOM      3  C   UNL     1       4.398  44.740  10.745  1.00  0.00     0.000 C 
BRANCH   3   4
ATOM      4  C   UNL     1       4.043  44.230  12.151  1.00  0.00     0.000 C 
BRANCH   4   5
ATOM      5  C   UNL     1       2.778  43.357  12.162  1.00  0.00     0.000 C 
BRANCH   5   6
ATOM      6  C   UNL     1       3.001  42.057  11.380  1.00  0.00     0.006 C 
BRANCH   6   7
ATOM      7  C   UNL     1       3.971  41.130  12.119  1.00  0.00     0.053 C 
BRANCH   7   8
ATOM      8  C   UNL     1       3.243  39.956  12.691  1.00  0.00     0.041 C 
ATOM      9  O   UNL     1       2.026  40.054  12.998  1.00  0.00    -0.550 OA
ATOM     10  O   UNL     1       3.896  38.740  12.844  1.00  0.00    -0.550 OA
ENDBRANCH   7   8
ENDBRANCH   6   7
ENDBRANCH   5   6
ENDBRANCH   4   5
ENDBRANCH   3   4
ENDBRANCH   2   3
ENDBRANCH   1   2
BRANCH   1  11
ATOM     11  C   UNL     1       4.640  47.780   8.625  1.00  0.00     0.000 C 
BRANCH  11  12
ATOM     12  C   UNL     1       3.228  47.332   8.216  1.00  0.00    -0.000 C 
BRANCH  12  13
ATOM     13  C   UNL     1       2.378  48.486   7.664  1.00  0.00    -0.000 C 
BRANCH  13  14
ATOM     14  C   UNL     1       0.916  48.350   8.106  1.00  0.00    -0.000 C 
BRANCH  14  15
ATOM     15  C   UNL     1       0.454  46.889   8.043  1.00  0.00    -0.000 C 
BRANCH  15  16
ATOM     16  C   UNL     1      -0.192  46.458   9.365  1.00  0.00    -0.000 C 
BRANCH  16  17
ATOM     17  C   UNL     1       0.583  45.299  10.003  1.00  0.00    -0.003 C 
ATOM     18  C   UNL     1       1.150  44.363   8.940  1.00  0.00     0.004 C 
ENDBRANCH  16  17
ENDBRANCH  15  16
ENDBRANCH  14  15
ENDBRANCH  13  14
ENDBRANCH  12  13
ENDBRANCH  11  12
ENDBRANCH   1  11
TORSDOF 14
ENDMDL
MODEL 3
REMARK VINA RESULT:    -4.890      3.247      5.710
REMARK INTER + INTRA:         -10.593
REMARK INTER:                  -9.050
REMARK INTRA:                  -1.543
REMARK UNBOUND:                -1.702
REMARK SMILES CCCCCCCCCCCCCCCC(=O)[O-]
REMARK SMILES IDX 9 1 10 2 11 3 12 4 13 5 14 6 15 7 16 8 17 9 18 10 8 11 7 12
REMARK SMILES IDX 6 13 5 14 4 15 3 16 2 17 1 18
REMARK H PARENT
REMARK Flexibility Score: inf
ROOT
ATOM      1  C   UNL     1       3.016  42.117  10.847  1.00  0.00     0.000 C 
ENDROOT
BRANCH   1   2
ATOM      2  C   UNL     1       4.062  42.636  11.842  1.00  0.00     0.000 C 
BRANCH   2   3
ATOM      3  C   UNL     1       3.813  44.114  12.180  1.00  0.00     0.000 C 
BRANCH   3   4
ATOM      4  C   UNL     1       4.826  45.056  11.509  1.00  0.00     0.000 C 
BRANCH   4   5
ATOM      5  C   UNL     1       4.150  46.205  10.745  1.00  0.00     0.000 C 
BRANCH   5   6
ATOM      6  C   UNL     1       4.651  46.273   9.299  1.00  0.00     0.006 C 
BRANCH   6   7
ATOM      7  C   UNL     1       4.871  47.724   8.860  1.00  0.00     0.053 C 
BRANCH   7   8
ATOM      8  C   UNL     1       6.264  48.165   9.182  1.00  0.00     0.041 C 
ATOM      9  O   UNL     1       7.122  47.326   9.562  1.00  0.00    -0.550 OA
ATOM     10  O   UNL     1       6.626  49.496   9.023  1.00  0.00    -0.550 OA
ENDBRANCH   7   8
ENDBRANCH   6   7
ENDBRANCH   5   6
ENDBRANCH   4   5
ENDBRANCH   3   4
ENDBRANCH   2   3
ENDBRANCH   1   2
BRANCH   1  11
ATOM     11  C   UNL     1       3.106  42.870   9.511  1.00  0.00     0.000 C 
BRANCH  11  12
ATOM     12  C   UNL     1       1.768  43.501   9.096  1.00  0.00    -0.000 C 
BRANCH  12  13
ATOM     13  C   UNL     1       1.232  44.494  10.137  1.00  0.00    -0.000 C 
BRANCH  13  14
ATOM     14  C   UNL     1       0.129  45.375   9.538  1.00  0.00    -0.000 C 
BRANCH  14  15
ATOM     15  C   UNL     1       0.278  45.487   8.016  1.00  0.00    -0.000 C 
BRANCH  15  16
ATOM     16  C   UNL     1       0.139  46.942   7.555  1.00  0.00    -0.000 C 
BRANCH  16  17
ATOM     17  C   UNL     1       1.424  47.732   7.828  1.00  0.00    -0.003 C 
ATOM     18  C   UNL     1       1.129  49.216   8.024  1.00  0.00     0.004 C 
ENDBRANCH  16  17
ENDBRANCH  15  16
ENDBRANCH  14  15
ENDBRANCH  13  14
ENDBRANCH  12  13
ENDBRANCH  11  12
ENDBRANCH   1  11
TORSDOF 14
ENDMDL
MODEL 4
REMARK VINA RESULT:    -4.888      3.188      6.389
REMARK INTER + INTRA:         -10.591
REMARK INTER:                  -9.100
REMARK INTRA:                  -1.491
REMARK UNBOUND:                -1.702
REMARK SMILES CCCCCCCCCCCCCCCC(=O)[O-]
REMARK SMILES IDX 9 1 10 2 11 3 12 4 13 5 14 6 15 7 16 8 17 9 18 10 8 11 7 12
REMARK SMILES IDX 6 13 5 14 4 15 3 16 2 17 1 18
REMARK H PARENT
REMARK Flexibility Score: inf
ROOT
ATOM      1  C   UNL     1       0.767  44.705   8.612  1.00  0.00     0.000 C 
ENDROOT
BRANCH   1   2
ATOM      2  C   UNL     1       0.154  45.941   9.281  1.00  0.00     0.000 C 
BRANCH   2   3
ATOM      3  C   UNL     1       0.103  47.125   8.303  1.00  0.00     0.000 C 
BRANCH   3   4
ATOM      4  C   UNL     1       1.486  47.489   7.738  1.00  0.00     0.000 C 
BRANCH   4   5
ATOM      5  C   UNL     1       2.536  47.707   8.840  1.00  0.00     0.000 C 
BRANCH   5   6
ATOM      6  C   UNL     1       3.952  47.713   8.255  1.00  0.00     0.006 C 
BRANCH   6   7
ATOM      7  C   UNL     1       4.968  47.172   9.266  1.00  0.00     0.053 C 
BRANCH   7   8
ATOM      8  C   UNL     1       6.245  47.946   9.193  1.00  0.00     0.041 C 
ATOM      9  O   UNL     1       7.343  47.383   9.446  1.00  0.00    -0.550 OA
ATOM     10  O   UNL     1       6.229  49.279   8.804  1.00  0.00    -0.550 OA
ENDBRANCH   7   8
ENDBRANCH   6   7
ENDBRANCH   5   6
ENDBRANCH   4   5
ENDBRANCH   3   4
ENDBRANCH   2   3
ENDBRANCH   1   2
BRANCH   1  11
ATOM     11  C   UNL     1       1.788  44.027   9.539  1.00  0.00     0.000 C 
BRANCH  11  12
ATOM     12  C   UNL     1       1.919  44.737  10.895  1.00  0.00    -0.000 C 
BRANCH  12  13
ATOM     13  C   UNL     1       3.358  44.728  11.432  1.00  0.00    -0.000 C 
BRANCH  13  14
ATOM     14  C   UNL     1       4.107  43.470  10.976  1.00  0.00    -0.000 C 
BRANCH  14  15
ATOM     15  C   UNL     1       4.054  42.376  12.049  1.00  0.00    -0.000 C 
BRANCH  15  16
ATOM     16  C   UNL     1       2.951  41.357  11.744  1.00  0.00    -0.000 C 
BRANCH  16  17
ATOM     17  C   UNL     1       3.118  40.093  12.594  1.00  0.00    -0.003 C 
ATOM     18  C   UNL     1       4.568  39.913  13.036  1.00  0.00     0.004 C 
ENDBRANCH  16  17
ENDBRANCH  15  16
ENDBRANCH  14  15
ENDBRANCH  13  14
ENDBRANCH  12  13
ENDBRANCH  11  12
ENDBRANCH   1  11
TORSDOF 14
ENDMDL
MODEL 5
REMARK VINA RESULT:    -4.885      3.813      6.076
REMARK INTER + INTRA:         -10.584
REMARK INTER:                  -8.792
REMARK INTRA:                  -1.792
REMARK UNBOUND:                -1.702
REMARK SMILES CCCCCCCCCCCCCCCC(=O)[O-]
REMARK SMILES IDX 9 1 10 2 11 3 12 4 13 5 14 6 15 7 16 8 17 9 18 10 8 11 7 12
REMARK SMILES IDX 6 13 5 14 4 15 3 16 2 17 1 18
REMARK H PARENT
REMARK Flexibility Score: inf
ROOT
ATOM      1  C   UNL     1       2.840  42.929   9.437  1.00  0.00     0.000 C 
ENDROOT
BRANCH   1   2
ATOM      2  C   UNL     1       1.602  43.724   9.004  1.00  0.00     0.000 C 
BRANCH   2   3
ATOM      3  C   UNL     1       0.942  44.411  10.209  1.00  0.00     0.000 C 
BRANCH   3   4
ATOM      4  C   UNL     1       0.499  45.851   9.903  1.00  0.00     0.000 C 
BRANCH   4   5
ATOM      5  C   UNL     1      -0.245  45.969   8.564  1.00  0.00     0.000 C 
BRANCH   5   6
ATOM      6  C   UNL     1       0.398  47.034   7.669  1.00  0.00     0.006 C 
BRANCH   6   7
ATOM      7  C   UNL     1       1.716  47.534   8.269  1.00  0.00     0.053 C 
BRANCH   7   8
ATOM      8  C   UNL     1       2.129  48.822   7.631  1.00  0.00     0.041 C 
ATOM      9  O   UNL     1       3.275  48.938   7.121  1.00  0.00    -0.550 OA
ATOM     10  O   UNL     1       1.234  49.881   7.560  1.00  0.00    -0.550 OA
ENDBRANCH   7   8
ENDBRANCH   6   7
ENDBRANCH   5   6
ENDBRANCH   4   5
ENDBRANCH   3   4
ENDBRANCH   2   3
ENDBRANCH   1   2
BRANCH   1  11
ATOM     11  C   UNL     1       2.692  42.422  10.880  1.00  0.00     0.000 C 
BRANCH  11  12
ATOM     12  C   UNL     1       3.927  42.723  11.743  1.00  0.00    -0.000 C 
BRANCH  12  13
ATOM     13  C   UNL     1       3.969  44.178  12.232  1.00  0.00    -0.000 C 
BRANCH  13  14
ATOM     14  C   UNL     1       4.891  45.028  11.349  1.00  0.00    -0.000 C 
BRANCH  14  15
ATOM     15  C   UNL     1       4.121  46.185  10.701  1.00  0.00    -0.000 C 
BRANCH  15  16
ATOM     16  C   UNL     1       4.776  46.612   9.383  1.00  0.00    -0.000 C 
BRANCH  16  17
ATOM     17  C   UNL     1       6.169  47.205   9.627  1.00  0.00    -0.003 C 
ATOM     18  C   UNL     1       6.263  48.631   9.091  1.00  0.00     0.004 C 
ENDBRANCH  16  17
ENDBRANCH  15  16
ENDBRANCH  14  15
ENDBRANCH  13  14
ENDBRANCH  12  13
ENDBRANCH  11  12
ENDBRANCH   1  11
TORSDOF 14
ENDMDL
MODEL 6
REMARK VINA RESULT:    -4.755      0.963      3.172
REMARK INTER + INTRA:         -10.349
REMARK INTER:                  -8.647
REMARK INTRA:                  -1.702
REMARK UNBOUND:                -1.702
REMARK SMILES CCCCCCCCCCCCCCCC(=O)[O-]
REMARK SMILES IDX 9 1 10 2 11 3 12 4 13 5 14 6 15 7 16 8 17 9 18 10 8 11 7 12
REMARK SMILES IDX 6 13 5 14 4 15 3 16 2 17 1 18
REMARK H PARENT
REMARK Flexibility Score: inf
ROOT
ATOM      1  C   UNL     1       4.223  45.500  11.003  1.00  0.00     0.000 C 
ENDROOT
BRANCH   1   2
ATOM      2  C   UNL     1       2.700  45.681  11.011  1.00  0.00     0.000 C 
BRANCH   2   3
ATOM      3  C   UNL     1       1.990  44.343  11.271  1.00  0.00     0.000 C 
BRANCH   3   4
ATOM      4  C   UNL     1       2.007  43.414  10.046  1.00  0.00     0.000 C 
BRANCH   4   5
ATOM      5  C   UNL     1       2.936  42.205  10.234  1.00  0.00     0.000 C 
BRANCH   5   6
ATOM      6  C   UNL     1       3.309  42.023  11.709  1.00  0.00     0.006 C 
BRANCH   6   7
ATOM      7  C   UNL     1       2.726  40.722  12.269  1.00  0.00     0.053 C 
BRANCH   7   8
ATOM      8  C   UNL     1       3.820  39.788  12.678  1.00  0.00     0.041 C 
ATOM      9  O   UNL     1       4.968  40.235  12.944  1.00  0.00    -0.550 OA
ATOM     10  O   UNL     1       3.563  38.430  12.807  1.00  0.00    -0.550 OA
ENDBRANCH   7   8
ENDBRANCH   6   7
ENDBRANCH   5   6
ENDBRANCH   4   5
ENDBRANCH   3   4
ENDBRANCH   2   3
ENDBRANCH   1   2
BRANCH   1  11
ATOM     11  C   UNL     1       4.877  46.383   9.930  1.00  0.00     0.000 C 
BRANCH  11  12
ATOM     12  C   UNL     1       3.981  46.579   8.697  1.00  0.00    -0.000 C 
BRANCH  12  13
ATOM     13  C   UNL     1       4.070  47.999   8.118  1.00  0.00    -0.000 C 
BRANCH  13  14
ATOM     14  C   UNL     1       2.718  48.446   7.550  1.00  0.00    -0.000 C 
BRANCH  14  15
ATOM     15  C   UNL     1       1.560  47.953   8.428  1.00  0.00    -0.000 C 
BRANCH  15  16
ATOM     16  C   UNL     1       0.488  47.254   7.585  1.00  0.00    -0.000 C 
BRANCH  16  17
ATOM     17  C   UNL     1       0.069  45.924   8.221  1.00  0.00    -0.003 C 
ATOM     18  C   UNL     1       0.019  44.807   7.181  1.00  0.00     0.004 C 
ENDBRANCH  16  17
ENDBRANCH  15  16
ENDBRANCH  14  15
ENDBRANCH  13  14
ENDBRANCH  12  13
ENDBRANCH  11  12
ENDBRANCH   1  11
TORSDOF 14
ENDMDL
MODEL 7
REMARK VINA RESULT:    -4.744      1.379      2.608
REMARK INTER + INTRA:         -10.329
REMARK INTER:                  -8.662
REMARK INTRA:                  -1.667
REMARK UNBOUND:                -1.702
REMARK SMILES CCCCCCCCCCCCCCCC(=O)[O-]
REMARK SMILES IDX 9 1 10 2 11 3 12 4 13 5 14 6 15 7 16 8 17 9 18 10 8 11 7 12
REMARK SMILES IDX 6 13 5 14 4 15 3 16 2 17 1 18
REMARK H PARENT
REMARK Flexibility Score: inf
ROOT
ATOM      1  C   UNL     1       0.025  47.410   7.824  1.00  0.00     0.000 C 
ENDROOT
BRANCH   1   2
ATOM      2  C   UNL     1      -0.486  46.140   8.515  1.00  0.00     0.000 C 
BRANCH   2   3
ATOM      3  C   UNL     1       0.300  44.906   8.045  1.00  0.00     0.000 C 
BRANCH   3   4
ATOM      4  C   UNL     1       1.199  44.320   9.146  1.00  0.00     0.000 C 
BRANCH   4   5
ATOM      5  C   UNL     1       0.780  44.770  10.554  1.00  0.00     0.000 C 
BRANCH   5   6
ATOM      6  C   UNL     1       1.822  44.351  11.598  1.00  0.00     0.006 C 
BRANCH   6   7
ATOM      7  C   UNL     1       2.067  42.840  11.556  1.00  0.00     0.053 C 
BRANCH   7   8
ATOM      8  C   UNL     1       3.521  42.549  11.358  1.00  0.00     0.041 C 
ATOM      9  O   UNL     1       4.123  41.770  12.144  1.00  0.00    -0.550 OA
ATOM     10  O   UNL     1       4.201  43.103  10.282  1.00  0.00    -0.550 OA
ENDBRANCH   7   8
ENDBRANCH   6   7
ENDBRANCH   5   6
ENDBRANCH   4   5
ENDBRANCH   3   4
ENDBRANCH   2   3
ENDBRANCH   1   2
BRANCH   1  11
ATOM     11  C   UNL     1       1.196  48.028   8.604  1.00  0.00     0.000 C 
BRANCH  11  12
ATOM     12  C   UNL     1       2.350  48.467   7.689  1.00  0.00    -0.000 C 
BRANCH  12  13
ATOM     13  C   UNL     1       3.659  47.721   7.988  1.00  0.00    -0.000 C 
BRANCH  13  14
ATOM     14  C   UNL     1       3.528  46.867   9.254  1.00  0.00    -0.000 C 
BRANCH  14  15
ATOM     15  C   UNL     1       4.794  46.959  10.115  1.00  0.00    -0.000 C 
BRANCH  15  16
ATOM     16  C   UNL     1       6.043  47.126   9.242  1.00  0.00    -0.000 C 
BRANCH  16  17
ATOM     17  C   UNL     1       6.873  48.333   9.693  1.00  0.00    -0.003 C 
ATOM     18  C   UNL     1       6.509  49.582   8.895  1.00  0.00     0.004 C 
ENDBRANCH  16  17
ENDBRANCH  15  16
ENDBRANCH  14  15
ENDBRANCH  13  14
ENDBRANCH  12  13
ENDBRANCH  11  12
ENDBRANCH   1  11
TORSDOF 14
ENDMDL
MODEL 8
REMARK VINA RESULT:    -4.744      3.215      5.777
REMARK INTER + INTRA:         -10.329
REMARK INTER:                  -8.442
REMARK INTRA:                  -1.887
REMARK UNBOUND:                -1.702
REMARK SMILES CCCCCCCCCCCCCCCC(=O)[O-]
REMARK SMILES IDX 9 1 10 2 11 3 12 4 13 5 14 6 15 7 16 8 17 9 18 10 8 11 7 12
REMARK SMILES IDX 6 13 5 14 4 15 3 16 2 17 1 18
REMARK H PARENT
REMARK Flexibility Score: inf
ROOT
ATOM      1  C   UNL     1      -1.124  47.225   8.921  1.00  0.00     0.000 C 
ENDROOT
BRANCH   1   2
ATOM      2  C   UNL     1      -0.114  48.208   8.315  1.00  0.00     0.000 C 
BRANCH   2   3
ATOM      3  C   UNL     1       1.023  47.457   7.604  1.00  0.00     0.000 C 
BRANCH   3   4
ATOM      4  C   UNL     1       2.408  48.052   7.907  1.00  0.00     0.000 C 
BRANCH   4   5
ATOM      5  C   UNL     1       3.107  47.354   9.083  1.00  0.00     0.000 C 
BRANCH   5   6
ATOM      6  C   UNL     1       4.473  46.800   8.660  1.00  0.00     0.006 C 
BRANCH   6   7
ATOM      7  C   UNL     1       5.491  46.916   9.799  1.00  0.00     0.053 C 
BRANCH   7   8
ATOM      8  C   UNL     1       6.635  47.789   9.393  1.00  0.00     0.041 C 
ATOM      9  O   UNL     1       7.811  47.338   9.406  1.00  0.00    -0.550 OA
ATOM     10  O   UNL     1       6.401  49.086   8.959  1.00  0.00    -0.550 OA
ENDBRANCH   7   8
ENDBRANCH   6   7
ENDBRANCH   5   6
ENDBRANCH   4   5
ENDBRANCH   3   4
ENDBRANCH   2   3
ENDBRANCH   1   2
BRANCH   1  11
ATOM     11  C   UNL     1      -0.515  45.821   9.054  1.00  0.00     0.000 C 
BRANCH  11  12
ATOM     12  C   UNL     1      -0.143  45.472  10.503  1.00  0.00    -0.000 C 
BRANCH  12  13
ATOM     13  C   UNL     1       1.187  44.711  10.607  1.00  0.00    -0.000 C 
BRANCH  13  14
ATOM     14  C   UNL     1       1.488  43.952   9.309  1.00  0.00    -0.000 C 
BRANCH  14  15
ATOM     15  C   UNL     1       2.669  42.991   9.493  1.00  0.00    -0.000 C 
BRANCH  15  16
ATOM     16  C   UNL     1       3.759  43.619  10.370  1.00  0.00    -0.000 C 
BRANCH  16  17
ATOM     17  C   UNL     1       3.999  42.783  11.632  1.00  0.00    -0.003 C 
ATOM     18  C   UNL     1       3.149  41.516  11.625  1.00  0.00     0.004 C 
ENDBRANCH  16  17
ENDBRANCH  15  16
ENDBRANCH  14  15
ENDBRANCH  13  14
ENDBRANCH  12  13
ENDBRANCH  11  12
ENDBRANCH   1  11
TORSDOF 14
ENDMDL
MODEL 9
REMARK VINA RESULT:    -4.664      3.588      5.324
REMARK INTER + INTRA:         -10.184
REMARK INTER:                  -8.504
REMARK INTRA:                  -1.680
REMARK UNBOUND:                -1.702
REMARK SMILES CCCCCCCCCCCCCCCC(=O)[O-]
REMARK SMILES IDX 9 1 10 2 11 3 12 4 13 5 14 6 15 7 16 8 17 9 18 10 8 11 7 12
REMARK SMILES IDX 6 13 5 14 4 15 3 16 2 17 1 18
REMARK H PARENT
REMARK Flexibility Score: inf
ROOT
ATOM      1  C   UNL     1       4.278  43.112  11.290  1.00  0.00     0.000 C 
ENDROOT
BRANCH   1   2
ATOM      2  C   UNL     1       2.917  42.510  10.920  1.00  0.00     0.000 C 
BRANCH   2   3
ATOM      3  C   UNL     1       2.641  42.663   9.416  1.00  0.00     0.000 C 
BRANCH   3   4
ATOM      4  C   UNL     1       1.518  43.670   9.117  1.00  0.00     0.000 C 
BRANCH   4   5
ATOM      5  C   UNL     1       0.983  44.352  10.386  1.00  0.00     0.000 C 
BRANCH   5   6
ATOM      6  C   UNL     1       0.212  45.631  10.039  1.00  0.00     0.006 C 
BRANCH   6   7
ATOM      7  C   UNL     1       0.130  45.831   8.523  1.00  0.00     0.053 C 
BRANCH   7   8
ATOM      8  C   UNL     1       0.105  47.287   8.186  1.00  0.00     0.041 C 
ATOM      9  O   UNL     1      -0.658  47.714   7.279  1.00  0.00    -0.550 OA
ATOM     10  O   UNL     1       0.891  48.181   8.901  1.00  0.00    -0.550 OA
ENDBRANCH   7   8
ENDBRANCH   6   7
ENDBRANCH   5   6
ENDBRANCH   4   5
ENDBRANCH   3   4
ENDBRANCH   2   3
ENDBRANCH   1   2
BRANCH   1  11
ATOM     11  C   UNL     1       4.110  44.318  12.227  1.00  0.00     0.000 C 
BRANCH  11  12
ATOM     12  C   UNL     1       4.065  45.654  11.470  1.00  0.00    -0.000 C 
BRANCH  12  13
ATOM     13  C   UNL     1       4.543  45.528  10.016  1.00  0.00    -0.000 C 
BRANCH  13  14
ATOM     14  C   UNL     1       3.897  46.601   9.131  1.00  0.00    -0.000 C 
BRANCH  14  15
ATOM     15  C   UNL     1       4.876  47.747   8.850  1.00  0.00    -0.000 C 
BRANCH  15  16
ATOM     16  C   UNL     1       6.269  47.431   9.406  1.00  0.00    -0.000 C 
BRANCH  16  17
ATOM     17  C   UNL     1       7.125  48.700   9.502  1.00  0.00    -0.003 C 
ATOM     18  C   UNL     1       6.456  49.871   8.787  1.00  0.00     0.004 C 
ENDBRANCH  16  17
ENDBRANCH  15  16
ENDBRANCH  14  15
ENDBRANCH  13  14
ENDBRANCH  12  13
ENDBRANCH  11  12
ENDBRANCH   1  11
TORSDOF 14
ENDMDL
