MODEL 1
REMARK VINA RESULT:    -3.335      0.000      0.000
REMARK INTER + INTRA:          -6.428
REMARK INTER:                  -5.284
REMARK INTRA:                  -1.144
REMARK UNBOUND:                -1.144
REMARK SMILES CCCCCCCCCCCC(=O)[O-]
REMARK SMILES IDX 7 1 8 2 9 3 10 4 11 5 12 6 13 7 14 8 6 9 5 10 4 11 3 12 2 13
REMARK SMILES IDX 1 14
REMARK H PARENT
REMARK Flexibility Score: inf
ROOT
ATOM      1  C   UNL     1       5.033  25.007   8.057  1.00  0.00     0.000 C 
ENDROOT
BRANCH   1   2
ATOM      2  C   UNL     1       4.255  24.005   8.928  1.00  0.00     0.000 C 
BRANCH   2   3
ATOM      3  C   UNL     1       4.549  24.174  10.428  1.00  0.00     0.000 C 
BRANCH   3   4
ATOM      4  C   UNL     1       3.269  24.245  11.279  1.00  0.00     0.006 C 
BRANCH   4   5
ATOM      5  C   UNL     1       3.045  25.644  11.870  1.00  0.00     0.053 C 
BRANCH   5   6
ATOM      6  C   UNL     1       3.423  25.702  13.318  1.00  0.00     0.041 C 
ATOM      7  O   UNL     1       4.621  25.535  13.668  1.00  0.00    -0.550 OA
ATOM      8  O   UNL     1       2.457  25.971  14.280  1.00  0.00    -0.550 OA
ENDBRANCH   5   6
ENDBRANCH   4   5
ENDBRANCH   3   4
ENDBRANCH   2   3
ENDBRANCH   1   2
BRANCH   1   9
ATOM      9  C   UNL     1       4.483  25.091   6.623  1.00  0.00     0.000 C 
BRANCH   9  10
ATOM     10  C   UNL     1       3.043  24.569   6.506  1.00  0.00    -0.000 C 
BRANCH  10  11
ATOM     11  C   UNL     1       2.103  25.667   5.986  1.00  0.00    -0.000 C 
BRANCH  11  12
ATOM     12  C   UNL     1       0.852  25.840   6.861  1.00  0.00    -0.000 C 
BRANCH  12  13
ATOM     13  C   UNL     1       1.180  25.882   8.361  1.00  0.00    -0.003 C 
ATOM     14  C   UNL     1       0.324  24.886   9.137  1.00  0.00     0.004 C 
ENDBRANCH  12  13
ENDBRANCH  11  12
ENDBRANCH  10  11
ENDBRANCH   9  10
ENDBRANCH   1   9
TORSDOF 10
ENDMDL
MODEL 2
REMARK VINA RESULT:    -3.299      1.184      1.590
REMARK INTER + INTRA:          -6.371
REMARK INTER:                  -5.381
REMARK INTRA:                  -0.991
REMARK UNBOUND:                -1.144
REMARK SMILES CCCCCCCCCCCC(=O)[O-]
REMARK SMILES IDX 7 1 8 2 9 3 10 4 11 5 12 6 13 7 14 8 6 9 5 10 4 11 3 12 2 13
REMARK SMILES IDX 1 14
REMARK H PARENT
REMARK Flexibility Score: inf
ROOT
ATOM      1  C   UNL     1       4.735  24.921   8.891  1.00  0.00     0.000 C 
ENDROOT
BRANCH   1   2
ATOM      2  C   UNL     1       3.858  24.259   9.967  1.00  0.00     0.000 C 
BRANCH   2   3
ATOM      3  C   UNL     1       3.150  25.287  10.866  1.00  0.00     0.000 C 
BRANCH   3   4
ATOM      4  C   UNL     1       3.445  25.071  12.360  1.00  0.00     0.006 C 
BRANCH   4   5
ATOM      5  C   UNL     1       2.865  26.193  13.232  1.00  0.00     0.053 C 
BRANCH   5   6
ATOM      6  C   UNL     1       1.795  25.688  14.151  1.00  0.00     0.041 C 
ATOM      7  O   UNL     1       2.069  25.401  15.346  1.00  0.00    -0.550 OA
ATOM      8  O   UNL     1       0.489  25.560  13.695  1.00  0.00    -0.550 OA
ENDBRANCH   5   6
ENDBRANCH   4   5
ENDBRANCH   3   4
ENDBRANCH   2   3
ENDBRANCH   1   2
BRANCH   1   9
ATOM      9  C   UNL     1       4.720  24.149   7.561  1.00  0.00     0.000 C 
BRANCH   9  10
ATOM     10  C   UNL     1       4.259  25.012   6.377  1.00  0.00    -0.000 C 
BRANCH  10  11
ATOM     11  C   UNL     1       2.840  24.621   5.935  1.00  0.00    -0.000 C 
BRANCH  11  12
ATOM     12  C   UNL     1       1.818  25.746   6.160  1.00  0.00    -0.000 C 
BRANCH  12  13
ATOM     13  C   UNL     1       1.301  25.796   7.606  1.00  0.00    -0.003 C 
ATOM     14  C   UNL     1       0.699  24.457   8.019  1.00  0.00     0.004 C 
ENDBRANCH  12  13
ENDBRANCH  11  12
ENDBRANCH  10  11
ENDBRANCH   9  10
ENDBRANCH   1   9
TORSDOF 10
ENDMDL
MODEL 3
REMARK VINA RESULT:    -3.133      1.252      2.633
REMARK INTER + INTRA:          -6.109
REMARK INTER:                  -5.163
REMARK INTRA:                  -0.946
REMARK UNBOUND:                -1.144
REMARK SMILES CCCCCCCCCCCC(=O)[O-]
REMARK SMILES IDX 7 1 8 2 9 3 10 4 11 5 12 6 13 7 14 8 6 9 5 10 4 11 3 12 2 13
REMARK SMILES IDX 1 14
REMARK H PARENT
REMARK Flexibility Score: inf
ROOT
ATOM      1  C   UNL     1       2.915  25.373  10.061  1.00  0.00     0.000 C 
ENDROOT
BRANCH   1   2
ATOM      2  C   UNL     1       1.573  24.841  10.594  1.00  0.00     0.000 C 
BRANCH   2   3
ATOM      3  C   UNL     1       1.722  24.102  11.935  1.00  0.00     0.000 C 
BRANCH   3   4
ATOM      4  C   UNL     1       1.188  24.918  13.124  1.00  0.00     0.006 C 
BRANCH   4   5
ATOM      5  C   UNL     1       2.250  25.112  14.216  1.00  0.00     0.053 C 
BRANCH   5   6
ATOM      6  C   UNL     1       3.513  25.699  13.665  1.00  0.00     0.041 C 
ATOM      7  O   UNL     1       3.523  26.876  13.217  1.00  0.00    -0.550 OA
ATOM      8  O   UNL     1       4.687  24.957  13.673  1.00  0.00    -0.550 OA
ENDBRANCH   5   6
ENDBRANCH   4   5
ENDBRANCH   3   4
ENDBRANCH   2   3
ENDBRANCH   1   2
BRANCH   1   9
ATOM      9  C   UNL     1       3.644  24.350   9.174  1.00  0.00     0.000 C 
BRANCH   9  10
ATOM     10  C   UNL     1       4.848  24.954   8.436  1.00  0.00    -0.000 C 
BRANCH  10  11
ATOM     11  C   UNL     1       4.558  25.084   6.932  1.00  0.00    -0.000 C 
BRANCH  11  12
ATOM     12  C   UNL     1       3.177  24.531   6.544  1.00  0.00    -0.000 C 
BRANCH  12  13
ATOM     13  C   UNL     1       2.257  25.605   5.946  1.00  0.00    -0.003 C 
ATOM     14  C   UNL     1       1.032  25.830   6.827  1.00  0.00     0.004 C 
ENDBRANCH  12  13
ENDBRANCH  11  12
ENDBRANCH  10  11
ENDBRANCH   9  10
ENDBRANCH   1   9
TORSDOF 10
ENDMDL
MODEL 4
REMARK VINA RESULT:    -3.103      0.985      3.030
REMARK INTER + INTRA:          -6.060
REMARK INTER:                  -4.662
REMARK INTRA:                  -1.398
REMARK UNBOUND:                -1.144
REMARK SMILES CCCCCCCCCCCC(=O)[O-]
REMARK SMILES IDX 7 1 8 2 9 3 10 4 11 5 12 6 13 7 14 8 6 9 5 10 4 11 3 12 2 13
REMARK SMILES IDX 1 14
REMARK H PARENT
REMARK Flexibility Score: inf
ROOT
ATOM      1  C   UNL     1       0.498  25.736   8.672  1.00  0.00     0.000 C 
ENDROOT
BRANCH   1   2
ATOM      2  C   UNL     1       0.713  24.240   8.962  1.00  0.00     0.000 C 
BRANCH   2   3
ATOM      3  C   UNL     1       1.683  23.999  10.131  1.00  0.00     0.000 C 
BRANCH   3   4
ATOM      4  C   UNL     1       2.438  25.273  10.547  1.00  0.00     0.006 C 
BRANCH   4   5
ATOM      5  C   UNL     1       3.664  24.960  11.417  1.00  0.00     0.053 C 
BRANCH   5   6
ATOM      6  C   UNL     1       3.511  25.499  12.807  1.00  0.00     0.041 C 
ATOM      7  O   UNL     1       2.412  25.986  13.181  1.00  0.00    -0.550 OA
ATOM      8  O   UNL     1       4.575  25.435  13.698  1.00  0.00    -0.550 OA
ENDBRANCH   5   6
ENDBRANCH   4   5
ENDBRANCH   3   4
ENDBRANCH   2   3
ENDBRANCH   1   2
BRANCH   1   9
ATOM      9  C   UNL     1       0.826  26.107   7.216  1.00  0.00     0.000 C 
BRANCH   9  10
ATOM     10  C   UNL     1       1.507  24.963   6.450  1.00  0.00    -0.000 C 
BRANCH  10  11
ATOM     11  C   UNL     1       2.990  25.280   6.197  1.00  0.00    -0.000 C 
BRANCH  11  12
ATOM     12  C   UNL     1       3.899  24.054   6.384  1.00  0.00    -0.000 C 
BRANCH  12  13
ATOM     13  C   UNL     1       4.585  24.031   7.758  1.00  0.00    -0.003 C 
ATOM     14  C   UNL     1       5.257  25.368   8.057  1.00  0.00     0.004 C 
ENDBRANCH  12  13
ENDBRANCH  11  12
ENDBRANCH  10  11
ENDBRANCH   9  10
ENDBRANCH   1   9
TORSDOF 10
ENDMDL
MODEL 5
REMARK VINA RESULT:    -3.066      1.457      2.725
REMARK INTER + INTRA:          -6.002
REMARK INTER:                  -5.260
REMARK INTRA:                  -0.742
REMARK UNBOUND:                -1.144
REMARK SMILES CCCCCCCCCCCC(=O)[O-]
REMARK SMILES IDX 7 1 8 2 9 3 10 4 11 5 12 6 13 7 14 8 6 9 5 10 4 11 3 12 2 13
REMARK SMILES IDX 1 14
REMARK H PARENT
REMARK Flexibility Score: inf
ROOT
ATOM      1  C   UNL     1       3.254  24.996  10.062  1.00  0.00     0.000 C 
ENDROOT
BRANCH   1   2
ATOM      2  C   UNL     1       3.060  24.242  11.390  1.00  0.00     0.000 C 
BRANCH   2   3
ATOM      3  C   UNL     1       4.266  24.388  12.333  1.00  0.00     0.000 C 
BRANCH   3   4
ATOM      4  C   UNL     1       3.881  24.974  13.702  1.00  0.00     0.006 C 
BRANCH   4   5
ATOM      5  C   UNL     1       2.735  24.195  14.363  1.00  0.00     0.053 C 
BRANCH   5   6
ATOM      6  C   UNL     1       1.576  25.084  14.693  1.00  0.00     0.041 C 
ATOM      7  O   UNL     1       1.040  25.032  15.831  1.00  0.00    -0.550 OA
ATOM      8  O   UNL     1       1.105  25.992  13.752  1.00  0.00    -0.550 OA
ENDBRANCH   5   6
ENDBRANCH   4   5
ENDBRANCH   3   4
ENDBRANCH   2   3
ENDBRANCH   1   2
BRANCH   1   9
ATOM      9  C   UNL     1       4.034  24.172   9.025  1.00  0.00     0.000 C 
BRANCH   9  10
ATOM     10  C   UNL     1       5.082  25.004   8.270  1.00  0.00    -0.000 C 
BRANCH  10  11
ATOM     11  C   UNL     1       4.634  25.263   6.823  1.00  0.00    -0.000 C 
BRANCH  11  12
ATOM     12  C   UNL     1       3.383  24.457   6.435  1.00  0.00    -0.000 C 
BRANCH  12  13
ATOM     13  C   UNL     1       2.272  25.338   5.845  1.00  0.00    -0.003 C 
ATOM     14  C   UNL     1       1.353  25.869   6.942  1.00  0.00     0.004 C 
ENDBRANCH  12  13
ENDBRANCH  11  12
ENDBRANCH  10  11
ENDBRANCH   9  10
ENDBRANCH   1   9
TORSDOF 10
ENDMDL
MODEL 6
REMARK VINA RESULT:    -3.056      2.797      5.348
REMARK INTER + INTRA:          -5.987
REMARK INTER:                  -5.336
REMARK INTRA:                  -0.651
REMARK UNBOUND:                -1.144
REMARK SMILES CCCCCCCCCCCC(=O)[O-]
REMARK SMILES IDX 7 1 8 2 9 3 10 4 11 5 12 6 13 7 14 8 6 9 5 10 4 11 3 12 2 13
REMARK SMILES IDX 1 14
REMARK H PARENT
REMARK Flexibility Score: inf
ROOT
ATOM      1  C   UNL     1       4.211  24.464   9.183  1.00  0.00     0.000 C 
ENDROOT
BRANCH   1   2
ATOM      2  C   UNL     1       5.099  25.056   8.074  1.00  0.00     0.000 C 
BRANCH   2   3
ATOM      3  C   UNL     1       4.398  25.075   6.705  1.00  0.00     0.000 C 
BRANCH   3   4
ATOM      4  C   UNL     1       2.920  24.657   6.790  1.00  0.00     0.006 C 
BRANCH   4   5
ATOM      5  C   UNL     1       1.977  25.766   6.301  1.00  0.00     0.053 C 
BRANCH   5   6
ATOM      6  C   UNL     1       0.908  26.070   7.305  1.00  0.00     0.041 C 
ATOM      7  O   UNL     1       1.154  25.990   8.537  1.00  0.00    -0.550 OA
ATOM      8  O   UNL     1      -0.353  26.469   6.879  1.00  0.00    -0.550 OA
ENDBRANCH   5   6
ENDBRANCH   4   5
ENDBRANCH   3   4
ENDBRANCH   2   3
ENDBRANCH   1   2
BRANCH   1   9
ATOM      9  C   UNL     1       5.015  24.073  10.435  1.00  0.00     0.000 C 
BRANCH   9  10
ATOM     10  C   UNL     1       4.219  24.262  11.736  1.00  0.00    -0.000 C 
BRANCH  10  11
ATOM     11  C   UNL     1       3.016  25.191  11.511  1.00  0.00    -0.000 C 
BRANCH  11  12
ATOM     12  C   UNL     1       2.012  25.154  12.674  1.00  0.00    -0.000 C 
BRANCH  12  13
ATOM     13  C   UNL     1       2.597  25.716  13.978  1.00  0.00    -0.003 C 
ATOM     14  C   UNL     1       1.770  25.277  15.183  1.00  0.00     0.004 C 
ENDBRANCH  12  13
ENDBRANCH  11  12
ENDBRANCH  10  11
ENDBRANCH   9  10
ENDBRANCH   1   9
TORSDOF 10
ENDMDL
MODEL 7
REMARK VINA RESULT:    -2.970      3.571      5.560
REMARK INTER + INTRA:          -5.850
REMARK INTER:                  -4.841
REMARK INTRA:                  -1.010
REMARK UNBOUND:                -1.144
REMARK SMILES CCCCCCCCCCCC(=O)[O-]
REMARK SMILES IDX 7 1 8 2 9 3 10 4 11 5 12 6 13 7 14 8 6 9 5 10 4 11 3 12 2 13
REMARK SMILES IDX 1 14
REMARK H PARENT
REMARK Flexibility Score: inf
ROOT
ATOM      1  C   UNL     1       4.698  25.337   7.110  1.00  0.00     0.000 C 
ENDROOT
BRANCH   1   2
ATOM      2  C   UNL     1       4.353  24.084   6.286  1.00  0.00     0.000 C 
BRANCH   2   3
ATOM      3  C   UNL     1       2.940  24.146   5.681  1.00  0.00     0.000 C 
BRANCH   3   4
ATOM      4  C   UNL     1       2.260  25.508   5.900  1.00  0.00     0.006 C 
BRANCH   4   5
ATOM      5  C   UNL     1       0.975  25.386   6.731  1.00  0.00     0.053 C 
BRANCH   5   6
ATOM      6  C   UNL     1      -0.180  26.077   6.073  1.00  0.00     0.041 C 
ATOM      7  O   UNL     1      -0.769  27.024   6.658  1.00  0.00    -0.550 OA
ATOM      8  O   UNL     1      -0.588  25.693   4.802  1.00  0.00    -0.550 OA
ENDBRANCH   5   6
ENDBRANCH   4   5
ENDBRANCH   3   4
ENDBRANCH   2   3
ENDBRANCH   1   2
BRANCH   1   9
ATOM      9  C   UNL     1       5.090  25.001   8.558  1.00  0.00     0.000 C 
BRANCH   9  10
ATOM     10  C   UNL     1       4.236  23.875   9.160  1.00  0.00    -0.000 C 
BRANCH  10  11
ATOM     11  C   UNL     1       2.887  24.419   9.658  1.00  0.00    -0.000 C 
BRANCH  11  12
ATOM     12  C   UNL     1       3.046  25.600  10.629  1.00  0.00    -0.000 C 
BRANCH  12  13
ATOM     13  C   UNL     1       3.441  25.153  12.045  1.00  0.00    -0.003 C 
ATOM     14  C   UNL     1       3.107  26.229  13.073  1.00  0.00     0.004 C 
ENDBRANCH  12  13
ENDBRANCH  11  12
ENDBRANCH  10  11
ENDBRANCH   9  10
ENDBRANCH   1   9
TORSDOF 10
ENDMDL
MODEL 8
REMARK VINA RESULT:    -2.807      3.459      6.020
REMARK INTER + INTRA:          -5.592
REMARK INTER:                  -4.837
REMARK INTRA:                  -0.754
REMARK UNBOUND:                -1.144
REMARK SMILES CCCCCCCCCCCC(=O)[O-]
REMARK SMILES IDX 7 1 8 2 9 3 10 4 11 5 12 6 13 7 14 8 6 9 5 10 4 11 3 12 2 13
REMARK SMILES IDX 1 14
REMARK H PARENT
REMARK Flexibility Score: inf
ROOT
ATOM      1  C   UNL     1       3.023  24.112   9.669  1.00  0.00     0.000 C 
ENDROOT
BRANCH   1   2
ATOM      2  C   UNL     1       4.227  24.922   9.158  1.00  0.00     0.000 C 
BRANCH   2   3
ATOM      3  C   UNL     1       4.808  24.356   7.852  1.00  0.00     0.000 C 
BRANCH   3   4
ATOM      4  C   UNL     1       4.351  25.141   6.611  1.00  0.00     0.006 C 
BRANCH   4   5
ATOM      5  C   UNL     1       3.189  24.448   5.885  1.00  0.00     0.053 C 
BRANCH   5   6
ATOM      6  C   UNL     1       1.952  25.293   5.880  1.00  0.00     0.041 C 
ATOM      7  O   UNL     1       1.655  25.988   6.888  1.00  0.00    -0.550 OA
ATOM      8  O   UNL     1       1.142  25.335   4.752  1.00  0.00    -0.550 OA
ENDBRANCH   5   6
ENDBRANCH   4   5
ENDBRANCH   3   4
ENDBRANCH   2   3
ENDBRANCH   1   2
BRANCH   1   9
ATOM      9  C   UNL     1       2.697  24.406  11.143  1.00  0.00     0.000 C 
BRANCH   9  10
ATOM     10  C   UNL     1       2.966  25.868  11.531  1.00  0.00    -0.000 C 
BRANCH  10  11
ATOM     11  C   UNL     1       3.510  25.962  12.965  1.00  0.00    -0.000 C 
BRANCH  11  12
ATOM     12  C   UNL     1       2.968  24.850  13.879  1.00  0.00    -0.000 C 
BRANCH  12  13
ATOM     13  C   UNL     1       1.873  25.350  14.833  1.00  0.00    -0.003 C 
ATOM     14  C   UNL     1       0.484  25.035  14.286  1.00  0.00     0.004 C 
ENDBRANCH  12  13
ENDBRANCH  11  12
ENDBRANCH  10  11
ENDBRANCH   9  10
ENDBRANCH   1   9
TORSDOF 10
ENDMDL
MODEL 9
REMARK VINA RESULT:    -2.802      1.937      4.073
REMARK INTER + INTRA:          -5.584
REMARK INTER:                  -4.685
REMARK INTRA:                  -0.900
REMARK UNBOUND:                -1.144
REMARK SMILES CCCCCCCCCCCC(=O)[O-]
REMARK SMILES IDX 7 1 8 2 9 3 10 4 11 5 12 6 13 7 14 8 6 9 5 10 4 11 3 12 2 13
REMARK SMILES IDX 1 14
REMARK H PARENT
REMARK Flexibility Score: inf
ROOT
ATOM      1  C   UNL     1       0.653  24.770  11.327  1.00  0.00     0.000 C 
ENDROOT
BRANCH   1   2
ATOM      2  C   UNL     1       0.132  24.004  12.555  1.00  0.00     0.000 C 
BRANCH   2   3
ATOM      3  C   UNL     1       0.176  24.848  13.840  1.00  0.00     0.000 C 
BRANCH   3   4
ATOM      4  C   UNL     1       1.367  24.488  14.745  1.00  0.00     0.006 C 
BRANCH   4   5
ATOM      5  C   UNL     1       2.384  25.634  14.845  1.00  0.00     0.053 C 
BRANCH   5   6
ATOM      6  C   UNL     1       3.337  25.635  13.689  1.00  0.00     0.041 C 
ATOM      7  O   UNL     1       4.049  24.623  13.454  1.00  0.00    -0.550 OA
ATOM      8  O   UNL     1       3.417  26.742  12.854  1.00  0.00    -0.550 OA
ENDBRANCH   5   6
ENDBRANCH   4   5
ENDBRANCH   3   4
ENDBRANCH   2   3
ENDBRANCH   1   2
BRANCH   1   9
ATOM      9  C   UNL     1       1.832  24.056  10.644  1.00  0.00     0.000 C 
BRANCH   9  10
ATOM     10  C   UNL     1       2.683  25.003   9.784  1.00  0.00    -0.000 C 
BRANCH  10  11
ATOM     11  C   UNL     1       4.167  24.607   9.840  1.00  0.00    -0.000 C 
BRANCH  11  12
ATOM     12  C   UNL     1       4.938  25.015   8.574  1.00  0.00    -0.000 C 
BRANCH  12  13
ATOM     13  C   UNL     1       4.531  24.192   7.342  1.00  0.00    -0.003 C 
ATOM     14  C   UNL     1       3.803  25.059   6.320  1.00  0.00     0.004 C 
ENDBRANCH  12  13
ENDBRANCH  11  12
ENDBRANCH  10  11
ENDBRANCH   9  10
ENDBRANCH   1   9
TORSDOF 10
ENDMDL
