MODEL 1
REMARK VINA RESULT:    -4.638      0.000      0.000
REMARK INTER + INTRA:          -9.014
REMARK INTER:                  -8.435
REMARK INTRA:                  -0.579
REMARK UNBOUND:                -0.579
REMARK SMILES CCCCCCCCCCCCCCCC(=O)[O-]
REMARK SMILES IDX 9 1 10 2 11 3 12 4 13 5 14 6 15 7 16 8 17 9 18 10 8 11 7 12
REMARK SMILES IDX 6 13 5 14 4 15 3 16 2 17 1 18
REMARK H PARENT
REMARK Flexibility Score: inf
ROOT
ATOM      1  C   UNL     1      -5.408 -13.382   0.045  1.00  0.00     0.000 C 
ENDROOT
BRANCH   1   2
ATOM      2  C   UNL     1      -5.655 -12.043   0.764  1.00  0.00     0.000 C 
BRANCH   2   3
ATOM      3  C   UNL     1      -6.707 -11.169   0.060  1.00  0.00     0.000 C 
BRANCH   3   4
ATOM      4  C   UNL     1      -6.718  -9.723   0.583  1.00  0.00     0.000 C 
BRANCH   4   5
ATOM      5  C   UNL     1      -7.274  -8.726  -0.444  1.00  0.00     0.000 C 
BRANCH   5   6
ATOM      6  C   UNL     1      -8.152  -7.670   0.238  1.00  0.00     0.006 C 
BRANCH   6   7
ATOM      7  C   UNL     1      -9.634  -8.051   0.157  1.00  0.00     0.053 C 
BRANCH   7   8
ATOM      8  C   UNL     1     -10.496  -6.869   0.467  1.00  0.00     0.041 C 
ATOM      9  O   UNL     1     -11.549  -6.662  -0.192  1.00  0.00    -0.550 OA
ATOM     10  O   UNL     1     -10.163  -6.022   1.518  1.00  0.00    -0.550 OA
ENDBRANCH   7   8
ENDBRANCH   6   7
ENDBRANCH   5   6
ENDBRANCH   4   5
ENDBRANCH   3   4
ENDBRANCH   2   3
ENDBRANCH   1   2
BRANCH   1  11
ATOM     11  C   UNL     1      -6.495 -14.454   0.258  1.00  0.00     0.000 C 
BRANCH  11  12
ATOM     12  C   UNL     1      -6.716 -14.797   1.741  1.00  0.00    -0.000 C 
BRANCH  12  13
ATOM     13  C   UNL     1      -6.126 -16.165   2.122  1.00  0.00    -0.000 C 
BRANCH  13  14
ATOM     14  C   UNL     1      -5.854 -17.057   0.897  1.00  0.00    -0.000 C 
BRANCH  14  15
ATOM     15  C   UNL     1      -6.785 -18.277   0.834  1.00  0.00    -0.000 C 
BRANCH  15  16
ATOM     16  C   UNL     1      -6.431 -19.232  -0.319  1.00  0.00    -0.000 C 
BRANCH  16  17
ATOM     17  C   UNL     1      -7.457 -20.363  -0.485  1.00  0.00    -0.003 C 
ATOM     18  C   UNL     1      -7.312 -21.107  -1.813  1.00  0.00     0.004 C 
ENDBRANCH  16  17
ENDBRANCH  15  16
ENDBRANCH  14  15
ENDBRANCH  13  14
ENDBRANCH  12  13
ENDBRANCH  11  12
ENDBRANCH   1  11
TORSDOF 14
ENDMDL
MODEL 2
REMARK VINA RESULT:    -4.583      3.001      4.875
REMARK INTER + INTRA:          -8.913
REMARK INTER:                  -7.388
REMARK INTRA:                  -1.525
REMARK UNBOUND:                -0.579
REMARK SMILES CCCCCCCCCCCCCCCC(=O)[O-]
REMARK SMILES IDX 9 1 10 2 11 3 12 4 13 5 14 6 15 7 16 8 17 9 18 10 8 11 7 12
REMARK SMILES IDX 6 13 5 14 4 15 3 16 2 17 1 18
REMARK H PARENT
REMARK Flexibility Score: inf
ROOT
ATOM      1  C   UNL     1      -7.780  -8.201  -0.232  1.00  0.00     0.000 C 
ENDROOT
BRANCH   1   2
ATOM      2  C   UNL     1      -6.564  -7.262  -0.337  1.00  0.00     0.000 C 
BRANCH   2   3
ATOM      3  C   UNL     1      -6.310  -6.462   0.951  1.00  0.00     0.000 C 
BRANCH   3   4
ATOM      4  C   UNL     1      -7.539  -6.427   1.875  1.00  0.00     0.000 C 
BRANCH   4   5
ATOM      5  C   UNL     1      -8.030  -4.999   2.155  1.00  0.00     0.000 C 
BRANCH   5   6
ATOM      6  C   UNL     1      -9.561  -4.930   2.124  1.00  0.00     0.006 C 
BRANCH   6   7
ATOM      7  C   UNL     1     -10.164  -6.264   1.673  1.00  0.00     0.053 C 
BRANCH   7   8
ATOM      8  C   UNL     1     -10.985  -6.076   0.437  1.00  0.00     0.041 C 
ATOM      9  O   UNL     1     -11.252  -4.917   0.023  1.00  0.00    -0.550 OA
ATOM     10  O   UNL     1     -11.415  -7.182  -0.286  1.00  0.00    -0.550 OA
ENDBRANCH   7   8
ENDBRANCH   6   7
ENDBRANCH   5   6
ENDBRANCH   4   5
ENDBRANCH   3   4
ENDBRANCH   2   3
ENDBRANCH   1   2
BRANCH   1  11
ATOM     11  C   UNL     1      -7.450  -9.706  -0.222  1.00  0.00     0.000 C 
BRANCH  11  12
ATOM     12  C   UNL     1      -6.703 -10.149   1.048  1.00  0.00    -0.000 C 
BRANCH  12  13
ATOM     13  C   UNL     1      -5.303 -10.705   0.742  1.00  0.00    -0.000 C 
BRANCH  13  14
ATOM     14  C   UNL     1      -5.317 -11.774  -0.365  1.00  0.00    -0.000 C 
BRANCH  14  15
ATOM     15  C   UNL     1      -5.095 -13.194   0.178  1.00  0.00    -0.000 C 
BRANCH  15  16
ATOM     16  C   UNL     1      -6.409 -13.977   0.338  1.00  0.00    -0.000 C 
BRANCH  16  17
ATOM     17  C   UNL     1      -6.583 -14.554   1.752  1.00  0.00    -0.003 C 
ATOM     18  C   UNL     1      -6.995 -13.497   2.777  1.00  0.00     0.004 C 
ENDBRANCH  16  17
ENDBRANCH  15  16
ENDBRANCH  14  15
ENDBRANCH  13  14
ENDBRANCH  12  13
ENDBRANCH  11  12
ENDBRANCH   1  11
TORSDOF 14
ENDMDL
MODEL 3
REMARK VINA RESULT:    -4.520     20.030     22.944
REMARK INTER + INTRA:          -8.798
REMARK INTER:                  -7.012
REMARK INTRA:                  -1.786
REMARK UNBOUND:                -0.579
REMARK SMILES CCCCCCCCCCCCCCCC(=O)[O-]
REMARK SMILES IDX 9 1 10 2 11 3 12 4 13 5 14 6 15 7 16 8 17 9 18 10 8 11 7 12
REMARK SMILES IDX 6 13 5 14 4 15 3 16 2 17 1 18
REMARK H PARENT
REMARK Flexibility Score: inf
ROOT
ATOM      1  C   UNL     1     -22.902  -4.796 -13.090  1.00  0.00     0.000 C 
ENDROOT
BRANCH   1   2
ATOM      2  C   UNL     1     -23.397  -4.314 -14.467  1.00  0.00     0.000 C 
BRANCH   2   3
ATOM      3  C   UNL     1     -23.246  -5.379 -15.565  1.00  0.00     0.000 C 
BRANCH   3   4
ATOM      4  C   UNL     1     -24.595  -5.978 -15.997  1.00  0.00     0.000 C 
BRANCH   4   5
ATOM      5  C   UNL     1     -24.437  -7.195 -16.919  1.00  0.00     0.000 C 
BRANCH   5   6
ATOM      6  C   UNL     1     -23.245  -8.058 -16.487  1.00  0.00     0.006 C 
BRANCH   6   7
ATOM      7  C   UNL     1     -23.362  -9.479 -17.049  1.00  0.00     0.053 C 
BRANCH   7   8
ATOM      8  C   UNL     1     -23.591 -10.461 -15.944  1.00  0.00     0.041 C 
ATOM      9  O   UNL     1     -22.615 -10.945 -15.313  1.00  0.00    -0.550 OA
ATOM     10  O   UNL     1     -24.887 -10.805 -15.579  1.00  0.00    -0.550 OA
ENDBRANCH   7   8
ENDBRANCH   6   7
ENDBRANCH   5   6
ENDBRANCH   4   5
ENDBRANCH   3   4
ENDBRANCH   2   3
ENDBRANCH   1   2
BRANCH   1  11
ATOM     11  C   UNL     1     -22.094  -3.762 -12.283  1.00  0.00     0.000 C 
BRANCH  11  12
ATOM     12  C   UNL     1     -20.788  -3.344 -12.981  1.00  0.00    -0.000 C 
BRANCH  12  13
ATOM     13  C   UNL     1     -19.849  -4.536 -13.235  1.00  0.00    -0.000 C 
BRANCH  13  14
ATOM     14  C   UNL     1     -19.442  -4.667 -14.713  1.00  0.00    -0.000 C 
BRANCH  14  15
ATOM     15  C   UNL     1     -19.816  -6.031 -15.312  1.00  0.00    -0.000 C 
BRANCH  15  16
ATOM     16  C   UNL     1     -19.438  -7.204 -14.391  1.00  0.00    -0.000 C 
BRANCH  16  17
ATOM     17  C   UNL     1     -20.656  -8.043 -13.975  1.00  0.00    -0.003 C 
ATOM     18  C   UNL     1     -20.270  -9.316 -13.220  1.00  0.00     0.004 C 
ENDBRANCH  16  17
ENDBRANCH  15  16
ENDBRANCH  14  15
ENDBRANCH  13  14
ENDBRANCH  12  13
ENDBRANCH  11  12
ENDBRANCH   1  11
TORSDOF 14
ENDMDL
MODEL 4
REMARK VINA RESULT:    -4.490      4.108      9.184
REMARK INTER + INTRA:          -8.745
REMARK INTER:                  -7.053
REMARK INTRA:                  -1.692
REMARK UNBOUND:                -0.579
REMARK SMILES CCCCCCCCCCCCCCCC(=O)[O-]
REMARK SMILES IDX 9 1 10 2 11 3 12 4 13 5 14 6 15 7 16 8 17 9 18 10 8 11 7 12
REMARK SMILES IDX 6 13 5 14 4 15 3 16 2 17 1 18
REMARK H PARENT
REMARK Flexibility Score: inf
ROOT
ATOM      1  C   UNL     1      -7.550  -9.340   0.086  1.00  0.00     0.000 C 
ENDROOT
BRANCH   1   2
ATOM      2  C   UNL     1      -6.706 -10.581  -0.258  1.00  0.00     0.000 C 
BRANCH   2   3
ATOM      3  C   UNL     1      -5.592 -10.852   0.768  1.00  0.00     0.000 C 
BRANCH   3   4
ATOM      4  C   UNL     1      -6.020 -10.514   2.206  1.00  0.00     0.000 C 
BRANCH   4   5
ATOM      5  C   UNL     1      -6.778 -11.665   2.884  1.00  0.00     0.000 C 
BRANCH   5   6
ATOM      6  C   UNL     1      -6.062 -13.002   2.658  1.00  0.00     0.006 C 
BRANCH   6   7
ATOM      7  C   UNL     1      -7.067 -14.126   2.388  1.00  0.00     0.053 C 
BRANCH   7   8
ATOM      8  C   UNL     1      -6.749 -14.817   1.100  1.00  0.00     0.041 C 
ATOM      9  O   UNL     1      -6.434 -14.146   0.082  1.00  0.00    -0.550 OA
ATOM     10  O   UNL     1      -6.751 -16.205   1.037  1.00  0.00    -0.550 OA
ENDBRANCH   7   8
ENDBRANCH   6   7
ENDBRANCH   5   6
ENDBRANCH   4   5
ENDBRANCH   3   4
ENDBRANCH   2   3
ENDBRANCH   1   2
BRANCH   1  11
ATOM     11  C   UNL     1      -7.137  -8.042  -0.635  1.00  0.00     0.000 C 
BRANCH  11  12
ATOM     12  C   UNL     1      -6.666  -6.943   0.333  1.00  0.00    -0.000 C 
BRANCH  12  13
ATOM     13  C   UNL     1      -7.406  -6.989   1.680  1.00  0.00    -0.000 C 
BRANCH  13  14
ATOM     14  C   UNL     1      -8.161  -5.683   1.988  1.00  0.00    -0.000 C 
BRANCH  14  15
ATOM     15  C   UNL     1      -9.678  -5.892   2.116  1.00  0.00    -0.000 C 
BRANCH  15  16
ATOM     16  C   UNL     1     -10.148  -7.213   1.483  1.00  0.00    -0.000 C 
BRANCH  16  17
ATOM     17  C   UNL     1     -10.886  -6.999   0.152  1.00  0.00    -0.003 C 
ATOM     18  C   UNL     1     -11.340  -5.552  -0.048  1.00  0.00     0.004 C 
ENDBRANCH  16  17
ENDBRANCH  15  16
ENDBRANCH  14  15
ENDBRANCH  13  14
ENDBRANCH  12  13
ENDBRANCH  11  12
ENDBRANCH   1  11
TORSDOF 14
ENDMDL
MODEL 5
REMARK VINA RESULT:    -4.442      4.893     10.080
REMARK INTER + INTRA:          -8.656
REMARK INTER:                  -8.015
REMARK INTRA:                  -0.641
REMARK UNBOUND:                -0.579
REMARK SMILES CCCCCCCCCCCCCCCC(=O)[O-]
REMARK SMILES IDX 9 1 10 2 11 3 12 4 13 5 14 6 15 7 16 8 17 9 18 10 8 11 7 12
REMARK SMILES IDX 6 13 5 14 4 15 3 16 2 17 1 18
REMARK H PARENT
REMARK Flexibility Score: inf
ROOT
ATOM      1  C   UNL     1      -5.989 -12.797   0.196  1.00  0.00     0.000 C 
ENDROOT
BRANCH   1   2
ATOM      2  C   UNL     1      -6.504 -12.905   1.643  1.00  0.00     0.000 C 
BRANCH   2   3
ATOM      3  C   UNL     1      -6.785 -14.354   2.073  1.00  0.00     0.000 C 
BRANCH   3   4
ATOM      4  C   UNL     1      -6.430 -15.374   0.978  1.00  0.00     0.000 C 
BRANCH   4   5
ATOM      5  C   UNL     1      -5.746 -16.630   1.537  1.00  0.00     0.000 C 
BRANCH   5   6
ATOM      6  C   UNL     1      -5.737 -17.758   0.499  1.00  0.00     0.006 C 
BRANCH   6   7
ATOM      7  C   UNL     1      -7.011 -18.604   0.595  1.00  0.00     0.053 C 
BRANCH   7   8
ATOM      8  C   UNL     1      -6.935 -19.772  -0.337  1.00  0.00     0.041 C 
ATOM      9  O   UNL     1      -6.125 -19.762  -1.301  1.00  0.00    -0.550 OA
ATOM     10  O   UNL     1      -7.726 -20.892  -0.113  1.00  0.00    -0.550 OA
ENDBRANCH   7   8
ENDBRANCH   6   7
ENDBRANCH   5   6
ENDBRANCH   4   5
ENDBRANCH   3   4
ENDBRANCH   2   3
ENDBRANCH   1   2
BRANCH   1  11
ATOM     11  C   UNL     1      -5.691 -11.366  -0.292  1.00  0.00     0.000 C 
BRANCH  11  12
ATOM     12  C   UNL     1      -6.450 -10.291   0.505  1.00  0.00    -0.000 C 
BRANCH  12  13
ATOM     13  C   UNL     1      -7.333  -9.408  -0.391  1.00  0.00    -0.000 C 
BRANCH  13  14
ATOM     14  C   UNL     1      -6.948  -7.919  -0.323  1.00  0.00    -0.000 C 
BRANCH  14  15
ATOM     15  C   UNL     1      -8.024  -7.059   0.357  1.00  0.00    -0.000 C 
BRANCH  15  16
ATOM     16  C   UNL     1      -9.362  -7.802   0.515  1.00  0.00    -0.000 C 
BRANCH  16  17
ATOM     17  C   UNL     1     -10.470  -6.905   1.089  1.00  0.00    -0.003 C 
ATOM     18  C   UNL     1     -11.306  -6.226   0.003  1.00  0.00     0.004 C 
ENDBRANCH  16  17
ENDBRANCH  15  16
ENDBRANCH  14  15
ENDBRANCH  13  14
ENDBRANCH  12  13
ENDBRANCH  11  12
ENDBRANCH   1  11
TORSDOF 14
ENDMDL
MODEL 6
REMARK VINA RESULT:    -4.382      4.978      9.896
REMARK INTER + INTRA:          -8.548
REMARK INTER:                  -6.484
REMARK INTRA:                  -2.064
REMARK UNBOUND:                -0.579
REMARK SMILES CCCCCCCCCCCCCCCC(=O)[O-]
REMARK SMILES IDX 9 1 10 2 11 3 12 4 13 5 14 6 15 7 16 8 17 9 18 10 8 11 7 12
REMARK SMILES IDX 6 13 5 14 4 15 3 16 2 17 1 18
REMARK H PARENT
REMARK Flexibility Score: inf
ROOT
ATOM      1  C   UNL     1     -10.151  -7.633   0.113  1.00  0.00     0.000 C 
ENDROOT
BRANCH   1   2
ATOM      2  C   UNL     1      -8.842  -8.405   0.361  1.00  0.00     0.000 C 
BRANCH   2   3
ATOM      3  C   UNL     1      -7.605  -7.685  -0.205  1.00  0.00     0.000 C 
BRANCH   3   4
ATOM      4  C   UNL     1      -6.364  -7.856   0.687  1.00  0.00     0.000 C 
BRANCH   4   5
ATOM      5  C   UNL     1      -6.653  -8.676   1.953  1.00  0.00     0.000 C 
BRANCH   5   6
ATOM      6  C   UNL     1      -5.805  -9.953   1.984  1.00  0.00     0.006 C 
BRANCH   6   7
ATOM      7  C   UNL     1      -6.646 -11.180   1.618  1.00  0.00     0.053 C 
BRANCH   7   8
ATOM      8  C   UNL     1      -6.241 -11.712   0.280  1.00  0.00     0.041 C 
ATOM      9  O   UNL     1      -6.180 -10.943  -0.716  1.00  0.00    -0.550 OA
ATOM     10  O   UNL     1      -5.884 -13.048   0.141  1.00  0.00    -0.550 OA
ENDBRANCH   7   8
ENDBRANCH   6   7
ENDBRANCH   5   6
ENDBRANCH   4   5
ENDBRANCH   3   4
ENDBRANCH   2   3
ENDBRANCH   1   2
BRANCH   1  11
ATOM     11  C   UNL     1     -10.371  -6.403   1.014  1.00  0.00     0.000 C 
BRANCH  11  12
ATOM     12  C   UNL     1     -10.155  -6.707   2.506  1.00  0.00    -0.000 C 
BRANCH  12  13
ATOM     13  C   UNL     1      -8.955  -5.946   3.094  1.00  0.00    -0.000 C 
BRANCH  13  14
ATOM     14  C   UNL     1      -8.393  -4.887   2.129  1.00  0.00    -0.000 C 
BRANCH  14  15
ATOM     15  C   UNL     1      -6.886  -4.653   2.319  1.00  0.00    -0.000 C 
BRANCH  15  16
ATOM     16  C   UNL     1      -6.472  -3.201   2.022  1.00  0.00    -0.000 C 
BRANCH  16  17
ATOM     17  C   UNL     1      -5.520  -3.094   0.820  1.00  0.00    -0.003 C 
ATOM     18  C   UNL     1      -5.159  -4.456   0.226  1.00  0.00     0.004 C 
ENDBRANCH  16  17
ENDBRANCH  15  16
ENDBRANCH  14  15
ENDBRANCH  13  14
ENDBRANCH  12  13
ENDBRANCH  11  12
ENDBRANCH   1  11
TORSDOF 14
ENDMDL
MODEL 7
REMARK VINA RESULT:    -4.300      1.104      2.069
REMARK INTER + INTRA:          -8.398
REMARK INTER:                  -7.688
REMARK INTRA:                  -0.711
REMARK UNBOUND:                -0.579
REMARK SMILES CCCCCCCCCCCCCCCC(=O)[O-]
REMARK SMILES IDX 9 1 10 2 11 3 12 4 13 5 14 6 15 7 16 8 17 9 18 10 8 11 7 12
REMARK SMILES IDX 6 13 5 14 4 15 3 16 2 17 1 18
REMARK H PARENT
REMARK Flexibility Score: inf
ROOT
ATOM      1  C   UNL     1      -6.317 -11.056  -0.357  1.00  0.00     0.000 C 
ENDROOT
BRANCH   1   2
ATOM      2  C   UNL     1      -6.960  -9.969   0.524  1.00  0.00     0.000 C 
BRANCH   2   3
ATOM      3  C   UNL     1      -5.928  -9.017   1.151  1.00  0.00     0.000 C 
BRANCH   3   4
ATOM      4  C   UNL     1      -6.205  -7.542   0.816  1.00  0.00     0.000 C 
BRANCH   4   5
ATOM      5  C   UNL     1      -7.462  -7.357  -0.048  1.00  0.00     0.000 C 
BRANCH   5   6
ATOM      6  C   UNL     1      -8.605  -6.747   0.772  1.00  0.00     0.006 C 
BRANCH   6   7
ATOM      7  C   UNL     1      -9.945  -7.401   0.421  1.00  0.00     0.053 C 
BRANCH   7   8
ATOM      8  C   UNL     1     -11.079  -6.483   0.750  1.00  0.00     0.041 C 
ATOM      9  O   UNL     1     -11.661  -6.569   1.864  1.00  0.00    -0.550 OA
ATOM     10  O   UNL     1     -11.461  -5.498  -0.153  1.00  0.00    -0.550 OA
ENDBRANCH   7   8
ENDBRANCH   6   7
ENDBRANCH   5   6
ENDBRANCH   4   5
ENDBRANCH   3   4
ENDBRANCH   2   3
ENDBRANCH   1   2
BRANCH   1  11
ATOM     11  C   UNL     1      -5.928 -12.354   0.377  1.00  0.00     0.000 C 
BRANCH  11  12
ATOM     12  C   UNL     1      -6.583 -12.477   1.763  1.00  0.00    -0.000 C 
BRANCH  12  13
ATOM     13  C   UNL     1      -6.583 -13.923   2.287  1.00  0.00    -0.000 C 
BRANCH  13  14
ATOM     14  C   UNL     1      -5.841 -14.894   1.351  1.00  0.00    -0.000 C 
BRANCH  14  15
ATOM     15  C   UNL     1      -6.706 -16.094   0.936  1.00  0.00    -0.000 C 
BRANCH  15  16
ATOM     16  C   UNL     1      -5.865 -17.325   0.555  1.00  0.00    -0.000 C 
BRANCH  16  17
ATOM     17  C   UNL     1      -6.674 -18.630   0.607  1.00  0.00    -0.003 C 
ATOM     18  C   UNL     1      -6.331 -19.586  -0.537  1.00  0.00     0.004 C 
ENDBRANCH  16  17
ENDBRANCH  15  16
ENDBRANCH  14  15
ENDBRANCH  13  14
ENDBRANCH  12  13
ENDBRANCH  11  12
ENDBRANCH   1  11
TORSDOF 14
ENDMDL
MODEL 8
REMARK VINA RESULT:    -4.296     19.961     22.527
REMARK INTER + INTRA:          -8.391
REMARK INTER:                  -6.789
REMARK INTRA:                  -1.602
REMARK UNBOUND:                -0.579
REMARK SMILES CCCCCCCCCCCCCCCC(=O)[O-]
REMARK SMILES IDX 9 1 10 2 11 3 12 4 13 5 14 6 15 7 16 8 17 9 18 10 8 11 7 12
REMARK SMILES IDX 6 13 5 14 4 15 3 16 2 17 1 18
REMARK H PARENT
REMARK Flexibility Score: inf
ROOT
ATOM      1  C   UNL     1     -22.924  -4.504 -12.515  1.00  0.00     0.000 C 
ENDROOT
BRANCH   1   2
ATOM      2  C   UNL     1     -21.924  -3.432 -12.043  1.00  0.00     0.000 C 
BRANCH   2   3
ATOM      3  C   UNL     1     -20.647  -3.384 -12.899  1.00  0.00     0.000 C 
BRANCH   3   4
ATOM      4  C   UNL     1     -20.026  -4.775 -13.108  1.00  0.00     0.000 C 
BRANCH   4   5
ATOM      5  C   UNL     1     -19.650  -5.042 -14.573  1.00  0.00     0.000 C 
BRANCH   5   6
ATOM      6  C   UNL     1     -19.583  -6.548 -14.857  1.00  0.00     0.006 C 
BRANCH   6   7
ATOM      7  C   UNL     1     -20.540  -7.323 -13.945  1.00  0.00     0.053 C 
BRANCH   7   8
ATOM      8  C   UNL     1     -20.086  -8.740 -13.793  1.00  0.00     0.041 C 
ATOM      9  O   UNL     1     -20.928  -9.675 -13.764  1.00  0.00    -0.550 OA
ATOM     10  O   UNL     1     -18.729  -9.032 -13.733  1.00  0.00    -0.550 OA
ENDBRANCH   7   8
ENDBRANCH   6   7
ENDBRANCH   5   6
ENDBRANCH   4   5
ENDBRANCH   3   4
ENDBRANCH   2   3
ENDBRANCH   1   2
BRANCH   1  11
ATOM     11  C   UNL     1     -23.676  -4.173 -13.819  1.00  0.00     0.000 C 
BRANCH  11  12
ATOM     12  C   UNL     1     -23.265  -5.076 -14.994  1.00  0.00    -0.000 C 
BRANCH  12  13
ATOM     13  C   UNL     1     -24.475  -5.611 -15.777  1.00  0.00    -0.000 C 
BRANCH  13  14
ATOM     14  C   UNL     1     -24.068  -6.515 -16.955  1.00  0.00    -0.000 C 
BRANCH  14  15
ATOM     15  C   UNL     1     -24.312  -8.005 -16.670  1.00  0.00    -0.000 C 
BRANCH  15  16
ATOM     16  C   UNL     1     -23.005  -8.786 -16.449  1.00  0.00    -0.000 C 
BRANCH  16  17
ATOM     17  C   UNL     1     -23.195 -10.304 -16.587  1.00  0.00    -0.003 C 
ATOM     18  C   UNL     1     -24.331 -10.842 -15.716  1.00  0.00     0.004 C 
ENDBRANCH  16  17
ENDBRANCH  15  16
ENDBRANCH  14  15
ENDBRANCH  13  14
ENDBRANCH  12  13
ENDBRANCH  11  12
ENDBRANCH   1  11
TORSDOF 14
ENDMDL
MODEL 9
REMARK VINA RESULT:    -4.159     19.792     22.189
REMARK INTER + INTRA:          -8.142
REMARK INTER:                  -5.754
REMARK INTRA:                  -2.388
REMARK UNBOUND:                -0.579
REMARK SMILES CCCCCCCCCCCCCCCC(=O)[O-]
REMARK SMILES IDX 9 1 10 2 11 3 12 4 13 5 14 6 15 7 16 8 17 9 18 10 8 11 7 12
REMARK SMILES IDX 6 13 5 14 4 15 3 16 2 17 1 18
REMARK H PARENT
REMARK Flexibility Score: inf
ROOT
ATOM      1  C   UNL     1     -21.087  -5.919 -16.947  1.00  0.00     0.000 C 
ENDROOT
BRANCH   1   2
ATOM      2  C   UNL     1     -21.994  -7.102 -16.559  1.00  0.00     0.000 C 
BRANCH   2   3
ATOM      3  C   UNL     1     -23.349  -6.655 -15.985  1.00  0.00     0.000 C 
BRANCH   3   4
ATOM      4  C   UNL     1     -23.546  -5.131 -16.057  1.00  0.00     0.000 C 
BRANCH   4   5
ATOM      5  C   UNL     1     -23.819  -4.503 -14.682  1.00  0.00     0.000 C 
BRANCH   5   6
ATOM      6  C   UNL     1     -23.462  -3.012 -14.680  1.00  0.00     0.006 C 
BRANCH   6   7
ATOM      7  C   UNL     1     -23.434  -2.454 -13.254  1.00  0.00     0.053 C 
BRANCH   7   8
ATOM      8  C   UNL     1     -22.179  -1.674 -13.021  1.00  0.00     0.041 C 
ATOM      9  O   UNL     1     -21.818  -1.390 -11.849  1.00  0.00    -0.550 OA
ATOM     10  O   UNL     1     -21.381  -1.303 -14.097  1.00  0.00    -0.550 OA
ENDBRANCH   7   8
ENDBRANCH   6   7
ENDBRANCH   5   6
ENDBRANCH   4   5
ENDBRANCH   3   4
ENDBRANCH   2   3
ENDBRANCH   1   2
BRANCH   1  11
ATOM     11  C   UNL     1     -19.882  -5.681 -16.017  1.00  0.00     0.000 C 
BRANCH  11  12
ATOM     12  C   UNL     1     -20.025  -4.407 -15.166  1.00  0.00    -0.000 C 
BRANCH  12  13
ATOM     13  C   UNL     1     -19.474  -4.586 -13.742  1.00  0.00    -0.000 C 
BRANCH  13  14
ATOM     14  C   UNL     1     -20.580  -4.866 -12.708  1.00  0.00    -0.000 C 
BRANCH  14  15
ATOM     15  C   UNL     1     -21.320  -6.186 -12.974  1.00  0.00    -0.000 C 
BRANCH  15  16
ATOM     16  C   UNL     1     -20.548  -7.411 -12.456  1.00  0.00    -0.000 C 
BRANCH  16  17
ATOM     17  C   UNL     1     -19.955  -8.259 -13.594  1.00  0.00    -0.003 C 
ATOM     18  C   UNL     1     -20.582  -9.650 -13.685  1.00  0.00     0.004 C 
ENDBRANCH  16  17
ENDBRANCH  15  16
ENDBRANCH  14  15
ENDBRANCH  13  14
ENDBRANCH  12  13
ENDBRANCH  11  12
ENDBRANCH   1  11
TORSDOF 14
ENDMDL
