MODEL 1
REMARK VINA RESULT:    11.717      0.000      0.000
REMARK INTER + INTRA:          20.575
REMARK INTER:                  21.306
REMARK INTRA:                  -0.731
REMARK UNBOUND:                -0.731
REMARK SMILES CCCCCCCCCCCCCCCC(=O)[O-]
REMARK SMILES IDX 9 1 10 2 11 3 12 4 13 5 14 6 15 7 16 8 17 9 18 10 8 11 7 12
REMARK SMILES IDX 6 13 5 14 4 15 3 16 2 17 1 18
REMARK H PARENT
REMARK Flexibility Score: inf
ROOT
ATOM      1  C   UNL     1      18.207  17.386  19.662  1.00  0.00     0.000 C 
ENDROOT
BRANCH   1   2
ATOM      2  C   UNL     1      18.604  18.169  20.919  1.00  0.00     0.000 C 
BRANCH   2   3
ATOM      3  C   UNL     1      20.129  18.316  21.019  1.00  0.00     0.000 C 
BRANCH   3   4
ATOM      4  C   UNL     1      20.866  17.750  19.792  1.00  0.00     0.000 C 
BRANCH   4   5
ATOM      5  C   UNL     1      22.400  17.919  19.814  1.00  0.00     0.000 C 
BRANCH   5   6
ATOM      6  C   UNL     1      23.032  17.942  21.218  1.00  0.00     0.006 C 
BRANCH   6   7
ATOM      7  C   UNL     1      24.556  18.114  21.182  1.00  0.00     0.053 C 
BRANCH   7   8
ATOM      8  C   UNL     1      25.088  18.333  22.562  1.00  0.00     0.041 C 
ATOM      9  O   UNL     1      25.072  19.484  23.072  1.00  0.00    -0.550 OA
ATOM     10  O   UNL     1      25.558  17.257  23.305  1.00  0.00    -0.550 OA
ENDBRANCH   7   8
ENDBRANCH   6   7
ENDBRANCH   5   6
ENDBRANCH   4   5
ENDBRANCH   3   4
ENDBRANCH   2   3
ENDBRANCH   1   2
BRANCH   1  11
ATOM     11  C   UNL     1      16.690  17.157  19.612  1.00  0.00     0.000 C 
BRANCH  11  12
ATOM     12  C   UNL     1      16.060  17.613  18.283  1.00  0.00    -0.000 C 
BRANCH  12  13
ATOM     13  C   UNL     1      16.987  17.521  17.055  1.00  0.00    -0.000 C 
BRANCH  13  14
ATOM     14  C   UNL     1      16.271  17.548  15.692  1.00  0.00    -0.000 C 
BRANCH  14  15
ATOM     15  C   UNL     1      17.108  16.920  14.567  1.00  0.00    -0.000 C 
BRANCH  15  16
ATOM     16  C   UNL     1      18.210  17.884  14.101  1.00  0.00    -0.000 C 
BRANCH  16  17
ATOM     17  C   UNL     1      17.738  19.344  14.053  1.00  0.00    -0.003 C 
ATOM     18  C   UNL     1      18.896  20.341  14.054  1.00  0.00     0.004 C 
ENDBRANCH  16  17
ENDBRANCH  15  16
ENDBRANCH  14  15
ENDBRANCH  13  14
ENDBRANCH  12  13
ENDBRANCH  11  12
ENDBRANCH   1  11
TORSDOF 14
ENDMDL
MODEL 2
REMARK VINA RESULT:    12.847      6.223      8.599
REMARK INTER + INTRA:          22.631
REMARK INTER:                  23.334
REMARK INTRA:                  -0.703
REMARK UNBOUND:                -0.731
REMARK SMILES CCCCCCCCCCCCCCCC(=O)[O-]
REMARK SMILES IDX 9 1 10 2 11 3 12 4 13 5 14 6 15 7 16 8 17 9 18 10 8 11 7 12
REMARK SMILES IDX 6 13 5 14 4 15 3 16 2 17 1 18
REMARK H PARENT
REMARK Flexibility Score: inf
ROOT
ATOM      1  C   UNL     1      14.990  14.274  20.636  1.00  0.00     0.000 C 
ENDROOT
BRANCH   1   2
ATOM      2  C   UNL     1      15.670  15.244  19.661  1.00  0.00     0.000 C 
BRANCH   2   3
ATOM      3  C   UNL     1      16.699  16.122  20.386  1.00  0.00     0.000 C 
BRANCH   3   4
ATOM      4  C   UNL     1      17.269  17.238  19.492  1.00  0.00     0.000 C 
BRANCH   4   5
ATOM      5  C   UNL     1      16.510  17.469  18.169  1.00  0.00     0.000 C 
BRANCH   5   6
ATOM      6  C   UNL     1      17.387  17.457  16.904  1.00  0.00     0.006 C 
BRANCH   6   7
ATOM      7  C   UNL     1      16.565  17.413  15.609  1.00  0.00     0.053 C 
BRANCH   7   8
ATOM      8  C   UNL     1      17.469  17.306  14.422  1.00  0.00     0.041 C 
ATOM      9  O   UNL     1      17.682  16.187  13.886  1.00  0.00    -0.550 OA
ATOM     10  O   UNL     1      18.037  18.450  13.876  1.00  0.00    -0.550 OA
ENDBRANCH   7   8
ENDBRANCH   6   7
ENDBRANCH   5   6
ENDBRANCH   4   5
ENDBRANCH   3   4
ENDBRANCH   2   3
ENDBRANCH   1   2
BRANCH   1  11
ATOM     11  C   UNL     1      14.579  12.977  19.925  1.00  0.00     0.000 C 
BRANCH  11  12
ATOM     12  C   UNL     1      15.442  11.770  20.337  1.00  0.00    -0.000 C 
BRANCH  12  13
ATOM     13  C   UNL     1      15.264  10.510  19.466  1.00  0.00    -0.000 C 
BRANCH  13  14
ATOM     14  C   UNL     1      16.035   9.268  19.948  1.00  0.00    -0.000 C 
BRANCH  14  15
ATOM     15  C   UNL     1      17.463   9.597  20.411  1.00  0.00    -0.000 C 
BRANCH  15  16
ATOM     16  C   UNL     1      18.491   9.197  19.341  1.00  0.00    -0.000 C 
BRANCH  16  17
ATOM     17  C   UNL     1      19.849   9.886  19.539  1.00  0.00    -0.003 C 
ATOM     18  C   UNL     1      19.846  10.878  20.702  1.00  0.00     0.004 C 
ENDBRANCH  16  17
ENDBRANCH  15  16
ENDBRANCH  14  15
ENDBRANCH  13  14
ENDBRANCH  12  13
ENDBRANCH  11  12
ENDBRANCH   1  11
TORSDOF 14
ENDMDL
MODEL 3
REMARK VINA RESULT:    12.941      2.211      2.551
REMARK INTER + INTRA:          22.801
REMARK INTER:                  23.565
REMARK INTRA:                  -0.764
REMARK UNBOUND:                -0.731
REMARK SMILES CCCCCCCCCCCCCCCC(=O)[O-]
REMARK SMILES IDX 9 1 10 2 11 3 12 4 13 5 14 6 15 7 16 8 17 9 18 10 8 11 7 12
REMARK SMILES IDX 6 13 5 14 4 15 3 16 2 17 1 18
REMARK H PARENT
REMARK Flexibility Score: inf
ROOT
ATOM      1  C   UNL     1      17.997  17.059  20.331  1.00  0.00     0.000 C 
ENDROOT
BRANCH   1   2
ATOM      2  C   UNL     1      19.372  17.618  19.949  1.00  0.00     0.000 C 
BRANCH   2   3
ATOM      3  C   UNL     1      19.892  18.586  21.022  1.00  0.00     0.000 C 
BRANCH   3   4
ATOM      4  C   UNL     1      19.380  18.245  22.433  1.00  0.00     0.000 C 
BRANCH   4   5
ATOM      5  C   UNL     1      20.304  18.685  23.588  1.00  0.00     0.000 C 
BRANCH   5   6
ATOM      6  C   UNL     1      21.045  20.015  23.359  1.00  0.00     0.006 C 
BRANCH   6   7
ATOM      7  C   UNL     1      21.487  20.684  24.666  1.00  0.00     0.053 C 
BRANCH   7   8
ATOM      8  C   UNL     1      22.977  20.801  24.715  1.00  0.00     0.041 C 
ATOM      9  O   UNL     1      23.577  21.590  23.938  1.00  0.00    -0.550 OA
ATOM     10  O   UNL     1      23.702  20.073  25.651  1.00  0.00    -0.550 OA
ENDBRANCH   7   8
ENDBRANCH   6   7
ENDBRANCH   5   6
ENDBRANCH   4   5
ENDBRANCH   3   4
ENDBRANCH   2   3
ENDBRANCH   1   2
BRANCH   1  11
ATOM     11  C   UNL     1      16.870  17.892  19.703  1.00  0.00     0.000 C 
BRANCH  11  12
ATOM     12  C   UNL     1      16.054  17.104  18.661  1.00  0.00    -0.000 C 
BRANCH  12  13
ATOM     13  C   UNL     1      15.938  17.775  17.278  1.00  0.00    -0.000 C 
BRANCH  13  14
ATOM     14  C   UNL     1      17.181  17.639  16.379  1.00  0.00    -0.000 C 
BRANCH  14  15
ATOM     15  C   UNL     1      16.844  17.133  14.969  1.00  0.00    -0.000 C 
BRANCH  15  16
ATOM     16  C   UNL     1      17.673  17.873  13.908  1.00  0.00    -0.000 C 
BRANCH  16  17
ATOM     17  C   UNL     1      18.561  18.971  14.513  1.00  0.00    -0.003 C 
ATOM     18  C   UNL     1      18.327  20.340  13.875  1.00  0.00     0.004 C 
ENDBRANCH  16  17
ENDBRANCH  15  16
ENDBRANCH  14  15
ENDBRANCH  13  14
ENDBRANCH  12  13
ENDBRANCH  11  12
ENDBRANCH   1  11
TORSDOF 14
ENDMDL
MODEL 4
REMARK VINA RESULT:    13.014      4.035      8.610
REMARK INTER + INTRA:          22.934
REMARK INTER:                  23.713
REMARK INTRA:                  -0.779
REMARK UNBOUND:                -0.731
REMARK SMILES CCCCCCCCCCCCCCCC(=O)[O-]
REMARK SMILES IDX 9 1 10 2 11 3 12 4 13 5 14 6 15 7 16 8 17 9 18 10 8 11 7 12
REMARK SMILES IDX 6 13 5 14 4 15 3 16 2 17 1 18
REMARK H PARENT
REMARK Flexibility Score: inf
ROOT
ATOM      1  C   UNL     1      19.799  18.293  20.824  1.00  0.00     0.000 C 
ENDROOT
BRANCH   1   2
ATOM      2  C   UNL     1      18.352  17.791  20.888  1.00  0.00     0.000 C 
BRANCH   2   3
ATOM      3  C   UNL     1      17.926  17.164  19.553  1.00  0.00     0.000 C 
BRANCH   3   4
ATOM      4  C   UNL     1      16.398  17.118  19.374  1.00  0.00     0.000 C 
BRANCH   4   5
ATOM      5  C   UNL     1      15.885  17.600  18.001  1.00  0.00     0.000 C 
BRANCH   5   6
ATOM      6  C   UNL     1      16.956  17.685  16.898  1.00  0.00     0.006 C 
BRANCH   6   7
ATOM      7  C   UNL     1      16.367  17.587  15.486  1.00  0.00     0.053 C 
BRANCH   7   8
ATOM      8  C   UNL     1      17.453  17.372  14.481  1.00  0.00     0.041 C 
ATOM      9  O   UNL     1      18.107  18.351  14.034  1.00  0.00    -0.550 OA
ATOM     10  O   UNL     1      17.779  16.084  14.074  1.00  0.00    -0.550 OA
ENDBRANCH   7   8
ENDBRANCH   6   7
ENDBRANCH   5   6
ENDBRANCH   4   5
ENDBRANCH   3   4
ENDBRANCH   2   3
ENDBRANCH   1   2
BRANCH   1  11
ATOM     11  C   UNL     1      20.488  17.825  19.534  1.00  0.00     0.000 C 
BRANCH  11  12
ATOM     12  C   UNL     1      22.020  17.966  19.589  1.00  0.00    -0.000 C 
BRANCH  12  13
ATOM     13  C   UNL     1      22.639  17.833  20.995  1.00  0.00    -0.000 C 
BRANCH  13  14
ATOM     14  C   UNL     1      24.162  18.045  21.060  1.00  0.00    -0.000 C 
BRANCH  14  15
ATOM     15  C   UNL     1      24.812  17.331  22.256  1.00  0.00    -0.000 C 
BRANCH  15  16
ATOM     16  C   UNL     1      25.152  18.331  23.372  1.00  0.00    -0.000 C 
BRANCH  16  17
ATOM     17  C   UNL     1      24.781  19.776  23.005  1.00  0.00    -0.003 C 
ATOM     18  C   UNL     1      23.775  20.394  23.975  1.00  0.00     0.004 C 
ENDBRANCH  16  17
ENDBRANCH  15  16
ENDBRANCH  14  15
ENDBRANCH  13  14
ENDBRANCH  12  13
ENDBRANCH  11  12
ENDBRANCH   1  11
TORSDOF 14
ENDMDL
MODEL 5
REMARK VINA RESULT:    13.078      5.405      7.053
REMARK INTER + INTRA:          23.051
REMARK INTER:                  23.693
REMARK INTRA:                  -0.642
REMARK UNBOUND:                -0.731
REMARK SMILES CCCCCCCCCCCCCCCC(=O)[O-]
REMARK SMILES IDX 9 1 10 2 11 3 12 4 13 5 14 6 15 7 16 8 17 9 18 10 8 11 7 12
REMARK SMILES IDX 6 13 5 14 4 15 3 16 2 17 1 18
REMARK H PARENT
REMARK Flexibility Score: inf
ROOT
ATOM      1  C   UNL     1      15.424  14.060  20.563  1.00  0.00     0.000 C 
ENDROOT
BRANCH   1   2
ATOM      2  C   UNL     1      14.113  13.366  20.175  1.00  0.00     0.000 C 
BRANCH   2   3
ATOM      3  C   UNL     1      14.375  11.948  19.647  1.00  0.00     0.000 C 
BRANCH   3   4
ATOM      4  C   UNL     1      15.657  11.322  20.224  1.00  0.00     0.000 C 
BRANCH   4   5
ATOM      5  C   UNL     1      15.941   9.875  19.770  1.00  0.00     0.000 C 
BRANCH   5   6
ATOM      6  C   UNL     1      17.208   9.241  20.370  1.00  0.00     0.006 C 
BRANCH   6   7
ATOM      7  C   UNL     1      18.394   9.241  19.396  1.00  0.00     0.053 C 
BRANCH   7   8
ATOM      8  C   UNL     1      19.536  10.021  19.965  1.00  0.00     0.041 C 
ATOM      9  O   UNL     1      19.539  10.342  21.183  1.00  0.00    -0.550 OA
ATOM     10  O   UNL     1      20.621  10.351  19.163  1.00  0.00    -0.550 OA
ENDBRANCH   7   8
ENDBRANCH   6   7
ENDBRANCH   5   6
ENDBRANCH   4   5
ENDBRANCH   3   4
ENDBRANCH   2   3
ENDBRANCH   1   2
BRANCH   1  11
ATOM     11  C   UNL     1      15.435  15.520  20.091  1.00  0.00     0.000 C 
BRANCH  11  12
ATOM     12  C   UNL     1      16.854  16.113  20.013  1.00  0.00    -0.000 C 
BRANCH  12  13
ATOM     13  C   UNL     1      16.952  17.488  19.322  1.00  0.00    -0.000 C 
BRANCH  13  14
ATOM     14  C   UNL     1      16.325  17.559  17.918  1.00  0.00    -0.000 C 
BRANCH  14  15
ATOM     15  C   UNL     1      17.371  17.512  16.795  1.00  0.00    -0.000 C 
BRANCH  15  16
ATOM     16  C   UNL     1      16.725  17.107  15.460  1.00  0.00    -0.000 C 
BRANCH  16  17
ATOM     17  C   UNL     1      17.633  17.387  14.254  1.00  0.00    -0.003 C 
ATOM     18  C   UNL     1      18.014  18.862  14.130  1.00  0.00     0.004 C 
ENDBRANCH  16  17
ENDBRANCH  15  16
ENDBRANCH  14  15
ENDBRANCH  13  14
ENDBRANCH  12  13
ENDBRANCH  11  12
ENDBRANCH   1  11
TORSDOF 14
ENDMDL
MODEL 6
REMARK VINA RESULT:    13.221      4.353      8.972
REMARK INTER + INTRA:          23.310
REMARK INTER:                  24.000
REMARK INTRA:                  -0.689
REMARK UNBOUND:                -0.731
REMARK SMILES CCCCCCCCCCCCCCCC(=O)[O-]
REMARK SMILES IDX 9 1 10 2 11 3 12 4 13 5 14 6 15 7 16 8 17 9 18 10 8 11 7 12
REMARK SMILES IDX 6 13 5 14 4 15 3 16 2 17 1 18
REMARK H PARENT
REMARK Flexibility Score: inf
ROOT
ATOM      1  C   UNL     1      19.621  18.161  21.838  1.00  0.00     0.000 C 
ENDROOT
BRANCH   1   2
ATOM      2  C   UNL     1      18.934  18.339  20.479  1.00  0.00     0.000 C 
BRANCH   2   3
ATOM      3  C   UNL     1      18.276  17.031  20.018  1.00  0.00     0.000 C 
BRANCH   3   4
ATOM      4  C   UNL     1      16.824  17.224  19.547  1.00  0.00     0.000 C 
BRANCH   4   5
ATOM      5  C   UNL     1      16.663  17.981  18.213  1.00  0.00     0.000 C 
BRANCH   5   6
ATOM      6  C   UNL     1      17.430  17.376  17.024  1.00  0.00     0.006 C 
BRANCH   6   7
ATOM      7  C   UNL     1      16.592  17.316  15.741  1.00  0.00     0.053 C 
BRANCH   7   8
ATOM      8  C   UNL     1      17.478  17.336  14.537  1.00  0.00     0.041 C 
ATOM      9  O   UNL     1      17.742  16.267  13.925  1.00  0.00    -0.550 OA
ATOM     10  O   UNL     1      17.975  18.543  14.059  1.00  0.00    -0.550 OA
ENDBRANCH   7   8
ENDBRANCH   6   7
ENDBRANCH   5   6
ENDBRANCH   4   5
ENDBRANCH   3   4
ENDBRANCH   2   3
ENDBRANCH   1   2
BRANCH   1  11
ATOM     11  C   UNL     1      20.285  19.468  22.294  1.00  0.00     0.000 C 
BRANCH  11  12
ATOM     12  C   UNL     1      20.948  19.350  23.679  1.00  0.00    -0.000 C 
BRANCH  12  13
ATOM     13  C   UNL     1      21.286  20.692  24.359  1.00  0.00    -0.000 C 
BRANCH  13  14
ATOM     14  C   UNL     1      22.762  21.119  24.263  1.00  0.00    -0.000 C 
BRANCH  14  15
ATOM     15  C   UNL     1      23.731  19.928  24.309  1.00  0.00    -0.000 C 
BRANCH  15  16
ATOM     16  C   UNL     1      24.658  19.929  23.083  1.00  0.00    -0.000 C 
BRANCH  16  17
ATOM     17  C   UNL     1      24.787  18.542  22.439  1.00  0.00    -0.003 C 
ATOM     18  C   UNL     1      25.460  17.522  23.357  1.00  0.00     0.004 C 
ENDBRANCH  16  17
ENDBRANCH  15  16
ENDBRANCH  14  15
ENDBRANCH  13  14
ENDBRANCH  12  13
ENDBRANCH  11  12
ENDBRANCH   1  11
TORSDOF 14
ENDMDL
MODEL 7
REMARK VINA RESULT:    13.443      3.861      8.275
REMARK INTER + INTRA:          23.714
REMARK INTER:                  24.328
REMARK INTRA:                  -0.614
REMARK UNBOUND:                -0.731
REMARK SMILES CCCCCCCCCCCCCCCC(=O)[O-]
REMARK SMILES IDX 9 1 10 2 11 3 12 4 13 5 14 6 15 7 16 8 17 9 18 10 8 11 7 12
REMARK SMILES IDX 6 13 5 14 4 15 3 16 2 17 1 18
REMARK H PARENT
REMARK Flexibility Score: inf
ROOT
ATOM      1  C   UNL     1      18.376  16.896  20.071  1.00  0.00     0.000 C 
ENDROOT
BRANCH   1   2
ATOM      2  C   UNL     1      16.864  16.934  19.821  1.00  0.00     0.000 C 
BRANCH   2   3
ATOM      3  C   UNL     1      16.497  18.048  18.830  1.00  0.00     0.000 C 
BRANCH   3   4
ATOM      4  C   UNL     1      16.156  17.514  17.428  1.00  0.00     0.000 C 
BRANCH   4   5
ATOM      5  C   UNL     1      17.364  17.332  16.485  1.00  0.00     0.000 C 
BRANCH   5   6
ATOM      6  C   UNL     1      17.007  17.087  15.008  1.00  0.00     0.006 C 
BRANCH   6   7
ATOM      7  C   UNL     1      17.947  17.815  14.038  1.00  0.00     0.053 C 
BRANCH   7   8
ATOM      8  C   UNL     1      17.903  19.290  14.278  1.00  0.00     0.041 C 
ATOM      9  O   UNL     1      18.879  20.015  13.950  1.00  0.00    -0.550 OA
ATOM     10  O   UNL     1      16.764  19.873  14.818  1.00  0.00    -0.550 OA
ENDBRANCH   7   8
ENDBRANCH   6   7
ENDBRANCH   5   6
ENDBRANCH   4   5
ENDBRANCH   3   4
ENDBRANCH   2   3
ENDBRANCH   1   2
BRANCH   1  11
ATOM     11  C   UNL     1      18.872  18.229  20.649  1.00  0.00     0.000 C 
BRANCH  11  12
ATOM     12  C   UNL     1      20.390  18.241  20.906  1.00  0.00    -0.000 C 
BRANCH  12  13
ATOM     13  C   UNL     1      21.259  17.793  19.713  1.00  0.00    -0.000 C 
BRANCH  13  14
ATOM     14  C   UNL     1      22.776  17.785  19.977  1.00  0.00    -0.000 C 
BRANCH  14  15
ATOM     15  C   UNL     1      23.128  18.095  21.439  1.00  0.00    -0.000 C 
BRANCH  15  16
ATOM     16  C   UNL     1      24.562  18.634  21.554  1.00  0.00    -0.000 C 
BRANCH  16  17
ATOM     17  C   UNL     1      25.186  18.368  22.932  1.00  0.00    -0.003 C 
ATOM     18  C   UNL     1      25.466  16.886  23.179  1.00  0.00     0.004 C 
ENDBRANCH  16  17
ENDBRANCH  15  16
ENDBRANCH  14  15
ENDBRANCH  13  14
ENDBRANCH  12  13
ENDBRANCH  11  12
ENDBRANCH   1  11
TORSDOF 14
ENDMDL
MODEL 8
REMARK VINA RESULT:    13.601      1.879      3.109
REMARK INTER + INTRA:          24.002
REMARK INTER:                  24.564
REMARK INTRA:                  -0.562
REMARK UNBOUND:                -0.731
REMARK SMILES CCCCCCCCCCCCCCCC(=O)[O-]
REMARK SMILES IDX 9 1 10 2 11 3 12 4 13 5 14 6 15 7 16 8 17 9 18 10 8 11 7 12
REMARK SMILES IDX 6 13 5 14 4 15 3 16 2 17 1 18
REMARK H PARENT
REMARK Flexibility Score: inf
ROOT
ATOM      1  C   UNL     1      20.159  18.404  21.244  1.00  0.00     0.000 C 
ENDROOT
BRANCH   1   2
ATOM      2  C   UNL     1      19.878  18.985  22.635  1.00  0.00     0.000 C 
BRANCH   2   3
ATOM      3  C   UNL     1      21.178  19.168  23.429  1.00  0.00     0.000 C 
BRANCH   3   4
ATOM      4  C   UNL     1      21.251  20.523  24.156  1.00  0.00     0.000 C 
BRANCH   4   5
ATOM      5  C   UNL     1      22.677  21.041  24.434  1.00  0.00     0.000 C 
BRANCH   5   6
ATOM      6  C   UNL     1      23.774  19.961  24.439  1.00  0.00     0.006 C 
BRANCH   6   7
ATOM      7  C   UNL     1      24.587  19.931  23.139  1.00  0.00     0.053 C 
BRANCH   7   8
ATOM      8  C   UNL     1      24.860  18.519  22.727  1.00  0.00     0.041 C 
ATOM      9  O   UNL     1      25.567  17.772  23.455  1.00  0.00    -0.550 OA
ATOM     10  O   UNL     1      24.295  18.012  21.564  1.00  0.00    -0.550 OA
ENDBRANCH   7   8
ENDBRANCH   6   7
ENDBRANCH   5   6
ENDBRANCH   4   5
ENDBRANCH   3   4
ENDBRANCH   2   3
ENDBRANCH   1   2
BRANCH   1  11
ATOM     11  C   UNL     1      18.902  18.452  20.363  1.00  0.00     0.000 C 
BRANCH  11  12
ATOM     12  C   UNL     1      18.225  17.078  20.212  1.00  0.00    -0.000 C 
BRANCH  12  13
ATOM     13  C   UNL     1      16.781  17.116  19.673  1.00  0.00    -0.000 C 
BRANCH  13  14
ATOM     14  C   UNL     1      16.590  17.918  18.373  1.00  0.00    -0.000 C 
BRANCH  14  15
ATOM     15  C   UNL     1      17.391  17.342  17.195  1.00  0.00    -0.000 C 
BRANCH  15  16
ATOM     16  C   UNL     1      16.663  17.589  15.865  1.00  0.00    -0.000 C 
BRANCH  16  17
ATOM     17  C   UNL     1      17.614  17.585  14.660  1.00  0.00    -0.003 C 
ATOM     18  C   UNL     1      17.761  16.202  14.026  1.00  0.00     0.004 C 
ENDBRANCH  16  17
ENDBRANCH  15  16
ENDBRANCH  14  15
ENDBRANCH  13  14
ENDBRANCH  12  13
ENDBRANCH  11  12
ENDBRANCH   1  11
TORSDOF 14
ENDMDL
