MODEL 1
REMARK VINA RESULT:    21.067      0.000      0.000
REMARK INTER + INTRA:          52.632
REMARK INTER:                  55.552
REMARK INTRA:                  -2.920
REMARK UNBOUND:                -2.920
REMARK SMILES CCCCCCCCCCCCCCCCCCCCCCCCCCCCCC(=O)[O-]
REMARK SMILES IDX 16 1 17 2 18 3 19 4 20 5 21 6 22 7 23 8 24 9 25 10 26 11
REMARK SMILES IDX 27 12 28 13 29 14 30 15 31 16 32 17 15 18 14 19 13 20 12 21
REMARK SMILES IDX 11 22 10 23 9 24 8 25 7 26 6 27 5 28 4 29 3 30 2 31 1 32
REMARK H PARENT
REMARK Flexibility Score: inf
ROOT
ATOM      1  C   UNL     1      82.332  65.904 103.748  1.00  0.00     0.000 C 
ENDROOT
BRANCH   1   2
ATOM      2  C   UNL     1      81.925  67.328 104.170  1.00  0.00     0.000 C 
BRANCH   2   3
ATOM      3  C   UNL     1      82.978  67.992 105.077  1.00  0.00     0.000 C 
BRANCH   3   4
ATOM      4  C   UNL     1      84.251  67.149 105.285  1.00  0.00     0.000 C 
BRANCH   4   5
ATOM      5  C   UNL     1      84.530  66.866 106.772  1.00  0.00     0.000 C 
BRANCH   5   6
ATOM      6  C   UNL     1      84.981  65.415 107.029  1.00  0.00     0.000 C 
BRANCH   6   7
ATOM      7  C   UNL     1      83.991  64.331 106.563  1.00  0.00     0.000 C 
BRANCH   7   8
ATOM      8  C   UNL     1      84.583  63.254 105.632  1.00  0.00     0.000 C 
BRANCH   8   9
ATOM      9  C   UNL     1      83.536  62.540 104.751  1.00  0.00     0.000 C 
BRANCH   9  10
ATOM     10  C   UNL     1      84.133  62.006 103.437  1.00  0.00     0.000 C 
BRANCH  10  11
ATOM     11  C   UNL     1      83.064  61.680 102.378  1.00  0.00     0.000 C 
BRANCH  11  12
ATOM     12  C   UNL     1      83.574  61.620 100.927  1.00  0.00     0.000 C 
BRANCH  12  13
ATOM     13  C   UNL     1      84.557  62.753 100.585  1.00  0.00     0.006 C 
BRANCH  13  14
ATOM     14  C   UNL     1      85.319  62.481  99.282  1.00  0.00     0.053 C 
BRANCH  14  15
ATOM     15  C   UNL     1      85.754  63.752  98.620  1.00  0.00     0.041 C 
ATOM     16  O   UNL     1      85.936  64.792  99.304  1.00  0.00    -0.550 OA
ATOM     17  O   UNL     1      85.982  63.782  97.249  1.00  0.00    -0.550 OA
ENDBRANCH  14  15
ENDBRANCH  13  14
ENDBRANCH  12  13
ENDBRANCH  11  12
ENDBRANCH  10  11
ENDBRANCH   9  10
ENDBRANCH   8   9
ENDBRANCH   7   8
ENDBRANCH   6   7
ENDBRANCH   5   6
ENDBRANCH   4   5
ENDBRANCH   3   4
ENDBRANCH   2   3
ENDBRANCH   1   2
BRANCH   1  18
ATOM     18  C   UNL     1      81.126  65.038 103.349  1.00  0.00     0.000 C 
BRANCH  18  19
ATOM     19  C   UNL     1      80.162  65.759 102.389  1.00  0.00     0.000 C 
BRANCH  19  20
ATOM     20  C   UNL     1      79.283  64.763 101.615  1.00  0.00     0.000 C 
BRANCH  20  21
ATOM     21  C   UNL     1      78.000  64.389 102.388  1.00  0.00     0.000 C 
BRANCH  21  22
ATOM     22  C   UNL     1      77.099  63.427 101.593  1.00  0.00     0.000 C 
BRANCH  22  23
ATOM     23  C   UNL     1      76.493  64.078 100.334  1.00  0.00     0.000 C 
BRANCH  23  24
ATOM     24  C   UNL     1      75.656  63.088  99.507  1.00  0.00    -0.000 C 
BRANCH  24  25
ATOM     25  C   UNL     1      74.231  63.598  99.228  1.00  0.00    -0.000 C 
BRANCH  25  26
ATOM     26  C   UNL     1      73.916  63.860  97.743  1.00  0.00    -0.000 C 
BRANCH  26  27
ATOM     27  C   UNL     1      75.098  64.477  96.980  1.00  0.00    -0.000 C 
BRANCH  27  28
ATOM     28  C   UNL     1      75.439  63.650  95.735  1.00  0.00    -0.000 C 
BRANCH  28  29
ATOM     29  C   UNL     1      75.023  62.183  95.913  1.00  0.00    -0.000 C 
BRANCH  29  30
ATOM     30  C   UNL     1      76.230  61.221  95.881  1.00  0.00    -0.000 C 
BRANCH  30  31
ATOM     31  C   UNL     1      76.388  60.380  97.159  1.00  0.00    -0.003 C 
ATOM     32  C   UNL     1      75.055  59.907  97.735  1.00  0.00     0.004 C 
ENDBRANCH  30  31
ENDBRANCH  29  30
ENDBRANCH  28  29
ENDBRANCH  27  28
ENDBRANCH  26  27
ENDBRANCH  25  26
ENDBRANCH  24  25
ENDBRANCH  23  24
ENDBRANCH  22  23
ENDBRANCH  21  22
ENDBRANCH  20  21
ENDBRANCH  19  20
ENDBRANCH  18  19
ENDBRANCH   1  18
TORSDOF 28
ENDMDL
MODEL 2
REMARK VINA RESULT:    21.183      3.862     12.196
REMARK INTER + INTRA:          52.936
REMARK INTER:                  51.248
REMARK INTRA:                   1.688
REMARK UNBOUND:                -2.920
REMARK SMILES CCCCCCCCCCCCCCCCCCCCCCCCCCCCCC(=O)[O-]
REMARK SMILES IDX 16 1 17 2 18 3 19 4 20 5 21 6 22 7 23 8 24 9 25 10 26 11
REMARK SMILES IDX 27 12 28 13 29 14 30 15 31 16 32 17 15 18 14 19 13 20 12 21
REMARK SMILES IDX 11 22 10 23 9 24 8 25 7 26 6 27 5 28 4 29 3 30 2 31 1 32
REMARK H PARENT
REMARK Flexibility Score: inf
ROOT
ATOM      1  C   UNL     1      81.057  63.835 101.931  1.00  0.00     0.000 C 
ENDROOT
BRANCH   1   2
ATOM      2  C   UNL     1      79.911  64.775 101.516  1.00  0.00     0.000 C 
BRANCH   2   3
ATOM      3  C   UNL     1      78.791  64.834 102.572  1.00  0.00     0.000 C 
BRANCH   3   4
ATOM      4  C   UNL     1      77.684  63.781 102.374  1.00  0.00     0.000 C 
BRANCH   4   5
ATOM      5  C   UNL     1      76.831  64.055 101.123  1.00  0.00     0.000 C 
BRANCH   5   6
ATOM      6  C   UNL     1      77.006  62.978 100.035  1.00  0.00     0.000 C 
BRANCH   6   7
ATOM      7  C   UNL     1      75.889  62.933  98.975  1.00  0.00     0.000 C 
BRANCH   7   8
ATOM      8  C   UNL     1      75.361  61.525  98.635  1.00  0.00     0.000 C 
BRANCH   8   9
ATOM      9  C   UNL     1      76.120  60.831  97.484  1.00  0.00     0.000 C 
BRANCH   9  10
ATOM     10  C   UNL     1      75.489  61.106  96.108  1.00  0.00     0.000 C 
BRANCH  10  11
ATOM     11  C   UNL     1      75.725  62.546  95.615  1.00  0.00     0.000 C 
BRANCH  11  12
ATOM     12  C   UNL     1      74.574  63.532  95.889  1.00  0.00     0.000 C 
BRANCH  12  13
ATOM     13  C   UNL     1      75.060  64.968  96.147  1.00  0.00     0.006 C 
BRANCH  13  14
ATOM     14  C   UNL     1      74.736  65.440  97.570  1.00  0.00     0.053 C 
BRANCH  14  15
ATOM     15  C   UNL     1      73.705  64.570  98.221  1.00  0.00     0.041 C 
ATOM     16  O   UNL     1      72.990  63.806  97.522  1.00  0.00    -0.550 OA
ATOM     17  O   UNL     1      73.551  64.585  99.602  1.00  0.00    -0.550 OA
ENDBRANCH  14  15
ENDBRANCH  13  14
ENDBRANCH  12  13
ENDBRANCH  11  12
ENDBRANCH  10  11
ENDBRANCH   9  10
ENDBRANCH   8   9
ENDBRANCH   7   8
ENDBRANCH   6   7
ENDBRANCH   5   6
ENDBRANCH   4   5
ENDBRANCH   3   4
ENDBRANCH   2   3
ENDBRANCH   1   2
BRANCH   1  18
ATOM     18  C   UNL     1      81.833  64.351 103.152  1.00  0.00     0.000 C 
BRANCH  18  19
ATOM     19  C   UNL     1      83.316  63.935 103.140  1.00  0.00     0.000 C 
BRANCH  19  20
ATOM     20  C   UNL     1      83.486  62.436 103.434  1.00  0.00     0.000 C 
BRANCH  20  21
ATOM     21  C   UNL     1      84.681  62.152 104.370  1.00  0.00     0.000 C 
BRANCH  21  22
ATOM     22  C   UNL     1      84.679  63.061 105.611  1.00  0.00     0.000 C 
BRANCH  22  23
ATOM     23  C   UNL     1      86.091  63.283 106.192  1.00  0.00     0.000 C 
BRANCH  23  24
ATOM     24  C   UNL     1      86.138  63.068 107.715  1.00  0.00    -0.000 C 
BRANCH  24  25
ATOM     25  C   UNL     1      87.549  62.731 108.227  1.00  0.00    -0.000 C 
BRANCH  25  26
ATOM     26  C   UNL     1      87.772  62.989 109.729  1.00  0.00    -0.000 C 
BRANCH  26  27
ATOM     27  C   UNL     1      87.161  64.316 110.206  1.00  0.00    -0.000 C 
BRANCH  27  28
ATOM     28  C   UNL     1      87.301  65.402 109.133  1.00  0.00    -0.000 C 
BRANCH  28  29
ATOM     29  C   UNL     1      86.063  66.310 109.101  1.00  0.00    -0.000 C 
BRANCH  29  30
ATOM     30  C   UNL     1      85.260  66.255 110.418  1.00  0.00    -0.000 C 
BRANCH  30  31
ATOM     31  C   UNL     1      85.133  67.616 111.125  1.00  0.00    -0.003 C 
ATOM     32  C   UNL     1      83.714  68.179 111.093  1.00  0.00     0.004 C 
ENDBRANCH  30  31
ENDBRANCH  29  30
ENDBRANCH  28  29
ENDBRANCH  27  28
ENDBRANCH  26  27
ENDBRANCH  25  26
ENDBRANCH  24  25
ENDBRANCH  23  24
ENDBRANCH  22  23
ENDBRANCH  21  22
ENDBRANCH  20  21
ENDBRANCH  19  20
ENDBRANCH  18  19
ENDBRANCH   1  18
TORSDOF 28
ENDMDL
MODEL 3
REMARK VINA RESULT:    21.229      2.998      9.917
REMARK INTER + INTRA:          53.059
REMARK INTER:                  53.776
REMARK INTRA:                  -0.717
REMARK UNBOUND:                -2.920
REMARK SMILES CCCCCCCCCCCCCCCCCCCCCCCCCCCCCC(=O)[O-]
REMARK SMILES IDX 16 1 17 2 18 3 19 4 20 5 21 6 22 7 23 8 24 9 25 10 26 11
REMARK SMILES IDX 27 12 28 13 29 14 30 15 31 16 32 17 15 18 14 19 13 20 12 21
REMARK SMILES IDX 11 22 10 23 9 24 8 25 7 26 6 27 5 28 4 29 3 30 2 31 1 32
REMARK H PARENT
REMARK Flexibility Score: inf
ROOT
ATOM      1  C   UNL     1      83.838  67.629 105.886  1.00  0.00     0.000 C 
ENDROOT
BRANCH   1   2
ATOM      2  C   UNL     1      83.140  67.351 104.542  1.00  0.00     0.000 C 
BRANCH   2   3
ATOM      3  C   UNL     1      82.066  66.253 104.657  1.00  0.00     0.000 C 
BRANCH   3   4
ATOM      4  C   UNL     1      81.856  65.441 103.364  1.00  0.00     0.000 C 
BRANCH   4   5
ATOM      5  C   UNL     1      80.621  65.907 102.574  1.00  0.00     0.000 C 
BRANCH   5   6
ATOM      6  C   UNL     1      79.670  64.749 102.216  1.00  0.00     0.000 C 
BRANCH   6   7
ATOM      7  C   UNL     1      78.368  64.694 103.036  1.00  0.00     0.000 C 
BRANCH   7   8
ATOM      8  C   UNL     1      77.164  64.052 102.318  1.00  0.00     0.000 C 
BRANCH   8   9
ATOM      9  C   UNL     1      77.381  63.827 100.806  1.00  0.00     0.000 C 
BRANCH   9  10
ATOM     10  C   UNL     1      76.060  63.627 100.042  1.00  0.00     0.000 C 
BRANCH  10  11
ATOM     11  C   UNL     1      76.266  63.084  98.616  1.00  0.00     0.000 C 
BRANCH  11  12
ATOM     12  C   UNL     1      75.443  63.786  97.520  1.00  0.00     0.000 C 
BRANCH  12  13
ATOM     13  C   UNL     1      74.518  62.825  96.753  1.00  0.00     0.006 C 
BRANCH  13  14
ATOM     14  C   UNL     1      74.721  61.366  97.179  1.00  0.00     0.053 C 
BRANCH  14  15
ATOM     15  C   UNL     1      75.966  60.783  96.586  1.00  0.00     0.041 C 
ATOM     16  O   UNL     1      76.592  59.876  97.193  1.00  0.00    -0.550 OA
ATOM     17  O   UNL     1      76.422  61.225  95.350  1.00  0.00    -0.550 OA
ENDBRANCH  14  15
ENDBRANCH  13  14
ENDBRANCH  12  13
ENDBRANCH  11  12
ENDBRANCH  10  11
ENDBRANCH   9  10
ENDBRANCH   8   9
ENDBRANCH   7   8
ENDBRANCH   6   7
ENDBRANCH   5   6
ENDBRANCH   4   5
ENDBRANCH   3   4
ENDBRANCH   2   3
ENDBRANCH   1   2
BRANCH   1  18
ATOM     18  C   UNL     1      84.035  66.356 106.724  1.00  0.00     0.000 C 
BRANCH  18  19
ATOM     19  C   UNL     1      85.294  66.410 107.609  1.00  0.00     0.000 C 
BRANCH  19  20
ATOM     20  C   UNL     1      84.963  66.127 109.083  1.00  0.00     0.000 C 
BRANCH  20  21
ATOM     21  C   UNL     1      86.205  66.232 109.995  1.00  0.00     0.000 C 
BRANCH  21  22
ATOM     22  C   UNL     1      87.413  65.468 109.426  1.00  0.00     0.000 C 
BRANCH  22  23
ATOM     23  C   UNL     1      87.359  63.956 109.723  1.00  0.00     0.000 C 
BRANCH  23  24
ATOM     24  C   UNL     1      87.247  63.112 108.442  1.00  0.00    -0.000 C 
BRANCH  24  25
ATOM     25  C   UNL     1      86.228  63.680 107.438  1.00  0.00    -0.000 C 
BRANCH  25  26
ATOM     26  C   UNL     1      86.026  62.831 106.169  1.00  0.00    -0.000 C 
BRANCH  26  27
ATOM     27  C   UNL     1      84.613  62.963 105.580  1.00  0.00    -0.000 C 
BRANCH  27  28
ATOM     28  C   UNL     1      84.504  62.220 104.244  1.00  0.00    -0.000 C 
BRANCH  28  29
ATOM     29  C   UNL     1      83.479  62.892 103.319  1.00  0.00    -0.000 C 
BRANCH  29  30
ATOM     30  C   UNL     1      83.765  62.618 101.827  1.00  0.00    -0.000 C 
BRANCH  30  31
ATOM     31  C   UNL     1      85.194  62.986 101.391  1.00  0.00    -0.003 C 
ATOM     32  C   UNL     1      85.479  62.656  99.928  1.00  0.00     0.004 C 
ENDBRANCH  30  31
ENDBRANCH  29  30
ENDBRANCH  28  29
ENDBRANCH  27  28
ENDBRANCH  26  27
ENDBRANCH  25  26
ENDBRANCH  24  25
ENDBRANCH  23  24
ENDBRANCH  22  23
ENDBRANCH  21  22
ENDBRANCH  20  21
ENDBRANCH  19  20
ENDBRANCH  18  19
ENDBRANCH   1  18
TORSDOF 28
ENDMDL
MODEL 4
REMARK VINA RESULT:    21.351      3.234     11.243
REMARK INTER + INTRA:          53.381
REMARK INTER:                  51.711
REMARK INTRA:                   1.670
REMARK UNBOUND:                -2.920
REMARK SMILES CCCCCCCCCCCCCCCCCCCCCCCCCCCCCC(=O)[O-]
REMARK SMILES IDX 16 1 17 2 18 3 19 4 20 5 21 6 22 7 23 8 24 9 25 10 26 11
REMARK SMILES IDX 27 12 28 13 29 14 30 15 31 16 32 17 15 18 14 19 13 20 12 21
REMARK SMILES IDX 11 22 10 23 9 24 8 25 7 26 6 27 5 28 4 29 3 30 2 31 1 32
REMARK H PARENT
REMARK Flexibility Score: inf
ROOT
ATOM      1  C   UNL     1      84.155  62.626 102.880  1.00  0.00     0.000 C 
ENDROOT
BRANCH   1   2
ATOM      2  C   UNL     1      83.011  61.826 102.231  1.00  0.00     0.000 C 
BRANCH   2   3
ATOM      3  C   UNL     1      82.465  62.510 100.964  1.00  0.00     0.000 C 
BRANCH   3   4
ATOM      4  C   UNL     1      80.989  62.941 101.068  1.00  0.00     0.000 C 
BRANCH   4   5
ATOM      5  C   UNL     1      80.787  64.105 102.054  1.00  0.00     0.000 C 
BRANCH   5   6
ATOM      6  C   UNL     1      79.599  65.009 101.673  1.00  0.00     0.000 C 
BRANCH   6   7
ATOM      7  C   UNL     1      78.424  65.000 102.668  1.00  0.00     0.000 C 
BRANCH   7   8
ATOM      8  C   UNL     1      77.383  63.884 102.448  1.00  0.00     0.000 C 
BRANCH   8   9
ATOM      9  C   UNL     1      77.193  63.486 100.968  1.00  0.00     0.000 C 
BRANCH   9  10
ATOM     10  C   UNL     1      75.891  64.044 100.368  1.00  0.00     0.000 C 
BRANCH  10  11
ATOM     11  C   UNL     1      75.786  63.827  98.848  1.00  0.00     0.000 C 
BRANCH  11  12
ATOM     12  C   UNL     1      74.755  64.714  98.126  1.00  0.00     0.000 C 
BRANCH  12  13
ATOM     13  C   UNL     1      73.905  63.941  97.103  1.00  0.00     0.006 C 
BRANCH  13  14
ATOM     14  C   UNL     1      74.251  62.447  97.078  1.00  0.00     0.053 C 
BRANCH  14  15
ATOM     15  C   UNL     1      75.524  62.185  96.335  1.00  0.00     0.041 C 
ATOM     16  O   UNL     1      76.167  61.122  96.534  1.00  0.00    -0.550 OA
ATOM     17  O   UNL     1      75.990  63.106  95.403  1.00  0.00    -0.550 OA
ENDBRANCH  14  15
ENDBRANCH  13  14
ENDBRANCH  12  13
ENDBRANCH  11  12
ENDBRANCH  10  11
ENDBRANCH   9  10
ENDBRANCH   8   9
ENDBRANCH   7   8
ENDBRANCH   6   7
ENDBRANCH   5   6
ENDBRANCH   4   5
ENDBRANCH   3   4
ENDBRANCH   2   3
ENDBRANCH   1   2
BRANCH   1  18
ATOM     18  C   UNL     1      84.466  62.159 104.311  1.00  0.00     0.000 C 
BRANCH  18  19
ATOM     19  C   UNL     1      83.519  62.769 105.360  1.00  0.00     0.000 C 
BRANCH  19  20
ATOM     20  C   UNL     1      83.637  64.300 105.408  1.00  0.00     0.000 C 
BRANCH  20  21
ATOM     21  C   UNL     1      82.937  64.982 104.213  1.00  0.00     0.000 C 
BRANCH  21  22
ATOM     22  C   UNL     1      82.202  66.270 104.622  1.00  0.00     0.000 C 
BRANCH  22  23
ATOM     23  C   UNL     1      83.162  67.387 105.079  1.00  0.00     0.000 C 
BRANCH  23  24
ATOM     24  C   UNL     1      84.578  66.861 105.367  1.00  0.00    -0.000 C 
BRANCH  24  25
ATOM     25  C   UNL     1      84.756  66.392 106.822  1.00  0.00    -0.000 C 
BRANCH  25  26
ATOM     26  C   UNL     1      86.171  65.895 107.174  1.00  0.00    -0.000 C 
BRANCH  26  27
ATOM     27  C   UNL     1      86.641  66.362 108.560  1.00  0.00    -0.000 C 
BRANCH  27  28
ATOM     28  C   UNL     1      87.150  65.181 109.394  1.00  0.00    -0.000 C 
BRANCH  28  29
ATOM     29  C   UNL     1      87.239  65.551 110.882  1.00  0.00    -0.000 C 
BRANCH  29  30
ATOM     30  C   UNL     1      87.220  67.077 111.110  1.00  0.00    -0.000 C 
BRANCH  30  31
ATOM     31  C   UNL     1      85.808  67.687 111.117  1.00  0.00    -0.003 C 
ATOM     32  C   UNL     1      84.701  66.636 111.075  1.00  0.00     0.004 C 
ENDBRANCH  30  31
ENDBRANCH  29  30
ENDBRANCH  28  29
ENDBRANCH  27  28
ENDBRANCH  26  27
ENDBRANCH  25  26
ENDBRANCH  24  25
ENDBRANCH  23  24
ENDBRANCH  22  23
ENDBRANCH  21  22
ENDBRANCH  20  21
ENDBRANCH  19  20
ENDBRANCH  18  19
ENDBRANCH   1  18
TORSDOF 28
ENDMDL
MODEL 5
REMARK VINA RESULT:    21.465      1.652      3.515
REMARK INTER + INTRA:          53.682
REMARK INTER:                  54.090
REMARK INTRA:                  -0.408
REMARK UNBOUND:                -2.920
REMARK SMILES CCCCCCCCCCCCCCCCCCCCCCCCCCCCCC(=O)[O-]
REMARK SMILES IDX 16 1 17 2 18 3 19 4 20 5 21 6 22 7 23 8 24 9 25 10 26 11
REMARK SMILES IDX 27 12 28 13 29 14 30 15 31 16 32 17 15 18 14 19 13 20 12 21
REMARK SMILES IDX 11 22 10 23 9 24 8 25 7 26 6 27 5 28 4 29 3 30 2 31 1 32
REMARK H PARENT
REMARK Flexibility Score: inf
ROOT
ATOM      1  C   UNL     1      84.176  66.216 106.322  1.00  0.00     0.000 C 
ENDROOT
BRANCH   1   2
ATOM      2  C   UNL     1      85.517  66.403 107.053  1.00  0.00     0.000 C 
BRANCH   2   3
ATOM      3  C   UNL     1      85.457  65.931 108.518  1.00  0.00     0.000 C 
BRANCH   3   4
ATOM      4  C   UNL     1      86.834  65.814 109.198  1.00  0.00     0.000 C 
BRANCH   4   5
ATOM      5  C   UNL     1      86.841  64.774 110.332  1.00  0.00     0.000 C 
BRANCH   5   6
ATOM      6  C   UNL     1      87.367  63.399 109.877  1.00  0.00     0.000 C 
BRANCH   6   7
ATOM      7  C   UNL     1      87.421  63.192 108.352  1.00  0.00     0.000 C 
BRANCH   7   8
ATOM      8  C   UNL     1      86.068  63.309 107.623  1.00  0.00     0.000 C 
BRANCH   8   9
ATOM      9  C   UNL     1      86.065  62.702 106.203  1.00  0.00     0.000 C 
BRANCH   9  10
ATOM     10  C   UNL     1      84.719  62.893 105.482  1.00  0.00     0.000 C 
BRANCH  10  11
ATOM     11  C   UNL     1      84.669  62.199 104.108  1.00  0.00     0.000 C 
BRANCH  11  12
ATOM     12  C   UNL     1      83.416  62.500 103.265  1.00  0.00     0.000 C 
BRANCH  12  13
ATOM     13  C   UNL     1      83.747  62.939 101.828  1.00  0.00     0.006 C 
BRANCH  13  14
ATOM     14  C   UNL     1      85.256  62.918 101.552  1.00  0.00     0.053 C 
BRANCH  14  15
ATOM     15  C   UNL     1      85.568  63.335 100.149  1.00  0.00     0.041 C 
ATOM     16  O   UNL     1      85.679  62.471  99.241  1.00  0.00    -0.550 OA
ATOM     17  O   UNL     1      85.713  64.682  99.838  1.00  0.00    -0.550 OA
ENDBRANCH  14  15
ENDBRANCH  13  14
ENDBRANCH  12  13
ENDBRANCH  11  12
ENDBRANCH  10  11
ENDBRANCH   9  10
ENDBRANCH   8   9
ENDBRANCH   7   8
ENDBRANCH   6   7
ENDBRANCH   5   6
ENDBRANCH   4   5
ENDBRANCH   3   4
ENDBRANCH   2   3
ENDBRANCH   1   2
BRANCH   1  18
ATOM     18  C   UNL     1      83.697  67.499 105.626  1.00  0.00     0.000 C 
BRANCH  18  19
ATOM     19  C   UNL     1      82.976  67.225 104.293  1.00  0.00     0.000 C 
BRANCH  19  20
ATOM     20  C   UNL     1      81.914  66.124 104.439  1.00  0.00     0.000 C 
BRANCH  20  21
ATOM     21  C   UNL     1      81.626  65.405 103.103  1.00  0.00     0.000 C 
BRANCH  21  22
ATOM     22  C   UNL     1      80.229  65.737 102.550  1.00  0.00     0.000 C 
BRANCH  22  23
ATOM     23  C   UNL     1      79.503  64.501 101.980  1.00  0.00     0.000 C 
BRANCH  23  24
ATOM     24  C   UNL     1      78.086  64.338 102.555  1.00  0.00    -0.000 C 
BRANCH  24  25
ATOM     25  C   UNL     1      77.188  63.440 101.685  1.00  0.00    -0.000 C 
BRANCH  25  26
ATOM     26  C   UNL     1      76.868  64.002 100.288  1.00  0.00    -0.000 C 
BRANCH  26  27
ATOM     27  C   UNL     1      75.503  63.541  99.754  1.00  0.00    -0.000 C 
BRANCH  27  28
ATOM     28  C   UNL     1      74.676  64.733  99.260  1.00  0.00    -0.000 C 
BRANCH  28  29
ATOM     29  C   UNL     1      74.015  64.425  97.908  1.00  0.00    -0.000 C 
BRANCH  29  30
ATOM     30  C   UNL     1      74.121  62.933  97.528  1.00  0.00    -0.000 C 
BRANCH  30  31
ATOM     31  C   UNL     1      75.389  62.585  96.729  1.00  0.00    -0.003 C 
ATOM     32  C   UNL     1      75.694  63.589  95.620  1.00  0.00     0.004 C 
ENDBRANCH  30  31
ENDBRANCH  29  30
ENDBRANCH  28  29
ENDBRANCH  27  28
ENDBRANCH  26  27
ENDBRANCH  25  26
ENDBRANCH  24  25
ENDBRANCH  23  24
ENDBRANCH  22  23
ENDBRANCH  21  22
ENDBRANCH  20  21
ENDBRANCH  19  20
ENDBRANCH  18  19
ENDBRANCH   1  18
TORSDOF 28
ENDMDL
MODEL 6
REMARK VINA RESULT:    21.530      1.098      3.013
REMARK INTER + INTRA:          53.853
REMARK INTER:                  51.408
REMARK INTRA:                   2.444
REMARK UNBOUND:                -2.920
REMARK SMILES CCCCCCCCCCCCCCCCCCCCCCCCCCCCCC(=O)[O-]
REMARK SMILES IDX 16 1 17 2 18 3 19 4 20 5 21 6 22 7 23 8 24 9 25 10 26 11
REMARK SMILES IDX 27 12 28 13 29 14 30 15 31 16 32 17 15 18 14 19 13 20 12 21
REMARK SMILES IDX 11 22 10 23 9 24 8 25 7 26 6 27 5 28 4 29 3 30 2 31 1 32
REMARK H PARENT
REMARK Flexibility Score: inf
ROOT
ATOM      1  C   UNL     1      79.481  64.752 101.788  1.00  0.00     0.000 C 
ENDROOT
BRANCH   1   2
ATOM      2  C   UNL     1      80.689  65.049 102.695  1.00  0.00     0.000 C 
BRANCH   2   3
ATOM      3  C   UNL     1      80.743  66.525 103.132  1.00  0.00     0.000 C 
BRANCH   3   4
ATOM      4  C   UNL     1      82.169  67.059 103.367  1.00  0.00     0.000 C 
BRANCH   4   5
ATOM      5  C   UNL     1      82.500  67.210 104.862  1.00  0.00     0.000 C 
BRANCH   5   6
ATOM      6  C   UNL     1      83.043  65.910 105.486  1.00  0.00     0.000 C 
BRANCH   6   7
ATOM      7  C   UNL     1      83.538  64.857 104.477  1.00  0.00     0.000 C 
BRANCH   7   8
ATOM      8  C   UNL     1      83.920  63.492 105.084  1.00  0.00     0.000 C 
BRANCH   8   9
ATOM      9  C   UNL     1      83.809  62.312 104.095  1.00  0.00     0.000 C 
BRANCH   9  10
ATOM     10  C   UNL     1      83.042  62.684 102.814  1.00  0.00     0.000 C 
BRANCH  10  11
ATOM     11  C   UNL     1      83.651  62.059 101.545  1.00  0.00     0.000 C 
BRANCH  11  12
ATOM     12  C   UNL     1      84.879  62.793 100.976  1.00  0.00     0.000 C 
BRANCH  12  13
ATOM     13  C   UNL     1      85.472  62.103  99.736  1.00  0.00     0.006 C 
BRANCH  13  14
ATOM     14  C   UNL     1      86.499  62.989  99.019  1.00  0.00     0.053 C 
BRANCH  14  15
ATOM     15  C   UNL     1      85.922  63.624  97.792  1.00  0.00     0.041 C 
ATOM     16  O   UNL     1      85.992  63.034  96.682  1.00  0.00    -0.550 OA
ATOM     17  O   UNL     1      85.286  64.856  97.877  1.00  0.00    -0.550 OA
ENDBRANCH  14  15
ENDBRANCH  13  14
ENDBRANCH  12  13
ENDBRANCH  11  12
ENDBRANCH  10  11
ENDBRANCH   9  10
ENDBRANCH   8   9
ENDBRANCH   7   8
ENDBRANCH   6   7
ENDBRANCH   5   6
ENDBRANCH   4   5
ENDBRANCH   3   4
ENDBRANCH   2   3
ENDBRANCH   1   2
BRANCH   1  18
ATOM     18  C   UNL     1      78.333  64.061 102.539  1.00  0.00     0.000 C 
BRANCH  18  19
ATOM     19  C   UNL     1      77.008  64.076 101.755  1.00  0.00     0.000 C 
BRANCH  19  20
ATOM     20  C   UNL     1      77.126  63.312 100.426  1.00  0.00     0.000 C 
BRANCH  20  21
ATOM     21  C   UNL     1      75.803  63.306  99.632  1.00  0.00     0.000 C 
BRANCH  21  22
ATOM     22  C   UNL     1      75.864  62.386  98.400  1.00  0.00     0.000 C 
BRANCH  22  23
ATOM     23  C   UNL     1      74.785  61.284  98.422  1.00  0.00     0.000 C 
BRANCH  23  24
ATOM     24  C   UNL     1      75.223  60.021  97.660  1.00  0.00    -0.000 C 
BRANCH  24  25
ATOM     25  C   UNL     1      76.494  60.240  96.821  1.00  0.00    -0.000 C 
BRANCH  25  26
ATOM     26  C   UNL     1      76.267  60.945  95.471  1.00  0.00    -0.000 C 
BRANCH  26  27
ATOM     27  C   UNL     1      76.372  62.474  95.568  1.00  0.00    -0.000 C 
BRANCH  27  28
ATOM     28  C   UNL     1      75.291  63.154  94.720  1.00  0.00    -0.000 C 
BRANCH  28  29
ATOM     29  C   UNL     1      74.592  64.271  95.508  1.00  0.00    -0.000 C 
BRANCH  29  30
ATOM     30  C   UNL     1      74.572  63.996  97.027  1.00  0.00    -0.000 C 
BRANCH  30  31
ATOM     31  C   UNL     1      73.459  64.745  97.779  1.00  0.00    -0.003 C 
ATOM     32  C   UNL     1      73.559  64.602  99.296  1.00  0.00     0.004 C 
ENDBRANCH  30  31
ENDBRANCH  29  30
ENDBRANCH  28  29
ENDBRANCH  27  28
ENDBRANCH  26  27
ENDBRANCH  25  26
ENDBRANCH  24  25
ENDBRANCH  23  24
ENDBRANCH  22  23
ENDBRANCH  21  22
ENDBRANCH  20  21
ENDBRANCH  19  20
ENDBRANCH  18  19
ENDBRANCH   1  18
TORSDOF 28
ENDMDL
MODEL 7
REMARK VINA RESULT:    21.793      3.230      5.643
REMARK INTER + INTRA:          54.547
REMARK INTER:                  54.600
REMARK INTRA:                  -0.053
REMARK UNBOUND:                -2.920
REMARK SMILES CCCCCCCCCCCCCCCCCCCCCCCCCCCCCC(=O)[O-]
REMARK SMILES IDX 16 1 17 2 18 3 19 4 20 5 21 6 22 7 23 8 24 9 25 10 26 11
REMARK SMILES IDX 27 12 28 13 29 14 30 15 31 16 32 17 15 18 14 19 13 20 12 21
REMARK SMILES IDX 11 22 10 23 9 24 8 25 7 26 6 27 5 28 4 29 3 30 2 31 1 32
REMARK H PARENT
REMARK Flexibility Score: inf
ROOT
ATOM      1  C   UNL     1      81.457  65.026 102.861  1.00  0.00     0.000 C 
ENDROOT
BRANCH   1   2
ATOM      2  C   UNL     1      82.876  64.502 103.146  1.00  0.00     0.000 C 
BRANCH   2   3
ATOM      3  C   UNL     1      83.315  63.425 102.137  1.00  0.00     0.000 C 
BRANCH   3   4
ATOM      4  C   UNL     1      84.447  62.511 102.645  1.00  0.00     0.000 C 
BRANCH   4   5
ATOM      5  C   UNL     1      83.992  61.602 103.800  1.00  0.00     0.000 C 
BRANCH   5   6
ATOM      6  C   UNL     1      84.886  61.732 105.048  1.00  0.00     0.000 C 
BRANCH   6   7
ATOM      7  C   UNL     1      85.072  63.168 105.573  1.00  0.00     0.000 C 
BRANCH   7   8
ATOM      8  C   UNL     1      83.831  63.789 106.245  1.00  0.00     0.000 C 
BRANCH   8   9
ATOM      9  C   UNL     1      83.903  65.324 106.399  1.00  0.00     0.000 C 
BRANCH   9  10
ATOM     10  C   UNL     1      84.603  65.756 107.700  1.00  0.00     0.000 C 
BRANCH  10  11
ATOM     11  C   UNL     1      86.095  66.080 107.502  1.00  0.00     0.000 C 
BRANCH  11  12
ATOM     12  C   UNL     1      87.062  65.306 108.416  1.00  0.00     0.000 C 
BRANCH  12  13
ATOM     13  C   UNL     1      87.067  65.823 109.865  1.00  0.00     0.006 C 
BRANCH  13  14
ATOM     14  C   UNL     1      86.948  64.683 110.884  1.00  0.00     0.053 C 
BRANCH  14  15
ATOM     15  C   UNL     1      87.510  63.402 110.350  1.00  0.00     0.041 C 
ATOM     16  O   UNL     1      88.120  62.611 111.116  1.00  0.00    -0.550 OA
ATOM     17  O   UNL     1      87.339  63.070 109.012  1.00  0.00    -0.550 OA
ENDBRANCH  14  15
ENDBRANCH  13  14
ENDBRANCH  12  13
ENDBRANCH  11  12
ENDBRANCH  10  11
ENDBRANCH   9  10
ENDBRANCH   8   9
ENDBRANCH   7   8
ENDBRANCH   6   7
ENDBRANCH   5   6
ENDBRANCH   4   5
ENDBRANCH   3   4
ENDBRANCH   2   3
ENDBRANCH   1   2
BRANCH   1  18
ATOM     18  C   UNL     1      80.632  64.060 101.996  1.00  0.00     0.000 C 
BRANCH  18  19
ATOM     19  C   UNL     1      79.266  64.640 101.586  1.00  0.00     0.000 C 
BRANCH  19  20
ATOM     20  C   UNL     1      78.178  64.317 102.622  1.00  0.00     0.000 C 
BRANCH  20  21
ATOM     21  C   UNL     1      77.025  63.483 102.024  1.00  0.00     0.000 C 
BRANCH  21  22
ATOM     22  C   UNL     1      76.252  64.249 100.936  1.00  0.00     0.000 C 
BRANCH  22  23
ATOM     23  C   UNL     1      75.115  63.416 100.311  1.00  0.00     0.000 C 
BRANCH  23  24
ATOM     24  C   UNL     1      75.364  63.108  98.825  1.00  0.00    -0.000 C 
BRANCH  24  25
ATOM     25  C   UNL     1      74.310  63.740  97.898  1.00  0.00    -0.000 C 
BRANCH  25  26
ATOM     26  C   UNL     1      74.884  64.598  96.755  1.00  0.00    -0.000 C 
BRANCH  26  27
ATOM     27  C   UNL     1      74.994  63.830  95.429  1.00  0.00    -0.000 C 
BRANCH  27  28
ATOM     28  C   UNL     1      75.999  62.678  95.543  1.00  0.00    -0.000 C 
BRANCH  28  29
ATOM     29  C   UNL     1      75.290  61.317  95.478  1.00  0.00    -0.000 C 
BRANCH  29  30
ATOM     30  C   UNL     1      75.364  60.551  96.817  1.00  0.00    -0.000 C 
BRANCH  30  31
ATOM     31  C   UNL     1      76.746  60.607  97.488  1.00  0.00    -0.003 C 
ATOM     32  C   UNL     1      77.831  59.888  96.689  1.00  0.00     0.004 C 
ENDBRANCH  30  31
ENDBRANCH  29  30
ENDBRANCH  28  29
ENDBRANCH  27  28
ENDBRANCH  26  27
ENDBRANCH  25  26
ENDBRANCH  24  25
ENDBRANCH  23  24
ENDBRANCH  22  23
ENDBRANCH  21  22
ENDBRANCH  20  21
ENDBRANCH  19  20
ENDBRANCH  18  19
ENDBRANCH   1  18
TORSDOF 28
ENDMDL
MODEL 8
REMARK VINA RESULT:    22.269      2.933      9.576
REMARK INTER + INTRA:          55.801
REMARK INTER:                  53.498
REMARK INTRA:                   2.303
REMARK UNBOUND:                -2.920
REMARK SMILES CCCCCCCCCCCCCCCCCCCCCCCCCCCCCC(=O)[O-]
REMARK SMILES IDX 16 1 17 2 18 3 19 4 20 5 21 6 22 7 23 8 24 9 25 10 26 11
REMARK SMILES IDX 27 12 28 13 29 14 30 15 31 16 32 17 15 18 14 19 13 20 12 21
REMARK SMILES IDX 11 22 10 23 9 24 8 25 7 26 6 27 5 28 4 29 3 30 2 31 1 32
REMARK H PARENT
REMARK Flexibility Score: inf
ROOT
ATOM      1  C   UNL     1      80.870  66.137 102.768  1.00  0.00     0.000 C 
ENDROOT
BRANCH   1   2
ATOM      2  C   UNL     1      80.486  64.700 102.374  1.00  0.00     0.000 C 
BRANCH   2   3
ATOM      3  C   UNL     1      79.139  64.637 101.629  1.00  0.00     0.000 C 
BRANCH   3   4
ATOM      4  C   UNL     1      77.942  64.261 102.524  1.00  0.00     0.000 C 
BRANCH   4   5
ATOM      5  C   UNL     1      77.009  63.238 101.854  1.00  0.00     0.000 C 
BRANCH   5   6
ATOM      6  C   UNL     1      76.284  63.809 100.620  1.00  0.00     0.000 C 
BRANCH   6   7
ATOM      7  C   UNL     1      75.034  63.027 100.175  1.00  0.00     0.000 C 
BRANCH   7   8
ATOM      8  C   UNL     1      74.618  63.233  98.705  1.00  0.00     0.000 C 
BRANCH   8   9
ATOM      9  C   UNL     1      75.369  62.325  97.707  1.00  0.00     0.000 C 
BRANCH   9  10
ATOM     10  C   UNL     1      75.057  60.833  97.915  1.00  0.00     0.000 C 
BRANCH  10  11
ATOM     11  C   UNL     1      76.058  59.904  97.204  1.00  0.00     0.000 C 
BRANCH  11  12
ATOM     12  C   UNL     1      76.673  60.469  95.910  1.00  0.00     0.000 C 
BRANCH  12  13
ATOM     13  C   UNL     1      75.689  61.330  95.100  1.00  0.00     0.006 C 
BRANCH  13  14
ATOM     14  C   UNL     1      76.190  62.770  94.929  1.00  0.00     0.053 C 
BRANCH  14  15
ATOM     15  C   UNL     1      75.263  63.758  95.567  1.00  0.00     0.041 C 
ATOM     16  O   UNL     1      74.036  63.746  95.289  1.00  0.00    -0.550 OA
ATOM     17  O   UNL     1      75.751  64.678  96.487  1.00  0.00    -0.550 OA
ENDBRANCH  14  15
ENDBRANCH  13  14
ENDBRANCH  12  13
ENDBRANCH  11  12
ENDBRANCH  10  11
ENDBRANCH   9  10
ENDBRANCH   8   9
ENDBRANCH   7   8
ENDBRANCH   6   7
ENDBRANCH   5   6
ENDBRANCH   4   5
ENDBRANCH   3   4
ENDBRANCH   2   3
ENDBRANCH   1   2
BRANCH   1  18
ATOM     18  C   UNL     1      82.126  66.194 103.651  1.00  0.00     0.000 C 
BRANCH  18  19
ATOM     19  C   UNL     1      81.968  67.138 104.857  1.00  0.00     0.000 C 
BRANCH  19  20
ATOM     20  C   UNL     1      83.319  67.723 105.299  1.00  0.00     0.000 C 
BRANCH  20  21
ATOM     21  C   UNL     1      84.411  66.640 105.438  1.00  0.00     0.000 C 
BRANCH  21  22
ATOM     22  C   UNL     1      84.489  66.068 106.865  1.00  0.00     0.000 C 
BRANCH  22  23
ATOM     23  C   UNL     1      83.893  64.650 106.974  1.00  0.00     0.000 C 
BRANCH  23  24
ATOM     24  C   UNL     1      83.526  64.062 105.601  1.00  0.00    -0.000 C 
BRANCH  24  25
ATOM     25  C   UNL     1      84.469  62.926 105.166  1.00  0.00    -0.000 C 
BRANCH  25  26
ATOM     26  C   UNL     1      83.992  62.120 103.943  1.00  0.00    -0.000 C 
BRANCH  26  27
ATOM     27  C   UNL     1      83.363  63.001 102.853  1.00  0.00    -0.000 C 
BRANCH  27  28
ATOM     28  C   UNL     1      83.832  62.569 101.459  1.00  0.00    -0.000 C 
BRANCH  28  29
ATOM     29  C   UNL     1      85.313  62.909 101.242  1.00  0.00    -0.000 C 
BRANCH  29  30
ATOM     30  C   UNL     1      85.794  62.562  99.817  1.00  0.00    -0.000 C 
BRANCH  30  31
ATOM     31  C   UNL     1      85.413  63.613  98.760  1.00  0.00    -0.003 C 
ATOM     32  C   UNL     1      86.079  63.372  97.407  1.00  0.00     0.004 C 
ENDBRANCH  30  31
ENDBRANCH  29  30
ENDBRANCH  28  29
ENDBRANCH  27  28
ENDBRANCH  26  27
ENDBRANCH  25  26
ENDBRANCH  24  25
ENDBRANCH  23  24
ENDBRANCH  22  23
ENDBRANCH  21  22
ENDBRANCH  20  21
ENDBRANCH  19  20
ENDBRANCH  18  19
ENDBRANCH   1  18
TORSDOF 28
ENDMDL
MODEL 9
REMARK VINA RESULT:    22.715      2.656      5.425
REMARK INTER + INTRA:          56.976
REMARK INTER:                  57.232
REMARK INTRA:                  -0.255
REMARK UNBOUND:                -2.920
REMARK SMILES CCCCCCCCCCCCCCCCCCCCCCCCCCCCCC(=O)[O-]
REMARK SMILES IDX 16 1 17 2 18 3 19 4 20 5 21 6 22 7 23 8 24 9 25 10 26 11
REMARK SMILES IDX 27 12 28 13 29 14 30 15 31 16 32 17 15 18 14 19 13 20 12 21
REMARK SMILES IDX 11 22 10 23 9 24 8 25 7 26 6 27 5 28 4 29 3 30 2 31 1 32
REMARK H PARENT
REMARK Flexibility Score: inf
ROOT
ATOM      1  C   UNL     1      83.892  62.854 104.329  1.00  0.00     0.000 C 
ENDROOT
BRANCH   1   2
ATOM      2  C   UNL     1      85.060  62.194 105.083  1.00  0.00     0.000 C 
BRANCH   2   3
ATOM      3  C   UNL     1      85.589  63.075 106.230  1.00  0.00     0.000 C 
BRANCH   3   4
ATOM      4  C   UNL     1      86.597  62.366 107.155  1.00  0.00     0.000 C 
BRANCH   4   5
ATOM      5  C   UNL     1      87.441  63.360 107.973  1.00  0.00     0.000 C 
BRANCH   5   6
ATOM      6  C   UNL     1      87.895  62.782 109.327  1.00  0.00     0.000 C 
BRANCH   6   7
ATOM      7  C   UNL     1      87.789  63.750 110.520  1.00  0.00     0.000 C 
BRANCH   7   8
ATOM      8  C   UNL     1      86.381  64.325 110.778  1.00  0.00     0.000 C 
BRANCH   8   9
ATOM      9  C   UNL     1      86.348  65.861 110.930  1.00  0.00     0.000 C 
BRANCH   9  10
ATOM     10  C   UNL     1      87.170  66.580 109.846  1.00  0.00     0.000 C 
BRANCH  10  11
ATOM     11  C   UNL     1      86.875  66.064 108.425  1.00  0.00     0.000 C 
BRANCH  11  12
ATOM     12  C   UNL     1      85.382  65.963 108.060  1.00  0.00     0.000 C 
BRANCH  12  13
ATOM     13  C   UNL     1      85.039  66.655 106.730  1.00  0.00     0.006 C 
BRANCH  13  14
ATOM     14  C   UNL     1      83.622  66.313 106.252  1.00  0.00     0.053 C 
BRANCH  14  15
ATOM     15  C   UNL     1      83.285  67.015 104.972  1.00  0.00     0.041 C 
ATOM     16  O   UNL     1      83.902  68.061 104.643  1.00  0.00    -0.550 OA
ATOM     17  O   UNL     1      82.305  66.500 104.132  1.00  0.00    -0.550 OA
ENDBRANCH  14  15
ENDBRANCH  13  14
ENDBRANCH  12  13
ENDBRANCH  11  12
ENDBRANCH  10  11
ENDBRANCH   9  10
ENDBRANCH   8   9
ENDBRANCH   7   8
ENDBRANCH   6   7
ENDBRANCH   5   6
ENDBRANCH   4   5
ENDBRANCH   3   4
ENDBRANCH   2   3
ENDBRANCH   1   2
BRANCH   1  18
ATOM     18  C   UNL     1      83.972  62.640 102.809  1.00  0.00     0.000 C 
BRANCH  18  19
ATOM     19  C   UNL     1      82.760  61.874 102.247  1.00  0.00     0.000 C 
BRANCH  19  20
ATOM     20  C   UNL     1      81.686  62.831 101.708  1.00  0.00     0.000 C 
BRANCH  20  21
ATOM     21  C   UNL     1      81.317  63.934 102.723  1.00  0.00     0.000 C 
BRANCH  21  22
ATOM     22  C   UNL     1      80.452  65.041 102.097  1.00  0.00     0.000 C 
BRANCH  22  23
ATOM     23  C   UNL     1      79.405  64.493 101.106  1.00  0.00     0.000 C 
BRANCH  23  24
ATOM     24  C   UNL     1      78.401  63.543 101.781  1.00  0.00    -0.000 C 
BRANCH  24  25
ATOM     25  C   UNL     1      77.141  64.266 102.287  1.00  0.00    -0.000 C 
BRANCH  25  26
ATOM     26  C   UNL     1      75.879  64.045 101.433  1.00  0.00    -0.000 C 
BRANCH  26  27
ATOM     27  C   UNL     1      76.198  63.597  99.998  1.00  0.00    -0.000 C 
BRANCH  27  28
ATOM     28  C   UNL     1      75.166  64.148  99.008  1.00  0.00    -0.000 C 
BRANCH  28  29
ATOM     29  C   UNL     1      74.815  63.107  97.936  1.00  0.00    -0.000 C 
BRANCH  29  30
ATOM     30  C   UNL     1      76.024  62.224  97.557  1.00  0.00    -0.000 C 
BRANCH  30  31
ATOM     31  C   UNL     1      75.675  60.736  97.384  1.00  0.00    -0.003 C 
ATOM     32  C   UNL     1      76.832  59.909  96.827  1.00  0.00     0.004 C 
ENDBRANCH  30  31
ENDBRANCH  29  30
ENDBRANCH  28  29
ENDBRANCH  27  28
ENDBRANCH  26  27
ENDBRANCH  25  26
ENDBRANCH  24  25
ENDBRANCH  23  24
ENDBRANCH  22  23
ENDBRANCH  21  22
ENDBRANCH  20  21
ENDBRANCH  19  20
ENDBRANCH  18  19
ENDBRANCH   1  18
TORSDOF 28
ENDMDL
