MODEL 1
REMARK VINA RESULT:    -7.095      0.000      0.000
REMARK INTER + INTRA:          -8.829
REMARK INTER:                  -8.546
REMARK INTRA:                  -0.283
REMARK UNBOUND:                -0.283
REMARK SMILES O=c1c(O)c(-c2ccc(O)c(O)c2)oc2cc(O)cc(O)c12
REMARK SMILES IDX 5 1 3 2 2 3 1 4 22 5 20 6 19 7 17 8 16 9 15 10 14 11 6 12
REMARK SMILES IDX 7 13 8 14 9 15 13 16 11 17 10 18 12 20 4 22 21 24 18 26
REMARK H PARENT 10 19 12 21 4 23 21 25 18 27
REMARK Flexibility Score: inf
ROOT
ATOM      1  C   UNL     1     -38.027   4.806  79.357  1.00  0.00     0.180 A 
ATOM      2  C   UNL     1     -38.601   4.939  80.635  1.00  0.00     0.208 A 
ATOM      3  C   UNL     1     -39.910   4.477  80.842  1.00  0.00     0.238 A 
ATOM      4  O   UNL     1     -40.431   4.581  81.987  1.00  0.00    -0.285 OA
ATOM      5  C   UNL     1     -40.628   3.911  79.768  1.00  0.00     0.111 A 
ATOM      6  C   UNL     1     -41.952   3.426  79.893  1.00  0.00     0.134 A 
ATOM      7  C   UNL     1     -42.602   2.885  78.774  1.00  0.00     0.093 A 
ATOM      8  C   UNL     1     -41.957   2.820  77.537  1.00  0.00     0.123 A 
ATOM      9  C   UNL     1     -40.649   3.297  77.409  1.00  0.00     0.094 A 
ATOM     10  C   UNL     1     -39.983   3.840  78.512  1.00  0.00     0.146 A 
ATOM     11  O   UNL     1     -38.740   4.280  78.364  1.00  0.00    -0.452 OA
ENDROOT
BRANCH   1  12
ATOM     12  C   UNL     1     -36.645   5.251  79.064  1.00  0.00     0.025 A 
ATOM     13  C   UNL     1     -35.562   4.462  79.483  1.00  0.00     0.016 A 
ATOM     14  C   UNL     1     -34.249   4.873  79.235  1.00  0.00     0.051 A 
ATOM     15  C   UNL     1     -34.002   6.085  78.579  1.00  0.00     0.157 A 
ATOM     16  C   UNL     1     -36.391   6.478  78.424  1.00  0.00     0.062 A 
ATOM     17  C   UNL     1     -35.074   6.891  78.177  1.00  0.00     0.158 A 
BRANCH  15  18
ATOM     18  O   UNL     1     -32.695   6.499  78.329  1.00  0.00    -0.504 OA
ATOM     19  H   UNL     1     -32.339   7.378  78.688  1.00  0.00     0.293 HD
ENDBRANCH  15  18
BRANCH  17  20
ATOM     20  O   UNL     1     -34.824   8.104  77.537  1.00  0.00    -0.504 OA
ATOM     21  H   UNL     1     -34.521   8.140  76.570  1.00  0.00     0.293 HD
ENDBRANCH  17  20
ENDBRANCH   1  12
BRANCH   2  22
ATOM     22  O   UNL     1     -37.887   5.549  81.670  1.00  0.00    -0.502 OA
ATOM     23  H   UNL     1     -37.861   6.553  81.794  1.00  0.00     0.293 HD
ENDBRANCH   2  22
BRANCH   6  24
ATOM     24  O   UNL     1     -42.625   3.477  81.115  1.00  0.00    -0.507 OA
ATOM     25  H   UNL     1     -43.450   2.917  81.293  1.00  0.00     0.293 HD
ENDBRANCH   6  24
BRANCH   8  26
ATOM     26  O   UNL     1     -42.626   2.279  76.441  1.00  0.00    -0.508 OA
ATOM     27  H   UNL     1     -42.419   1.347  76.102  1.00  0.00     0.293 HD
ENDBRANCH   8  26
TORSDOF 6
ENDMDL
MODEL 2
REMARK VINA RESULT:    -6.466      1.768      7.221
REMARK INTER + INTRA:          -8.072
REMARK INTER:                  -7.748
REMARK INTRA:                  -0.325
REMARK UNBOUND:                -0.283
REMARK SMILES O=c1c(O)c(-c2ccc(O)c(O)c2)oc2cc(O)cc(O)c12
REMARK SMILES IDX 5 1 3 2 2 3 1 4 22 5 20 6 19 7 17 8 16 9 15 10 14 11 6 12
REMARK SMILES IDX 7 13 8 14 9 15 13 16 11 17 10 18 12 20 4 22 21 24 18 26
REMARK H PARENT 10 19 12 21 4 23 21 25 18 27
REMARK Flexibility Score: inf
ROOT
ATOM      1  C   UNL     1     -38.411   5.939  78.166  1.00  0.00     0.180 A 
ATOM      2  C   UNL     1     -38.693   7.185  77.576  1.00  0.00     0.208 A 
ATOM      3  C   UNL     1     -37.630   8.062  77.304  1.00  0.00     0.238 A 
ATOM      4  O   UNL     1     -37.869   9.178  76.765  1.00  0.00    -0.285 OA
ATOM      5  C   UNL     1     -36.313   7.688  77.643  1.00  0.00     0.111 A 
ATOM      6  C   UNL     1     -35.188   8.514  77.406  1.00  0.00     0.134 A 
ATOM      7  C   UNL     1     -33.911   8.074  77.781  1.00  0.00     0.093 A 
ATOM      8  C   UNL     1     -33.736   6.828  78.387  1.00  0.00     0.123 A 
ATOM      9  C   UNL     1     -34.844   6.007  78.623  1.00  0.00     0.094 A 
ATOM     10  C   UNL     1     -36.126   6.427  78.256  1.00  0.00     0.146 A 
ATOM     11  O   UNL     1     -37.159   5.626  78.486  1.00  0.00    -0.452 OA
ENDROOT
BRANCH   1  12
ATOM     12  C   UNL     1     -39.475   4.953  78.466  1.00  0.00     0.025 A 
ATOM     13  C   UNL     1     -39.840   4.012  77.490  1.00  0.00     0.016 A 
ATOM     14  C   UNL     1     -40.855   3.085  77.744  1.00  0.00     0.051 A 
ATOM     15  C   UNL     1     -41.528   3.096  78.972  1.00  0.00     0.157 A 
ATOM     16  C   UNL     1     -40.169   4.973  79.690  1.00  0.00     0.062 A 
ATOM     17  C   UNL     1     -41.188   4.044  79.944  1.00  0.00     0.158 A 
BRANCH  15  18
ATOM     18  O   UNL     1     -42.540   2.173  79.230  1.00  0.00    -0.504 OA
ATOM     19  H   UNL     1     -42.602   1.691  80.120  1.00  0.00     0.293 HD
ENDBRANCH  15  18
BRANCH  17  20
ATOM     20  O   UNL     1     -41.871   4.061  81.160  1.00  0.00    -0.504 OA
ATOM     21  H   UNL     1     -41.543   4.615  81.943  1.00  0.00     0.293 HD
ENDBRANCH  17  20
ENDBRANCH   1  12
BRANCH   2  22
ATOM     22  O   UNL     1     -40.011   7.553  77.295  1.00  0.00    -0.502 OA
ATOM     23  H   UNL     1     -40.606   7.013  76.677  1.00  0.00     0.293 HD
ENDBRANCH   2  22
BRANCH   6  24
ATOM     24  O   UNL     1     -35.330   9.765  76.803  1.00  0.00    -0.507 OA
ATOM     25  H   UNL     1     -34.706  10.534  77.019  1.00  0.00     0.293 HD
ENDBRANCH   6  24
BRANCH   8  26
ATOM     26  O   UNL     1     -32.456   6.414  78.752  1.00  0.00    -0.508 OA
ATOM     27  H   UNL     1     -31.986   6.797  79.563  1.00  0.00     0.293 HD
ENDBRANCH   8  26
TORSDOF 6
ENDMDL
MODEL 3
REMARK VINA RESULT:    -6.420      1.622      6.814
REMARK INTER + INTRA:          -8.016
REMARK INTER:                  -8.046
REMARK INTRA:                   0.030
REMARK UNBOUND:                -0.283
REMARK SMILES O=c1c(O)c(-c2ccc(O)c(O)c2)oc2cc(O)cc(O)c12
REMARK SMILES IDX 5 1 3 2 2 3 1 4 22 5 20 6 19 7 17 8 16 9 15 10 14 11 6 12
REMARK SMILES IDX 7 13 8 14 9 15 13 16 11 17 10 18 12 20 4 22 21 24 18 26
REMARK H PARENT 10 19 12 21 4 23 21 25 18 27
REMARK Flexibility Score: inf
ROOT
ATOM      1  C   UNL     1     -38.366   3.875  79.593  1.00  0.00     0.180 A 
ATOM      2  C   UNL     1     -37.860   3.345  80.795  1.00  0.00     0.208 A 
ATOM      3  C   UNL     1     -36.556   3.684  81.190  1.00  0.00     0.238 A 
ATOM      4  O   UNL     1     -36.096   3.224  82.271  1.00  0.00    -0.285 OA
ATOM      5  C   UNL     1     -35.776   4.526  80.370  1.00  0.00     0.111 A 
ATOM      6  C   UNL     1     -34.453   4.912  80.694  1.00  0.00     0.134 A 
ATOM      7  C   UNL     1     -33.739   5.745  79.821  1.00  0.00     0.093 A 
ATOM      8  C   UNL     1     -34.318   6.199  78.635  1.00  0.00     0.123 A 
ATOM      9  C   UNL     1     -35.626   5.822  78.310  1.00  0.00     0.094 A 
ATOM     10  C   UNL     1     -36.356   4.992  79.167  1.00  0.00     0.146 A 
ATOM     11  O   UNL     1     -37.596   4.654  78.838  1.00  0.00    -0.452 OA
ENDROOT
BRANCH   1  12
ATOM     12  C   UNL     1     -39.738   3.580  79.118  1.00  0.00     0.025 A 
ATOM     13  C   UNL     1     -39.950   3.280  77.763  1.00  0.00     0.016 A 
ATOM     14  C   UNL     1     -41.238   3.018  77.289  1.00  0.00     0.051 A 
ATOM     15  C   UNL     1     -42.334   3.069  78.160  1.00  0.00     0.157 A 
ATOM     16  C   UNL     1     -40.844   3.650  79.985  1.00  0.00     0.062 A 
ATOM     17  C   UNL     1     -42.137   3.390  79.509  1.00  0.00     0.158 A 
BRANCH  15  18
ATOM     18  O   UNL     1     -43.620   2.808  77.693  1.00  0.00    -0.504 OA
ATOM     19  H   UNL     1     -44.435   2.934  78.284  1.00  0.00     0.293 HD
ENDBRANCH  15  18
BRANCH  17  20
ATOM     20  O   UNL     1     -43.231   3.453  80.370  1.00  0.00    -0.504 OA
ATOM     21  H   UNL     1     -43.797   2.635  80.569  1.00  0.00     0.293 HD
ENDBRANCH  17  20
ENDBRANCH   1  12
BRANCH   2  22
ATOM     22  O   UNL     1     -38.636   2.474  81.564  1.00  0.00    -0.502 OA
ATOM     23  H   UNL     1     -39.530   2.744  81.956  1.00  0.00     0.293 HD
ENDBRANCH   2  22
BRANCH   6  24
ATOM     24  O   UNL     1     -33.845   4.474  81.872  1.00  0.00    -0.507 OA
ATOM     25  H   UNL     1     -33.705   3.489  82.065  1.00  0.00     0.293 HD
ENDBRANCH   6  24
BRANCH   8  26
ATOM     26  O   UNL     1     -33.587   7.025  77.784  1.00  0.00    -0.508 OA
ATOM     27  H   UNL     1     -33.576   6.878  76.782  1.00  0.00     0.293 HD
ENDBRANCH   8  26
TORSDOF 6
ENDMDL
MODEL 4
REMARK VINA RESULT:    -6.315      1.644      7.141
REMARK INTER + INTRA:          -7.890
REMARK INTER:                  -7.827
REMARK INTRA:                  -0.063
REMARK UNBOUND:                -0.283
REMARK SMILES O=c1c(O)c(-c2ccc(O)c(O)c2)oc2cc(O)cc(O)c12
REMARK SMILES IDX 5 1 3 2 2 3 1 4 22 5 20 6 19 7 17 8 16 9 15 10 14 11 6 12
REMARK SMILES IDX 7 13 8 14 9 15 13 16 11 17 10 18 12 20 4 22 21 24 18 26
REMARK H PARENT 10 19 12 21 4 23 21 25 18 27
REMARK Flexibility Score: inf
ROOT
ATOM      1  C   UNL     1     -38.518   4.565  79.052  1.00  0.00     0.180 A 
ATOM      2  C   UNL     1     -38.079   5.530  78.126  1.00  0.00     0.208 A 
ATOM      3  C   UNL     1     -36.756   5.993  78.207  1.00  0.00     0.238 A 
ATOM      4  O   UNL     1     -36.346   6.849  77.375  1.00  0.00    -0.285 OA
ATOM      5  C   UNL     1     -35.905   5.502  79.219  1.00  0.00     0.111 A 
ATOM      6  C   UNL     1     -34.561   5.920  79.371  1.00  0.00     0.134 A 
ATOM      7  C   UNL     1     -33.782   5.391  80.410  1.00  0.00     0.093 A 
ATOM      8  C   UNL     1     -34.318   4.457  81.298  1.00  0.00     0.123 A 
ATOM      9  C   UNL     1     -35.645   4.039  81.152  1.00  0.00     0.094 A 
ATOM     10  C   UNL     1     -36.439   4.553  80.122  1.00  0.00     0.146 A 
ATOM     11  O   UNL     1     -37.693   4.136  80.003  1.00  0.00    -0.452 OA
ENDROOT
BRANCH   1  12
ATOM     12  C   UNL     1     -39.893   4.013  79.020  1.00  0.00     0.025 A 
ATOM     13  C   UNL     1     -40.371   3.418  77.842  1.00  0.00     0.016 A 
ATOM     14  C   UNL     1     -41.671   2.909  77.784  1.00  0.00     0.051 A 
ATOM     15  C   UNL     1     -42.516   3.002  78.897  1.00  0.00     0.157 A 
ATOM     16  C   UNL     1     -40.752   4.123  80.129  1.00  0.00     0.062 A 
ATOM     17  C   UNL     1     -42.057   3.614  80.070  1.00  0.00     0.158 A 
BRANCH  15  18
ATOM     18  O   UNL     1     -43.813   2.495  78.844  1.00  0.00    -0.504 OA
ATOM     19  H   UNL     1     -44.002   1.560  78.500  1.00  0.00     0.293 HD
ENDBRANCH  15  18
BRANCH  17  20
ATOM     20  O   UNL     1     -42.905   3.717  81.171  1.00  0.00    -0.504 OA
ATOM     21  H   UNL     1     -43.580   4.469  81.251  1.00  0.00     0.293 HD
ENDBRANCH  17  20
ENDBRANCH   1  12
BRANCH   2  22
ATOM     22  O   UNL     1     -38.955   6.037  77.163  1.00  0.00    -0.502 OA
ATOM     23  H   UNL     1     -39.930   5.765  77.119  1.00  0.00     0.293 HD
ENDBRANCH   2  22
BRANCH   6  24
ATOM     24  O   UNL     1     -33.996   6.854  78.501  1.00  0.00    -0.507 OA
ATOM     25  H   UNL     1     -34.520   7.246  77.727  1.00  0.00     0.293 HD
ENDBRANCH   6  24
BRANCH   8  26
ATOM     26  O   UNL     1     -33.523   3.947  82.323  1.00  0.00    -0.508 OA
ATOM     27  H   UNL     1     -32.648   3.475  82.130  1.00  0.00     0.293 HD
ENDBRANCH   8  26
TORSDOF 6
ENDMDL
MODEL 5
REMARK VINA RESULT:    -6.239      1.660      6.974
REMARK INTER + INTRA:          -7.799
REMARK INTER:                  -7.508
REMARK INTRA:                  -0.291
REMARK UNBOUND:                -0.283
REMARK SMILES O=c1c(O)c(-c2ccc(O)c(O)c2)oc2cc(O)cc(O)c12
REMARK SMILES IDX 5 1 3 2 2 3 1 4 22 5 20 6 19 7 17 8 16 9 15 10 14 11 6 12
REMARK SMILES IDX 7 13 8 14 9 15 13 16 11 17 10 18 12 20 4 22 21 24 18 26
REMARK H PARENT 10 19 12 21 4 23 21 25 18 27
REMARK Flexibility Score: inf
ROOT
ATOM      1  C   UNL     1     -38.178   5.002  78.615  1.00  0.00     0.180 A 
ATOM      2  C   UNL     1     -37.005   4.321  78.991  1.00  0.00     0.208 A 
ATOM      3  C   UNL     1     -35.767   4.965  78.833  1.00  0.00     0.238 A 
ATOM      4  O   UNL     1     -34.709   4.370  79.177  1.00  0.00    -0.285 OA
ATOM      5  C   UNL     1     -35.722   6.264  78.285  1.00  0.00     0.111 A 
ATOM      6  C   UNL     1     -34.516   6.980  78.089  1.00  0.00     0.134 A 
ATOM      7  C   UNL     1     -34.554   8.265  77.530  1.00  0.00     0.093 A 
ATOM      8  C   UNL     1     -35.769   8.847  77.162  1.00  0.00     0.123 A 
ATOM      9  C   UNL     1     -36.963   8.144  77.354  1.00  0.00     0.094 A 
ATOM     10  C   UNL     1     -36.948   6.862  77.911  1.00  0.00     0.146 A 
ATOM     11  O   UNL     1     -38.096   6.220  78.087  1.00  0.00    -0.452 OA
ENDROOT
BRANCH   1  12
ATOM     12  C   UNL     1     -39.522   4.397  78.768  1.00  0.00     0.025 A 
ATOM     13  C   UNL     1     -40.128   4.375  80.034  1.00  0.00     0.016 A 
ATOM     14  C   UNL     1     -41.387   3.792  80.206  1.00  0.00     0.051 A 
ATOM     15  C   UNL     1     -42.049   3.210  79.117  1.00  0.00     0.157 A 
ATOM     16  C   UNL     1     -40.182   3.793  77.682  1.00  0.00     0.062 A 
ATOM     17  C   UNL     1     -41.443   3.207  77.855  1.00  0.00     0.158 A 
BRANCH  15  18
ATOM     18  O   UNL     1     -43.304   2.629  79.283  1.00  0.00    -0.504 OA
ATOM     19  H   UNL     1     -43.577   1.801  78.765  1.00  0.00     0.293 HD
ENDBRANCH  15  18
BRANCH  17  20
ATOM     20  O   UNL     1     -42.099   2.614  76.777  1.00  0.00    -0.504 OA
ATOM     21  H   UNL     1     -41.603   2.039  76.106  1.00  0.00     0.293 HD
ENDBRANCH  17  20
ENDBRANCH   1  12
BRANCH   2  22
ATOM     22  O   UNL     1     -37.072   3.016  79.485  1.00  0.00    -0.502 OA
ATOM     23  H   UNL     1     -36.555   2.250  79.071  1.00  0.00     0.293 HD
ENDBRANCH   2  22
BRANCH   6  24
ATOM     24  O   UNL     1     -33.285   6.426  78.446  1.00  0.00    -0.507 OA
ATOM     25  H   UNL     1     -32.657   6.893  79.088  1.00  0.00     0.293 HD
ENDBRANCH   6  24
BRANCH   8  26
ATOM     26  O   UNL     1     -35.779  10.125  76.607  1.00  0.00    -0.508 OA
ATOM     27  H   UNL     1     -35.864  10.268  75.608  1.00  0.00     0.293 HD
ENDBRANCH   8  26
TORSDOF 6
ENDMDL
MODEL 6
REMARK VINA RESULT:    -5.941      9.130     12.263
REMARK INTER + INTRA:          -7.440
REMARK INTER:                  -7.123
REMARK INTRA:                  -0.317
REMARK UNBOUND:                -0.283
REMARK SMILES O=c1c(O)c(-c2ccc(O)c(O)c2)oc2cc(O)cc(O)c12
REMARK SMILES IDX 5 1 3 2 2 3 1 4 22 5 20 6 19 7 17 8 16 9 15 10 14 11 6 12
REMARK SMILES IDX 7 13 8 14 9 15 13 16 11 17 10 18 12 20 4 22 21 24 18 26
REMARK H PARENT 10 19 12 21 4 23 21 25 18 27
REMARK Flexibility Score: inf
ROOT
ATOM      1  C   UNL     1     -41.297  -5.054  81.770  1.00  0.00     0.180 A 
ATOM      2  C   UNL     1     -41.541  -3.784  82.325  1.00  0.00     0.208 A 
ATOM      3  C   UNL     1     -40.476  -3.090  82.923  1.00  0.00     0.238 A 
ATOM      4  O   UNL     1     -40.680  -1.946  83.414  1.00  0.00    -0.285 OA
ATOM      5  C   UNL     1     -39.198  -3.684  82.974  1.00  0.00     0.111 A 
ATOM      6  C   UNL     1     -38.075  -3.054  83.562  1.00  0.00     0.134 A 
ATOM      7  C   UNL     1     -36.838  -3.714  83.581  1.00  0.00     0.093 A 
ATOM      8  C   UNL     1     -36.702  -4.989  83.027  1.00  0.00     0.123 A 
ATOM      9  C   UNL     1     -37.808  -5.616  82.445  1.00  0.00     0.094 A 
ATOM     10  C   UNL     1     -39.050  -4.974  82.414  1.00  0.00     0.146 A 
ATOM     11  O   UNL     1     -40.082  -5.590  81.850  1.00  0.00    -0.452 OA
ENDROOT
BRANCH   1  12
ATOM     12  C   UNL     1     -42.363  -5.840  81.105  1.00  0.00     0.025 A 
ATOM     13  C   UNL     1     -43.195  -6.666  81.878  1.00  0.00     0.016 A 
ATOM     14  C   UNL     1     -44.194  -7.432  81.269  1.00  0.00     0.051 A 
ATOM     15  C   UNL     1     -44.363  -7.394  79.880  1.00  0.00     0.157 A 
ATOM     16  C   UNL     1     -42.523  -5.822  79.708  1.00  0.00     0.062 A 
ATOM     17  C   UNL     1     -43.524  -6.592  79.097  1.00  0.00     0.158 A 
BRANCH  15  18
ATOM     18  O   UNL     1     -45.358  -8.155  79.269  1.00  0.00    -0.504 OA
ATOM     19  H   UNL     1     -45.151  -9.048  78.835  1.00  0.00     0.293 HD
ENDBRANCH  15  18
BRANCH  17  20
ATOM     20  O   UNL     1     -43.686  -6.568  77.713  1.00  0.00    -0.504 OA
ATOM     21  H   UNL     1     -43.140  -7.168  77.105  1.00  0.00     0.293 HD
ENDBRANCH  17  20
ENDBRANCH   1  12
BRANCH   2  22
ATOM     22  O   UNL     1     -42.827  -3.239  82.305  1.00  0.00    -0.502 OA
ATOM     23  H   UNL     1     -43.106  -2.529  81.639  1.00  0.00     0.293 HD
ENDBRANCH   2  22
BRANCH   6  24
ATOM     24  O   UNL     1     -38.178  -1.780  84.125  1.00  0.00    -0.507 OA
ATOM     25  H   UNL     1     -39.007  -1.210  84.004  1.00  0.00     0.293 HD
ENDBRANCH   6  24
BRANCH   8  26
ATOM     26  O   UNL     1     -35.462  -5.624  83.061  1.00  0.00    -0.508 OA
ATOM     27  H   UNL     1     -34.615  -5.147  82.779  1.00  0.00     0.293 HD
ENDBRANCH   8  26
TORSDOF 6
ENDMDL
MODEL 7
REMARK VINA RESULT:    -5.844     10.478     11.951
REMARK INTER + INTRA:          -7.323
REMARK INTER:                  -6.999
REMARK INTRA:                  -0.324
REMARK UNBOUND:                -0.283
REMARK SMILES O=c1c(O)c(-c2ccc(O)c(O)c2)oc2cc(O)cc(O)c12
REMARK SMILES IDX 5 1 3 2 2 3 1 4 22 5 20 6 19 7 17 8 16 9 15 10 14 11 6 12
REMARK SMILES IDX 7 13 8 14 9 15 13 16 11 17 10 18 12 20 4 22 21 24 18 26
REMARK H PARENT 10 19 12 21 4 23 21 25 18 27
REMARK Flexibility Score: inf
ROOT
ATOM      1  C   UNL     1     -46.955   2.333  73.258  1.00  0.00     0.180 A 
ATOM      2  C   UNL     1     -47.379   3.249  74.239  1.00  0.00     0.208 A 
ATOM      3  C   UNL     1     -47.434   4.614  73.914  1.00  0.00     0.238 A 
ATOM      4  O   UNL     1     -47.824   5.443  74.781  1.00  0.00    -0.285 OA
ATOM      5  C   UNL     1     -47.046   5.040  72.626  1.00  0.00     0.111 A 
ATOM      6  C   UNL     1     -47.068   6.396  72.220  1.00  0.00     0.134 A 
ATOM      7  C   UNL     1     -46.658   6.740  70.925  1.00  0.00     0.093 A 
ATOM      8  C   UNL     1     -46.226   5.760  70.029  1.00  0.00     0.123 A 
ATOM      9  C   UNL     1     -46.203   4.418  70.425  1.00  0.00     0.094 A 
ATOM     10  C   UNL     1     -46.609   4.053  71.712  1.00  0.00     0.146 A 
ATOM     11  O   UNL     1     -46.582   2.773  72.059  1.00  0.00    -0.452 OA
ENDROOT
BRANCH   1  12
ATOM     12  C   UNL     1     -46.888   0.876  73.519  1.00  0.00     0.025 A 
ATOM     13  C   UNL     1     -48.034   0.088  73.327  1.00  0.00     0.016 A 
ATOM     14  C   UNL     1     -47.999  -1.286  73.586  1.00  0.00     0.051 A 
ATOM     15  C   UNL     1     -46.824  -1.886  74.054  1.00  0.00     0.157 A 
ATOM     16  C   UNL     1     -45.716   0.272  74.008  1.00  0.00     0.062 A 
ATOM     17  C   UNL     1     -45.681  -1.105  74.270  1.00  0.00     0.158 A 
BRANCH  15  18
ATOM     18  O   UNL     1     -46.784  -3.254  74.312  1.00  0.00    -0.504 OA
ATOM     19  H   UNL     1     -47.578  -3.742  74.711  1.00  0.00     0.293 HD
ENDBRANCH  15  18
BRANCH  17  20
ATOM     20  O   UNL     1     -44.517  -1.703  74.749  1.00  0.00    -0.504 OA
ATOM     21  H   UNL     1     -44.020  -2.403  74.210  1.00  0.00     0.293 HD
ENDBRANCH  17  20
ENDBRANCH   1  12
BRANCH   2  22
ATOM     22  O   UNL     1     -47.711   2.807  75.523  1.00  0.00    -0.502 OA
ATOM     23  H   UNL     1     -47.120   2.981  76.327  1.00  0.00     0.293 HD
ENDBRANCH   2  22
BRANCH   6  24
ATOM     24  O   UNL     1     -47.494   7.400  73.092  1.00  0.00    -0.507 OA
ATOM     25  H   UNL     1     -47.195   8.362  72.982  1.00  0.00     0.293 HD
ENDBRANCH   6  24
BRANCH   8  26
ATOM     26  O   UNL     1     -45.822   6.128  68.748  1.00  0.00    -0.508 OA
ATOM     27  H   UNL     1     -44.843   6.211  68.504  1.00  0.00     0.293 HD
ENDBRANCH   8  26
TORSDOF 6
ENDMDL
MODEL 8
REMARK VINA RESULT:    -5.798      9.213     11.298
REMARK INTER + INTRA:          -7.268
REMARK INTER:                  -6.935
REMARK INTRA:                  -0.332
REMARK UNBOUND:                -0.283
REMARK SMILES O=c1c(O)c(-c2ccc(O)c(O)c2)oc2cc(O)cc(O)c12
REMARK SMILES IDX 5 1 3 2 2 3 1 4 22 5 20 6 19 7 17 8 16 9 15 10 14 11 6 12
REMARK SMILES IDX 7 13 8 14 9 15 13 16 11 17 10 18 12 20 4 22 21 24 18 26
REMARK H PARENT 10 19 12 21 4 23 21 25 18 27
REMARK Flexibility Score: inf
ROOT
ATOM      1  C   UNL     1     -42.451  -5.053  82.198  1.00  0.00     0.180 A 
ATOM      2  C   UNL     1     -42.893  -6.166  82.938  1.00  0.00     0.208 A 
ATOM      3  C   UNL     1     -44.008  -6.886  82.479  1.00  0.00     0.238 A 
ATOM      4  O   UNL     1     -44.407  -7.892  83.128  1.00  0.00    -0.285 OA
ATOM      5  C   UNL     1     -44.670  -6.471  81.305  1.00  0.00     0.111 A 
ATOM      6  C   UNL     1     -45.802  -7.138  80.778  1.00  0.00     0.134 A 
ATOM      7  C   UNL     1     -46.411  -6.658  79.610  1.00  0.00     0.093 A 
ATOM      8  C   UNL     1     -45.913  -5.526  78.960  1.00  0.00     0.123 A 
ATOM      9  C   UNL     1     -44.795  -4.863  79.476  1.00  0.00     0.094 A 
ATOM     10  C   UNL     1     -44.172  -5.327  80.639  1.00  0.00     0.146 A 
ATOM     11  O   UNL     1     -43.109  -4.682  81.104  1.00  0.00    -0.452 OA
ENDROOT
BRANCH   1  12
ATOM     12  C   UNL     1     -41.272  -4.255  82.607  1.00  0.00     0.025 A 
ATOM     13  C   UNL     1     -41.459  -3.078  83.349  1.00  0.00     0.016 A 
ATOM     14  C   UNL     1     -40.362  -2.298  83.728  1.00  0.00     0.051 A 
ATOM     15  C   UNL     1     -39.066  -2.676  83.357  1.00  0.00     0.157 A 
ATOM     16  C   UNL     1     -39.969  -4.619  82.219  1.00  0.00     0.062 A 
ATOM     17  C   UNL     1     -38.870  -3.836  82.597  1.00  0.00     0.158 A 
BRANCH  15  18
ATOM     18  O   UNL     1     -37.970  -1.903  83.733  1.00  0.00    -0.504 OA
ATOM     19  H   UNL     1     -37.038  -2.298  83.792  1.00  0.00     0.293 HD
ENDBRANCH  15  18
BRANCH  17  20
ATOM     20  O   UNL     1     -37.579  -4.202  82.217  1.00  0.00    -0.504 OA
ATOM     21  H   UNL     1     -36.828  -4.275  82.894  1.00  0.00     0.293 HD
ENDBRANCH  17  20
ENDBRANCH   1  12
BRANCH   2  22
ATOM     22  O   UNL     1     -42.250  -6.527  84.125  1.00  0.00    -0.502 OA
ATOM     23  H   UNL     1     -42.027  -5.855  84.849  1.00  0.00     0.293 HD
ENDBRANCH   2  22
BRANCH   6  24
ATOM     24  O   UNL     1     -46.324  -8.271  81.404  1.00  0.00    -0.507 OA
ATOM     25  H   UNL     1     -47.317  -8.374  81.578  1.00  0.00     0.293 HD
ENDBRANCH   6  24
BRANCH   8  26
ATOM     26  O   UNL     1     -46.537  -5.069  77.801  1.00  0.00    -0.508 OA
ATOM     27  H   UNL     1     -46.962  -5.708  77.141  1.00  0.00     0.293 HD
ENDBRANCH   8  26
TORSDOF 6
ENDMDL
MODEL 9
REMARK VINA RESULT:    -5.719     10.271     11.019
REMARK INTER + INTRA:          -7.173
REMARK INTER:                  -7.086
REMARK INTRA:                  -0.087
REMARK UNBOUND:                -0.283
REMARK SMILES O=c1c(O)c(-c2ccc(O)c(O)c2)oc2cc(O)cc(O)c12
REMARK SMILES IDX 5 1 3 2 2 3 1 4 22 5 20 6 19 7 17 8 16 9 15 10 14 11 6 12
REMARK SMILES IDX 7 13 8 14 9 15 13 16 11 17 10 18 12 20 4 22 21 24 18 26
REMARK H PARENT 10 19 12 21 4 23 21 25 18 27
REMARK Flexibility Score: inf
ROOT
ATOM      1  C   UNL     1     -39.977  -5.359  82.073  1.00  0.00     0.180 A 
ATOM      2  C   UNL     1     -40.634  -4.537  83.007  1.00  0.00     0.208 A 
ATOM      3  C   UNL     1     -41.976  -4.191  82.781  1.00  0.00     0.238 A 
ATOM      4  O   UNL     1     -42.579  -3.464  83.617  1.00  0.00    -0.285 OA
ATOM      5  C   UNL     1     -42.629  -4.654  81.620  1.00  0.00     0.111 A 
ATOM      6  C   UNL     1     -43.977  -4.349  81.316  1.00  0.00     0.134 A 
ATOM      7  C   UNL     1     -44.552  -4.840  80.135  1.00  0.00     0.093 A 
ATOM      8  C   UNL     1     -43.809  -5.629  79.255  1.00  0.00     0.123 A 
ATOM      9  C   UNL     1     -42.476  -5.935  79.550  1.00  0.00     0.094 A 
ATOM     10  C   UNL     1     -41.884  -5.455  80.723  1.00  0.00     0.146 A 
ATOM     11  O   UNL     1     -40.620  -5.765  80.982  1.00  0.00    -0.452 OA
ENDROOT
BRANCH   1  12
ATOM     12  C   UNL     1     -38.569  -5.783  82.251  1.00  0.00     0.025 A 
ATOM     13  C   UNL     1     -37.560  -4.810  82.331  1.00  0.00     0.016 A 
ATOM     14  C   UNL     1     -36.222  -5.188  82.478  1.00  0.00     0.051 A 
ATOM     15  C   UNL     1     -35.874  -6.543  82.532  1.00  0.00     0.157 A 
ATOM     16  C   UNL     1     -38.211  -7.143  82.285  1.00  0.00     0.062 A 
ATOM     17  C   UNL     1     -36.870  -7.522  82.430  1.00  0.00     0.158 A 
BRANCH  15  18
ATOM     18  O   UNL     1     -34.542  -6.924  82.680  1.00  0.00    -0.504 OA
ATOM     19  H   UNL     1     -34.133  -7.655  82.107  1.00  0.00     0.293 HD
ENDBRANCH  15  18
BRANCH  17  20
ATOM     20  O   UNL     1     -36.517  -8.871  82.470  1.00  0.00    -0.504 OA
ATOM     21  H   UNL     1     -36.325  -9.393  81.623  1.00  0.00     0.293 HD
ENDBRANCH  17  20
ENDBRANCH   1  12
BRANCH   2  22
ATOM     22  O   UNL     1     -39.950  -4.050  84.125  1.00  0.00    -0.502 OA
ATOM     23  H   UNL     1     -40.065  -3.102  84.461  1.00  0.00     0.293 HD
ENDBRANCH   2  22
BRANCH   6  24
ATOM     24  O   UNL     1     -44.747  -3.562  82.175  1.00  0.00    -0.507 OA
ATOM     25  H   UNL     1     -44.946  -2.590  81.972  1.00  0.00     0.293 HD
ENDBRANCH   6  24
BRANCH   8  26
ATOM     26  O   UNL     1     -44.403  -6.104  78.088  1.00  0.00    -0.508 OA
ATOM     27  H   UNL     1     -44.412  -7.091  77.861  1.00  0.00     0.293 HD
ENDBRANCH   8  26
TORSDOF 6
ENDMDL
