MODEL 1
REMARK VINA RESULT:    -1.077      0.000      0.000
REMARK INTER + INTRA:          -9.919
REMARK INTER:                  -2.840
REMARK INTRA:                  -7.079
REMARK UNBOUND:                -7.079
REMARK SMILES CCCCCCCCCCCCCCCCCCCCCCCCCCCCCC(=O)[O-]
REMARK SMILES IDX 16 1 17 2 18 3 19 4 20 5 21 6 22 7 23 8 24 9 25 10 26 11
REMARK SMILES IDX 27 12 28 13 29 14 30 15 31 16 32 17 15 18 14 19 13 20 12 21
REMARK SMILES IDX 11 22 10 23 9 24 8 25 7 26 6 27 5 28 4 29 3 30 2 31 1 32
REMARK H PARENT
REMARK Flexibility Score: inf
ROOT
ATOM      1  C   UNL     1      17.468 -35.259   3.458  1.00  0.00     0.000 C 
ENDROOT
BRANCH   1   2
ATOM      2  C   UNL     1      18.888 -34.672   3.499  1.00  0.00     0.000 C 
BRANCH   2   3
ATOM      3  C   UNL     1      18.994 -33.358   2.706  1.00  0.00     0.000 C 
BRANCH   3   4
ATOM      4  C   UNL     1      17.624 -32.777   2.311  1.00  0.00     0.000 C 
BRANCH   4   5
ATOM      5  C   UNL     1      17.389 -31.309   2.713  1.00  0.00     0.000 C 
BRANCH   5   6
ATOM      6  C   UNL     1      17.972 -30.957   4.090  1.00  0.00     0.000 C 
BRANCH   6   7
ATOM      7  C   UNL     1      17.029 -31.338   5.245  1.00  0.00     0.000 C 
BRANCH   7   8
ATOM      8  C   UNL     1      17.546 -32.511   6.104  1.00  0.00     0.000 C 
BRANCH   8   9
ATOM      9  C   UNL     1      16.442 -33.526   6.438  1.00  0.00     0.000 C 
BRANCH   9  10
ATOM     10  C   UNL     1      15.074 -33.022   5.957  1.00  0.00     0.000 C 
BRANCH  10  11
ATOM     11  C   UNL     1      14.410 -33.964   4.942  1.00  0.00     0.000 C 
BRANCH  11  12
ATOM     12  C   UNL     1      14.233 -33.318   3.558  1.00  0.00     0.000 C 
BRANCH  12  13
ATOM     13  C   UNL     1      13.563 -31.940   3.676  1.00  0.00     0.006 C 
BRANCH  13  14
ATOM     14  C   UNL     1      13.748 -31.090   2.411  1.00  0.00     0.053 C 
BRANCH  14  15
ATOM     15  C   UNL     1      14.118 -29.675   2.733  1.00  0.00     0.041 C 
ATOM     16  O   UNL     1      14.122 -28.796   1.831  1.00  0.00    -0.550 OA
ATOM     17  O   UNL     1      14.430 -29.318   4.039  1.00  0.00    -0.550 OA
ENDBRANCH  14  15
ENDBRANCH  13  14
ENDBRANCH  12  13
ENDBRANCH  11  12
ENDBRANCH  10  11
ENDBRANCH   9  10
ENDBRANCH   8   9
ENDBRANCH   7   8
ENDBRANCH   6   7
ENDBRANCH   5   6
ENDBRANCH   4   5
ENDBRANCH   3   4
ENDBRANCH   2   3
ENDBRANCH   1   2
BRANCH   1  18
ATOM     18  C   UNL     1      17.365 -36.589   4.218  1.00  0.00     0.000 C 
BRANCH  18  19
ATOM     19  C   UNL     1      16.517 -37.605   3.436  1.00  0.00     0.000 C 
BRANCH  19  20
ATOM     20  C   UNL     1      15.209 -36.993   2.892  1.00  0.00     0.000 C 
BRANCH  20  21
ATOM     21  C   UNL     1      14.397 -37.947   1.992  1.00  0.00     0.000 C 
BRANCH  21  22
ATOM     22  C   UNL     1      13.354 -37.263   1.090  1.00  0.00     0.000 C 
BRANCH  22  23
ATOM     23  C   UNL     1      12.790 -35.936   1.635  1.00  0.00     0.000 C 
BRANCH  23  24
ATOM     24  C   UNL     1      11.875 -35.190   0.640  1.00  0.00    -0.000 C 
BRANCH  24  25
ATOM     25  C   UNL     1      12.428 -33.806   0.258  1.00  0.00    -0.000 C 
BRANCH  25  26
ATOM     26  C   UNL     1      13.920 -33.848  -0.115  1.00  0.00    -0.000 C 
BRANCH  26  27
ATOM     27  C   UNL     1      14.165 -34.503  -1.484  1.00  0.00    -0.000 C 
BRANCH  27  28
ATOM     28  C   UNL     1      15.539 -35.185  -1.528  1.00  0.00    -0.000 C 
BRANCH  28  29
ATOM     29  C   UNL     1      16.203 -35.171  -0.143  1.00  0.00    -0.000 C 
BRANCH  29  30
ATOM     30  C   UNL     1      17.369 -36.166  -0.031  1.00  0.00    -0.000 C 
BRANCH  30  31
ATOM     31  C   UNL     1      18.583 -35.755  -0.879  1.00  0.00    -0.003 C 
ATOM     32  C   UNL     1      19.842 -35.661  -0.022  1.00  0.00     0.004 C 
ENDBRANCH  30  31
ENDBRANCH  29  30
ENDBRANCH  28  29
ENDBRANCH  27  28
ENDBRANCH  26  27
ENDBRANCH  25  26
ENDBRANCH  24  25
ENDBRANCH  23  24
ENDBRANCH  22  23
ENDBRANCH  21  22
ENDBRANCH  20  21
ENDBRANCH  19  20
ENDBRANCH  18  19
ENDBRANCH   1  18
TORSDOF 28
ENDMDL
MODEL 2
REMARK VINA RESULT:    -1.023      4.126      7.400
REMARK INTER + INTRA:          -9.777
REMARK INTER:                  -3.042
REMARK INTRA:                  -6.735
REMARK UNBOUND:                -7.079
REMARK SMILES CCCCCCCCCCCCCCCCCCCCCCCCCCCCCC(=O)[O-]
REMARK SMILES IDX 16 1 17 2 18 3 19 4 20 5 21 6 22 7 23 8 24 9 25 10 26 11
REMARK SMILES IDX 27 12 28 13 29 14 30 15 31 16 32 17 15 18 14 19 13 20 12 21
REMARK SMILES IDX 11 22 10 23 9 24 8 25 7 26 6 27 5 28 4 29 3 30 2 31 1 32
REMARK H PARENT
REMARK Flexibility Score: inf
ROOT
ATOM      1  C   UNL     1      20.871 -30.069   4.924  1.00  0.00     0.000 C 
ENDROOT
BRANCH   1   2
ATOM      2  C   UNL     1      19.557 -29.489   4.375  1.00  0.00     0.000 C 
BRANCH   2   3
ATOM      3  C   UNL     1      18.835 -30.475   3.442  1.00  0.00     0.000 C 
BRANCH   3   4
ATOM      4  C   UNL     1      19.130 -30.227   1.951  1.00  0.00     0.000 C 
BRANCH   4   5
ATOM      5  C   UNL     1      19.942 -31.329   1.246  1.00  0.00     0.000 C 
BRANCH   5   6
ATOM      6  C   UNL     1      19.410 -32.744   1.523  1.00  0.00     0.000 C 
BRANCH   6   7
ATOM      7  C   UNL     1      20.488 -33.826   1.339  1.00  0.00     0.000 C 
BRANCH   7   8
ATOM      8  C   UNL     1      20.479 -34.901   2.447  1.00  0.00     0.000 C 
BRANCH   8   9
ATOM      9  C   UNL     1      19.056 -35.266   2.899  1.00  0.00     0.000 C 
BRANCH   9  10
ATOM     10  C   UNL     1      18.898 -35.074   4.414  1.00  0.00     0.000 C 
BRANCH  10  11
ATOM     11  C   UNL     1      18.017 -33.870   4.778  1.00  0.00     0.000 C 
BRANCH  11  12
ATOM     12  C   UNL     1      16.576 -34.009   4.261  1.00  0.00     0.000 C 
BRANCH  12  13
ATOM     13  C   UNL     1      16.198 -32.820   3.363  1.00  0.00     0.006 C 
BRANCH  13  14
ATOM     14  C   UNL     1      15.881 -33.252   1.924  1.00  0.00     0.053 C 
BRANCH  14  15
ATOM     15  C   UNL     1      14.415 -33.176   1.624  1.00  0.00     0.041 C 
ATOM     16  O   UNL     1      13.620 -32.662   2.454  1.00  0.00    -0.550 OA
ATOM     17  O   UNL     1      13.929 -33.646   0.410  1.00  0.00    -0.550 OA
ENDBRANCH  14  15
ENDBRANCH  13  14
ENDBRANCH  12  13
ENDBRANCH  11  12
ENDBRANCH  10  11
ENDBRANCH   9  10
ENDBRANCH   8   9
ENDBRANCH   7   8
ENDBRANCH   6   7
ENDBRANCH   5   6
ENDBRANCH   4   5
ENDBRANCH   3   4
ENDBRANCH   2   3
ENDBRANCH   1   2
BRANCH   1  18
ATOM     18  C   UNL     1      20.850 -31.603   4.983  1.00  0.00     0.000 C 
BRANCH  18  19
ATOM     19  C   UNL     1      22.094 -32.196   4.304  1.00  0.00     0.000 C 
BRANCH  19  20
ATOM     20  C   UNL     1      22.820 -31.178   3.401  1.00  0.00     0.000 C 
BRANCH  20  21
ATOM     21  C   UNL     1      23.577 -31.816   2.219  1.00  0.00     0.000 C 
BRANCH  21  22
ATOM     22  C   UNL     1      23.448 -31.066   0.880  1.00  0.00     0.000 C 
BRANCH  22  23
ATOM     23  C   UNL     1      23.219 -31.965  -0.351  1.00  0.00     0.000 C 
BRANCH  23  24
ATOM     24  C   UNL     1      22.508 -31.251  -1.521  1.00  0.00    -0.000 C 
BRANCH  24  25
ATOM     25  C   UNL     1      22.224 -29.769  -1.220  1.00  0.00    -0.000 C 
BRANCH  25  26
ATOM     26  C   UNL     1      20.891 -29.289  -1.818  1.00  0.00    -0.000 C 
BRANCH  26  27
ATOM     27  C   UNL     1      20.181 -28.262  -0.922  1.00  0.00    -0.000 C 
BRANCH  27  28
ATOM     28  C   UNL     1      21.197 -27.418  -0.141  1.00  0.00    -0.000 C 
BRANCH  28  29
ATOM     29  C   UNL     1      20.730 -27.198   1.306  1.00  0.00    -0.000 C 
BRANCH  29  30
ATOM     30  C   UNL     1      21.843 -27.450   2.336  1.00  0.00    -0.000 C 
BRANCH  30  31
ATOM     31  C   UNL     1      23.234 -27.558   1.691  1.00  0.00    -0.003 C 
ATOM     32  C   UNL     1      24.301 -27.864   2.738  1.00  0.00     0.004 C 
ENDBRANCH  30  31
ENDBRANCH  29  30
ENDBRANCH  28  29
ENDBRANCH  27  28
ENDBRANCH  26  27
ENDBRANCH  25  26
ENDBRANCH  24  25
ENDBRANCH  23  24
ENDBRANCH  22  23
ENDBRANCH  21  22
ENDBRANCH  20  21
ENDBRANCH  19  20
ENDBRANCH  18  19
ENDBRANCH   1  18
TORSDOF 28
ENDMDL
MODEL 3
REMARK VINA RESULT:    -1.001      2.601      6.651
REMARK INTER + INTRA:          -9.717
REMARK INTER:                  -2.834
REMARK INTRA:                  -6.884
REMARK UNBOUND:                -7.079
REMARK SMILES CCCCCCCCCCCCCCCCCCCCCCCCCCCCCC(=O)[O-]
REMARK SMILES IDX 16 1 17 2 18 3 19 4 20 5 21 6 22 7 23 8 24 9 25 10 26 11
REMARK SMILES IDX 27 12 28 13 29 14 30 15 31 16 32 17 15 18 14 19 13 20 12 21
REMARK SMILES IDX 11 22 10 23 9 24 8 25 7 26 6 27 5 28 4 29 3 30 2 31 1 32
REMARK H PARENT
REMARK Flexibility Score: inf
ROOT
ATOM      1  C   UNL     1      17.512 -33.862   1.511  1.00  0.00     0.000 C 
ENDROOT
BRANCH   1   2
ATOM      2  C   UNL     1      17.495 -35.168   0.700  1.00  0.00     0.000 C 
BRANCH   2   3
ATOM      3  C   UNL     1      16.204 -35.321  -0.121  1.00  0.00     0.000 C 
BRANCH   3   4
ATOM      4  C   UNL     1      15.207 -34.168   0.095  1.00  0.00     0.000 C 
BRANCH   4   5
ATOM      5  C   UNL     1      13.895 -34.271  -0.704  1.00  0.00     0.000 C 
BRANCH   5   6
ATOM      6  C   UNL     1      12.686 -34.657   0.162  1.00  0.00     0.000 C 
BRANCH   6   7
ATOM      7  C   UNL     1      12.586 -36.175   0.392  1.00  0.00     0.000 C 
BRANCH   7   8
ATOM      8  C   UNL     1      13.100 -36.625   1.776  1.00  0.00     0.000 C 
BRANCH   8   9
ATOM      9  C   UNL     1      13.072 -35.490   2.811  1.00  0.00     0.000 C 
BRANCH   9  10
ATOM     10  C   UNL     1      14.391 -35.435   3.597  1.00  0.00     0.000 C 
BRANCH  10  11
ATOM     11  C   UNL     1      14.185 -35.500   5.118  1.00  0.00     0.000 C 
BRANCH  11  12
ATOM     12  C   UNL     1      15.264 -34.731   5.898  1.00  0.00     0.000 C 
BRANCH  12  13
ATOM     13  C   UNL     1      16.349 -34.195   4.950  1.00  0.00     0.006 C 
BRANCH  13  14
ATOM     14  C   UNL     1      17.767 -34.543   5.428  1.00  0.00     0.053 C 
BRANCH  14  15
ATOM     15  C   UNL     1      18.401 -35.603   4.581  1.00  0.00     0.041 C 
ATOM     16  O   UNL     1      17.723 -36.584   4.173  1.00  0.00    -0.550 OA
ATOM     17  O   UNL     1      19.737 -35.494   4.214  1.00  0.00    -0.550 OA
ENDBRANCH  14  15
ENDBRANCH  13  14
ENDBRANCH  12  13
ENDBRANCH  11  12
ENDBRANCH  10  11
ENDBRANCH   9  10
ENDBRANCH   8   9
ENDBRANCH   7   8
ENDBRANCH   6   7
ENDBRANCH   5   6
ENDBRANCH   4   5
ENDBRANCH   3   4
ENDBRANCH   2   3
ENDBRANCH   1   2
BRANCH   1  18
ATOM     18  C   UNL     1      18.908 -33.224   1.559  1.00  0.00     0.000 C 
BRANCH  18  19
ATOM     19  C   UNL     1      19.037 -32.273   2.758  1.00  0.00     0.000 C 
BRANCH  19  20
ATOM     20  C   UNL     1      18.288 -30.941   2.544  1.00  0.00     0.000 C 
BRANCH  20  21
ATOM     21  C   UNL     1      17.067 -30.753   3.466  1.00  0.00     0.000 C 
BRANCH  21  22
ATOM     22  C   UNL     1      15.721 -30.581   2.738  1.00  0.00     0.000 C 
BRANCH  22  23
ATOM     23  C   UNL     1      14.780 -31.799   2.813  1.00  0.00     0.000 C 
BRANCH  23  24
ATOM     24  C   UNL     1      13.398 -31.562   2.165  1.00  0.00    -0.000 C 
BRANCH  24  25
ATOM     25  C   UNL     1      12.279 -31.408   3.210  1.00  0.00    -0.000 C 
BRANCH  25  26
ATOM     26  C   UNL     1      12.509 -32.280   4.456  1.00  0.00    -0.000 C 
BRANCH  26  27
ATOM     27  C   UNL     1      12.301 -31.501   5.765  1.00  0.00    -0.000 C 
BRANCH  27  28
ATOM     28  C   UNL     1      13.541 -31.597   6.664  1.00  0.00    -0.000 C 
BRANCH  28  29
ATOM     29  C   UNL     1      14.566 -30.512   6.302  1.00  0.00    -0.000 C 
BRANCH  29  30
ATOM     30  C   UNL     1      13.969 -29.096   6.331  1.00  0.00    -0.000 C 
BRANCH  30  31
ATOM     31  C   UNL     1      14.173 -28.339   5.009  1.00  0.00    -0.003 C 
ATOM     32  C   UNL     1      12.835 -27.956   4.385  1.00  0.00     0.004 C 
ENDBRANCH  30  31
ENDBRANCH  29  30
ENDBRANCH  28  29
ENDBRANCH  27  28
ENDBRANCH  26  27
ENDBRANCH  25  26
ENDBRANCH  24  25
ENDBRANCH  23  24
ENDBRANCH  22  23
ENDBRANCH  21  22
ENDBRANCH  20  21
ENDBRANCH  19  20
ENDBRANCH  18  19
ENDBRANCH   1  18
TORSDOF 28
ENDMDL
MODEL 4
REMARK VINA RESULT:    -0.998      3.339      6.661
REMARK INTER + INTRA:          -9.710
REMARK INTER:                  -2.839
REMARK INTRA:                  -6.870
REMARK UNBOUND:                -7.079
REMARK SMILES CCCCCCCCCCCCCCCCCCCCCCCCCCCCCC(=O)[O-]
REMARK SMILES IDX 16 1 17 2 18 3 19 4 20 5 21 6 22 7 23 8 24 9 25 10 26 11
REMARK SMILES IDX 27 12 28 13 29 14 30 15 31 16 32 17 15 18 14 19 13 20 12 21
REMARK SMILES IDX 11 22 10 23 9 24 8 25 7 26 6 27 5 28 4 29 3 30 2 31 1 32
REMARK H PARENT
REMARK Flexibility Score: inf
ROOT
ATOM      1  C   UNL     1      18.587 -30.384   2.645  1.00  0.00     0.000 C 
ENDROOT
BRANCH   1   2
ATOM      2  C   UNL     1      19.071 -29.925   4.030  1.00  0.00     0.000 C 
BRANCH   2   3
ATOM      3  C   UNL     1      19.129 -31.087   5.036  1.00  0.00     0.000 C 
BRANCH   3   4
ATOM      4  C   UNL     1      20.527 -31.723   5.147  1.00  0.00     0.000 C 
BRANCH   4   5
ATOM      5  C   UNL     1      21.701 -30.814   4.739  1.00  0.00     0.000 C 
BRANCH   5   6
ATOM      6  C   UNL     1      22.815 -31.562   3.992  1.00  0.00     0.000 C 
BRANCH   6   7
ATOM      7  C   UNL     1      22.597 -33.085   3.978  1.00  0.00     0.000 C 
BRANCH   7   8
ATOM      8  C   UNL     1      23.095 -33.769   2.686  1.00  0.00     0.000 C 
BRANCH   8   9
ATOM      9  C   UNL     1      22.736 -35.262   2.637  1.00  0.00     0.000 C 
BRANCH   9  10
ATOM     10  C   UNL     1      22.495 -35.718   1.190  1.00  0.00     0.000 C 
BRANCH  10  11
ATOM     11  C   UNL     1      22.468 -34.552   0.190  1.00  0.00     0.000 C 
BRANCH  11  12
ATOM     12  C   UNL     1      21.316 -34.662  -0.822  1.00  0.00     0.000 C 
BRANCH  12  13
ATOM     13  C   UNL     1      20.515 -35.956  -0.603  1.00  0.00     0.006 C 
BRANCH  13  14
ATOM     14  C   UNL     1      19.109 -35.883  -1.216  1.00  0.00     0.053 C 
BRANCH  14  15
ATOM     15  C   UNL     1      18.274 -37.071  -0.851  1.00  0.00     0.041 C 
ATOM     16  O   UNL     1      17.056 -37.117  -1.169  1.00  0.00    -0.550 OA
ATOM     17  O   UNL     1      18.848 -38.146  -0.183  1.00  0.00    -0.550 OA
ENDBRANCH  14  15
ENDBRANCH  13  14
ENDBRANCH  12  13
ENDBRANCH  11  12
ENDBRANCH  10  11
ENDBRANCH   9  10
ENDBRANCH   8   9
ENDBRANCH   7   8
ENDBRANCH   6   7
ENDBRANCH   5   6
ENDBRANCH   4   5
ENDBRANCH   3   4
ENDBRANCH   2   3
ENDBRANCH   1   2
BRANCH   1  18
ATOM     18  C   UNL     1      19.728 -30.441   1.619  1.00  0.00     0.000 C 
BRANCH  18  19
ATOM     19  C   UNL     1      20.145 -31.893   1.341  1.00  0.00     0.000 C 
BRANCH  19  20
ATOM     20  C   UNL     1      19.006 -32.899   1.605  1.00  0.00     0.000 C 
BRANCH  20  21
ATOM     21  C   UNL     1      19.363 -33.998   2.626  1.00  0.00     0.000 C 
BRANCH  21  22
ATOM     22  C   UNL     1      18.592 -35.320   2.458  1.00  0.00     0.000 C 
BRANCH  22  23
ATOM     23  C   UNL     1      17.792 -35.769   3.696  1.00  0.00     0.000 C 
BRANCH  23  24
ATOM     24  C   UNL     1      17.552 -34.645   4.727  1.00  0.00    -0.000 C 
BRANCH  24  25
ATOM     25  C   UNL     1      16.118 -34.657   5.286  1.00  0.00    -0.000 C 
BRANCH  25  26
ATOM     26  C   UNL     1      15.166 -33.749   4.489  1.00  0.00    -0.000 C 
BRANCH  26  27
ATOM     27  C   UNL     1      15.895 -32.568   3.829  1.00  0.00    -0.000 C 
BRANCH  27  28
ATOM     28  C   UNL     1      15.437 -32.381   2.377  1.00  0.00    -0.000 C 
BRANCH  28  29
ATOM     29  C   UNL     1      14.844 -33.684   1.817  1.00  0.00    -0.000 C 
BRANCH  29  30
ATOM     30  C   UNL     1      15.662 -34.256   0.648  1.00  0.00    -0.000 C 
BRANCH  30  31
ATOM     31  C   UNL     1      14.811 -34.501  -0.607  1.00  0.00    -0.003 C 
ATOM     32  C   UNL     1      13.479 -33.762  -0.519  1.00  0.00     0.004 C 
ENDBRANCH  30  31
ENDBRANCH  29  30
ENDBRANCH  28  29
ENDBRANCH  27  28
ENDBRANCH  26  27
ENDBRANCH  25  26
ENDBRANCH  24  25
ENDBRANCH  23  24
ENDBRANCH  22  23
ENDBRANCH  21  22
ENDBRANCH  20  21
ENDBRANCH  19  20
ENDBRANCH  18  19
ENDBRANCH   1  18
TORSDOF 28
ENDMDL
MODEL 5
REMARK VINA RESULT:    -0.994      4.990      9.109
REMARK INTER + INTRA:          -9.699
REMARK INTER:                  -2.975
REMARK INTRA:                  -6.724
REMARK UNBOUND:                -7.079
REMARK SMILES CCCCCCCCCCCCCCCCCCCCCCCCCCCCCC(=O)[O-]
REMARK SMILES IDX 16 1 17 2 18 3 19 4 20 5 21 6 22 7 23 8 24 9 25 10 26 11
REMARK SMILES IDX 27 12 28 13 29 14 30 15 31 16 32 17 15 18 14 19 13 20 12 21
REMARK SMILES IDX 11 22 10 23 9 24 8 25 7 26 6 27 5 28 4 29 3 30 2 31 1 32
REMARK H PARENT
REMARK Flexibility Score: inf
ROOT
ATOM      1  C   UNL     1      19.824 -29.240   0.528  1.00  0.00     0.000 C 
ENDROOT
BRANCH   1   2
ATOM      2  C   UNL     1      20.594 -29.207   1.859  1.00  0.00     0.000 C 
BRANCH   2   3
ATOM      3  C   UNL     1      22.088 -29.522   1.670  1.00  0.00     0.000 C 
BRANCH   3   4
ATOM      4  C   UNL     1      22.599 -30.625   2.615  1.00  0.00     0.000 C 
BRANCH   4   5
ATOM      5  C   UNL     1      22.973 -31.955   1.935  1.00  0.00     0.000 C 
BRANCH   5   6
ATOM      6  C   UNL     1      21.834 -32.546   1.091  1.00  0.00     0.000 C 
BRANCH   6   7
ATOM      7  C   UNL     1      20.717 -33.158   1.954  1.00  0.00     0.000 C 
BRANCH   7   8
ATOM      8  C   UNL     1      19.295 -32.828   1.450  1.00  0.00     0.000 C 
BRANCH   8   9
ATOM      9  C   UNL     1      18.430 -32.161   2.530  1.00  0.00     0.000 C 
BRANCH   9  10
ATOM     10  C   UNL     1      19.223 -31.984   3.833  1.00  0.00     0.000 C 
BRANCH  10  11
ATOM     11  C   UNL     1      18.536 -31.039   4.830  1.00  0.00     0.000 C 
BRANCH  11  12
ATOM     12  C   UNL     1      17.761 -29.905   4.139  1.00  0.00     0.000 C 
BRANCH  12  13
ATOM     13  C   UNL     1      18.299 -28.531   4.568  1.00  0.00     0.006 C 
BRANCH  13  14
ATOM     14  C   UNL     1      18.578 -28.458   6.077  1.00  0.00     0.053 C 
BRANCH  14  15
ATOM     15  C   UNL     1      18.013 -27.215   6.694  1.00  0.00     0.041 C 
ATOM     16  O   UNL     1      18.136 -26.103   6.115  1.00  0.00    -0.550 OA
ATOM     17  O   UNL     1      17.322 -27.289   7.897  1.00  0.00    -0.550 OA
ENDBRANCH  14  15
ENDBRANCH  13  14
ENDBRANCH  12  13
ENDBRANCH  11  12
ENDBRANCH  10  11
ENDBRANCH   9  10
ENDBRANCH   8   9
ENDBRANCH   7   8
ENDBRANCH   6   7
ENDBRANCH   5   6
ENDBRANCH   4   5
ENDBRANCH   3   4
ENDBRANCH   2   3
ENDBRANCH   1   2
BRANCH   1  18
ATOM     18  C   UNL     1      20.735 -29.568  -0.664  1.00  0.00     0.000 C 
BRANCH  18  19
ATOM     19  C   UNL     1      20.424 -28.656  -1.860  1.00  0.00     0.000 C 
BRANCH  19  20
ATOM     20  C   UNL     1      21.537 -27.621  -2.125  1.00  0.00     0.000 C 
BRANCH  20  21
ATOM     21  C   UNL     1      21.432 -26.351  -1.257  1.00  0.00     0.000 C 
BRANCH  21  22
ATOM     22  C   UNL     1      22.420 -26.283  -0.078  1.00  0.00     0.000 C 
BRANCH  22  23
ATOM     23  C   UNL     1      21.914 -25.504   1.152  1.00  0.00     0.000 C 
BRANCH  23  24
ATOM     24  C   UNL     1      20.381 -25.543   1.329  1.00  0.00    -0.000 C 
BRANCH  24  25
ATOM     25  C   UNL     1      19.963 -25.680   2.804  1.00  0.00    -0.000 C 
BRANCH  25  26
ATOM     26  C   UNL     1      21.140 -25.477   3.772  1.00  0.00    -0.000 C 
BRANCH  26  27
ATOM     27  C   UNL     1      21.515 -26.766   4.519  1.00  0.00    -0.000 C 
BRANCH  27  28
ATOM     28  C   UNL     1      23.033 -26.995   4.493  1.00  0.00    -0.000 C 
BRANCH  28  29
ATOM     29  C   UNL     1      23.421 -28.201   5.362  1.00  0.00    -0.000 C 
BRANCH  29  30
ATOM     30  C   UNL     1      22.200 -28.981   5.877  1.00  0.00    -0.000 C 
BRANCH  30  31
ATOM     31  C   UNL     1      22.544 -29.914   7.049  1.00  0.00    -0.003 C 
ATOM     32  C   UNL     1      21.450 -30.956   7.258  1.00  0.00     0.004 C 
ENDBRANCH  30  31
ENDBRANCH  29  30
ENDBRANCH  28  29
ENDBRANCH  27  28
ENDBRANCH  26  27
ENDBRANCH  25  26
ENDBRANCH  24  25
ENDBRANCH  23  24
ENDBRANCH  22  23
ENDBRANCH  21  22
ENDBRANCH  20  21
ENDBRANCH  19  20
ENDBRANCH  18  19
ENDBRANCH   1  18
TORSDOF 28
ENDMDL
MODEL 6
REMARK VINA RESULT:    -0.987      4.783      8.012
REMARK INTER + INTRA:          -9.682
REMARK INTER:                  -3.459
REMARK INTRA:                  -6.223
REMARK UNBOUND:                -7.079
REMARK SMILES CCCCCCCCCCCCCCCCCCCCCCCCCCCCCC(=O)[O-]
REMARK SMILES IDX 16 1 17 2 18 3 19 4 20 5 21 6 22 7 23 8 24 9 25 10 26 11
REMARK SMILES IDX 27 12 28 13 29 14 30 15 31 16 32 17 15 18 14 19 13 20 12 21
REMARK SMILES IDX 11 22 10 23 9 24 8 25 7 26 6 27 5 28 4 29 3 30 2 31 1 32
REMARK H PARENT
REMARK Flexibility Score: inf
ROOT
ATOM      1  C   UNL     1      20.390 -33.678   0.826  1.00  0.00     0.000 C 
ENDROOT
BRANCH   1   2
ATOM      2  C   UNL     1      19.004 -33.972   1.422  1.00  0.00     0.000 C 
BRANCH   2   3
ATOM      3  C   UNL     1      18.178 -34.913   0.528  1.00  0.00     0.000 C 
BRANCH   3   4
ATOM      4  C   UNL     1      16.672 -34.593   0.539  1.00  0.00     0.000 C 
BRANCH   4   5
ATOM      5  C   UNL     1      16.045 -34.417   1.934  1.00  0.00     0.000 C 
BRANCH   5   6
ATOM      6  C   UNL     1      15.468 -33.012   2.166  1.00  0.00     0.000 C 
BRANCH   6   7
ATOM      7  C   UNL     1      16.238 -32.229   3.243  1.00  0.00     0.000 C 
BRANCH   7   8
ATOM      8  C   UNL     1      16.791 -30.876   2.746  1.00  0.00     0.000 C 
BRANCH   8   9
ATOM      9  C   UNL     1      17.424 -30.050   3.876  1.00  0.00     0.000 C 
BRANCH   9  10
ATOM     10  C   UNL     1      17.994 -30.966   4.969  1.00  0.00     0.000 C 
BRANCH  10  11
ATOM     11  C   UNL     1      19.474 -30.690   5.272  1.00  0.00     0.000 C 
BRANCH  11  12
ATOM     12  C   UNL     1      20.361 -31.932   5.084  1.00  0.00     0.000 C 
BRANCH  12  13
ATOM     13  C   UNL     1      19.507 -33.185   4.833  1.00  0.00     0.006 C 
BRANCH  13  14
ATOM     14  C   UNL     1      20.025 -34.410   5.600  1.00  0.00     0.053 C 
BRANCH  14  15
ATOM     15  C   UNL     1      21.340 -34.892   5.070  1.00  0.00     0.041 C 
ATOM     16  O   UNL     1      21.466 -35.187   3.852  1.00  0.00    -0.550 OA
ATOM     17  O   UNL     1      22.439 -34.986   5.916  1.00  0.00    -0.550 OA
ENDBRANCH  14  15
ENDBRANCH  13  14
ENDBRANCH  12  13
ENDBRANCH  11  12
ENDBRANCH  10  11
ENDBRANCH   9  10
ENDBRANCH   8   9
ENDBRANCH   7   8
ENDBRANCH   6   7
ENDBRANCH   5   6
ENDBRANCH   4   5
ENDBRANCH   3   4
ENDBRANCH   2   3
ENDBRANCH   1   2
BRANCH   1  18
ATOM     18  C   UNL     1      21.006 -32.390   1.392  1.00  0.00     0.000 C 
BRANCH  18  19
ATOM     19  C   UNL     1      20.007 -31.225   1.317  1.00  0.00     0.000 C 
BRANCH  19  20
ATOM     20  C   UNL     1      20.596 -29.902   1.850  1.00  0.00     0.000 C 
BRANCH  20  21
ATOM     21  C   UNL     1      22.023 -30.035   2.418  1.00  0.00     0.000 C 
BRANCH  21  22
ATOM     22  C   UNL     1      22.686 -28.709   2.833  1.00  0.00     0.000 C 
BRANCH  22  23
ATOM     23  C   UNL     1      23.784 -28.203   1.878  1.00  0.00     0.000 C 
BRANCH  23  24
ATOM     24  C   UNL     1      23.320 -27.070   0.936  1.00  0.00    -0.000 C 
BRANCH  24  25
ATOM     25  C   UNL     1      22.007 -26.418   1.406  1.00  0.00    -0.000 C 
BRANCH  25  26
ATOM     26  C   UNL     1      20.900 -26.485   0.341  1.00  0.00    -0.000 C 
BRANCH  26  27
ATOM     27  C   UNL     1      21.381 -27.134  -0.967  1.00  0.00    -0.000 C 
BRANCH  27  28
ATOM     28  C   UNL     1      20.340 -28.127  -1.502  1.00  0.00    -0.000 C 
BRANCH  28  29
ATOM     29  C   UNL     1      20.977 -29.499  -1.770  1.00  0.00    -0.000 C 
BRANCH  29  30
ATOM     30  C   UNL     1      22.513 -29.441  -1.827  1.00  0.00    -0.000 C 
BRANCH  30  31
ATOM     31  C   UNL     1      23.179 -30.573  -1.030  1.00  0.00    -0.003 C 
ATOM     32  C   UNL     1      22.979 -31.919  -1.719  1.00  0.00     0.004 C 
ENDBRANCH  30  31
ENDBRANCH  29  30
ENDBRANCH  28  29
ENDBRANCH  27  28
ENDBRANCH  26  27
ENDBRANCH  25  26
ENDBRANCH  24  25
ENDBRANCH  23  24
ENDBRANCH  22  23
ENDBRANCH  21  22
ENDBRANCH  20  21
ENDBRANCH  19  20
ENDBRANCH  18  19
ENDBRANCH   1  18
TORSDOF 28
ENDMDL
MODEL 7
REMARK VINA RESULT:    -0.987      3.713      7.359
REMARK INTER + INTRA:          -9.682
REMARK INTER:                  -2.374
REMARK INTRA:                  -7.307
REMARK UNBOUND:                -7.079
REMARK SMILES CCCCCCCCCCCCCCCCCCCCCCCCCCCCCC(=O)[O-]
REMARK SMILES IDX 16 1 17 2 18 3 19 4 20 5 21 6 22 7 23 8 24 9 25 10 26 11
REMARK SMILES IDX 27 12 28 13 29 14 30 15 31 16 32 17 15 18 14 19 13 20 12 21
REMARK SMILES IDX 11 22 10 23 9 24 8 25 7 26 6 27 5 28 4 29 3 30 2 31 1 32
REMARK H PARENT
REMARK Flexibility Score: inf
ROOT
ATOM      1  C   UNL     1      17.999 -31.674   3.821  1.00  0.00     0.000 C 
ENDROOT
BRANCH   1   2
ATOM      2  C   UNL     1      18.636 -30.512   3.042  1.00  0.00     0.000 C 
BRANCH   2   3
ATOM      3  C   UNL     1      20.130 -30.751   2.767  1.00  0.00     0.000 C 
BRANCH   3   4
ATOM      4  C   UNL     1      20.492 -30.670   1.273  1.00  0.00     0.000 C 
BRANCH   4   5
ATOM      5  C   UNL     1      19.657 -29.676   0.444  1.00  0.00     0.000 C 
BRANCH   5   6
ATOM      6  C   UNL     1      20.514 -28.716  -0.394  1.00  0.00     0.000 C 
BRANCH   6   7
ATOM      7  C   UNL     1      20.753 -27.370   0.312  1.00  0.00     0.000 C 
BRANCH   7   8
ATOM      8  C   UNL     1      22.074 -27.318   1.110  1.00  0.00     0.000 C 
BRANCH   8   9
ATOM      9  C   UNL     1      21.842 -27.291   2.628  1.00  0.00     0.000 C 
BRANCH   9  10
ATOM     10  C   UNL     1      20.381 -26.947   2.951  1.00  0.00     0.000 C 
BRANCH  10  11
ATOM     11  C   UNL     1      19.992 -27.278   4.400  1.00  0.00     0.000 C 
BRANCH  11  12
ATOM     12  C   UNL     1      18.474 -27.233   4.635  1.00  0.00     0.000 C 
BRANCH  12  13
ATOM     13  C   UNL     1      18.123 -27.701   6.056  1.00  0.00     0.006 C 
BRANCH  13  14
ATOM     14  C   UNL     1      17.111 -28.856   6.058  1.00  0.00     0.053 C 
BRANCH  14  15
ATOM     15  C   UNL     1      15.847 -28.498   5.339  1.00  0.00     0.041 C 
ATOM     16  O   UNL     1      15.087 -27.601   5.793  1.00  0.00    -0.550 OA
ATOM     17  O   UNL     1      15.522 -29.133   4.146  1.00  0.00    -0.550 OA
ENDBRANCH  14  15
ENDBRANCH  13  14
ENDBRANCH  12  13
ENDBRANCH  11  12
ENDBRANCH  10  11
ENDBRANCH   9  10
ENDBRANCH   8   9
ENDBRANCH   7   8
ENDBRANCH   6   7
ENDBRANCH   5   6
ENDBRANCH   4   5
ENDBRANCH   3   4
ENDBRANCH   2   3
ENDBRANCH   1   2
BRANCH   1  18
ATOM     18  C   UNL     1      16.955 -32.431   2.987  1.00  0.00     0.000 C 
BRANCH  18  19
ATOM     19  C   UNL     1      17.476 -33.818   2.583  1.00  0.00     0.000 C 
BRANCH  19  20
ATOM     20  C   UNL     1      18.189 -33.810   1.215  1.00  0.00     0.000 C 
BRANCH  20  21
ATOM     21  C   UNL     1      19.631 -34.356   1.257  1.00  0.00     0.000 C 
BRANCH  21  22
ATOM     22  C   UNL     1      20.208 -34.568   2.668  1.00  0.00     0.000 C 
BRANCH  22  23
ATOM     23  C   UNL     1      21.697 -34.204   2.825  1.00  0.00     0.000 C 
BRANCH  23  24
ATOM     24  C   UNL     1      22.059 -33.639   4.216  1.00  0.00    -0.000 C 
BRANCH  24  25
ATOM     25  C   UNL     1      20.836 -33.538   5.145  1.00  0.00    -0.000 C 
BRANCH  25  26
ATOM     26  C   UNL     1      21.180 -32.921   6.510  1.00  0.00    -0.000 C 
BRANCH  26  27
ATOM     27  C   UNL     1      20.150 -31.872   6.958  1.00  0.00    -0.000 C 
BRANCH  27  28
ATOM     28  C   UNL     1      20.502 -30.485   6.404  1.00  0.00    -0.000 C 
BRANCH  28  29
ATOM     29  C   UNL     1      21.999 -30.187   6.583  1.00  0.00    -0.000 C 
BRANCH  29  30
ATOM     30  C   UNL     1      22.642 -29.591   5.320  1.00  0.00    -0.000 C 
BRANCH  30  31
ATOM     31  C   UNL     1      23.767 -30.473   4.755  1.00  0.00    -0.003 C 
ATOM     32  C   UNL     1      23.786 -30.426   3.231  1.00  0.00     0.004 C 
ENDBRANCH  30  31
ENDBRANCH  29  30
ENDBRANCH  28  29
ENDBRANCH  27  28
ENDBRANCH  26  27
ENDBRANCH  25  26
ENDBRANCH  24  25
ENDBRANCH  23  24
ENDBRANCH  22  23
ENDBRANCH  21  22
ENDBRANCH  20  21
ENDBRANCH  19  20
ENDBRANCH  18  19
ENDBRANCH   1  18
TORSDOF 28
ENDMDL
MODEL 8
REMARK VINA RESULT:    -0.952      5.066      8.240
REMARK INTER + INTRA:          -9.589
REMARK INTER:                  -2.826
REMARK INTRA:                  -6.762
REMARK UNBOUND:                -7.079
REMARK SMILES CCCCCCCCCCCCCCCCCCCCCCCCCCCCCC(=O)[O-]
REMARK SMILES IDX 16 1 17 2 18 3 19 4 20 5 21 6 22 7 23 8 24 9 25 10 26 11
REMARK SMILES IDX 27 12 28 13 29 14 30 15 31 16 32 17 15 18 14 19 13 20 12 21
REMARK SMILES IDX 11 22 10 23 9 24 8 25 7 26 6 27 5 28 4 29 3 30 2 31 1 32
REMARK H PARENT
REMARK Flexibility Score: inf
ROOT
ATOM      1  C   UNL     1      20.519 -27.849  -1.271  1.00  0.00     0.000 C 
ENDROOT
BRANCH   1   2
ATOM      2  C   UNL     1      21.871 -27.135  -1.432  1.00  0.00     0.000 C 
BRANCH   2   3
ATOM      3  C   UNL     1      22.099 -26.076  -0.340  1.00  0.00     0.000 C 
BRANCH   3   4
ATOM      4  C   UNL     1      20.798 -25.628   0.351  1.00  0.00     0.000 C 
BRANCH   4   5
ATOM      5  C   UNL     1      20.918 -25.336   1.858  1.00  0.00     0.000 C 
BRANCH   5   6
ATOM      6  C   UNL     1      22.368 -25.348   2.364  1.00  0.00     0.000 C 
BRANCH   6   7
ATOM      7  C   UNL     1      22.474 -25.763   3.842  1.00  0.00     0.000 C 
BRANCH   7   8
ATOM      8  C   UNL     1      21.159 -25.582   4.630  1.00  0.00     0.000 C 
BRANCH   8   9
ATOM      9  C   UNL     1      20.617 -26.910   5.180  1.00  0.00     0.000 C 
BRANCH   9  10
ATOM     10  C   UNL     1      21.472 -27.403   6.356  1.00  0.00     0.000 C 
BRANCH  10  11
ATOM     11  C   UNL     1      22.107 -28.778   6.102  1.00  0.00     0.000 C 
BRANCH  11  12
ATOM     12  C   UNL     1      21.359 -29.920   6.811  1.00  0.00     0.000 C 
BRANCH  12  13
ATOM     13  C   UNL     1      20.515 -30.727   5.812  1.00  0.00     0.006 C 
BRANCH  13  14
ATOM     14  C   UNL     1      19.046 -30.838   6.243  1.00  0.00     0.053 C 
BRANCH  14  15
ATOM     15  C   UNL     1      18.294 -29.563   6.012  1.00  0.00     0.041 C 
ATOM     16  O   UNL     1      17.921 -29.245   4.852  1.00  0.00    -0.550 OA
ATOM     17  O   UNL     1      17.976 -28.740   7.085  1.00  0.00    -0.550 OA
ENDBRANCH  14  15
ENDBRANCH  13  14
ENDBRANCH  12  13
ENDBRANCH  11  12
ENDBRANCH  10  11
ENDBRANCH   9  10
ENDBRANCH   8   9
ENDBRANCH   7   8
ENDBRANCH   6   7
ENDBRANCH   5   6
ENDBRANCH   4   5
ENDBRANCH   3   4
ENDBRANCH   2   3
ENDBRANCH   1   2
BRANCH   1  18
ATOM     18  C   UNL     1      20.567 -29.304  -1.761  1.00  0.00     0.000 C 
BRANCH  18  19
ATOM     19  C   UNL     1      21.994 -29.865  -1.677  1.00  0.00     0.000 C 
BRANCH  19  20
ATOM     20  C   UNL     1      22.077 -31.155  -0.834  1.00  0.00     0.000 C 
BRANCH  20  21
ATOM     21  C   UNL     1      22.962 -31.028   0.422  1.00  0.00     0.000 C 
BRANCH  21  22
ATOM     22  C   UNL     1      23.511 -29.615   0.693  1.00  0.00     0.000 C 
BRANCH  22  23
ATOM     23  C   UNL     1      22.939 -28.923   1.946  1.00  0.00     0.000 C 
BRANCH  23  24
ATOM     24  C   UNL     1      21.734 -29.660   2.572  1.00  0.00    -0.000 C 
BRANCH  24  25
ATOM     25  C   UNL     1      20.389 -29.016   2.191  1.00  0.00    -0.000 C 
BRANCH  25  26
ATOM     26  C   UNL     1      19.393 -30.031   1.605  1.00  0.00    -0.000 C 
BRANCH  26  27
ATOM     27  C   UNL     1      19.316 -31.324   2.432  1.00  0.00    -0.000 C 
BRANCH  27  28
ATOM     28  C   UNL     1      19.602 -32.553   1.559  1.00  0.00    -0.000 C 
BRANCH  28  29
ATOM     29  C   UNL     1      20.630 -33.476   2.232  1.00  0.00    -0.000 C 
BRANCH  29  30
ATOM     30  C   UNL     1      21.446 -34.296   1.219  1.00  0.00    -0.000 C 
BRANCH  30  31
ATOM     31  C   UNL     1      20.664 -34.595  -0.069  1.00  0.00    -0.003 C 
ATOM     32  C   UNL     1      21.610 -34.843  -1.239  1.00  0.00     0.004 C 
ENDBRANCH  30  31
ENDBRANCH  29  30
ENDBRANCH  28  29
ENDBRANCH  27  28
ENDBRANCH  26  27
ENDBRANCH  25  26
ENDBRANCH  24  25
ENDBRANCH  23  24
ENDBRANCH  22  23
ENDBRANCH  21  22
ENDBRANCH  20  21
ENDBRANCH  19  20
ENDBRANCH  18  19
ENDBRANCH   1  18
TORSDOF 28
ENDMDL
MODEL 9
REMARK VINA RESULT:    -0.944      3.121      7.119
REMARK INTER + INTRA:          -9.569
REMARK INTER:                  -2.476
REMARK INTRA:                  -7.093
REMARK UNBOUND:                -7.079
REMARK SMILES CCCCCCCCCCCCCCCCCCCCCCCCCCCCCC(=O)[O-]
REMARK SMILES IDX 16 1 17 2 18 3 19 4 20 5 21 6 22 7 23 8 24 9 25 10 26 11
REMARK SMILES IDX 27 12 28 13 29 14 30 15 31 16 32 17 15 18 14 19 13 20 12 21
REMARK SMILES IDX 11 22 10 23 9 24 8 25 7 26 6 27 5 28 4 29 3 30 2 31 1 32
REMARK H PARENT
REMARK Flexibility Score: inf
ROOT
ATOM      1  C   UNL     1      18.825 -33.129   2.382  1.00  0.00     0.000 C 
ENDROOT
BRANCH   1   2
ATOM      2  C   UNL     1      18.171 -33.976   1.278  1.00  0.00     0.000 C 
BRANCH   2   3
ATOM      3  C   UNL     1      16.807 -34.537   1.712  1.00  0.00     0.000 C 
BRANCH   3   4
ATOM      4  C   UNL     1      15.629 -33.960   0.904  1.00  0.00     0.000 C 
BRANCH   4   5
ATOM      5  C   UNL     1      14.269 -33.962   1.625  1.00  0.00     0.000 C 
BRANCH   5   6
ATOM      6  C   UNL     1      13.395 -32.749   1.274  1.00  0.00     0.000 C 
BRANCH   6   7
ATOM      7  C   UNL     1      12.651 -32.185   2.497  1.00  0.00     0.000 C 
BRANCH   7   8
ATOM      8  C   UNL     1      12.698 -33.112   3.730  1.00  0.00     0.000 C 
BRANCH   8   9
ATOM      9  C   UNL     1      13.012 -32.349   5.026  1.00  0.00     0.000 C 
BRANCH   9  10
ATOM     10  C   UNL     1      14.090 -33.077   5.841  1.00  0.00     0.000 C 
BRANCH  10  11
ATOM     11  C   UNL     1      15.357 -33.379   5.026  1.00  0.00     0.000 C 
BRANCH  11  12
ATOM     12  C   UNL     1      15.986 -34.735   5.385  1.00  0.00     0.000 C 
BRANCH  12  13
ATOM     13  C   UNL     1      17.520 -34.635   5.427  1.00  0.00     0.006 C 
BRANCH  13  14
ATOM     14  C   UNL     1      18.203 -35.898   4.883  1.00  0.00     0.053 C 
BRANCH  14  15
ATOM     15  C   UNL     1      19.696 -35.774   4.882  1.00  0.00     0.041 C 
ATOM     16  O   UNL     1      20.304 -35.388   5.915  1.00  0.00    -0.550 OA
ATOM     17  O   UNL     1      20.421 -36.115   3.746  1.00  0.00    -0.550 OA
ENDBRANCH  14  15
ENDBRANCH  13  14
ENDBRANCH  12  13
ENDBRANCH  11  12
ENDBRANCH  10  11
ENDBRANCH   9  10
ENDBRANCH   8   9
ENDBRANCH   7   8
ENDBRANCH   6   7
ENDBRANCH   5   6
ENDBRANCH   4   5
ENDBRANCH   3   4
ENDBRANCH   2   3
ENDBRANCH   1   2
BRANCH   1  18
ATOM     18  C   UNL     1      19.372 -31.797   1.847  1.00  0.00     0.000 C 
BRANCH  18  19
ATOM     19  C   UNL     1      18.491 -30.621   2.297  1.00  0.00     0.000 C 
BRANCH  19  20
ATOM     20  C   UNL     1      17.294 -31.072   3.160  1.00  0.00     0.000 C 
BRANCH  20  21
ATOM     21  C   UNL     1      15.950 -30.437   2.749  1.00  0.00     0.000 C 
BRANCH  21  22
ATOM     22  C   UNL     1      15.288 -29.558   3.825  1.00  0.00     0.000 C 
BRANCH  22  23
ATOM     23  C   UNL     1      15.798 -29.789   5.260  1.00  0.00     0.000 C 
BRANCH  23  24
ATOM     24  C   UNL     1      16.322 -28.511   5.951  1.00  0.00    -0.000 C 
BRANCH  24  25
ATOM     25  C   UNL     1      17.137 -27.621   4.997  1.00  0.00    -0.000 C 
BRANCH  25  26
ATOM     26  C   UNL     1      18.608 -28.058   4.893  1.00  0.00    -0.000 C 
BRANCH  26  27
ATOM     27  C   UNL     1      19.089 -28.804   6.148  1.00  0.00    -0.000 C 
BRANCH  27  28
ATOM     28  C   UNL     1      19.809 -30.106   5.770  1.00  0.00    -0.000 C 
BRANCH  28  29
ATOM     29  C   UNL     1      19.053 -31.328   6.314  1.00  0.00    -0.000 C 
BRANCH  29  30
ATOM     30  C   UNL     1      18.392 -31.061   7.676  1.00  0.00    -0.000 C 
BRANCH  30  31
ATOM     31  C   UNL     1      17.603 -32.272   8.199  1.00  0.00    -0.003 C 
ATOM     32  C   UNL     1      16.177 -31.877   8.571  1.00  0.00     0.004 C 
ENDBRANCH  30  31
ENDBRANCH  29  30
ENDBRANCH  28  29
ENDBRANCH  27  28
ENDBRANCH  26  27
ENDBRANCH  25  26
ENDBRANCH  24  25
ENDBRANCH  23  24
ENDBRANCH  22  23
ENDBRANCH  21  22
ENDBRANCH  20  21
ENDBRANCH  19  20
ENDBRANCH  18  19
ENDBRANCH   1  18
TORSDOF 28
ENDMDL
