MODEL 1
REMARK VINA RESULT:    -5.338      0.000      0.000
REMARK INTER + INTRA:          -6.255
REMARK INTER:                  -6.118
REMARK INTRA:                  -0.138
REMARK UNBOUND:                -0.138
REMARK SMILES O=C([O-])C=Cc1ccc(O)cc1
REMARK SMILES IDX 6 1 7 2 12 3 8 4 11 5 9 6 5 7 4 8 2 9 1 10 3 11 10 12
REMARK H PARENT 10 13
REMARK Flexibility Score: inf
ROOT
ATOM      1  C   UNL     1       8.667  46.095  21.505  1.00  0.00    -0.025 A 
ATOM      2  C   UNL     1       9.519  47.007  22.162  1.00  0.00     0.012 A 
ATOM      3  C   UNL     1       7.924  45.186  22.277  1.00  0.00     0.012 A 
ATOM      4  C   UNL     1       9.599  47.019  23.559  1.00  0.00     0.047 A 
ATOM      5  C   UNL     1       8.007  45.201  23.672  1.00  0.00     0.047 A 
ATOM      6  C   UNL     1       8.842  46.119  24.317  1.00  0.00     0.115 A 
ENDROOT
BRANCH   1   7
ATOM      7  C   UNL     1       8.553  46.031  20.027  1.00  0.00     0.010 C 
ATOM      8  C   UNL     1       8.913  47.029  19.208  1.00  0.00     0.025 C 
BRANCH   8   9
ATOM      9  C   UNL     1       8.770  46.926  17.747  1.00  0.00     0.064 C 
ATOM     10  O   UNL     1       9.768  47.138  17.010  1.00  0.00    -0.545 OA
ATOM     11  O   UNL     1       7.551  46.596  17.166  1.00  0.00    -0.545 OA
ENDBRANCH   8   9
ENDBRANCH   1   7
BRANCH   6  12
ATOM     12  O   UNL     1       8.914  46.123  25.708  1.00  0.00    -0.508 OA
ATOM     13  H   UNL     1       9.085  45.273  26.232  1.00  0.00     0.293 HD
ENDBRANCH   6  12
TORSDOF 3
ENDMDL
MODEL 2
REMARK VINA RESULT:    -5.318      4.701      6.205
REMARK INTER + INTRA:          -6.233
REMARK INTER:                  -6.090
REMARK INTRA:                  -0.143
REMARK UNBOUND:                -0.138
REMARK SMILES O=C([O-])C=Cc1ccc(O)cc1
REMARK SMILES IDX 6 1 7 2 12 3 8 4 11 5 9 6 5 7 4 8 2 9 1 10 3 11 10 12
REMARK H PARENT 10 13
REMARK Flexibility Score: inf
ROOT
ATOM      1  C   UNL     1      10.979  48.344  23.773  1.00  0.00    -0.025 A 
ATOM      2  C   UNL     1      11.354  47.936  22.476  1.00  0.00     0.012 A 
ATOM      3  C   UNL     1      11.951  48.351  24.788  1.00  0.00     0.012 A 
ATOM      4  C   UNL     1      12.676  47.570  22.205  1.00  0.00     0.047 A 
ATOM      5  C   UNL     1      13.270  47.984  24.513  1.00  0.00     0.047 A 
ATOM      6  C   UNL     1      13.638  47.595  23.221  1.00  0.00     0.115 A 
ENDROOT
BRANCH   1   7
ATOM      7  C   UNL     1       9.588  48.732  24.118  1.00  0.00     0.010 C 
ATOM      8  C   UNL     1       8.897  48.199  25.135  1.00  0.00     0.025 C 
BRANCH   8   9
ATOM      9  C   UNL     1       7.515  48.607  25.434  1.00  0.00     0.064 C 
ATOM     10  O   UNL     1       6.667  47.736  25.758  1.00  0.00    -0.545 OA
ATOM     11  O   UNL     1       7.129  49.941  25.365  1.00  0.00    -0.545 OA
ENDBRANCH   8   9
ENDBRANCH   1   7
BRANCH   6  12
ATOM     12  O   UNL     1      14.958  47.234  22.961  1.00  0.00    -0.508 OA
ATOM     13  H   UNL     1      15.578  47.837  22.434  1.00  0.00     0.293 HD
ENDBRANCH   6  12
TORSDOF 3
ENDMDL
MODEL 3
REMARK VINA RESULT:    -5.268      4.394      5.784
REMARK INTER + INTRA:          -6.175
REMARK INTER:                  -6.027
REMARK INTRA:                  -0.148
REMARK UNBOUND:                -0.138
REMARK SMILES O=C([O-])C=Cc1ccc(O)cc1
REMARK SMILES IDX 6 1 7 2 12 3 8 4 11 5 9 6 5 7 4 8 2 9 1 10 3 11 10 12
REMARK H PARENT 10 13
REMARK Flexibility Score: inf
ROOT
ATOM      1  C   UNL     1       6.529  48.376  22.806  1.00  0.00    -0.025 A 
ATOM      2  C   UNL     1       7.027  48.884  21.589  1.00  0.00     0.012 A 
ATOM      3  C   UNL     1       6.831  49.056  23.998  1.00  0.00     0.012 A 
ATOM      4  C   UNL     1       7.788  50.058  21.571  1.00  0.00     0.047 A 
ATOM      5  C   UNL     1       7.592  50.228  23.975  1.00  0.00     0.047 A 
ATOM      6  C   UNL     1       8.070  50.734  22.763  1.00  0.00     0.115 A 
ENDROOT
BRANCH   1   7
ATOM      7  C   UNL     1       5.727  47.130  22.884  1.00  0.00     0.010 C 
ATOM      8  C   UNL     1       5.739  46.299  23.936  1.00  0.00     0.025 C 
BRANCH   8   9
ATOM      9  C   UNL     1       4.935  45.068  23.964  1.00  0.00     0.064 C 
ATOM     10  O   UNL     1       4.164  44.852  24.934  1.00  0.00    -0.545 OA
ATOM     11  O   UNL     1       5.013  44.136  22.934  1.00  0.00    -0.545 OA
ENDBRANCH   8   9
ENDBRANCH   1   7
BRANCH   6  12
ATOM     12  O   UNL     1       8.826  51.904  22.755  1.00  0.00    -0.508 OA
ATOM     13  H   UNL     1       9.191  52.303  23.612  1.00  0.00     0.293 HD
ENDBRANCH   6  12
TORSDOF 3
ENDMDL
MODEL 4
REMARK VINA RESULT:    -5.232      3.169      3.858
REMARK INTER + INTRA:          -6.135
REMARK INTER:                  -5.999
REMARK INTRA:                  -0.136
REMARK UNBOUND:                -0.138
REMARK SMILES O=C([O-])C=Cc1ccc(O)cc1
REMARK SMILES IDX 6 1 7 2 12 3 8 4 11 5 9 6 5 7 4 8 2 9 1 10 3 11 10 12
REMARK H PARENT 10 13
REMARK Flexibility Score: inf
ROOT
ATOM      1  C   UNL     1      11.407  47.501  21.662  1.00  0.00    -0.025 A 
ATOM      2  C   UNL     1      12.702  47.329  21.129  1.00  0.00     0.012 A 
ATOM      3  C   UNL     1      11.274  47.918  22.997  1.00  0.00     0.012 A 
ATOM      4  C   UNL     1      13.830  47.595  21.912  1.00  0.00     0.047 A 
ATOM      5  C   UNL     1      12.404  48.182  23.776  1.00  0.00     0.047 A 
ATOM      6  C   UNL     1      13.684  48.024  23.236  1.00  0.00     0.115 A 
ENDROOT
BRANCH   1   7
ATOM      7  C   UNL     1      10.177  47.223  20.879  1.00  0.00     0.010 C 
ATOM      8  C   UNL     1       9.909  47.779  19.689  1.00  0.00     0.025 C 
BRANCH   8   9
ATOM      9  C   UNL     1       8.671  47.482  18.953  1.00  0.00     0.064 C 
ATOM     10  O   UNL     1       8.467  46.316  18.525  1.00  0.00    -0.545 OA
ATOM     11  O   UNL     1       7.718  48.469  18.723  1.00  0.00    -0.545 OA
ENDBRANCH   8   9
ENDBRANCH   1   7
BRANCH   6  12
ATOM     12  O   UNL     1      14.801  48.291  24.024  1.00  0.00    -0.508 OA
ATOM     13  H   UNL     1      14.766  48.220  25.034  1.00  0.00     0.293 HD
ENDBRANCH   6  12
TORSDOF 3
ENDMDL
MODEL 5
REMARK VINA RESULT:    -5.187      3.326      6.364
REMARK INTER + INTRA:          -6.082
REMARK INTER:                  -5.936
REMARK INTRA:                  -0.147
REMARK UNBOUND:                -0.138
REMARK SMILES O=C([O-])C=Cc1ccc(O)cc1
REMARK SMILES IDX 6 1 7 2 12 3 8 4 11 5 9 6 5 7 4 8 2 9 1 10 3 11 10 12
REMARK H PARENT 10 13
REMARK Flexibility Score: inf
ROOT
ATOM      1  C   UNL     1       9.143  49.792  21.928  1.00  0.00    -0.025 A 
ATOM      2  C   UNL     1       9.079  50.577  20.758  1.00  0.00     0.012 A 
ATOM      3  C   UNL     1       9.967  48.654  21.937  1.00  0.00     0.012 A 
ATOM      4  C   UNL     1       9.844  50.237  19.637  1.00  0.00     0.047 A 
ATOM      5  C   UNL     1      10.728  48.318  20.814  1.00  0.00     0.047 A 
ATOM      6  C   UNL     1      10.672  49.109  19.663  1.00  0.00     0.115 A 
ENDROOT
BRANCH   1   7
ATOM      7  C   UNL     1       8.345  50.100  23.141  1.00  0.00     0.010 C 
ATOM      8  C   UNL     1       7.833  49.166  23.954  1.00  0.00     0.025 C 
BRANCH   8   9
ATOM      9  C   UNL     1       7.038  49.518  25.141  1.00  0.00     0.064 C 
ATOM     10  O   UNL     1       7.584  49.524  26.275  1.00  0.00    -0.545 OA
ATOM     11  O   UNL     1       5.691  49.847  25.031  1.00  0.00    -0.545 OA
ENDBRANCH   8   9
ENDBRANCH   1   7
BRANCH   6  12
ATOM     12  O   UNL     1      11.438  48.764  18.552  1.00  0.00    -0.508 OA
ATOM     13  H   UNL     1      11.035  48.271  17.764  1.00  0.00     0.293 HD
ENDBRANCH   6  12
TORSDOF 3
ENDMDL
MODEL 6
REMARK VINA RESULT:    -5.176      5.073      6.725
REMARK INTER + INTRA:          -6.069
REMARK INTER:                  -5.929
REMARK INTRA:                  -0.141
REMARK UNBOUND:                -0.138
REMARK SMILES O=C([O-])C=Cc1ccc(O)cc1
REMARK SMILES IDX 6 1 7 2 12 3 8 4 11 5 9 6 5 7 4 8 2 9 1 10 3 11 10 12
REMARK H PARENT 10 13
REMARK Flexibility Score: inf
ROOT
ATOM      1  C   UNL     1       7.309  48.653  17.467  1.00  0.00    -0.025 A 
ATOM      2  C   UNL     1       8.328  47.683  17.371  1.00  0.00     0.012 A 
ATOM      3  C   UNL     1       6.068  48.394  16.860  1.00  0.00     0.012 A 
ATOM      4  C   UNL     1       8.095  46.476  16.704  1.00  0.00     0.047 A 
ATOM      5  C   UNL     1       5.840  47.187  16.194  1.00  0.00     0.047 A 
ATOM      6  C   UNL     1       6.850  46.224  16.116  1.00  0.00     0.115 A 
ENDROOT
BRANCH   1   7
ATOM      7  C   UNL     1       7.506  49.954  18.154  1.00  0.00     0.010 C 
ATOM      8  C   UNL     1       6.672  50.441  19.083  1.00  0.00     0.025 C 
BRANCH   8   9
ATOM      9  C   UNL     1       6.902  51.742  19.729  1.00  0.00     0.064 C 
ATOM     10  O   UNL     1       7.664  51.814  20.728  1.00  0.00    -0.545 OA
ATOM     11  O   UNL     1       6.291  52.898  19.254  1.00  0.00    -0.545 OA
ENDBRANCH   8   9
ENDBRANCH   1   7
BRANCH   6  12
ATOM     12  O   UNL     1       6.608  45.025  15.451  1.00  0.00    -0.508 OA
ATOM     13  H   UNL     1       7.165  44.741  14.653  1.00  0.00     0.293 HD
ENDBRANCH   6  12
TORSDOF 3
ENDMDL
MODEL 7
REMARK VINA RESULT:    -5.150      1.315      2.174
REMARK INTER + INTRA:          -6.040
REMARK INTER:                  -5.901
REMARK INTRA:                  -0.139
REMARK UNBOUND:                -0.138
REMARK SMILES O=C([O-])C=Cc1ccc(O)cc1
REMARK SMILES IDX 6 1 7 2 12 3 8 4 11 5 9 6 5 7 4 8 2 9 1 10 3 11 10 12
REMARK H PARENT 10 13
REMARK Flexibility Score: inf
ROOT
ATOM      1  C   UNL     1       9.445  46.890  22.544  1.00  0.00    -0.025 A 
ATOM      2  C   UNL     1       8.677  46.057  23.384  1.00  0.00     0.012 A 
ATOM      3  C   UNL     1      10.259  47.875  23.129  1.00  0.00     0.012 A 
ATOM      4  C   UNL     1       8.748  46.196  24.774  1.00  0.00     0.047 A 
ATOM      5  C   UNL     1      10.327  48.011  24.518  1.00  0.00     0.047 A 
ATOM      6  C   UNL     1       9.575  47.171  25.345  1.00  0.00     0.115 A 
ENDROOT
BRANCH   1   7
ATOM      7  C   UNL     1       9.399  46.793  21.064  1.00  0.00     0.010 C 
ATOM      8  C   UNL     1       8.756  47.668  20.279  1.00  0.00     0.025 C 
BRANCH   8   9
ATOM      9  C   UNL     1       8.728  47.525  18.815  1.00  0.00     0.064 C 
ATOM     10  O   UNL     1       8.652  46.378  18.305  1.00  0.00    -0.545 OA
ATOM     11  O   UNL     1       8.784  48.639  17.984  1.00  0.00    -0.545 OA
ENDBRANCH   8   9
ENDBRANCH   1   7
BRANCH   6  12
ATOM     12  O   UNL     1       9.653  47.317  26.727  1.00  0.00    -0.508 OA
ATOM     13  H   UNL     1       9.071  46.770  27.351  1.00  0.00     0.293 HD
ENDBRANCH   6  12
TORSDOF 3
ENDMDL
MODEL 8
REMARK VINA RESULT:    -5.144      3.682      7.006
REMARK INTER + INTRA:          -6.033
REMARK INTER:                  -5.890
REMARK INTRA:                  -0.143
REMARK UNBOUND:                -0.138
REMARK SMILES O=C([O-])C=Cc1ccc(O)cc1
REMARK SMILES IDX 6 1 7 2 12 3 8 4 11 5 9 6 5 7 4 8 2 9 1 10 3 11 10 12
REMARK H PARENT 10 13
REMARK Flexibility Score: inf
ROOT
ATOM      1  C   UNL     1       6.269  46.053  24.771  1.00  0.00    -0.025 A 
ATOM      2  C   UNL     1       5.727  45.392  23.649  1.00  0.00     0.012 A 
ATOM      3  C   UNL     1       7.663  46.203  24.860  1.00  0.00     0.012 A 
ATOM      4  C   UNL     1       6.564  44.918  22.634  1.00  0.00     0.047 A 
ATOM      5  C   UNL     1       8.497  45.727  23.844  1.00  0.00     0.047 A 
ATOM      6  C   UNL     1       7.951  45.086  22.727  1.00  0.00     0.115 A 
ENDROOT
BRANCH   1   7
ATOM      7  C   UNL     1       5.427  46.565  25.880  1.00  0.00     0.010 C 
ATOM      8  C   UNL     1       5.566  47.784  26.420  1.00  0.00     0.025 C 
BRANCH   8   9
ATOM      9  C   UNL     1       4.716  48.246  27.528  1.00  0.00     0.064 C 
ATOM     10  O   UNL     1       4.690  47.595  28.604  1.00  0.00    -0.545 OA
ATOM     11  O   UNL     1       3.938  49.392  27.406  1.00  0.00    -0.545 OA
ENDBRANCH   8   9
ENDBRANCH   1   7
BRANCH   6  12
ATOM     12  O   UNL     1       8.794  44.618  21.722  1.00  0.00    -0.508 OA
ATOM     13  H   UNL     1       9.146  45.233  20.998  1.00  0.00     0.293 HD
ENDBRANCH   6  12
TORSDOF 3
ENDMDL
MODEL 9
REMARK VINA RESULT:    -5.063      3.788      4.897
REMARK INTER + INTRA:          -5.941
REMARK INTER:                  -5.805
REMARK INTRA:                  -0.136
REMARK UNBOUND:                -0.138
REMARK SMILES O=C([O-])C=Cc1ccc(O)cc1
REMARK SMILES IDX 6 1 7 2 12 3 8 4 11 5 9 6 5 7 4 8 2 9 1 10 3 11 10 12
REMARK H PARENT 10 13
REMARK Flexibility Score: inf
ROOT
ATOM      1  C   UNL     1       7.897  46.117  23.809  1.00  0.00    -0.025 A 
ATOM      2  C   UNL     1       7.103  46.577  24.880  1.00  0.00     0.012 A 
ATOM      3  C   UNL     1       7.327  45.238  22.872  1.00  0.00     0.012 A 
ATOM      4  C   UNL     1       5.766  46.182  24.990  1.00  0.00     0.047 A 
ATOM      5  C   UNL     1       5.991  44.845  22.986  1.00  0.00     0.047 A 
ATOM      6  C   UNL     1       5.206  45.317  24.042  1.00  0.00     0.115 A 
ENDROOT
BRANCH   1   7
ATOM      7  C   UNL     1       9.323  46.496  23.651  1.00  0.00     0.010 C 
ATOM      8  C   UNL     1       9.822  47.687  24.010  1.00  0.00     0.025 C 
BRANCH   8   9
ATOM      9  C   UNL     1      11.242  48.023  23.824  1.00  0.00     0.064 C 
ATOM     10  O   UNL     1      11.742  47.994  22.669  1.00  0.00    -0.545 OA
ATOM     11  O   UNL     1      12.045  48.374  24.905  1.00  0.00    -0.545 OA
ENDBRANCH   8   9
ENDBRANCH   1   7
BRANCH   6  12
ATOM     12  O   UNL     1       3.875  44.919  24.142  1.00  0.00    -0.508 OA
ATOM     13  H   UNL     1       3.455  44.301  23.457  1.00  0.00     0.293 HD
ENDBRANCH   6  12
TORSDOF 3
ENDMDL
