MODEL 1
REMARK VINA RESULT:    -4.254      0.000      0.000
REMARK INTER + INTRA:          -4.254
REMARK INTER:                  -4.254
REMARK INTRA:                   0.000
REMARK UNBOUND:                 0.000
REMARK SMILES C=C1CC[C@@H]2C[C@H]1C2(C)C
REMARK SMILES IDX 9 1 8 2 5 3 4 4 3 5 2 6 1 7 7 8 6 9 10 10
REMARK H PARENT
REMARK Flexibility Score: inf
ROOT
ATOM      1  C   UNL     1     134.964 134.894 160.209  1.00  0.00     0.012 C 
ATOM      2  C   UNL     1     135.596 135.959 161.140  1.00  0.00    -0.026 C 
ATOM      3  C   UNL     1     134.957 135.947 162.552  1.00  0.00    -0.004 C 
ATOM      4  C   UNL     1     135.299 137.255 163.335  1.00  0.00     0.008 C 
ATOM      5  C   UNL     1     136.844 137.568 163.344  1.00  0.00     0.031 C 
ATOM      6  C   UNL     1     137.638 136.611 162.440  1.00  0.00    -0.074 C 
ATOM      7  C   UNL     1     138.941 136.799 162.204  1.00  0.00     0.008 C 
ATOM      8  C   UNL     1     136.878 135.438 161.832  1.00  0.00     0.021 C 
ATOM      9  C   UNL     1     136.000 134.899 162.973  1.00  0.00     0.012 C 
ATOM     10  C   UNL     1     135.671 137.304 160.367  1.00  0.00     0.012 C 
ENDROOT
TORSDOF 0
ENDMDL
MODEL 2
REMARK VINA RESULT:    -3.950     15.076     17.137
REMARK INTER + INTRA:          -3.950
REMARK INTER:                  -3.950
REMARK INTRA:                   0.000
REMARK UNBOUND:                 0.000
REMARK SMILES C=C1CC[C@@H]2C[C@H]1C2(C)C
REMARK SMILES IDX 9 1 8 2 5 3 4 4 3 5 2 6 1 7 7 8 6 9 10 10
REMARK H PARENT
REMARK Flexibility Score: inf
ROOT
ATOM      1  C   UNL     1     155.125 138.212 162.892  1.00  0.00     0.012 C 
ATOM      2  C   UNL     1     154.164 137.135 162.330  1.00  0.00    -0.026 C 
ATOM      3  C   UNL     1     153.668 136.168 163.435  1.00  0.00    -0.004 C 
ATOM      4  C   UNL     1     153.048 134.875 162.813  1.00  0.00     0.008 C 
ATOM      5  C   UNL     1     151.960 135.194 161.718  1.00  0.00     0.031 C 
ATOM      6  C   UNL     1     151.881 136.694 161.392  1.00  0.00    -0.074 C 
ATOM      7  C   UNL     1     151.120 137.149 160.392  1.00  0.00     0.008 C 
ATOM      8  C   UNL     1     152.703 137.638 162.263  1.00  0.00     0.021 C 
ATOM      9  C   UNL     1     152.500 137.131 163.700  1.00  0.00     0.012 C 
ATOM     10  C   UNL     1     154.797 136.536 161.045  1.00  0.00     0.012 C 
ENDROOT
TORSDOF 0
ENDMDL
MODEL 3
REMARK VINA RESULT:    -3.853     15.555     17.392
REMARK INTER + INTRA:          -3.853
REMARK INTER:                  -3.853
REMARK INTRA:                   0.000
REMARK UNBOUND:                 0.000
REMARK SMILES C=C1CC[C@@H]2C[C@H]1C2(C)C
REMARK SMILES IDX 9 1 8 2 5 3 4 4 3 5 2 6 1 7 7 8 6 9 10 10
REMARK H PARENT
REMARK Flexibility Score: inf
ROOT
ATOM      1  C   UNL     1     151.657 134.880 162.055  1.00  0.00     0.012 C 
ATOM      2  C   UNL     1     152.896 135.700 162.495  1.00  0.00    -0.026 C 
ATOM      3  C   UNL     1     153.668 136.279 161.282  1.00  0.00    -0.004 C 
ATOM      4  C   UNL     1     155.102 136.742 161.698  1.00  0.00     0.008 C 
ATOM      5  C   UNL     1     155.088 137.697 162.952  1.00  0.00     0.031 C 
ATOM      6  C   UNL     1     153.690 137.816 163.580  1.00  0.00    -0.074 C 
ATOM      7  C   UNL     1     153.498 138.467 164.731  1.00  0.00     0.008 C 
ATOM      8  C   UNL     1     152.533 137.166 162.828  1.00  0.00     0.021 C 
ATOM      9  C   UNL     1     152.769 137.523 161.351  1.00  0.00     0.012 C 
ATOM     10  C   UNL     1     153.679 134.875 163.552  1.00  0.00     0.012 C 
ENDROOT
TORSDOF 0
ENDMDL
MODEL 4
REMARK VINA RESULT:    -3.816     15.204     17.550
REMARK INTER + INTRA:          -3.816
REMARK INTER:                  -3.816
REMARK INTRA:                   0.000
REMARK UNBOUND:                 0.000
REMARK SMILES C=C1CC[C@@H]2C[C@H]1C2(C)C
REMARK SMILES IDX 9 1 8 2 5 3 4 4 3 5 2 6 1 7 7 8 6 9 10 10
REMARK H PARENT
REMARK Flexibility Score: inf
ROOT
ATOM      1  C   UNL     1     153.633 138.674 164.805  1.00  0.00     0.012 C 
ATOM      2  C   UNL     1     153.702 138.088 163.373  1.00  0.00    -0.026 C 
ATOM      3  C   UNL     1     154.731 136.933 163.268  1.00  0.00    -0.004 C 
ATOM      4  C   UNL     1     155.086 136.630 161.777  1.00  0.00     0.008 C 
ATOM      5  C   UNL     1     153.806 136.418 160.882  1.00  0.00     0.031 C 
ATOM      6  C   UNL     1     152.506 136.725 161.641  1.00  0.00    -0.074 C 
ATOM      7  C   UNL     1     151.323 136.739 161.018  1.00  0.00     0.008 C 
ATOM      8  C   UNL     1     152.623 137.005 163.136  1.00  0.00     0.021 C 
ATOM      9  C   UNL     1     153.614 135.953 163.660  1.00  0.00     0.012 C 
ATOM     10  C   UNL     1     153.799 139.265 162.365  1.00  0.00     0.012 C 
ENDROOT
TORSDOF 0
ENDMDL
MODEL 5
REMARK VINA RESULT:    -3.746     16.111     17.489
REMARK INTER + INTRA:          -3.746
REMARK INTER:                  -3.746
REMARK INTRA:                   0.000
REMARK UNBOUND:                 0.000
REMARK SMILES C=C1CC[C@@H]2C[C@H]1C2(C)C
REMARK SMILES IDX 9 1 8 2 5 3 4 4 3 5 2 6 1 7 7 8 6 9 10 10
REMARK H PARENT
REMARK Flexibility Score: inf
ROOT
ATOM      1  C   UNL     1     137.052 152.060 164.751  1.00  0.00     0.012 C 
ATOM      2  C   UNL     1     137.023 152.680 163.332  1.00  0.00    -0.026 C 
ATOM      3  C   UNL     1     135.989 153.830 163.223  1.00  0.00    -0.004 C 
ATOM      4  C   UNL     1     135.678 154.167 161.729  1.00  0.00     0.008 C 
ATOM      5  C   UNL     1     136.984 154.409 160.880  1.00  0.00     0.031 C 
ATOM      6  C   UNL     1     138.263 154.093 161.672  1.00  0.00    -0.074 C 
ATOM      7  C   UNL     1     139.464 154.102 161.086  1.00  0.00     0.008 C 
ATOM      8  C   UNL     1     138.101 153.776 163.155  1.00  0.00     0.021 C 
ATOM      9  C   UNL     1     137.086 154.808 163.673  1.00  0.00     0.012 C 
ATOM     10  C   UNL     1     136.967 151.527 162.294  1.00  0.00     0.012 C 
ENDROOT
TORSDOF 0
ENDMDL
MODEL 6
REMARK VINA RESULT:    -3.542      0.958      3.175
REMARK INTER + INTRA:          -3.542
REMARK INTER:                  -3.542
REMARK INTRA:                   0.000
REMARK UNBOUND:                 0.000
REMARK SMILES C=C1CC[C@@H]2C[C@H]1C2(C)C
REMARK SMILES IDX 9 1 8 2 5 3 4 4 3 5 2 6 1 7 7 8 6 9 10 10
REMARK H PARENT
REMARK Flexibility Score: inf
ROOT
ATOM      1  C   UNL     1     139.002 136.795 162.624  1.00  0.00     0.012 C 
ATOM      2  C   UNL     1     137.688 136.177 162.085  1.00  0.00    -0.026 C 
ATOM      3  C   UNL     1     136.691 135.848 163.225  1.00  0.00    -0.004 C 
ATOM      4  C   UNL     1     135.572 134.876 162.731  1.00  0.00     0.008 C 
ATOM      5  C   UNL     1     134.875 135.379 161.409  1.00  0.00     0.031 C 
ATOM      6  C   UNL     1     135.568 136.617 160.819  1.00  0.00    -0.074 C 
ATOM      7  C   UNL     1     135.214 137.111 159.628  1.00  0.00     0.008 C 
ATOM      8  C   UNL     1     136.671 137.260 161.654  1.00  0.00     0.021 C 
ATOM      9  C   UNL     1     136.126 137.271 163.091  1.00  0.00     0.012 C 
ATOM     10  C   UNL     1     138.052 135.061 161.068  1.00  0.00     0.012 C 
ENDROOT
TORSDOF 0
ENDMDL
MODEL 7
REMARK VINA RESULT:    -2.933      0.891      2.826
REMARK INTER + INTRA:          -2.933
REMARK INTER:                  -2.933
REMARK INTRA:                   0.000
REMARK UNBOUND:                 0.000
REMARK SMILES C=C1CC[C@@H]2C[C@H]1C2(C)C
REMARK SMILES IDX 9 1 8 2 5 3 4 4 3 5 2 6 1 7 7 8 6 9 10 10
REMARK H PARENT
REMARK Flexibility Score: inf
ROOT
ATOM      1  C   UNL     1     134.875 137.343 163.522  1.00  0.00     0.012 C 
ATOM      2  C   UNL     1     135.747 136.351 162.712  1.00  0.00    -0.026 C 
ATOM      3  C   UNL     1     135.289 136.251 161.234  1.00  0.00    -0.004 C 
ATOM      4  C   UNL     1     135.888 134.983 160.545  1.00  0.00     0.008 C 
ATOM      5  C   UNL     1     137.450 134.875 160.731  1.00  0.00     0.031 C 
ATOM      6  C   UNL     1     137.999 135.945 161.688  1.00  0.00    -0.074 C 
ATOM      7  C   UNL     1     139.276 135.935 162.083  1.00  0.00     0.008 C 
ATOM      8  C   UNL     1     137.027 137.021 162.159  1.00  0.00     0.021 C 
ATOM      9  C   UNL     1     136.234 137.418 160.902  1.00  0.00     0.012 C 
ATOM     10  C   UNL     1     135.897 135.044 163.536  1.00  0.00     0.012 C 
ENDROOT
TORSDOF 0
ENDMDL
MODEL 8
REMARK VINA RESULT:    -2.817     15.215     17.170
REMARK INTER + INTRA:          -2.817
REMARK INTER:                  -2.817
REMARK INTRA:                   0.000
REMARK UNBOUND:                 0.000
REMARK SMILES C=C1CC[C@@H]2C[C@H]1C2(C)C
REMARK SMILES IDX 9 1 8 2 5 3 4 4 3 5 2 6 1 7 7 8 6 9 10 10
REMARK H PARENT
REMARK Flexibility Score: inf
ROOT
ATOM      1  C   UNL     1     151.400 136.596 160.316  1.00  0.00     0.012 C 
ATOM      2  C   UNL     1     152.287 136.475 161.580  1.00  0.00    -0.026 C 
ATOM      3  C   UNL     1     153.164 135.197 161.553  1.00  0.00    -0.004 C 
ATOM      4  C   UNL     1     153.732 134.875 162.972  1.00  0.00     0.008 C 
ATOM      5  C   UNL     1     154.445 136.116 163.634  1.00  0.00     0.031 C 
ATOM      6  C   UNL     1     154.268 137.400 162.807  1.00  0.00    -0.074 C 
ATOM      7  C   UNL     1     154.679 138.585 163.268  1.00  0.00     0.008 C 
ATOM      8  C   UNL     1     153.612 137.259 161.437  1.00  0.00     0.021 C 
ATOM      9  C   UNL     1     154.248 136.004 160.819  1.00  0.00     0.012 C 
ATOM     10  C   UNL     1     151.401 136.745 162.828  1.00  0.00     0.012 C 
ENDROOT
TORSDOF 0
ENDMDL
