MODEL 1
REMARK VINA RESULT:    -6.831      0.000      0.000
REMARK INTER + INTRA:          -8.638
REMARK INTER:                  -8.228
REMARK INTRA:                  -0.410
REMARK UNBOUND:                -0.410
REMARK SMILES O=c1c(O)c(-c2ccc(O)cc2O)oc2cc(O)cc(O)c12
REMARK SMILES IDX 5 1 3 2 2 3 1 4 22 5 20 6 19 7 17 8 16 9 15 10 14 11 6 12
REMARK SMILES IDX 8 13 7 14 9 15 11 16 12 17 10 18 13 20 4 22 21 24 18 26
REMARK H PARENT 10 19 13 21 4 23 21 25 18 27
REMARK Flexibility Score: inf
ROOT
ATOM      1  C   UNL     1     169.322 143.924 152.640  1.00  0.00     0.184 A 
ATOM      2  C   UNL     1     170.672 143.869 153.021  1.00  0.00     0.208 A 
ATOM      3  C   UNL     1     171.091 144.591 154.149  1.00  0.00     0.238 A 
ATOM      4  O   UNL     1     172.290 144.496 154.517  1.00  0.00    -0.285 OA
ATOM      5  C   UNL     1     170.155 145.373 154.871  1.00  0.00     0.111 A 
ATOM      6  C   UNL     1     170.476 146.176 156.006  1.00  0.00     0.134 A 
ATOM      7  C   UNL     1     169.448 146.804 156.720  1.00  0.00     0.093 A 
ATOM      8  C   UNL     1     168.121 146.711 156.304  1.00  0.00     0.123 A 
ATOM      9  C   UNL     1     167.802 145.976 155.161  1.00  0.00     0.094 A 
ATOM     10  C   UNL     1     168.801 145.309 154.448  1.00  0.00     0.146 A 
ATOM     11  O   UNL     1     168.456 144.611 153.373  1.00  0.00    -0.451 OA
ENDROOT
BRANCH   1  12
ATOM     12  C   UNL     1     168.820 143.201 151.452  1.00  0.00     0.063 A 
ATOM     13  C   UNL     1     168.542 143.113 149.039  1.00  0.00     0.047 A 
ATOM     14  C   UNL     1     168.999 143.772 150.182  1.00  0.00     0.020 A 
ATOM     15  C   UNL     1     167.914 141.870 149.146  1.00  0.00     0.119 A 
ATOM     16  C   UNL     1     167.751 141.281 150.407  1.00  0.00     0.093 A 
ATOM     17  C   UNL     1     168.212 141.933 151.560  1.00  0.00     0.130 A 
BRANCH  15  18
ATOM     18  O   UNL     1     167.460 141.226 147.997  1.00  0.00    -0.508 OA
ATOM     19  H   UNL     1     168.076 140.653 147.432  1.00  0.00     0.293 HD
ENDBRANCH  15  18
BRANCH  17  20
ATOM     20  O   UNL     1     168.088 141.314 152.805  1.00  0.00    -0.507 OA
ATOM     21  H   UNL     1     168.830 141.353 153.493  1.00  0.00     0.293 HD
ENDBRANCH  17  20
ENDBRANCH   1  12
BRANCH   2  22
ATOM     22  O   UNL     1     171.569 143.075 152.301  1.00  0.00    -0.502 OA
ATOM     23  H   UNL     1     172.573 143.138 152.429  1.00  0.00     0.293 HD
ENDBRANCH   2  22
BRANCH   6  24
ATOM     24  O   UNL     1     171.780 146.411 156.453  1.00  0.00    -0.507 OA
ATOM     25  H   UNL     1     172.591 145.884 156.164  1.00  0.00     0.293 HD
ENDBRANCH   6  24
BRANCH   8  26
ATOM     26  O   UNL     1     167.126 147.362 157.030  1.00  0.00    -0.508 OA
ATOM     27  H   UNL     1     166.506 146.856 157.652  1.00  0.00     0.293 HD
ENDBRANCH   8  26
TORSDOF 6
ENDMDL
MODEL 2
REMARK VINA RESULT:    -6.767      1.293      2.984
REMARK INTER + INTRA:          -8.561
REMARK INTER:                  -8.160
REMARK INTRA:                  -0.401
REMARK UNBOUND:                -0.410
REMARK SMILES O=c1c(O)c(-c2ccc(O)cc2O)oc2cc(O)cc(O)c12
REMARK SMILES IDX 5 1 3 2 2 3 1 4 22 5 20 6 19 7 17 8 16 9 15 10 14 11 6 12
REMARK SMILES IDX 8 13 7 14 9 15 11 16 12 17 10 18 13 20 4 22 21 24 18 26
REMARK H PARENT 10 19 13 21 4 23 21 25 18 27
REMARK Flexibility Score: inf
ROOT
ATOM      1  C   UNL     1     169.310 144.083 153.076  1.00  0.00     0.184 A 
ATOM      2  C   UNL     1     168.415 144.789 153.895  1.00  0.00     0.208 A 
ATOM      3  C   UNL     1     168.913 145.485 155.007  1.00  0.00     0.238 A 
ATOM      4  O   UNL     1     168.114 146.159 155.707  1.00  0.00    -0.285 OA
ATOM      5  C   UNL     1     170.300 145.449 155.296  1.00  0.00     0.111 A 
ATOM      6  C   UNL     1     170.910 146.083 156.420  1.00  0.00     0.134 A 
ATOM      7  C   UNL     1     172.305 146.092 156.534  1.00  0.00     0.093 A 
ATOM      8  C   UNL     1     173.108 145.435 155.602  1.00  0.00     0.123 A 
ATOM      9  C   UNL     1     172.520 144.761 154.531  1.00  0.00     0.094 A 
ATOM     10  C   UNL     1     171.132 144.765 154.370  1.00  0.00     0.146 A 
ATOM     11  O   UNL     1     170.612 144.123 153.332  1.00  0.00    -0.451 OA
ENDROOT
BRANCH   1  12
ATOM     12  C   UNL     1     168.848 143.318 151.899  1.00  0.00     0.063 A 
ATOM     13  C   UNL     1     168.526 143.203 149.492  1.00  0.00     0.047 A 
ATOM     14  C   UNL     1     168.948 143.901 150.626  1.00  0.00     0.020 A 
ATOM     15  C   UNL     1     168.012 141.910 149.612  1.00  0.00     0.119 A 
ATOM     16  C   UNL     1     167.929 141.310 150.876  1.00  0.00     0.093 A 
ATOM     17  C   UNL     1     168.356 142.002 152.019  1.00  0.00     0.130 A 
BRANCH  15  18
ATOM     18  O   UNL     1     167.591 141.228 148.473  1.00  0.00    -0.508 OA
ATOM     19  H   UNL     1     166.992 141.668 147.783  1.00  0.00     0.293 HD
ENDBRANCH  15  18
BRANCH  17  20
ATOM     20  O   UNL     1     168.314 141.376 153.266  1.00  0.00    -0.507 OA
ATOM     21  H   UNL     1     167.528 140.802 153.546  1.00  0.00     0.293 HD
ENDBRANCH  17  20
ENDBRANCH   1  12
BRANCH   2  22
ATOM     22  O   UNL     1     167.054 144.821 153.576  1.00  0.00    -0.502 OA
ATOM     23  H   UNL     1     166.723 144.911 152.622  1.00  0.00     0.293 HD
ENDBRANCH   2  22
BRANCH   6  24
ATOM     24  O   UNL     1     170.195 146.690 157.457  1.00  0.00    -0.507 OA
ATOM     25  H   UNL     1     170.281 146.448 158.432  1.00  0.00     0.293 HD
ENDBRANCH   6  24
BRANCH   8  26
ATOM     26  O   UNL     1     174.493 145.452 155.756  1.00  0.00    -0.508 OA
ATOM     27  H   UNL     1     175.046 146.261 155.498  1.00  0.00     0.293 HD
ENDBRANCH   8  26
TORSDOF 6
ENDMDL
MODEL 3
REMARK VINA RESULT:    -6.749      8.309     10.820
REMARK INTER + INTRA:          -8.540
REMARK INTER:                  -8.121
REMARK INTRA:                  -0.419
REMARK UNBOUND:                -0.410
REMARK SMILES O=c1c(O)c(-c2ccc(O)cc2O)oc2cc(O)cc(O)c12
REMARK SMILES IDX 5 1 3 2 2 3 1 4 22 5 20 6 19 7 17 8 16 9 15 10 14 11 6 12
REMARK SMILES IDX 8 13 7 14 9 15 11 16 12 17 10 18 13 20 4 22 21 24 18 26
REMARK H PARENT 10 19 13 21 4 23 21 25 18 27
REMARK Flexibility Score: inf
ROOT
ATOM      1  C   UNL     1     166.491 152.011 149.507  1.00  0.00     0.184 A 
ATOM      2  C   UNL     1     165.957 151.605 148.273  1.00  0.00     0.208 A 
ATOM      3  C   UNL     1     166.681 150.698 147.484  1.00  0.00     0.238 A 
ATOM      4  O   UNL     1     166.173 150.296 146.405  1.00  0.00    -0.285 OA
ATOM      5  C   UNL     1     167.939 150.225 147.931  1.00  0.00     0.111 A 
ATOM      6  C   UNL     1     168.778 149.336 147.194  1.00  0.00     0.134 A 
ATOM      7  C   UNL     1     169.941 148.831 147.790  1.00  0.00     0.093 A 
ATOM      8  C   UNL     1     170.328 149.233 149.067  1.00  0.00     0.123 A 
ATOM      9  C   UNL     1     169.546 150.147 149.774  1.00  0.00     0.094 A 
ATOM     10  C   UNL     1     168.361 150.641 149.221  1.00  0.00     0.146 A 
ATOM     11  O   UNL     1     167.640 151.500 149.930  1.00  0.00    -0.451 OA
ENDROOT
BRANCH   1  12
ATOM     12  C   UNL     1     165.787 152.975 150.378  1.00  0.00     0.063 A 
ATOM     13  C   UNL     1     163.999 153.418 151.965  1.00  0.00     0.047 A 
ATOM     14  C   UNL     1     164.684 152.535 151.127  1.00  0.00     0.020 A 
ATOM     15  C   UNL     1     164.414 154.748 152.077  1.00  0.00     0.119 A 
ATOM     16  C   UNL     1     165.527 155.191 151.350  1.00  0.00     0.093 A 
ATOM     17  C   UNL     1     166.224 154.309 150.511  1.00  0.00     0.130 A 
BRANCH  15  18
ATOM     18  O   UNL     1     163.718 155.618 152.912  1.00  0.00    -0.508 OA
ATOM     19  H   UNL     1     162.716 155.747 152.827  1.00  0.00     0.293 HD
ENDBRANCH  15  18
BRANCH  17  20
ATOM     20  O   UNL     1     167.360 154.750 149.831  1.00  0.00    -0.507 OA
ATOM     21  H   UNL     1     167.692 155.704 149.913  1.00  0.00     0.293 HD
ENDBRANCH  17  20
ENDBRANCH   1  12
BRANCH   2  22
ATOM     22  O   UNL     1     164.705 152.074 147.866  1.00  0.00    -0.502 OA
ATOM     23  H   UNL     1     164.596 152.761 147.129  1.00  0.00     0.293 HD
ENDBRANCH   2  22
BRANCH   6  24
ATOM     24  O   UNL     1     168.531 148.943 145.875  1.00  0.00    -0.507 OA
ATOM     25  H   UNL     1     167.617 148.757 145.492  1.00  0.00     0.293 HD
ENDBRANCH   6  24
BRANCH   8  26
ATOM     26  O   UNL     1     171.499 148.722 149.623  1.00  0.00    -0.508 OA
ATOM     27  H   UNL     1     171.732 148.870 150.598  1.00  0.00     0.293 HD
ENDBRANCH   8  26
TORSDOF 6
ENDMDL
MODEL 4
REMARK VINA RESULT:    -6.681      8.603      9.839
REMARK INTER + INTRA:          -8.457
REMARK INTER:                  -8.066
REMARK INTRA:                  -0.392
REMARK UNBOUND:                -0.410
REMARK SMILES O=c1c(O)c(-c2ccc(O)cc2O)oc2cc(O)cc(O)c12
REMARK SMILES IDX 5 1 3 2 2 3 1 4 22 5 20 6 19 7 17 8 16 9 15 10 14 11 6 12
REMARK SMILES IDX 8 13 7 14 9 15 11 16 12 17 10 18 13 20 4 22 21 24 18 26
REMARK H PARENT 10 19 13 21 4 23 21 25 18 27
REMARK Flexibility Score: inf
ROOT
ATOM      1  C   UNL     1     166.569 151.498 149.321  1.00  0.00     0.184 A 
ATOM      2  C   UNL     1     165.374 150.948 149.813  1.00  0.00     0.208 A 
ATOM      3  C   UNL     1     164.488 151.773 150.522  1.00  0.00     0.238 A 
ATOM      4  O   UNL     1     163.394 151.289 150.914  1.00  0.00    -0.285 OA
ATOM      5  C   UNL     1     164.817 153.132 150.747  1.00  0.00     0.111 A 
ATOM      6  C   UNL     1     164.013 154.049 151.488  1.00  0.00     0.134 A 
ATOM      7  C   UNL     1     164.374 155.401 151.535  1.00  0.00     0.093 A 
ATOM      8  C   UNL     1     165.541 155.857 150.925  1.00  0.00     0.123 A 
ATOM      9  C   UNL     1     166.367 154.959 150.247  1.00  0.00     0.094 A 
ATOM     10  C   UNL     1     166.015 153.610 150.151  1.00  0.00     0.146 A 
ATOM     11  O   UNL     1     166.821 152.790 149.489  1.00  0.00    -0.451 OA
ENDROOT
BRANCH   1  12
ATOM     12  C   UNL     1     167.553 150.680 148.580  1.00  0.00     0.063 A 
ATOM     13  C   UNL     1     169.555 149.302 148.617  1.00  0.00     0.047 A 
ATOM     14  C   UNL     1     168.611 150.085 149.285  1.00  0.00     0.020 A 
ATOM     15  C   UNL     1     169.447 149.090 147.240  1.00  0.00     0.119 A 
ATOM     16  C   UNL     1     168.381 149.661 146.531  1.00  0.00     0.093 A 
ATOM     17  C   UNL     1     167.426 150.444 147.196  1.00  0.00     0.130 A 
BRANCH  15  18
ATOM     18  O   UNL     1     170.398 148.310 146.587  1.00  0.00    -0.508 OA
ATOM     19  H   UNL     1     170.554 147.342 146.842  1.00  0.00     0.293 HD
ENDBRANCH  15  18
BRANCH  17  20
ATOM     20  O   UNL     1     166.342 150.967 146.488  1.00  0.00    -0.507 OA
ATOM     21  H   UNL     1     166.361 151.058 145.479  1.00  0.00     0.293 HD
ENDBRANCH  17  20
ENDBRANCH   1  12
BRANCH   2  22
ATOM     22  O   UNL     1     165.066 149.609 149.561  1.00  0.00    -0.502 OA
ATOM     23  H   UNL     1     164.368 149.103 150.094  1.00  0.00     0.293 HD
ENDBRANCH   2  22
BRANCH   6  24
ATOM     24  O   UNL     1     162.875 153.681 152.212  1.00  0.00    -0.507 OA
ATOM     25  H   UNL     1     162.364 154.293 152.830  1.00  0.00     0.293 HD
ENDBRANCH   6  24
BRANCH   8  26
ATOM     26  O   UNL     1     165.877 157.207 151.005  1.00  0.00    -0.508 OA
ATOM     27  H   UNL     1     166.651 157.594 150.477  1.00  0.00     0.293 HD
ENDBRANCH   8  26
TORSDOF 6
ENDMDL
MODEL 5
REMARK VINA RESULT:    -6.672      7.323      9.598
REMARK INTER + INTRA:          -8.447
REMARK INTER:                  -8.142
REMARK INTRA:                  -0.305
REMARK UNBOUND:                -0.410
REMARK SMILES O=c1c(O)c(-c2ccc(O)cc2O)oc2cc(O)cc(O)c12
REMARK SMILES IDX 5 1 3 2 2 3 1 4 22 5 20 6 19 7 17 8 16 9 15 10 14 11 6 12
REMARK SMILES IDX 8 13 7 14 9 15 11 16 12 17 10 18 13 20 4 22 21 24 18 26
REMARK H PARENT 10 19 13 21 4 23 21 25 18 27
REMARK Flexibility Score: inf
ROOT
ATOM      1  C   UNL     1     166.765 150.765 149.460  1.00  0.00     0.184 A 
ATOM      2  C   UNL     1     167.151 150.982 148.127  1.00  0.00     0.208 A 
ATOM      3  C   UNL     1     168.127 150.150 147.557  1.00  0.00     0.238 A 
ATOM      4  O   UNL     1     168.431 150.315 146.347  1.00  0.00    -0.285 OA
ATOM      5  C   UNL     1     168.717 149.122 148.335  1.00  0.00     0.111 A 
ATOM      6  C   UNL     1     169.744 148.246 147.873  1.00  0.00     0.134 A 
ATOM      7  C   UNL     1     170.160 147.183 148.684  1.00  0.00     0.093 A 
ATOM      8  C   UNL     1     169.635 147.004 149.963  1.00  0.00     0.123 A 
ATOM      9  C   UNL     1     168.672 147.890 150.448  1.00  0.00     0.094 A 
ATOM     10  C   UNL     1     168.210 148.939 149.648  1.00  0.00     0.146 A 
ATOM     11  O   UNL     1     167.286 149.754 150.142  1.00  0.00    -0.451 OA
ENDROOT
BRANCH   1  12
ATOM     12  C   UNL     1     165.755 151.616 150.123  1.00  0.00     0.063 A 
ATOM     13  C   UNL     1     163.557 151.819 151.142  1.00  0.00     0.047 A 
ATOM     14  C   UNL     1     164.531 151.045 150.507  1.00  0.00     0.020 A 
ATOM     15  C   UNL     1     163.797 153.168 151.414  1.00  0.00     0.119 A 
ATOM     16  C   UNL     1     165.024 153.742 151.056  1.00  0.00     0.093 A 
ATOM     17  C   UNL     1     166.010 152.970 150.423  1.00  0.00     0.130 A 
BRANCH  15  18
ATOM     18  O   UNL     1     162.814 153.928 152.043  1.00  0.00    -0.508 OA
ATOM     19  H   UNL     1     161.833 153.826 151.808  1.00  0.00     0.293 HD
ENDBRANCH  15  18
BRANCH  17  20
ATOM     20  O   UNL     1     167.246 153.540 150.115  1.00  0.00    -0.507 OA
ATOM     21  H   UNL     1     167.323 154.492 149.778  1.00  0.00     0.293 HD
ENDBRANCH  17  20
ENDBRANCH   1  12
BRANCH   2  22
ATOM     22  O   UNL     1     166.540 151.992 147.379  1.00  0.00    -0.502 OA
ATOM     23  H   UNL     1     166.868 152.258 146.457  1.00  0.00     0.293 HD
ENDBRANCH   2  22
BRANCH   6  24
ATOM     24  O   UNL     1     170.401 148.391 146.648  1.00  0.00    -0.507 OA
ATOM     25  H   UNL     1     171.359 148.688 146.541  1.00  0.00     0.293 HD
ENDBRANCH   6  24
BRANCH   8  26
ATOM     26  O   UNL     1     170.084 145.944 150.748  1.00  0.00    -0.508 OA
ATOM     27  H   UNL     1     170.239 146.051 151.745  1.00  0.00     0.293 HD
ENDBRANCH   8  26
TORSDOF 6
ENDMDL
MODEL 6
REMARK VINA RESULT:    -6.601      7.544     10.135
REMARK INTER + INTRA:          -8.362
REMARK INTER:                  -7.946
REMARK INTRA:                  -0.416
REMARK UNBOUND:                -0.410
REMARK SMILES O=c1c(O)c(-c2ccc(O)cc2O)oc2cc(O)cc(O)c12
REMARK SMILES IDX 5 1 3 2 2 3 1 4 22 5 20 6 19 7 17 8 16 9 15 10 14 11 6 12
REMARK SMILES IDX 8 13 7 14 9 15 11 16 12 17 10 18 13 20 4 22 21 24 18 26
REMARK H PARENT 10 19 13 21 4 23 21 25 18 27
REMARK Flexibility Score: inf
ROOT
ATOM      1  C   UNL     1     165.414 151.051 150.162  1.00  0.00     0.184 A 
ATOM      2  C   UNL     1     164.671 150.505 149.104  1.00  0.00     0.208 A 
ATOM      3  C   UNL     1     164.968 149.206 148.663  1.00  0.00     0.238 A 
ATOM      4  O   UNL     1     164.264 148.701 147.750  1.00  0.00    -0.285 OA
ATOM      5  C   UNL     1     166.018 148.478 149.276  1.00  0.00     0.111 A 
ATOM      6  C   UNL     1     166.433 147.170 148.883  1.00  0.00     0.134 A 
ATOM      7  C   UNL     1     167.396 146.494 149.644  1.00  0.00     0.093 A 
ATOM      8  C   UNL     1     168.003 147.102 150.741  1.00  0.00     0.123 A 
ATOM      9  C   UNL     1     167.648 148.403 151.099  1.00  0.00     0.094 A 
ATOM     10  C   UNL     1     166.665 149.090 150.382  1.00  0.00     0.146 A 
ATOM     11  O   UNL     1     166.347 150.322 150.761  1.00  0.00    -0.451 OA
ENDROOT
BRANCH   1  12
ATOM     12  C   UNL     1     165.162 152.419 150.663  1.00  0.00     0.063 A 
ATOM     13  C   UNL     1     163.768 153.932 151.958  1.00  0.00     0.047 A 
ATOM     14  C   UNL     1     164.033 152.653 151.463  1.00  0.00     0.020 A 
ATOM     15  C   UNL     1     164.634 154.990 151.672  1.00  0.00     0.119 A 
ATOM     16  C   UNL     1     165.776 154.763 150.893  1.00  0.00     0.093 A 
ATOM     17  C   UNL     1     166.052 153.480 150.397  1.00  0.00     0.130 A 
BRANCH  15  18
ATOM     18  O   UNL     1     164.354 156.262 152.168  1.00  0.00    -0.508 OA
ATOM     19  H   UNL     1     165.092 156.882 152.481  1.00  0.00     0.293 HD
ENDBRANCH  15  18
BRANCH  17  20
ATOM     20  O   UNL     1     167.218 153.255 149.664  1.00  0.00    -0.507 OA
ATOM     21  H   UNL     1     167.202 152.767 148.776  1.00  0.00     0.293 HD
ENDBRANCH  17  20
ENDBRANCH   1  12
BRANCH   2  22
ATOM     22  O   UNL     1     163.629 151.238 148.531  1.00  0.00    -0.502 OA
ATOM     23  H   UNL     1     163.534 151.353 147.528  1.00  0.00     0.293 HD
ENDBRANCH   2  22
BRANCH   6  24
ATOM     24  O   UNL     1     165.956 146.507 147.748  1.00  0.00    -0.507 OA
ATOM     25  H   UNL     1     166.240 146.710 146.802  1.00  0.00     0.293 HD
ENDBRANCH   6  24
BRANCH   8  26
ATOM     26  O   UNL     1     168.968 146.405 151.466  1.00  0.00    -0.508 OA
ATOM     27  H   UNL     1     169.828 146.849 151.768  1.00  0.00     0.293 HD
ENDBRANCH   8  26
TORSDOF 6
ENDMDL
MODEL 7
REMARK VINA RESULT:    -6.544      7.036      7.822
REMARK INTER + INTRA:          -8.293
REMARK INTER:                  -7.877
REMARK INTRA:                  -0.416
REMARK UNBOUND:                -0.410
REMARK SMILES O=c1c(O)c(-c2ccc(O)cc2O)oc2cc(O)cc(O)c12
REMARK SMILES IDX 5 1 3 2 2 3 1 4 22 5 20 6 19 7 17 8 16 9 15 10 14 11 6 12
REMARK SMILES IDX 8 13 7 14 9 15 11 16 12 17 10 18 13 20 4 22 21 24 18 26
REMARK H PARENT 10 19 13 21 4 23 21 25 18 27
REMARK Flexibility Score: inf
ROOT
ATOM      1  C   UNL     1     167.352 149.667 150.037  1.00  0.00     0.184 A 
ATOM      2  C   UNL     1     168.313 150.603 149.622  1.00  0.00     0.208 A 
ATOM      3  C   UNL     1     168.000 151.970 149.678  1.00  0.00     0.238 A 
ATOM      4  O   UNL     1     168.883 152.807 149.356  1.00  0.00    -0.285 OA
ATOM      5  C   UNL     1     166.721 152.381 150.131  1.00  0.00     0.111 A 
ATOM      6  C   UNL     1     166.281 153.737 150.190  1.00  0.00     0.134 A 
ATOM      7  C   UNL     1     165.045 154.036 150.778  1.00  0.00     0.093 A 
ATOM      8  C   UNL     1     164.208 153.026 151.247  1.00  0.00     0.123 A 
ATOM      9  C   UNL     1     164.602 151.691 151.140  1.00  0.00     0.094 A 
ATOM     10  C   UNL     1     165.845 151.363 150.592  1.00  0.00     0.146 A 
ATOM     11  O   UNL     1     166.189 150.083 150.519  1.00  0.00    -0.451 OA
ENDROOT
BRANCH   1  12
ATOM     12  C   UNL     1     167.613 148.213 149.988  1.00  0.00     0.063 A 
ATOM     13  C   UNL     1     168.337 146.194 151.132  1.00  0.00     0.047 A 
ATOM     14  C   UNL     1     168.085 147.568 151.142  1.00  0.00     0.020 A 
ATOM     15  C   UNL     1     168.108 145.444 149.976  1.00  0.00     0.119 A 
ATOM     16  C   UNL     1     167.615 146.075 148.825  1.00  0.00     0.093 A 
ATOM     17  C   UNL     1     167.354 147.453 148.829  1.00  0.00     0.130 A 
BRANCH  15  18
ATOM     18  O   UNL     1     168.368 144.076 149.979  1.00  0.00    -0.508 OA
ATOM     19  H   UNL     1     167.668 143.404 150.274  1.00  0.00     0.293 HD
ENDBRANCH  15  18
BRANCH  17  20
ATOM     20  O   UNL     1     166.818 148.061 147.692  1.00  0.00    -0.507 OA
ATOM     21  H   UNL     1     165.819 148.084 147.524  1.00  0.00     0.293 HD
ENDBRANCH  17  20
ENDBRANCH   1  12
BRANCH   2  22
ATOM     22  O   UNL     1     169.572 150.170 149.197  1.00  0.00    -0.502 OA
ATOM     23  H   UNL     1     170.284 150.812 148.867  1.00  0.00     0.293 HD
ENDBRANCH   2  22
BRANCH   6  24
ATOM     24  O   UNL     1     167.001 154.815 149.667  1.00  0.00    -0.507 OA
ATOM     25  H   UNL     1     166.810 155.258 148.781  1.00  0.00     0.293 HD
ENDBRANCH   6  24
BRANCH   8  26
ATOM     26  O   UNL     1     162.978 153.359 151.812  1.00  0.00    -0.508 OA
ATOM     27  H   UNL     1     162.329 153.980 151.341  1.00  0.00     0.293 HD
ENDBRANCH   8  26
TORSDOF 6
ENDMDL
MODEL 8
REMARK VINA RESULT:    -6.524      6.887      8.790
REMARK INTER + INTRA:          -8.269
REMARK INTER:                  -7.870
REMARK INTRA:                  -0.398
REMARK UNBOUND:                -0.410
REMARK SMILES O=c1c(O)c(-c2ccc(O)cc2O)oc2cc(O)cc(O)c12
REMARK SMILES IDX 5 1 3 2 2 3 1 4 22 5 20 6 19 7 17 8 16 9 15 10 14 11 6 12
REMARK SMILES IDX 8 13 7 14 9 15 11 16 12 17 10 18 13 20 4 22 21 24 18 26
REMARK H PARENT 10 19 13 21 4 23 21 25 18 27
REMARK Flexibility Score: inf
ROOT
ATOM      1  C   UNL     1     168.269 150.357 149.461  1.00  0.00     0.184 A 
ATOM      2  C   UNL     1     169.083 150.042 148.361  1.00  0.00     0.208 A 
ATOM      3  C   UNL     1     169.610 148.746 148.253  1.00  0.00     0.238 A 
ATOM      4  O   UNL     1     170.295 148.454 147.238  1.00  0.00    -0.285 OA
ATOM      5  C   UNL     1     169.331 147.787 149.258  1.00  0.00     0.111 A 
ATOM      6  C   UNL     1     169.846 146.456 149.272  1.00  0.00     0.134 A 
ATOM      7  C   UNL     1     169.399 145.554 150.245  1.00  0.00     0.093 A 
ATOM      8  C   UNL     1     168.509 145.951 151.241  1.00  0.00     0.123 A 
ATOM      9  C   UNL     1     168.044 147.267 151.272  1.00  0.00     0.094 A 
ATOM     10  C   UNL     1     168.444 148.181 150.293  1.00  0.00     0.146 A 
ATOM     11  O   UNL     1     167.971 149.420 150.351  1.00  0.00    -0.451 OA
ENDROOT
BRANCH   1  12
ATOM     12  C   UNL     1     167.696 151.707 149.642  1.00  0.00     0.063 A 
ATOM     13  C   UNL     1     165.792 153.202 149.416  1.00  0.00     0.047 A 
ATOM     14  C   UNL     1     166.367 151.939 149.254  1.00  0.00     0.020 A 
ATOM     15  C   UNL     1     166.531 154.245 149.980  1.00  0.00     0.119 A 
ATOM     16  C   UNL     1     167.851 154.017 150.391  1.00  0.00     0.093 A 
ATOM     17  C   UNL     1     168.434 152.751 150.237  1.00  0.00     0.130 A 
BRANCH  15  18
ATOM     18  O   UNL     1     165.946 155.500 150.131  1.00  0.00    -0.508 OA
ATOM     19  H   UNL     1     164.990 155.603 150.451  1.00  0.00     0.293 HD
ENDBRANCH  15  18
BRANCH  17  20
ATOM     20  O   UNL     1     169.733 152.523 150.695  1.00  0.00    -0.507 OA
ATOM     21  H   UNL     1     170.436 152.092 150.107  1.00  0.00     0.293 HD
ENDBRANCH  17  20
ENDBRANCH   1  12
BRANCH   2  22
ATOM     22  O   UNL     1     169.327 151.003 147.375  1.00  0.00    -0.502 OA
ATOM     23  H   UNL     1     169.929 150.824 146.580  1.00  0.00     0.293 HD
ENDBRANCH   2  22
BRANCH   6  24
ATOM     24  O   UNL     1     170.810 145.982 148.377  1.00  0.00    -0.507 OA
ATOM     25  H   UNL     1     171.539 146.545 147.965  1.00  0.00     0.293 HD
ENDBRANCH   6  24
BRANCH   8  26
ATOM     26  O   UNL     1     168.098 145.031 152.203  1.00  0.00    -0.508 OA
ATOM     27  H   UNL     1     167.772 145.327 153.116  1.00  0.00     0.293 HD
ENDBRANCH   8  26
TORSDOF 6
ENDMDL
MODEL 9
REMARK VINA RESULT:    -6.478      7.226      9.822
REMARK INTER + INTRA:          -8.214
REMARK INTER:                  -7.803
REMARK INTRA:                  -0.411
REMARK UNBOUND:                -0.410
REMARK SMILES O=c1c(O)c(-c2ccc(O)cc2O)oc2cc(O)cc(O)c12
REMARK SMILES IDX 5 1 3 2 2 3 1 4 22 5 20 6 19 7 17 8 16 9 15 10 14 11 6 12
REMARK SMILES IDX 8 13 7 14 9 15 11 16 12 17 10 18 13 20 4 22 21 24 18 26
REMARK H PARENT 10 19 13 21 4 23 21 25 18 27
REMARK Flexibility Score: inf
ROOT
ATOM      1  C   UNL     1     166.496 150.014 148.528  1.00  0.00     0.184 A 
ATOM      2  C   UNL     1     167.598 150.625 147.909  1.00  0.00     0.208 A 
ATOM      3  C   UNL     1     168.505 149.827 147.194  1.00  0.00     0.238 A 
ATOM      4  O   UNL     1     169.462 150.386 146.596  1.00  0.00    -0.285 OA
ATOM      5  C   UNL     1     168.308 148.426 147.125  1.00  0.00     0.111 A 
ATOM      6  C   UNL     1     169.186 147.516 146.464  1.00  0.00     0.134 A 
ATOM      7  C   UNL     1     168.823 146.168 146.347  1.00  0.00     0.093 A 
ATOM      8  C   UNL     1     167.649 145.686 146.923  1.00  0.00     0.123 A 
ATOM      9  C   UNL     1     166.812 146.556 147.624  1.00  0.00     0.094 A 
ATOM     10  C   UNL     1     167.128 147.913 147.726  1.00  0.00     0.146 A 
ATOM     11  O   UNL     1     166.300 148.709 148.391  1.00  0.00    -0.451 OA
ENDROOT
BRANCH   1  12
ATOM     12  C   UNL     1     165.513 150.794 149.308  1.00  0.00     0.063 A 
ATOM     13  C   UNL     1     164.837 151.740 151.444  1.00  0.00     0.047 A 
ATOM     14  C   UNL     1     165.743 151.002 150.678  1.00  0.00     0.020 A 
ATOM     15  C   UNL     1     163.699 152.291 150.851  1.00  0.00     0.119 A 
ATOM     16  C   UNL     1     163.472 152.109 149.480  1.00  0.00     0.093 A 
ATOM     17  C   UNL     1     164.380 151.374 148.703  1.00  0.00     0.130 A 
BRANCH  15  18
ATOM     18  O   UNL     1     162.802 153.021 151.628  1.00  0.00    -0.508 OA
ATOM     19  H   UNL     1     163.099 153.831 152.159  1.00  0.00     0.293 HD
ENDBRANCH  15  18
BRANCH  17  20
ATOM     20  O   UNL     1     164.169 151.241 147.329  1.00  0.00    -0.507 OA
ATOM     21  H   UNL     1     164.911 151.407 146.659  1.00  0.00     0.293 HD
ENDBRANCH  17  20
ENDBRANCH   1  12
BRANCH   2  22
ATOM     22  O   UNL     1     167.758 152.011 147.978  1.00  0.00    -0.502 OA
ATOM     23  H   UNL     1     168.266 152.535 147.274  1.00  0.00     0.293 HD
ENDBRANCH   2  22
BRANCH   6  24
ATOM     24  O   UNL     1     170.428 147.876 145.932  1.00  0.00    -0.507 OA
ATOM     25  H   UNL     1     171.319 147.639 146.341  1.00  0.00     0.293 HD
ENDBRANCH   6  24
BRANCH   8  26
ATOM     26  O   UNL     1     167.328 144.336 146.801  1.00  0.00    -0.508 OA
ATOM     27  H   UNL     1     166.505 143.944 147.245  1.00  0.00     0.293 HD
ENDBRANCH   8  26
TORSDOF 6
ENDMDL
