MODEL 1
REMARK VINA RESULT:    10.749      0.000      0.000
REMARK INTER + INTRA:          17.708
REMARK INTER:                  18.290
REMARK INTRA:                  -0.582
REMARK UNBOUND:                -0.582
REMARK SMILES CCCCCCCCCCCCCC(=O)[O-]
REMARK SMILES IDX 8 1 9 2 10 3 11 4 12 5 13 6 14 7 15 8 16 9 7 10 6 11 5 12
REMARK SMILES IDX 4 13 3 14 2 15 1 16
REMARK H PARENT
REMARK Flexibility Score: inf
ROOT
ATOM      1  C   UNL     1      14.950   5.225   7.200  1.00  0.00     0.000 C 
ENDROOT
BRANCH   1   2
ATOM      2  C   UNL     1      16.164   5.618   6.350  1.00  0.00     0.000 C 
BRANCH   2   3
ATOM      3  C   UNL     1      17.296   4.595   6.501  1.00  0.00     0.000 C 
BRANCH   3   4
ATOM      4  C   UNL     1      18.125   4.873   7.761  1.00  0.00     0.000 C 
BRANCH   4   5
ATOM      5  C   UNL     1      18.125   6.368   8.100  1.00  0.00     0.006 C 
BRANCH   5   6
ATOM      6  C   UNL     1      18.086   6.587   9.615  1.00  0.00     0.053 C 
BRANCH   6   7
ATOM      7  C   UNL     1      17.237   7.771   9.953  1.00  0.00     0.041 C 
ATOM      8  O   UNL     1      16.054   7.608  10.354  1.00  0.00    -0.550 OA
ATOM      9  O   UNL     1      17.733   9.056   9.777  1.00  0.00    -0.550 OA
ENDBRANCH   6   7
ENDBRANCH   5   6
ENDBRANCH   4   5
ENDBRANCH   3   4
ENDBRANCH   2   3
ENDBRANCH   1   2
BRANCH   1  10
ATOM     10  C   UNL     1      14.566   6.353   8.166  1.00  0.00     0.000 C 
BRANCH  10  11
ATOM     11  C   UNL     1      13.858   7.497   7.421  1.00  0.00    -0.000 C 
BRANCH  11  12
ATOM     12  C   UNL     1      12.338   7.286   7.318  1.00  0.00    -0.000 C 
BRANCH  12  13
ATOM     13  C   UNL     1      11.772   6.485   8.502  1.00  0.00    -0.000 C 
BRANCH  13  14
ATOM     14  C   UNL     1      10.530   5.657   8.125  1.00  0.00    -0.000 C 
BRANCH  14  15
ATOM     15  C   UNL     1      10.787   4.152   7.929  1.00  0.00    -0.003 C 
ATOM     16  C   UNL     1      10.614   3.343   9.214  1.00  0.00     0.004 C 
ENDBRANCH  14  15
ENDBRANCH  13  14
ENDBRANCH  12  13
ENDBRANCH  11  12
ENDBRANCH  10  11
ENDBRANCH   1  10
TORSDOF 12
ENDMDL
MODEL 2
REMARK VINA RESULT:    12.561      1.129      1.951
REMARK INTER + INTRA:          20.791
REMARK INTER:                  21.070
REMARK INTRA:                  -0.279
REMARK UNBOUND:                -0.582
REMARK SMILES CCCCCCCCCCCCCC(=O)[O-]
REMARK SMILES IDX 8 1 9 2 10 3 11 4 12 5 13 6 14 7 15 8 16 9 7 10 6 11 5 12
REMARK SMILES IDX 4 13 3 14 2 15 1 16
REMARK H PARENT
REMARK Flexibility Score: inf
ROOT
ATOM      1  C   UNL     1      14.209   6.530   8.106  1.00  0.00     0.000 C 
ENDROOT
BRANCH   1   2
ATOM      2  C   UNL     1      15.389   6.508   7.127  1.00  0.00     0.000 C 
BRANCH   2   3
ATOM      3  C   UNL     1      15.929   5.084   6.950  1.00  0.00     0.000 C 
BRANCH   3   4
ATOM      4  C   UNL     1      17.378   4.980   7.443  1.00  0.00     0.000 C 
BRANCH   4   5
ATOM      5  C   UNL     1      17.919   6.353   7.857  1.00  0.00     0.006 C 
BRANCH   5   6
ATOM      6  C   UNL     1      18.083   6.444   9.376  1.00  0.00     0.053 C 
BRANCH   6   7
ATOM      7  C   UNL     1      17.378   7.651   9.909  1.00  0.00     0.041 C 
ATOM      8  O   UNL     1      18.036   8.666  10.261  1.00  0.00    -0.550 OA
ATOM      9  O   UNL     1      15.998   7.639  10.062  1.00  0.00    -0.550 OA
ENDBRANCH   6   7
ENDBRANCH   5   6
ENDBRANCH   4   5
ENDBRANCH   3   4
ENDBRANCH   2   3
ENDBRANCH   1   2
BRANCH   1  10
ATOM     10  C   UNL     1      13.060   7.389   7.564  1.00  0.00     0.000 C 
BRANCH  10  11
ATOM     11  C   UNL     1      11.826   6.526   7.256  1.00  0.00    -0.000 C 
BRANCH  11  12
ATOM     12  C   UNL     1      10.968   6.250   8.502  1.00  0.00    -0.000 C 
BRANCH  12  13
ATOM     13  C   UNL     1       9.978   5.092   8.291  1.00  0.00    -0.000 C 
BRANCH  13  14
ATOM     14  C   UNL     1      10.574   3.937   7.465  1.00  0.00    -0.000 C 
BRANCH  14  15
ATOM     15  C   UNL     1       9.793   3.580   6.189  1.00  0.00    -0.003 C 
ATOM     16  C   UNL     1       8.666   4.565   5.881  1.00  0.00     0.004 C 
ENDBRANCH  14  15
ENDBRANCH  13  14
ENDBRANCH  12  13
ENDBRANCH  11  12
ENDBRANCH  10  11
ENDBRANCH   1  10
TORSDOF 12
ENDMDL
