MODEL 1
REMARK VINA RESULT:    -1.629      0.000      0.000
REMARK INTER + INTRA:          -3.709
REMARK INTER:                  -3.725
REMARK INTRA:                   0.016
REMARK UNBOUND:                 0.016
REMARK SMILES CCCCCCCCCCCCCCCCCCCCCCCC(=O)[O-]
REMARK SMILES IDX 13 1 14 2 15 3 16 4 17 5 18 6 19 7 20 8 21 9 22 10 23 11
REMARK SMILES IDX 24 12 25 13 26 14 12 15 11 16 10 17 9 18 8 19 7 20 6 21 5 22
REMARK SMILES IDX 4 23 3 24 2 25 1 26
REMARK H PARENT
REMARK Flexibility Score: inf
ROOT
ATOM      1  C   UNL     1      -2.444   8.016   9.402  1.00  0.00     0.000 C 
ENDROOT
BRANCH   1   2
ATOM      2  C   UNL     1      -1.176   8.649   9.999  1.00  0.00     0.000 C 
BRANCH   2   3
ATOM      3  C   UNL     1      -0.520   9.675   9.060  1.00  0.00     0.000 C 
BRANCH   3   4
ATOM      4  C   UNL     1       0.949   9.990   9.413  1.00  0.00     0.000 C 
BRANCH   4   5
ATOM      5  C   UNL     1       1.935   9.301   8.452  1.00  0.00     0.000 C 
BRANCH   5   6
ATOM      6  C   UNL     1       3.331   9.940   8.477  1.00  0.00     0.000 C 
BRANCH   6   7
ATOM      7  C   UNL     1       4.061   9.714   9.813  1.00  0.00     0.000 C 
BRANCH   7   8
ATOM      8  C   UNL     1       5.574   9.965   9.713  1.00  0.00     0.000 C 
BRANCH   8   9
ATOM      9  C   UNL     1       6.081   9.946   8.260  1.00  0.00     0.000 C 
BRANCH   9  10
ATOM     10  C   UNL     1       6.630   8.570   7.835  1.00  0.00     0.006 C 
BRANCH  10  11
ATOM     11  C   UNL     1       5.644   7.735   7.000  1.00  0.00     0.053 C 
BRANCH  11  12
ATOM     12  C   UNL     1       5.437   8.293   5.626  1.00  0.00     0.041 C 
ATOM     13  O   UNL     1       4.288   8.299   5.111  1.00  0.00    -0.550 OA
ATOM     14  O   UNL     1       6.515   8.783   4.901  1.00  0.00    -0.550 OA
ENDBRANCH  11  12
ENDBRANCH  10  11
ENDBRANCH   9  10
ENDBRANCH   8   9
ENDBRANCH   7   8
ENDBRANCH   6   7
ENDBRANCH   5   6
ENDBRANCH   4   5
ENDBRANCH   3   4
ENDBRANCH   2   3
ENDBRANCH   1   2
BRANCH   1  15
ATOM     15  C   UNL     1      -3.723   8.475  10.121  1.00  0.00     0.000 C 
BRANCH  15  16
ATOM     16  C   UNL     1      -4.956   8.439   9.205  1.00  0.00     0.000 C 
BRANCH  16  17
ATOM     17  C   UNL     1      -4.667   9.134   7.866  1.00  0.00     0.000 C 
BRANCH  17  18
ATOM     18  C   UNL     1      -3.458  10.080   7.934  1.00  0.00    -0.000 C 
BRANCH  18  19
ATOM     19  C   UNL     1      -2.663  10.124   6.618  1.00  0.00    -0.000 C 
BRANCH  19  20
ATOM     20  C   UNL     1      -3.281   9.238   5.527  1.00  0.00    -0.000 C 
BRANCH  20  21
ATOM     21  C   UNL     1      -2.977   7.742   5.728  1.00  0.00    -0.000 C 
BRANCH  21  22
ATOM     22  C   UNL     1      -1.653   7.324   5.054  1.00  0.00    -0.000 C 
BRANCH  22  23
ATOM     23  C   UNL     1      -1.828   6.251   3.965  1.00  0.00    -0.000 C 
BRANCH  23  24
ATOM     24  C   UNL     1      -1.910   4.827   4.534  1.00  0.00    -0.000 C 
BRANCH  24  25
ATOM     25  C   UNL     1      -3.353   4.464   4.901  1.00  0.00    -0.003 C 
ATOM     26  C   UNL     1      -3.419   3.789   6.268  1.00  0.00     0.004 C 
ENDBRANCH  24  25
ENDBRANCH  23  24
ENDBRANCH  22  23
ENDBRANCH  21  22
ENDBRANCH  20  21
ENDBRANCH  19  20
ENDBRANCH  18  19
ENDBRANCH  17  18
ENDBRANCH  16  17
ENDBRANCH  15  16
ENDBRANCH   1  15
TORSDOF 22
ENDMDL
MODEL 2
REMARK VINA RESULT:    -1.410      2.688      8.339
REMARK INTER + INTRA:          -3.208
REMARK INTER:                  -3.203
REMARK INTRA:                  -0.005
REMARK UNBOUND:                 0.016
REMARK SMILES CCCCCCCCCCCCCCCCCCCCCCCC(=O)[O-]
REMARK SMILES IDX 13 1 14 2 15 3 16 4 17 5 18 6 19 7 20 8 21 9 22 10 23 11
REMARK SMILES IDX 24 12 25 13 26 14 12 15 11 16 10 17 9 18 8 19 7 20 6 21 5 22
REMARK SMILES IDX 4 23 3 24 2 25 1 26
REMARK H PARENT
REMARK Flexibility Score: inf
ROOT
ATOM      1  C   UNL     1      -0.375   9.253   9.579  1.00  0.00     0.000 C 
ENDROOT
BRANCH   1   2
ATOM      2  C   UNL     1      -0.956   9.656   8.214  1.00  0.00     0.000 C 
BRANCH   2   3
ATOM      3  C   UNL     1      -2.454  10.000   8.279  1.00  0.00     0.000 C 
BRANCH   3   4
ATOM      4  C   UNL     1      -3.160   9.462   9.541  1.00  0.00     0.000 C 
BRANCH   4   5
ATOM      5  C   UNL     1      -4.203   8.381   9.203  1.00  0.00     0.000 C 
BRANCH   5   6
ATOM      6  C   UNL     1      -4.621   8.402   7.726  1.00  0.00     0.000 C 
BRANCH   6   7
ATOM      7  C   UNL     1      -5.052   9.802   7.253  1.00  0.00     0.000 C 
BRANCH   7   8
ATOM      8  C   UNL     1      -4.566  10.124   5.830  1.00  0.00     0.000 C 
BRANCH   8   9
ATOM      9  C   UNL     1      -3.181   9.527   5.530  1.00  0.00     0.000 C 
BRANCH   9  10
ATOM     10  C   UNL     1      -3.251   8.264   4.649  1.00  0.00     0.006 C 
BRANCH  10  11
ATOM     11  C   UNL     1      -2.139   7.239   4.935  1.00  0.00     0.053 C 
BRANCH  11  12
ATOM     12  C   UNL     1      -2.676   5.864   5.189  1.00  0.00     0.041 C 
ATOM     13  O   UNL     1      -2.516   4.955   4.333  1.00  0.00    -0.550 OA
ATOM     14  O   UNL     1      -3.375   5.591   6.358  1.00  0.00    -0.550 OA
ENDBRANCH  11  12
ENDBRANCH  10  11
ENDBRANCH   9  10
ENDBRANCH   8   9
ENDBRANCH   7   8
ENDBRANCH   6   7
ENDBRANCH   5   6
ENDBRANCH   4   5
ENDBRANCH   3   4
ENDBRANCH   2   3
ENDBRANCH   1   2
BRANCH   1  15
ATOM     15  C   UNL     1       1.125   8.925   9.505  1.00  0.00     0.000 C 
BRANCH  15  16
ATOM     16  C   UNL     1       1.796   9.528   8.262  1.00  0.00     0.000 C 
BRANCH  16  17
ATOM     17  C   UNL     1       3.325   9.537   8.411  1.00  0.00     0.000 C 
BRANCH  17  18
ATOM     18  C   UNL     1       3.789   9.110   9.813  1.00  0.00    -0.000 C 
BRANCH  18  19
ATOM     19  C   UNL     1       4.943   8.094   9.773  1.00  0.00    -0.000 C 
BRANCH  19  20
ATOM     20  C   UNL     1       6.319   8.759   9.931  1.00  0.00    -0.000 C 
BRANCH  20  21
ATOM     21  C   UNL     1       6.409  10.120   9.217  1.00  0.00    -0.000 C 
BRANCH  21  22
ATOM     22  C   UNL     1       7.485  10.123   8.110  1.00  0.00    -0.000 C 
BRANCH  22  23
ATOM     23  C   UNL     1       6.904  10.037   6.687  1.00  0.00    -0.000 C 
BRANCH  23  24
ATOM     24  C   UNL     1       7.009   8.631   6.080  1.00  0.00    -0.000 C 
BRANCH  24  25
ATOM     25  C   UNL     1       5.761   8.292   5.259  1.00  0.00    -0.003 C 
ATOM     26  C   UNL     1       4.569   8.002   6.166  1.00  0.00     0.004 C 
ENDBRANCH  24  25
ENDBRANCH  23  24
ENDBRANCH  22  23
ENDBRANCH  21  22
ENDBRANCH  20  21
ENDBRANCH  19  20
ENDBRANCH  18  19
ENDBRANCH  17  18
ENDBRANCH  16  17
ENDBRANCH  15  16
ENDBRANCH   1  15
TORSDOF 22
ENDMDL
MODEL 3
REMARK VINA RESULT:    -1.362      2.796      8.295
REMARK INTER + INTRA:          -3.098
REMARK INTER:                  -2.534
REMARK INTRA:                  -0.564
REMARK UNBOUND:                 0.016
REMARK SMILES CCCCCCCCCCCCCCCCCCCCCCCC(=O)[O-]
REMARK SMILES IDX 13 1 14 2 15 3 16 4 17 5 18 6 19 7 20 8 21 9 22 10 23 11
REMARK SMILES IDX 24 12 25 13 26 14 12 15 11 16 10 17 9 18 8 19 7 20 6 21 5 22
REMARK SMILES IDX 4 23 3 24 2 25 1 26
REMARK H PARENT
REMARK Flexibility Score: inf
ROOT
ATOM      1  C   UNL     1      -1.503   9.193   9.629  1.00  0.00     0.000 C 
ENDROOT
BRANCH   1   2
ATOM      2  C   UNL     1      -2.348   8.756   8.421  1.00  0.00     0.000 C 
BRANCH   2   3
ATOM      3  C   UNL     1      -3.839   9.102   8.578  1.00  0.00     0.000 C 
BRANCH   3   4
ATOM      4  C   UNL     1      -4.601   8.153   9.525  1.00  0.00     0.000 C 
BRANCH   4   5
ATOM      5  C   UNL     1      -4.887   6.789   8.871  1.00  0.00     0.000 C 
BRANCH   5   6
ATOM      6  C   UNL     1      -3.814   6.385   7.849  1.00  0.00     0.000 C 
BRANCH   6   7
ATOM      7  C   UNL     1      -4.258   5.210   6.959  1.00  0.00     0.000 C 
BRANCH   7   8
ATOM      8  C   UNL     1      -3.105   4.629   6.125  1.00  0.00     0.000 C 
BRANCH   8   9
ATOM      9  C   UNL     1      -2.811   5.459   4.863  1.00  0.00     0.000 C 
BRANCH   9  10
ATOM     10  C   UNL     1      -2.179   6.829   5.181  1.00  0.00     0.006 C 
BRANCH  10  11
ATOM     11  C   UNL     1      -2.107   7.780   3.973  1.00  0.00     0.053 C 
BRANCH  11  12
ATOM     12  C   UNL     1      -3.366   8.568   3.787  1.00  0.00     0.041 C 
ATOM     13  O   UNL     1      -4.137   8.312   2.825  1.00  0.00    -0.550 OA
ATOM     14  O   UNL     1      -3.677   9.604   4.658  1.00  0.00    -0.550 OA
ENDBRANCH  11  12
ENDBRANCH  10  11
ENDBRANCH   9  10
ENDBRANCH   8   9
ENDBRANCH   7   8
ENDBRANCH   6   7
ENDBRANCH   5   6
ENDBRANCH   4   5
ENDBRANCH   3   4
ENDBRANCH   2   3
ENDBRANCH   1   2
BRANCH   1  15
ATOM     15  C   UNL     1      -0.001   8.940   9.417  1.00  0.00     0.000 C 
BRANCH  15  16
ATOM     16  C   UNL     1       0.534   9.622   8.148  1.00  0.00     0.000 C 
BRANCH  16  17
ATOM     17  C   UNL     1       2.068   9.708   8.175  1.00  0.00     0.000 C 
BRANCH  17  18
ATOM     18  C   UNL     1       2.647   9.567   9.592  1.00  0.00    -0.000 C 
BRANCH  18  19
ATOM     19  C   UNL     1       3.577   8.350   9.735  1.00  0.00    -0.000 C 
BRANCH  19  20
ATOM     20  C   UNL     1       5.009   8.745  10.125  1.00  0.00    -0.000 C 
BRANCH  20  21
ATOM     21  C   UNL     1       5.484  10.033   9.426  1.00  0.00    -0.000 C 
BRANCH  21  22
ATOM     22  C   UNL     1       7.024  10.122   9.360  1.00  0.00    -0.000 C 
BRANCH  22  23
ATOM     23  C   UNL     1       7.607   9.702   7.999  1.00  0.00    -0.000 C 
BRANCH  23  24
ATOM     24  C   UNL     1       6.536   9.537   6.912  1.00  0.00    -0.000 C 
BRANCH  24  25
ATOM     25  C   UNL     1       5.948   8.122   6.929  1.00  0.00    -0.003 C 
ATOM     26  C   UNL     1       5.036   7.892   5.728  1.00  0.00     0.004 C 
ENDBRANCH  24  25
ENDBRANCH  23  24
ENDBRANCH  22  23
ENDBRANCH  21  22
ENDBRANCH  20  21
ENDBRANCH  19  20
ENDBRANCH  18  19
ENDBRANCH  17  18
ENDBRANCH  16  17
ENDBRANCH  15  16
ENDBRANCH   1  15
TORSDOF 22
ENDMDL
MODEL 4
REMARK VINA RESULT:    -1.130     12.737     16.864
REMARK INTER + INTRA:          -2.567
REMARK INTER:                  -0.934
REMARK INTRA:                  -1.632
REMARK UNBOUND:                 0.016
REMARK SMILES CCCCCCCCCCCCCCCCCCCCCCCC(=O)[O-]
REMARK SMILES IDX 13 1 14 2 15 3 16 4 17 5 18 6 19 7 20 8 21 9 22 10 23 11
REMARK SMILES IDX 24 12 25 13 26 14 12 15 11 16 10 17 9 18 8 19 7 20 6 21 5 22
REMARK SMILES IDX 4 23 3 24 2 25 1 26
REMARK H PARENT
REMARK Flexibility Score: inf
ROOT
ATOM      1  C   UNL     1       6.084  -6.672   6.907  1.00  0.00     0.000 C 
ENDROOT
BRANCH   1   2
ATOM      2  C   UNL     1       6.811  -7.076   5.614  1.00  0.00     0.000 C 
BRANCH   2   3
ATOM      3  C   UNL     1       6.342  -8.434   5.062  1.00  0.00     0.000 C 
BRANCH   3   4
ATOM      4  C   UNL     1       6.000  -9.464   6.158  1.00  0.00     0.000 C 
BRANCH   4   5
ATOM      5  C   UNL     1       4.630 -10.124   5.924  1.00  0.00     0.000 C 
BRANCH   5   6
ATOM      6  C   UNL     1       3.617  -9.796   7.031  1.00  0.00     0.000 C 
BRANCH   6   7
ATOM      7  C   UNL     1       4.256  -9.781   8.431  1.00  0.00     0.000 C 
BRANCH   7   8
ATOM      8  C   UNL     1       3.603  -8.754   9.371  1.00  0.00     0.000 C 
BRANCH   8   9
ATOM      9  C   UNL     1       2.816  -7.673   8.610  1.00  0.00     0.000 C 
BRANCH   9  10
ATOM     10  C   UNL     1       3.155  -6.245   9.078  1.00  0.00     0.006 C 
BRANCH  10  11
ATOM     11  C   UNL     1       2.000  -5.241   8.911  1.00  0.00     0.053 C 
BRANCH  11  12
ATOM     12  C   UNL     1       1.919  -4.684   7.523  1.00  0.00     0.041 C 
ATOM     13  O   UNL     1       0.865  -4.120   7.129  1.00  0.00    -0.550 OA
ATOM     14  O   UNL     1       2.995  -4.811   6.655  1.00  0.00    -0.550 OA
ENDBRANCH  11  12
ENDBRANCH  10  11
ENDBRANCH   9  10
ENDBRANCH   8   9
ENDBRANCH   7   8
ENDBRANCH   6   7
ENDBRANCH   5   6
ENDBRANCH   4   5
ENDBRANCH   3   4
ENDBRANCH   2   3
ENDBRANCH   1   2
BRANCH   1  15
ATOM     15  C   UNL     1       6.713  -7.309   8.157  1.00  0.00     0.000 C 
BRANCH  15  16
ATOM     16  C   UNL     1       6.377  -6.535   9.441  1.00  0.00     0.000 C 
BRANCH  16  17
ATOM     17  C   UNL     1       7.617  -5.813   9.988  1.00  0.00     0.000 C 
BRANCH  17  18
ATOM     18  C   UNL     1       8.421  -5.097   8.892  1.00  0.00    -0.000 C 
BRANCH  18  19
ATOM     19  C   UNL     1       8.779  -3.649   9.267  1.00  0.00    -0.000 C 
BRANCH  19  20
ATOM     20  C   UNL     1       8.054  -2.617   8.390  1.00  0.00    -0.000 C 
BRANCH  20  21
ATOM     21  C   UNL     1       8.636  -1.198   8.533  1.00  0.00    -0.000 C 
BRANCH  21  22
ATOM     22  C   UNL     1       8.410  -0.618   9.945  1.00  0.00    -0.000 C 
BRANCH  22  23
ATOM     23  C   UNL     1       8.973   0.803  10.125  1.00  0.00    -0.000 C 
BRANCH  23  24
ATOM     24  C   UNL     1       7.884   1.885  10.113  1.00  0.00    -0.000 C 
BRANCH  24  25
ATOM     25  C   UNL     1       8.394   3.171   9.453  1.00  0.00    -0.003 C 
ATOM     26  C   UNL     1       9.800   3.515   9.936  1.00  0.00     0.004 C 
ENDBRANCH  24  25
ENDBRANCH  23  24
ENDBRANCH  22  23
ENDBRANCH  21  22
ENDBRANCH  20  21
ENDBRANCH  19  20
ENDBRANCH  18  19
ENDBRANCH  17  18
ENDBRANCH  16  17
ENDBRANCH  15  16
ENDBRANCH   1  15
TORSDOF 22
ENDMDL
MODEL 5
REMARK VINA RESULT:    -0.647      1.258      3.038
REMARK INTER + INTRA:          -1.464
REMARK INTER:                   0.079
REMARK INTRA:                  -1.543
REMARK UNBOUND:                 0.016
REMARK SMILES CCCCCCCCCCCCCCCCCCCCCCCC(=O)[O-]
REMARK SMILES IDX 13 1 14 2 15 3 16 4 17 5 18 6 19 7 20 8 21 9 22 10 23 11
REMARK SMILES IDX 24 12 25 13 26 14 12 15 11 16 10 17 9 18 8 19 7 20 6 21 5 22
REMARK SMILES IDX 4 23 3 24 2 25 1 26
REMARK H PARENT
REMARK Flexibility Score: inf
ROOT
ATOM      1  C   UNL     1      -2.441   7.499   9.214  1.00  0.00     0.000 C 
ENDROOT
BRANCH   1   2
ATOM      2  C   UNL     1      -1.703   8.504  10.114  1.00  0.00     0.000 C 
BRANCH   2   3
ATOM      3  C   UNL     1      -1.046   9.647   9.320  1.00  0.00     0.000 C 
BRANCH   3   4
ATOM      4  C   UNL     1       0.440   9.871   9.670  1.00  0.00     0.000 C 
BRANCH   4   5
ATOM      5  C   UNL     1       1.371   9.494   8.503  1.00  0.00     0.000 C 
BRANCH   5   6
ATOM      6  C   UNL     1       2.766  10.122   8.632  1.00  0.00     0.000 C 
BRANCH   6   7
ATOM      7  C   UNL     1       3.582   9.517   9.789  1.00  0.00     0.000 C 
BRANCH   7   8
ATOM      8  C   UNL     1       4.872   8.831   9.310  1.00  0.00     0.000 C 
BRANCH   8   9
ATOM      9  C   UNL     1       4.601   7.697   8.307  1.00  0.00     0.000 C 
BRANCH   9  10
ATOM     10  C   UNL     1       5.215   7.966   6.919  1.00  0.00     0.006 C 
BRANCH  10  11
ATOM     11  C   UNL     1       5.749   9.398   6.738  1.00  0.00     0.053 C 
BRANCH  11  12
ATOM     12  C   UNL     1       6.843   9.479   5.718  1.00  0.00     0.041 C 
ATOM     13  O   UNL     1       7.895  10.124   5.969  1.00  0.00    -0.550 OA
ATOM     14  O   UNL     1       6.692   8.867   4.481  1.00  0.00    -0.550 OA
ENDBRANCH  11  12
ENDBRANCH  10  11
ENDBRANCH   9  10
ENDBRANCH   8   9
ENDBRANCH   7   8
ENDBRANCH   6   7
ENDBRANCH   5   6
ENDBRANCH   4   5
ENDBRANCH   3   4
ENDBRANCH   2   3
ENDBRANCH   1   2
BRANCH   1  15
ATOM     15  C   UNL     1      -3.966   7.693   9.246  1.00  0.00     0.000 C 
BRANCH  15  16
ATOM     16  C   UNL     1      -4.710   6.617   8.440  1.00  0.00     0.000 C 
BRANCH  16  17
ATOM     17  C   UNL     1      -4.160   6.521   7.009  1.00  0.00     0.000 C 
BRANCH  17  18
ATOM     18  C   UNL     1      -4.090   5.074   6.494  1.00  0.00    -0.000 C 
BRANCH  18  19
ATOM     19  C   UNL     1      -2.649   4.613   6.213  1.00  0.00    -0.000 C 
BRANCH  19  20
ATOM     20  C   UNL     1      -2.098   5.173   4.894  1.00  0.00    -0.000 C 
BRANCH  20  21
ATOM     21  C   UNL     1      -3.074   6.145   4.204  1.00  0.00    -0.000 C 
BRANCH  21  22
ATOM     22  C   UNL     1      -2.493   7.571   4.098  1.00  0.00    -0.000 C 
BRANCH  22  23
ATOM     23  C   UNL     1      -3.558   8.652   3.839  1.00  0.00    -0.000 C 
BRANCH  23  24
ATOM     24  C   UNL     1      -3.325   9.931   4.656  1.00  0.00    -0.000 C 
BRANCH  24  25
ATOM     25  C   UNL     1      -2.954   9.598   6.105  1.00  0.00    -0.003 C 
ATOM     26  C   UNL     1      -4.019  10.100   7.074  1.00  0.00     0.004 C 
ENDBRANCH  24  25
ENDBRANCH  23  24
ENDBRANCH  22  23
ENDBRANCH  21  22
ENDBRANCH  20  21
ENDBRANCH  19  20
ENDBRANCH  18  19
ENDBRANCH  17  18
ENDBRANCH  16  17
ENDBRANCH  15  16
ENDBRANCH   1  15
TORSDOF 22
ENDMDL
MODEL 6
REMARK VINA RESULT:    -0.255      4.124      9.188
REMARK INTER + INTRA:          -0.568
REMARK INTER:                  -1.300
REMARK INTRA:                   0.732
REMARK UNBOUND:                 0.016
REMARK SMILES CCCCCCCCCCCCCCCCCCCCCCCC(=O)[O-]
REMARK SMILES IDX 13 1 14 2 15 3 16 4 17 5 18 6 19 7 20 8 21 9 22 10 23 11
REMARK SMILES IDX 24 12 25 13 26 14 12 15 11 16 10 17 9 18 8 19 7 20 6 21 5 22
REMARK SMILES IDX 4 23 3 24 2 25 1 26
REMARK H PARENT
REMARK Flexibility Score: inf
ROOT
ATOM      1  C   UNL     1      -1.215   7.824   5.715  1.00  0.00     0.000 C 
ENDROOT
BRANCH   1   2
ATOM      2  C   UNL     1      -2.740   7.633   5.683  1.00  0.00     0.000 C 
BRANCH   2   3
ATOM      3  C   UNL     1      -3.430   8.501   4.618  1.00  0.00     0.000 C 
BRANCH   3   4
ATOM      4  C   UNL     1      -3.706   9.947   5.078  1.00  0.00     0.000 C 
BRANCH   4   5
ATOM      5  C   UNL     1      -3.537  10.112   6.599  1.00  0.00     0.000 C 
BRANCH   5   6
ATOM      6  C   UNL     1      -4.879  10.125   7.346  1.00  0.00     0.000 C 
BRANCH   6   7
ATOM      7  C   UNL     1      -4.708   9.996   8.870  1.00  0.00     0.000 C 
BRANCH   7   8
ATOM      8  C   UNL     1      -3.817   8.809   9.270  1.00  0.00     0.000 C 
BRANCH   8   9
ATOM      9  C   UNL     1      -4.571   7.468   9.240  1.00  0.00     0.000 C 
BRANCH   9  10
ATOM     10  C   UNL     1      -5.852   7.481  10.097  1.00  0.00     0.006 C 
BRANCH  10  11
ATOM     11  C   UNL     1      -7.143   7.695   9.287  1.00  0.00     0.053 C 
BRANCH  11  12
ATOM     12  C   UNL     1      -7.690   9.082   9.432  1.00  0.00     0.041 C 
ATOM     13  O   UNL     1      -7.075   9.935  10.124  1.00  0.00    -0.550 OA
ATOM     14  O   UNL     1      -8.890   9.427   8.825  1.00  0.00    -0.550 OA
ENDBRANCH  11  12
ENDBRANCH  10  11
ENDBRANCH   9  10
ENDBRANCH   8   9
ENDBRANCH   7   8
ENDBRANCH   6   7
ENDBRANCH   5   6
ENDBRANCH   4   5
ENDBRANCH   3   4
ENDBRANCH   2   3
ENDBRANCH   1   2
BRANCH   1  15
ATOM     15  C   UNL     1      -0.664   7.911   7.147  1.00  0.00     0.000 C 
BRANCH  15  16
ATOM     16  C   UNL     1      -0.349   9.355   7.567  1.00  0.00     0.000 C 
BRANCH  16  17
ATOM     17  C   UNL     1      -1.096   9.729   8.857  1.00  0.00     0.000 C 
BRANCH  17  18
ATOM     18  C   UNL     1      -0.235   9.547  10.117  1.00  0.00    -0.000 C 
BRANCH  18  19
ATOM     19  C   UNL     1       1.181  10.125   9.958  1.00  0.00    -0.000 C 
BRANCH  19  20
ATOM     20  C   UNL     1       1.936   9.515   8.768  1.00  0.00    -0.000 C 
BRANCH  20  21
ATOM     21  C   UNL     1       3.464   9.666   8.889  1.00  0.00    -0.000 C 
BRANCH  21  22
ATOM     22  C   UNL     1       4.183   8.301   8.881  1.00  0.00    -0.000 C 
BRANCH  22  23
ATOM     23  C   UNL     1       5.710   8.408   9.048  1.00  0.00    -0.000 C 
BRANCH  23  24
ATOM     24  C   UNL     1       6.367   9.303   7.988  1.00  0.00    -0.000 C 
BRANCH  24  25
ATOM     25  C   UNL     1       7.575  10.047   8.568  1.00  0.00    -0.003 C 
ATOM     26  C   UNL     1       7.899   9.553   9.975  1.00  0.00     0.004 C 
ENDBRANCH  24  25
ENDBRANCH  23  24
ENDBRANCH  22  23
ENDBRANCH  21  22
ENDBRANCH  20  21
ENDBRANCH  19  20
ENDBRANCH  18  19
ENDBRANCH  17  18
ENDBRANCH  16  17
ENDBRANCH  15  16
ENDBRANCH   1  15
TORSDOF 22
ENDMDL
MODEL 7
REMARK VINA RESULT:    -0.166      3.051      7.789
REMARK INTER + INTRA:          -0.363
REMARK INTER:                   0.526
REMARK INTRA:                  -0.889
REMARK UNBOUND:                 0.016
REMARK SMILES CCCCCCCCCCCCCCCCCCCCCCCC(=O)[O-]
REMARK SMILES IDX 13 1 14 2 15 3 16 4 17 5 18 6 19 7 20 8 21 9 22 10 23 11
REMARK SMILES IDX 24 12 25 13 26 14 12 15 11 16 10 17 9 18 8 19 7 20 6 21 5 22
REMARK SMILES IDX 4 23 3 24 2 25 1 26
REMARK H PARENT
REMARK Flexibility Score: inf
ROOT
ATOM      1  C   UNL     1      -4.603   7.672   9.539  1.00  0.00     0.000 C 
ENDROOT
BRANCH   1   2
ATOM      2  C   UNL     1      -4.841   6.517   8.552  1.00  0.00     0.000 C 
BRANCH   2   3
ATOM      3  C   UNL     1      -3.710   6.369   7.520  1.00  0.00     0.000 C 
BRANCH   3   4
ATOM      4  C   UNL     1      -3.740   5.031   6.754  1.00  0.00     0.000 C 
BRANCH   4   5
ATOM      5  C   UNL     1      -3.563   5.228   5.238  1.00  0.00     0.000 C 
BRANCH   5   6
ATOM      6  C   UNL     1      -2.106   5.509   4.842  1.00  0.00     0.000 C 
BRANCH   6   7
ATOM      7  C   UNL     1      -1.861   6.990   4.502  1.00  0.00     0.000 C 
BRANCH   7   8
ATOM      8  C   UNL     1      -2.243   7.936   5.653  1.00  0.00     0.000 C 
BRANCH   8   9
ATOM      9  C   UNL     1      -3.138   9.098   5.190  1.00  0.00     0.000 C 
BRANCH   9  10
ATOM     10  C   UNL     1      -3.318   9.144   3.660  1.00  0.00     0.006 C 
BRANCH  10  11
ATOM     11  C   UNL     1      -4.199   8.013   3.100  1.00  0.00     0.053 C 
BRANCH  11  12
ATOM     12  C   UNL     1      -4.301   8.049   1.607  1.00  0.00     0.041 C 
ATOM     13  O   UNL     1      -5.293   7.533   1.028  1.00  0.00    -0.550 OA
ATOM     14  O   UNL     1      -3.291   8.629   0.851  1.00  0.00    -0.550 OA
ENDBRANCH  11  12
ENDBRANCH  10  11
ENDBRANCH   9  10
ENDBRANCH   8   9
ENDBRANCH   7   8
ENDBRANCH   6   7
ENDBRANCH   5   6
ENDBRANCH   4   5
ENDBRANCH   3   4
ENDBRANCH   2   3
ENDBRANCH   1   2
BRANCH   1  15
ATOM     15  C   UNL     1      -5.168   9.007   9.026  1.00  0.00     0.000 C 
BRANCH  15  16
ATOM     16  C   UNL     1      -4.099  10.108   8.954  1.00  0.00     0.000 C 
BRANCH  16  17
ATOM     17  C   UNL     1      -2.741   9.589   9.452  1.00  0.00     0.000 C 
BRANCH  17  18
ATOM     18  C   UNL     1      -1.567  10.057   8.577  1.00  0.00    -0.000 C 
BRANCH  18  19
ATOM     19  C   UNL     1      -0.418   9.036   8.529  1.00  0.00    -0.000 C 
BRANCH  19  20
ATOM     20  C   UNL     1       0.957   9.686   8.739  1.00  0.00    -0.000 C 
BRANCH  20  21
ATOM     21  C   UNL     1       2.086   8.652   8.911  1.00  0.00    -0.000 C 
BRANCH  21  22
ATOM     22  C   UNL     1       3.237   8.879   7.908  1.00  0.00    -0.000 C 
BRANCH  22  23
ATOM     23  C   UNL     1       4.367   9.767   8.457  1.00  0.00    -0.000 C 
BRANCH  23  24
ATOM     24  C   UNL     1       5.725   9.050   8.500  1.00  0.00    -0.000 C 
BRANCH  24  25
ATOM     25  C   UNL     1       6.185   8.658   7.092  1.00  0.00    -0.003 C 
ATOM     26  C   UNL     1       6.958   9.796   6.431  1.00  0.00     0.004 C 
ENDBRANCH  24  25
ENDBRANCH  23  24
ENDBRANCH  22  23
ENDBRANCH  21  22
ENDBRANCH  20  21
ENDBRANCH  19  20
ENDBRANCH  18  19
ENDBRANCH  17  18
ENDBRANCH  16  17
ENDBRANCH  15  16
ENDBRANCH   1  15
TORSDOF 22
ENDMDL
