MODEL 1
REMARK VINA RESULT:    -3.545      0.000      0.000
REMARK INTER + INTRA:          -7.213
REMARK INTER:                  -5.617
REMARK INTRA:                  -1.595
REMARK UNBOUND:                -1.595
REMARK SMILES CCCCCCCCCCCC(=O)[O-]
REMARK SMILES IDX 7 1 8 2 9 3 10 4 11 5 12 6 13 7 14 8 6 9 5 10 4 11 3 12 2 13
REMARK SMILES IDX 1 14
REMARK H PARENT
REMARK Flexibility Score: inf
ROOT
ATOM      1  C   UNL     1     163.044 176.072 187.815  1.00  0.00     0.000 C 
ENDROOT
BRANCH   1   2
ATOM      2  C   UNL     1     164.015 176.166 186.628  1.00  0.00     0.000 C 
BRANCH   2   3
ATOM      3  C   UNL     1     164.597 177.576 186.450  1.00  0.00     0.000 C 
BRANCH   3   4
ATOM      4  C   UNL     1     164.130 178.200 185.127  1.00  0.00     0.006 C 
BRANCH   4   5
ATOM      5  C   UNL     1     164.699 177.465 183.905  1.00  0.00     0.053 C 
BRANCH   5   6
ATOM      6  C   UNL     1     163.802 177.597 182.712  1.00  0.00     0.041 C 
ATOM      7  O   UNL     1     163.314 178.718 182.406  1.00  0.00    -0.550 OA
ATOM      8  O   UNL     1     163.479 176.477 181.958  1.00  0.00    -0.550 OA
ENDBRANCH   5   6
ENDBRANCH   4   5
ENDBRANCH   3   4
ENDBRANCH   2   3
ENDBRANCH   1   2
BRANCH   1   9
ATOM      9  C   UNL     1     162.662 177.453 188.378  1.00  0.00     0.000 C 
BRANCH   9  10
ATOM     10  C   UNL     1     161.149 177.716 188.324  1.00  0.00    -0.000 C 
BRANCH  10  11
ATOM     11  C   UNL     1     160.497 177.154 187.052  1.00  0.00    -0.000 C 
BRANCH  11  12
ATOM     12  C   UNL     1     160.597 178.160 185.894  1.00  0.00    -0.000 C 
BRANCH  12  13
ATOM     13  C   UNL     1     160.530 177.483 184.516  1.00  0.00    -0.003 C 
ATOM     14  C   UNL     1     160.891 175.999 184.567  1.00  0.00     0.004 C 
ENDBRANCH  12  13
ENDBRANCH  11  12
ENDBRANCH  10  11
ENDBRANCH   9  10
ENDBRANCH   1   9
TORSDOF 10
ENDMDL
MODEL 2
REMARK VINA RESULT:    -3.435      1.374      3.248
REMARK INTER + INTRA:          -7.038
REMARK INTER:                  -5.724
REMARK INTRA:                  -1.314
REMARK UNBOUND:                -1.595
REMARK SMILES CCCCCCCCCCCC(=O)[O-]
REMARK SMILES IDX 7 1 8 2 9 3 10 4 11 5 12 6 13 7 14 8 6 9 5 10 4 11 3 12 2 13
REMARK SMILES IDX 1 14
REMARK H PARENT
REMARK Flexibility Score: inf
ROOT
ATOM      1  C   UNL     1     160.758 176.171 186.078  1.00  0.00     0.000 C 
ENDROOT
BRANCH   1   2
ATOM      2  C   UNL     1     160.522 177.410 185.200  1.00  0.00     0.000 C 
BRANCH   2   3
ATOM      3  C   UNL     1     160.302 177.055 183.722  1.00  0.00     0.000 C 
BRANCH   3   4
ATOM      4  C   UNL     1     161.559 176.409 183.120  1.00  0.00     0.006 C 
BRANCH   4   5
ATOM      5  C   UNL     1     161.835 176.896 181.692  1.00  0.00     0.053 C 
BRANCH   5   6
ATOM      6  C   UNL     1     162.221 178.343 181.665  1.00  0.00     0.041 C 
ATOM      7  O   UNL     1     163.238 178.741 182.293  1.00  0.00    -0.550 OA
ATOM      8  O   UNL     1     161.439 179.259 180.973  1.00  0.00    -0.550 OA
ENDBRANCH   5   6
ENDBRANCH   4   5
ENDBRANCH   3   4
ENDBRANCH   2   3
ENDBRANCH   1   2
BRANCH   1   9
ATOM      9  C   UNL     1     160.771 176.504 187.581  1.00  0.00     0.000 C 
BRANCH   9  10
ATOM     10  C   UNL     1     161.535 177.800 187.893  1.00  0.00    -0.000 C 
BRANCH  10  11
ATOM     11  C   UNL     1     163.057 177.595 187.927  1.00  0.00    -0.000 C 
BRANCH  11  12
ATOM     12  C   UNL     1     163.768 178.605 187.013  1.00  0.00    -0.000 C 
BRANCH  12  13
ATOM     13  C   UNL     1     164.164 178.001 185.658  1.00  0.00    -0.003 C 
ATOM     14  C   UNL     1     164.399 176.492 185.728  1.00  0.00     0.004 C 
ENDBRANCH  12  13
ENDBRANCH  11  12
ENDBRANCH  10  11
ENDBRANCH   9  10
ENDBRANCH   1   9
TORSDOF 10
ENDMDL
MODEL 3
REMARK VINA RESULT:    -3.404      1.914      2.628
REMARK INTER + INTRA:          -6.989
REMARK INTER:                  -5.754
REMARK INTRA:                  -1.234
REMARK UNBOUND:                -1.595
REMARK SMILES CCCCCCCCCCCC(=O)[O-]
REMARK SMILES IDX 7 1 8 2 9 3 10 4 11 5 12 6 13 7 14 8 6 9 5 10 4 11 3 12 2 13
REMARK SMILES IDX 1 14
REMARK H PARENT
REMARK Flexibility Score: inf
ROOT
ATOM      1  C   UNL     1     161.610 174.699 187.032  1.00  0.00     0.000 C 
ENDROOT
BRANCH   1   2
ATOM      2  C   UNL     1     162.900 174.725 187.867  1.00  0.00     0.000 C 
BRANCH   2   3
ATOM      3  C   UNL     1     164.160 174.514 187.015  1.00  0.00     0.000 C 
BRANCH   3   4
ATOM      4  C   UNL     1     164.489 175.773 186.199  1.00  0.00     0.006 C 
BRANCH   4   5
ATOM      5  C   UNL     1     164.583 177.027 187.077  1.00  0.00     0.053 C 
BRANCH   5   6
ATOM      6  C   UNL     1     164.635 178.278 186.254  1.00  0.00     0.041 C 
ATOM      7  O   UNL     1     164.566 179.407 186.809  1.00  0.00    -0.550 OA
ATOM      8  O   UNL     1     164.728 178.197 184.870  1.00  0.00    -0.550 OA
ENDBRANCH   5   6
ENDBRANCH   4   5
ENDBRANCH   3   4
ENDBRANCH   2   3
ENDBRANCH   1   2
BRANCH   1   9
ATOM      9  C   UNL     1     160.529 175.646 187.582  1.00  0.00     0.000 C 
BRANCH   9  10
ATOM     10  C   UNL     1     161.093 177.018 187.984  1.00  0.00    -0.000 C 
BRANCH  10  11
ATOM     11  C   UNL     1     160.607 178.148 187.063  1.00  0.00    -0.000 C 
BRANCH  11  12
ATOM     12  C   UNL     1     161.225 178.020 185.663  1.00  0.00    -0.000 C 
BRANCH  12  13
ATOM     13  C   UNL     1     160.175 177.747 184.576  1.00  0.00    -0.003 C 
ATOM     14  C   UNL     1     160.504 176.518 183.729  1.00  0.00     0.004 C 
ENDBRANCH  12  13
ENDBRANCH  11  12
ENDBRANCH  10  11
ENDBRANCH   9  10
ENDBRANCH   1   9
TORSDOF 10
ENDMDL
MODEL 4
REMARK VINA RESULT:    -3.370      3.089      4.680
REMARK INTER + INTRA:          -6.935
REMARK INTER:                  -5.457
REMARK INTRA:                  -1.478
REMARK UNBOUND:                -1.595
REMARK SMILES CCCCCCCCCCCC(=O)[O-]
REMARK SMILES IDX 7 1 8 2 9 3 10 4 11 5 12 6 13 7 14 8 6 9 5 10 4 11 3 12 2 13
REMARK SMILES IDX 1 14
REMARK H PARENT
REMARK Flexibility Score: inf
ROOT
ATOM      1  C   UNL     1     160.224 177.800 184.514  1.00  0.00     0.000 C 
ENDROOT
BRANCH   1   2
ATOM      2  C   UNL     1     160.423 176.566 183.621  1.00  0.00     0.000 C 
BRANCH   2   3
ATOM      3  C   UNL     1     161.843 175.990 183.717  1.00  0.00     0.000 C 
BRANCH   3   4
ATOM      4  C   UNL     1     161.813 174.454 183.741  1.00  0.00     0.006 C 
BRANCH   4   5
ATOM      5  C   UNL     1     160.408 173.905 184.022  1.00  0.00     0.053 C 
BRANCH   5   6
ATOM      6  C   UNL     1     160.421 172.418 184.206  1.00  0.00     0.041 C 
ATOM      7  O   UNL     1     159.910 171.902 185.235  1.00  0.00    -0.550 OA
ATOM      8  O   UNL     1     161.027 171.604 183.257  1.00  0.00    -0.550 OA
ENDBRANCH   5   6
ENDBRANCH   4   5
ENDBRANCH   3   4
ENDBRANCH   2   3
ENDBRANCH   1   2
BRANCH   1   9
ATOM      9  C   UNL     1     161.302 177.922 185.606  1.00  0.00     0.000 C 
BRANCH   9  10
ATOM     10  C   UNL     1     160.706 178.150 187.004  1.00  0.00    -0.000 C 
BRANCH  10  11
ATOM     11  C   UNL     1     161.069 177.030 187.990  1.00  0.00    -0.000 C 
BRANCH  11  12
ATOM     12  C   UNL     1     160.577 175.667 187.480  1.00  0.00    -0.000 C 
BRANCH  12  13
ATOM     13  C   UNL     1     161.691 174.611 187.447  1.00  0.00    -0.003 C 
ATOM     14  C   UNL     1     163.085 175.215 187.611  1.00  0.00     0.004 C 
ENDBRANCH  12  13
ENDBRANCH  11  12
ENDBRANCH  10  11
ENDBRANCH   9  10
ENDBRANCH   1   9
TORSDOF 10
ENDMDL
MODEL 5
REMARK VINA RESULT:    -3.366      1.988      3.610
REMARK INTER + INTRA:          -6.930
REMARK INTER:                  -5.337
REMARK INTRA:                  -1.593
REMARK UNBOUND:                -1.595
REMARK SMILES CCCCCCCCCCCC(=O)[O-]
REMARK SMILES IDX 7 1 8 2 9 3 10 4 11 5 12 6 13 7 14 8 6 9 5 10 4 11 3 12 2 13
REMARK SMILES IDX 1 14
REMARK H PARENT
REMARK Flexibility Score: inf
ROOT
ATOM      1  C   UNL     1     160.817 178.285 186.702  1.00  0.00     0.000 C 
ENDROOT
BRANCH   1   2
ATOM      2  C   UNL     1     161.114 177.093 187.624  1.00  0.00     0.000 C 
BRANCH   2   3
ATOM      3  C   UNL     1     162.517 177.161 188.245  1.00  0.00     0.000 C 
BRANCH   3   4
ATOM      4  C   UNL     1     163.534 176.390 187.390  1.00  0.00     0.006 C 
BRANCH   4   5
ATOM      5  C   UNL     1     164.784 177.224 187.081  1.00  0.00     0.053 C 
BRANCH   5   6
ATOM      6  C   UNL     1     164.447 178.463 186.308  1.00  0.00     0.041 C 
ATOM      7  O   UNL     1     164.503 179.592 186.864  1.00  0.00    -0.550 OA
ATOM      8  O   UNL     1     164.040 178.367 184.984  1.00  0.00    -0.550 OA
ENDBRANCH   5   6
ENDBRANCH   4   5
ENDBRANCH   3   4
ENDBRANCH   2   3
ENDBRANCH   1   2
BRANCH   1   9
ATOM      9  C   UNL     1     160.605 177.863 185.237  1.00  0.00     0.000 C 
BRANCH   9  10
ATOM     10  C   UNL     1     160.504 176.339 185.069  1.00  0.00    -0.000 C 
BRANCH  10  11
ATOM     11  C   UNL     1     161.700 175.748 184.308  1.00  0.00    -0.000 C 
BRANCH  11  12
ATOM     12  C   UNL     1     161.984 174.308 184.764  1.00  0.00    -0.000 C 
BRANCH  12  13
ATOM     13  C   UNL     1     160.920 173.775 185.736  1.00  0.00    -0.003 C 
ATOM     14  C   UNL     1     161.507 173.352 187.082  1.00  0.00     0.004 C 
ENDBRANCH  12  13
ENDBRANCH  11  12
ENDBRANCH  10  11
ENDBRANCH   9  10
ENDBRANCH   1   9
TORSDOF 10
ENDMDL
MODEL 6
REMARK VINA RESULT:    -3.346      2.931      3.859
REMARK INTER + INTRA:          -6.897
REMARK INTER:                  -6.188
REMARK INTRA:                  -0.709
REMARK UNBOUND:                -1.595
REMARK SMILES CCCCCCCCCCCC(=O)[O-]
REMARK SMILES IDX 7 1 8 2 9 3 10 4 11 5 12 6 13 7 14 8 6 9 5 10 4 11 3 12 2 13
REMARK SMILES IDX 1 14
REMARK H PARENT
REMARK Flexibility Score: inf
ROOT
ATOM      1  C   UNL     1     160.722 177.378 186.904  1.00  0.00     0.000 C 
ENDROOT
BRANCH   1   2
ATOM      2  C   UNL     1     161.619 177.554 188.139  1.00  0.00     0.000 C 
BRANCH   2   3
ATOM      3  C   UNL     1     163.112 177.400 187.811  1.00  0.00     0.000 C 
BRANCH   3   4
ATOM      4  C   UNL     1     163.639 178.632 187.062  1.00  0.00     0.006 C 
BRANCH   4   5
ATOM      5  C   UNL     1     164.563 178.252 185.897  1.00  0.00     0.053 C 
BRANCH   5   6
ATOM      6  C   UNL     1     163.801 177.633 184.764  1.00  0.00     0.041 C 
ATOM      7  O   UNL     1     163.043 178.339 184.048  1.00  0.00    -0.550 OA
ATOM      8  O   UNL     1     163.903 176.269 184.521  1.00  0.00    -0.550 OA
ENDBRANCH   5   6
ENDBRANCH   4   5
ENDBRANCH   3   4
ENDBRANCH   2   3
ENDBRANCH   1   2
BRANCH   1   9
ATOM      9  C   UNL     1     160.632 175.912 186.442  1.00  0.00     0.000 C 
BRANCH   9  10
ATOM     10  C   UNL     1     160.297 174.949 187.592  1.00  0.00    -0.000 C 
BRANCH  10  11
ATOM     11  C   UNL     1     160.059 173.511 187.106  1.00  0.00    -0.000 C 
BRANCH  11  12
ATOM     12  C   UNL     1     161.176 172.575 187.593  1.00  0.00    -0.000 C 
BRANCH  12  13
ATOM     13  C   UNL     1     160.637 171.369 188.377  1.00  0.00    -0.003 C 
ATOM     14  C   UNL     1     160.754 170.058 187.602  1.00  0.00     0.004 C 
ENDBRANCH  12  13
ENDBRANCH  11  12
ENDBRANCH  10  11
ENDBRANCH   9  10
ENDBRANCH   1   9
TORSDOF 10
ENDMDL
MODEL 7
REMARK VINA RESULT:    -3.332      4.205      5.944
REMARK INTER + INTRA:          -6.876
REMARK INTER:                  -5.695
REMARK INTRA:                  -1.181
REMARK UNBOUND:                -1.595
REMARK SMILES CCCCCCCCCCCC(=O)[O-]
REMARK SMILES IDX 7 1 8 2 9 3 10 4 11 5 12 6 13 7 14 8 6 9 5 10 4 11 3 12 2 13
REMARK SMILES IDX 1 14
REMARK H PARENT
REMARK Flexibility Score: inf
ROOT
ATOM      1  C   UNL     1     161.384 175.225 184.630  1.00  0.00     0.000 C 
ENDROOT
BRANCH   1   2
ATOM      2  C   UNL     1     160.395 174.242 185.276  1.00  0.00     0.000 C 
BRANCH   2   3
ATOM      3  C   UNL     1     160.279 174.433 186.796  1.00  0.00     0.000 C 
BRANCH   3   4
ATOM      4  C   UNL     1     161.033 173.326 187.547  1.00  0.00     0.006 C 
BRANCH   4   5
ATOM      5  C   UNL     1     161.114 172.025 186.737  1.00  0.00     0.053 C 
BRANCH   5   6
ATOM      6  C   UNL     1     160.672 170.842 187.543  1.00  0.00     0.041 C 
ATOM      7  O   UNL     1     160.692 170.888 188.802  1.00  0.00    -0.550 OA
ATOM      8  O   UNL     1     160.268 169.677 186.904  1.00  0.00    -0.550 OA
ENDBRANCH   5   6
ENDBRANCH   4   5
ENDBRANCH   3   4
ENDBRANCH   2   3
ENDBRANCH   1   2
BRANCH   1   9
ATOM      9  C   UNL     1     160.679 176.319 183.808  1.00  0.00     0.000 C 
BRANCH   9  10
ATOM     10  C   UNL     1     160.292 177.539 184.657  1.00  0.00    -0.000 C 
BRANCH  10  11
ATOM     11  C   UNL     1     161.343 177.874 185.725  1.00  0.00    -0.000 C 
BRANCH  11  12
ATOM     12  C   UNL     1     160.674 178.264 187.052  1.00  0.00    -0.000 C 
BRANCH  12  13
ATOM     13  C   UNL     1     161.356 177.622 188.270  1.00  0.00    -0.003 C 
ATOM     14  C   UNL     1     162.723 177.026 187.936  1.00  0.00     0.004 C 
ENDBRANCH  12  13
ENDBRANCH  11  12
ENDBRANCH  10  11
ENDBRANCH   9  10
ENDBRANCH   1   9
TORSDOF 10
ENDMDL
MODEL 8
REMARK VINA RESULT:    -3.303      2.541      3.788
REMARK INTER + INTRA:          -6.830
REMARK INTER:                  -6.038
REMARK INTRA:                  -0.792
REMARK UNBOUND:                -1.595
REMARK SMILES CCCCCCCCCCCC(=O)[O-]
REMARK SMILES IDX 7 1 8 2 9 3 10 4 11 5 12 6 13 7 14 8 6 9 5 10 4 11 3 12 2 13
REMARK SMILES IDX 1 14
REMARK H PARENT
REMARK Flexibility Score: inf
ROOT
ATOM      1  C   UNL     1     161.836 177.830 186.275  1.00  0.00     0.000 C 
ENDROOT
BRANCH   1   2
ATOM      2  C   UNL     1     160.457 178.246 185.742  1.00  0.00     0.000 C 
BRANCH   2   3
ATOM      3  C   UNL     1     160.235 177.826 184.282  1.00  0.00     0.000 C 
BRANCH   3   4
ATOM      4  C   UNL     1     161.225 176.726 183.871  1.00  0.00     0.006 C 
BRANCH   4   5
ATOM      5  C   UNL     1     161.606 176.812 182.387  1.00  0.00     0.053 C 
BRANCH   5   6
ATOM      6  C   UNL     1     162.279 178.112 182.062  1.00  0.00     0.041 C 
ATOM      7  O   UNL     1     163.328 178.453 182.670  1.00  0.00    -0.550 OA
ATOM      8  O   UNL     1     161.728 178.961 181.111  1.00  0.00    -0.550 OA
ENDBRANCH   5   6
ENDBRANCH   4   5
ENDBRANCH   3   4
ENDBRANCH   2   3
ENDBRANCH   1   2
BRANCH   1   9
ATOM      9  C   UNL     1     161.749 177.045 187.596  1.00  0.00     0.000 C 
BRANCH   9  10
ATOM     10  C   UNL     1     160.662 175.959 187.568  1.00  0.00    -0.000 C 
BRANCH  10  11
ATOM     11  C   UNL     1     161.201 174.596 187.110  1.00  0.00    -0.000 C 
BRANCH  11  12
ATOM     12  C   UNL     1     160.249 173.462 187.523  1.00  0.00    -0.000 C 
BRANCH  12  13
ATOM     13  C   UNL     1     160.897 172.075 187.407  1.00  0.00    -0.003 C 
ATOM     14  C   UNL     1     160.614 171.186 188.618  1.00  0.00     0.004 C 
ENDBRANCH  12  13
ENDBRANCH  11  12
ENDBRANCH  10  11
ENDBRANCH   9  10
ENDBRANCH   1   9
TORSDOF 10
ENDMDL
MODEL 9
REMARK VINA RESULT:    -3.275      3.160      4.803
REMARK INTER + INTRA:          -6.784
REMARK INTER:                  -5.713
REMARK INTRA:                  -1.071
REMARK UNBOUND:                -1.595
REMARK SMILES CCCCCCCCCCCC(=O)[O-]
REMARK SMILES IDX 7 1 8 2 9 3 10 4 11 5 12 6 13 7 14 8 6 9 5 10 4 11 3 12 2 13
REMARK SMILES IDX 1 14
REMARK H PARENT
REMARK Flexibility Score: inf
ROOT
ATOM      1  C   UNL     1     162.084 177.919 186.663  1.00  0.00     0.000 C 
ENDROOT
BRANCH   1   2
ATOM      2  C   UNL     1     162.171 176.963 187.863  1.00  0.00     0.000 C 
BRANCH   2   3
ATOM      3  C   UNL     1     162.166 175.486 187.444  1.00  0.00     0.000 C 
BRANCH   3   4
ATOM      4  C   UNL     1     160.749 174.897 187.525  1.00  0.00     0.006 C 
BRANCH   4   5
ATOM      5  C   UNL     1     160.333 174.202 186.222  1.00  0.00     0.053 C 
BRANCH   5   6
ATOM      6  C   UNL     1     160.346 172.710 186.362  1.00  0.00     0.041 C 
ATOM      7  O   UNL     1     160.717 172.177 187.442  1.00  0.00    -0.550 OA
ATOM      8  O   UNL     1     159.980 171.907 185.289  1.00  0.00    -0.550 OA
ENDBRANCH   5   6
ENDBRANCH   4   5
ENDBRANCH   3   4
ENDBRANCH   2   3
ENDBRANCH   1   2
BRANCH   1   9
ATOM      9  C   UNL     1     160.632 178.269 186.291  1.00  0.00     0.000 C 
BRANCH   9  10
ATOM     10  C   UNL     1     160.294 177.919 184.833  1.00  0.00    -0.000 C 
BRANCH  10  11
ATOM     11  C   UNL     1     161.422 177.144 184.135  1.00  0.00    -0.000 C 
BRANCH  11  12
ATOM     12  C   UNL     1     161.259 177.193 182.608  1.00  0.00    -0.000 C 
BRANCH  12  13
ATOM     13  C   UNL     1     162.465 177.831 181.905  1.00  0.00    -0.003 C 
ATOM     14  C   UNL     1     163.672 177.993 182.828  1.00  0.00     0.004 C 
ENDBRANCH  12  13
ENDBRANCH  11  12
ENDBRANCH  10  11
ENDBRANCH   9  10
ENDBRANCH   1   9
TORSDOF 10
ENDMDL
