MODEL 1
REMARK VINA RESULT:    -5.917      0.000      0.000
REMARK INTER + INTRA:          -6.090
REMARK INTER:                  -6.090
REMARK INTRA:                   0.000
REMARK UNBOUND:                 0.000
REMARK SMILES O=c1ccc2ccc(O)cc2o1
REMARK SMILES IDX 6 1 7 2 8 3 10 4 11 5 5 6 4 7 3 8 2 9 1 10 12 11 9 12
REMARK H PARENT 9 13
REMARK Flexibility Score: inf
ROOT
ATOM      1  C   UNL     1       4.481  44.712  11.453  1.00  0.00     0.016 A 
ATOM      2  C   UNL     1       3.553  43.844  12.037  1.00  0.00     0.047 A 
ATOM      3  C   UNL     1       2.216  43.849  11.615  1.00  0.00     0.119 A 
ATOM      4  C   UNL     1       1.806  44.727  10.605  1.00  0.00     0.094 A 
ATOM      5  C   UNL     1       2.726  45.600  10.015  1.00  0.00     0.142 A 
ATOM      6  C   UNL     1       4.072  45.593  10.441  1.00  0.00     0.018 A 
ATOM      7  C   UNL     1       4.970  46.476   9.831  1.00  0.00     0.019 A 
ATOM      8  C   UNL     1       4.513  47.331   8.830  1.00  0.00     0.094 A 
ATOM      9  C   UNL     1       3.165  47.284   8.459  1.00  0.00     0.336 A 
ATOM     10  O   UNL     1       2.734  48.047   7.556  1.00  0.00    -0.246 OA
ATOM     11  O   UNL     1       2.332  46.433   9.054  1.00  0.00    -0.423 OA
ENDROOT
BRANCH   3  12
ATOM     12  O   UNL     1       1.286  42.987  12.193  1.00  0.00    -0.508 OA
ATOM     13  H   UNL     1       0.301  43.036  11.960  1.00  0.00     0.293 HD
ENDBRANCH   3  12
TORSDOF 1
ENDMDL
MODEL 2
REMARK VINA RESULT:    -5.841      0.800      4.217
REMARK INTER + INTRA:          -6.012
REMARK INTER:                  -6.012
REMARK INTRA:                   0.000
REMARK UNBOUND:                 0.000
REMARK SMILES O=c1ccc2ccc(O)cc2o1
REMARK SMILES IDX 6 1 7 2 8 3 10 4 11 5 5 6 4 7 3 8 2 9 1 10 12 11 9 12
REMARK H PARENT 9 13
REMARK Flexibility Score: inf
ROOT
ATOM      1  C   UNL     1       4.959  46.445   9.875  1.00  0.00     0.016 A 
ATOM      2  C   UNL     1       4.493  47.375   8.940  1.00  0.00     0.047 A 
ATOM      3  C   UNL     1       3.141  47.387   8.567  1.00  0.00     0.119 A 
ATOM      4  C   UNL     1       2.252  46.466   9.134  1.00  0.00     0.094 A 
ATOM      5  C   UNL     1       2.709  45.532  10.070  1.00  0.00     0.142 A 
ATOM      6  C   UNL     1       4.071  45.521  10.443  1.00  0.00     0.018 A 
ATOM      7  C   UNL     1       4.497  44.576  11.382  1.00  0.00     0.019 A 
ATOM      8  C   UNL     1       3.574  43.680  11.918  1.00  0.00     0.094 A 
ATOM      9  C   UNL     1       2.240  43.748  11.501  1.00  0.00     0.336 A 
ATOM     10  O   UNL     1       1.392  42.947  11.973  1.00  0.00    -0.246 OA
ATOM     11  O   UNL     1       1.861  44.658  10.606  1.00  0.00    -0.423 OA
ENDROOT
BRANCH   3  12
ATOM     12  O   UNL     1       2.670  48.311   7.636  1.00  0.00    -0.508 OA
ATOM     13  H   UNL     1       1.680  48.502   7.533  1.00  0.00     0.293 HD
ENDBRANCH   3  12
TORSDOF 1
ENDMDL
MODEL 3
REMARK VINA RESULT:    -5.709      2.418      4.162
REMARK INTER + INTRA:          -5.876
REMARK INTER:                  -5.876
REMARK INTRA:                   0.000
REMARK UNBOUND:                 0.000
REMARK SMILES O=c1ccc2ccc(O)cc2o1
REMARK SMILES IDX 6 1 7 2 8 3 10 4 11 5 5 6 4 7 3 8 2 9 1 10 12 11 9 12
REMARK H PARENT 9 13
REMARK Flexibility Score: inf
ROOT
ATOM      1  C   UNL     1       4.508  46.279  10.190  1.00  0.00     0.016 A 
ATOM      2  C   UNL     1       5.634  47.028   9.832  1.00  0.00     0.047 A 
ATOM      3  C   UNL     1       5.563  47.951   8.778  1.00  0.00     0.119 A 
ATOM      4  C   UNL     1       4.361  48.126   8.082  1.00  0.00     0.094 A 
ATOM      5  C   UNL     1       3.230  47.381   8.434  1.00  0.00     0.142 A 
ATOM      6  C   UNL     1       3.303  46.452   9.495  1.00  0.00     0.018 A 
ATOM      7  C   UNL     1       2.156  45.723   9.824  1.00  0.00     0.019 A 
ATOM      8  C   UNL     1       0.982  45.933   9.101  1.00  0.00     0.094 A 
ATOM      9  C   UNL     1       0.983  46.869   8.062  1.00  0.00     0.336 A 
ATOM     10  O   UNL     1      -0.067  47.073   7.398  1.00  0.00    -0.246 OA
ATOM     11  O   UNL     1       2.089  47.550   7.770  1.00  0.00    -0.423 OA
ENDROOT
BRANCH   3  12
ATOM     12  O   UNL     1       6.680  48.700   8.416  1.00  0.00    -0.508 OA
ATOM     13  H   UNL     1       7.518  48.259   8.052  1.00  0.00     0.293 HD
ENDBRANCH   3  12
TORSDOF 1
ENDMDL
MODEL 4
REMARK VINA RESULT:    -5.697      1.484      2.335
REMARK INTER + INTRA:          -5.864
REMARK INTER:                  -5.864
REMARK INTRA:                   0.000
REMARK UNBOUND:                 0.000
REMARK SMILES O=c1ccc2ccc(O)cc2o1
REMARK SMILES IDX 6 1 7 2 8 3 10 4 11 5 5 6 4 7 3 8 2 9 1 10 12 11 9 12
REMARK H PARENT 9 13
REMARK Flexibility Score: inf
ROOT
ATOM      1  C   UNL     1       1.744  44.791  10.544  1.00  0.00     0.016 A 
ATOM      2  C   UNL     1       2.597  44.143  11.443  1.00  0.00     0.047 A 
ATOM      3  C   UNL     1       3.959  44.473  11.488  1.00  0.00     0.119 A 
ATOM      4  C   UNL     1       4.469  45.456  10.631  1.00  0.00     0.094 A 
ATOM      5  C   UNL     1       3.624  46.109   9.728  1.00  0.00     0.142 A 
ATOM      6  C   UNL     1       2.252  45.776   9.685  1.00  0.00     0.018 A 
ATOM      7  C   UNL     1       1.431  46.447   8.772  1.00  0.00     0.019 A 
ATOM      8  C   UNL     1       1.985  47.418   7.940  1.00  0.00     0.094 A 
ATOM      9  C   UNL     1       3.353  47.696   8.038  1.00  0.00     0.336 A 
ATOM     10  O   UNL     1       3.872  48.569   7.295  1.00  0.00    -0.246 OA
ATOM     11  O   UNL     1       4.112  47.043   8.916  1.00  0.00    -0.423 OA
ENDROOT
BRANCH   3  12
ATOM     12  O   UNL     1       4.815  43.831  12.381  1.00  0.00    -0.508 OA
ATOM     13  H   UNL     1       5.167  42.898  12.199  1.00  0.00     0.293 HD
ENDBRANCH   3  12
TORSDOF 1
ENDMDL
MODEL 5
REMARK VINA RESULT:    -5.664      1.652      2.421
REMARK INTER + INTRA:          -5.830
REMARK INTER:                  -5.830
REMARK INTRA:                   0.000
REMARK UNBOUND:                 0.000
REMARK SMILES O=c1ccc2ccc(O)cc2o1
REMARK SMILES IDX 6 1 7 2 8 3 10 4 11 5 5 6 4 7 3 8 2 9 1 10 12 11 9 12
REMARK H PARENT 9 13
REMARK Flexibility Score: inf
ROOT
ATOM      1  C   UNL     1       1.607  43.661  11.097  1.00  0.00     0.016 A 
ATOM      2  C   UNL     1       2.335  42.580  11.606  1.00  0.00     0.047 A 
ATOM      3  C   UNL     1       3.726  42.522  11.439  1.00  0.00     0.119 A 
ATOM      4  C   UNL     1       4.391  43.551  10.761  1.00  0.00     0.094 A 
ATOM      5  C   UNL     1       3.672  44.636  10.249  1.00  0.00     0.142 A 
ATOM      6  C   UNL     1       2.271  44.692  10.418  1.00  0.00     0.018 A 
ATOM      7  C   UNL     1       1.580  45.790   9.896  1.00  0.00     0.019 A 
ATOM      8  C   UNL     1       2.287  46.789   9.230  1.00  0.00     0.094 A 
ATOM      9  C   UNL     1       3.675  46.668   9.099  1.00  0.00     0.336 A 
ATOM     10  O   UNL     1       4.331  47.559   8.500  1.00  0.00    -0.246 OA
ATOM     11  O   UNL     1       4.308  45.612   9.606  1.00  0.00    -0.423 OA
ENDROOT
BRANCH   3  12
ATOM     12  O   UNL     1       4.457  41.448  11.942  1.00  0.00    -0.508 OA
ATOM     13  H   UNL     1       4.245  40.493  11.677  1.00  0.00     0.293 HD
ENDBRANCH   3  12
TORSDOF 1
ENDMDL
MODEL 6
REMARK VINA RESULT:    -5.639      1.702      4.734
REMARK INTER + INTRA:          -5.804
REMARK INTER:                  -5.804
REMARK INTRA:                   0.000
REMARK UNBOUND:                 0.000
REMARK SMILES O=c1ccc2ccc(O)cc2o1
REMARK SMILES IDX 6 1 7 2 8 3 10 4 11 5 5 6 4 7 3 8 2 9 1 10 12 11 9 12
REMARK H PARENT 9 13
REMARK Flexibility Score: inf
ROOT
ATOM      1  C   UNL     1       1.690  46.124   9.589  1.00  0.00     0.016 A 
ATOM      2  C   UNL     1       2.494  47.135   9.051  1.00  0.00     0.047 A 
ATOM      3  C   UNL     1       3.891  47.014   9.072  1.00  0.00     0.119 A 
ATOM      4  C   UNL     1       4.486  45.877   9.632  1.00  0.00     0.094 A 
ATOM      5  C   UNL     1       3.690  44.861  10.172  1.00  0.00     0.142 A 
ATOM      6  C   UNL     1       2.283  44.984  10.150  1.00  0.00     0.018 A 
ATOM      7  C   UNL     1       1.515  43.952  10.697  1.00  0.00     0.019 A 
ATOM      8  C   UNL     1       2.154  42.840  11.243  1.00  0.00     0.094 A 
ATOM      9  C   UNL     1       3.552  42.785  11.231  1.00  0.00     0.336 A 
ATOM     10  O   UNL     1       4.147  41.789  11.719  1.00  0.00    -0.246 OA
ATOM     11  O   UNL     1       4.259  43.782  10.704  1.00  0.00    -0.423 OA
ENDROOT
BRANCH   3  12
ATOM     12  O   UNL     1       4.697  48.017   8.539  1.00  0.00    -0.508 OA
ATOM     13  H   UNL     1       4.318  48.733   7.929  1.00  0.00     0.293 HD
ENDBRANCH   3  12
TORSDOF 1
ENDMDL
MODEL 7
REMARK VINA RESULT:    -5.564      1.597      4.655
REMARK INTER + INTRA:          -5.727
REMARK INTER:                  -5.727
REMARK INTRA:                   0.000
REMARK UNBOUND:                 0.000
REMARK SMILES O=c1ccc2ccc(O)cc2o1
REMARK SMILES IDX 6 1 7 2 8 3 10 4 11 5 5 6 4 7 3 8 2 9 1 10 12 11 9 12
REMARK H PARENT 9 13
REMARK Flexibility Score: inf
ROOT
ATOM      1  C   UNL     1       1.236  46.050   8.996  1.00  0.00     0.016 A 
ATOM      2  C   UNL     1       1.673  47.094   8.174  1.00  0.00     0.047 A 
ATOM      3  C   UNL     1       2.992  47.563   8.267  1.00  0.00     0.119 A 
ATOM      4  C   UNL     1       3.876  46.984   9.185  1.00  0.00     0.094 A 
ATOM      5  C   UNL     1       3.448  45.939  10.011  1.00  0.00     0.142 A 
ATOM      6  C   UNL     1       2.119  45.469   9.916  1.00  0.00     0.018 A 
ATOM      7  C   UNL     1       1.721  44.423  10.754  1.00  0.00     0.019 A 
ATOM      8  C   UNL     1       2.638  43.879  11.652  1.00  0.00     0.094 A 
ATOM      9  C   UNL     1       3.937  44.395  11.692  1.00  0.00     0.336 A 
ATOM     10  O   UNL     1       4.780  43.918  12.496  1.00  0.00    -0.246 OA
ATOM     11  O   UNL     1       4.291  45.391  10.882  1.00  0.00    -0.423 OA
ENDROOT
BRANCH   3  12
ATOM     12  O   UNL     1       3.434  48.603   7.452  1.00  0.00    -0.508 OA
ATOM     13  H   UNL     1       3.780  49.472   7.842  1.00  0.00     0.293 HD
ENDBRANCH   3  12
TORSDOF 1
ENDMDL
MODEL 8
REMARK VINA RESULT:    -5.501      1.677      2.433
REMARK INTER + INTRA:          -5.662
REMARK INTER:                  -5.662
REMARK INTRA:                   0.000
REMARK UNBOUND:                 0.000
REMARK SMILES O=c1ccc2ccc(O)cc2o1
REMARK SMILES IDX 6 1 7 2 8 3 10 4 11 5 5 6 4 7 3 8 2 9 1 10 12 11 9 12
REMARK H PARENT 9 13
REMARK Flexibility Score: inf
ROOT
ATOM      1  C   UNL     1       1.498  45.835   9.443  1.00  0.00     0.016 A 
ATOM      2  C   UNL     1       1.170  44.850  10.381  1.00  0.00     0.047 A 
ATOM      3  C   UNL     1       2.152  44.335  11.239  1.00  0.00     0.119 A 
ATOM      4  C   UNL     1       3.468  44.807  11.158  1.00  0.00     0.094 A 
ATOM      5  C   UNL     1       3.805  45.791  10.223  1.00  0.00     0.142 A 
ATOM      6  C   UNL     1       2.814  46.309   9.360  1.00  0.00     0.018 A 
ATOM      7  C   UNL     1       3.182  47.293   8.437  1.00  0.00     0.019 A 
ATOM      8  C   UNL     1       4.505  47.731   8.395  1.00  0.00     0.094 A 
ATOM      9  C   UNL     1       5.433  47.173   9.280  1.00  0.00     0.336 A 
ATOM     10  O   UNL     1       6.632  47.555   9.257  1.00  0.00    -0.246 OA
ATOM     11  O   UNL     1       5.057  46.238  10.150  1.00  0.00    -0.423 OA
ENDROOT
BRANCH   3  12
ATOM     12  O   UNL     1       1.832  43.354  12.175  1.00  0.00    -0.508 OA
ATOM     13  H   UNL     1       1.357  43.583  13.041  1.00  0.00     0.293 HD
ENDBRANCH   3  12
TORSDOF 1
ENDMDL
MODEL 9
REMARK VINA RESULT:    -5.496      1.387      4.169
REMARK INTER + INTRA:          -5.657
REMARK INTER:                  -5.657
REMARK INTRA:                   0.000
REMARK UNBOUND:                 0.000
REMARK SMILES O=c1ccc2ccc(O)cc2o1
REMARK SMILES IDX 6 1 7 2 8 3 10 4 11 5 5 6 4 7 3 8 2 9 1 10 12 11 9 12
REMARK H PARENT 9 13
REMARK Flexibility Score: inf
ROOT
ATOM      1  C   UNL     1       3.788  47.220   8.783  1.00  0.00     0.016 A 
ATOM      2  C   UNL     1       2.756  47.708   7.975  1.00  0.00     0.047 A 
ATOM      3  C   UNL     1       1.461  47.180   8.086  1.00  0.00     0.119 A 
ATOM      4  C   UNL     1       1.199  46.161   9.009  1.00  0.00     0.094 A 
ATOM      5  C   UNL     1       2.225  45.666   9.820  1.00  0.00     0.142 A 
ATOM      6  C   UNL     1       3.528  46.199   9.708  1.00  0.00     0.018 A 
ATOM      7  C   UNL     1       4.533  45.684  10.534  1.00  0.00     0.019 A 
ATOM      8  C   UNL     1       4.222  44.669  11.437  1.00  0.00     0.094 A 
ATOM      9  C   UNL     1       2.909  44.189  11.494  1.00  0.00     0.336 A 
ATOM     10  O   UNL     1       2.609  43.273  12.302  1.00  0.00    -0.246 OA
ATOM     11  O   UNL     1       1.971  44.697  10.696  1.00  0.00    -0.423 OA
ENDROOT
BRANCH   3  12
ATOM     12  O   UNL     1       0.428  47.662   7.284  1.00  0.00    -0.508 OA
ATOM     13  H   UNL     1      -0.544  47.547   7.547  1.00  0.00     0.293 HD
ENDBRANCH   3  12
TORSDOF 1
ENDMDL
