MODEL 1
REMARK VINA RESULT:    -5.613      0.000      0.000
REMARK INTER + INTRA:          -5.942
REMARK INTER:                  -5.942
REMARK INTRA:                   0.000
REMARK UNBOUND:                 0.000
REMARK SMILES O=c1ccc2cc(O)c(O)cc2o1
REMARK SMILES IDX 4 1 3 2 2 3 1 4 13 5 12 6 11 7 9 8 7 9 6 10 5 11 8 12 10 14
REMARK H PARENT 8 13 10 15
REMARK Flexibility Score: inf
ROOT
ATOM      1  C   UNL     1       3.577 -14.307   7.746  1.00  0.00     0.019 A 
ATOM      2  C   UNL     1       3.177 -14.979   8.900  1.00  0.00     0.094 A 
ATOM      3  C   UNL     1       4.085 -15.836   9.534  1.00  0.00     0.336 A 
ATOM      4  O   UNL     1       3.742 -16.451  10.577  1.00  0.00    -0.246 OA
ATOM      5  O   UNL     1       5.309 -16.005   9.041  1.00  0.00    -0.423 OA
ATOM      6  C   UNL     1       5.730 -15.382   7.942  1.00  0.00     0.142 A 
ATOM      7  C   UNL     1       7.028 -15.599   7.470  1.00  0.00     0.098 A 
ATOM      8  C   UNL     1       7.479 -14.948   6.315  1.00  0.00     0.161 A 
ATOM      9  C   UNL     1       6.624 -14.072   5.624  1.00  0.00     0.158 A 
ATOM     10  C   UNL     1       5.319 -13.851   6.094  1.00  0.00     0.062 A 
ATOM     11  C   UNL     1       4.871 -14.503   7.250  1.00  0.00     0.022 A 
ENDROOT
BRANCH   9  12
ATOM     12  O   UNL     1       7.072 -13.423   4.474  1.00  0.00    -0.504 OA
ATOM     13  H   UNL     1       7.224 -12.421   4.455  1.00  0.00     0.293 HD
ENDBRANCH   9  12
BRANCH   8  14
ATOM     14  O   UNL     1       8.780 -15.186   5.870  1.00  0.00    -0.504 OA
ATOM     15  H   UNL     1       9.368 -15.898   6.286  1.00  0.00     0.293 HD
ENDBRANCH   8  14
TORSDOF 2
ENDMDL
MODEL 2
REMARK VINA RESULT:    -5.534      2.609      4.135
REMARK INTER + INTRA:          -5.857
REMARK INTER:                  -5.857
REMARK INTRA:                   0.000
REMARK UNBOUND:                 0.000
REMARK SMILES O=c1ccc2cc(O)c(O)cc2o1
REMARK SMILES IDX 4 1 3 2 2 3 1 4 13 5 12 6 11 7 9 8 7 9 6 10 5 11 8 12 10 14
REMARK H PARENT 8 13 10 15
REMARK Flexibility Score: inf
ROOT
ATOM      1  C   UNL     1       7.807 -13.950   4.945  1.00  0.00     0.019 A 
ATOM      2  C   UNL     1       6.490 -13.701   5.329  1.00  0.00     0.094 A 
ATOM      3  C   UNL     1       5.958 -14.401   6.418  1.00  0.00     0.336 A 
ATOM      4  O   UNL     1       4.772 -14.190   6.781  1.00  0.00    -0.246 OA
ATOM      5  O   UNL     1       6.700 -15.291   7.074  1.00  0.00    -0.423 OA
ATOM      6  C   UNL     1       7.960 -15.558   6.739  1.00  0.00     0.142 A 
ATOM      7  C   UNL     1       8.691 -16.503   7.465  1.00  0.00     0.098 A 
ATOM      8  C   UNL     1      10.017 -16.790   7.119  1.00  0.00     0.161 A 
ATOM      9  C   UNL     1      10.620 -16.125   6.036  1.00  0.00     0.158 A 
ATOM     10  C   UNL     1       9.890 -15.176   5.304  1.00  0.00     0.062 A 
ATOM     11  C   UNL     1       8.564 -14.890   5.652  1.00  0.00     0.022 A 
ENDROOT
BRANCH   9  12
ATOM     12  O   UNL     1      11.940 -16.410   5.691  1.00  0.00    -0.504 OA
ATOM     13  H   UNL     1      12.341 -17.329   5.841  1.00  0.00     0.293 HD
ENDBRANCH   9  12
BRANCH   8  14
ATOM     14  O   UNL     1      10.719 -17.738   7.864  1.00  0.00    -0.504 OA
ATOM     15  H   UNL     1      10.601 -17.830   8.865  1.00  0.00     0.293 HD
ENDBRANCH   8  14
TORSDOF 2
ENDMDL
MODEL 3
REMARK VINA RESULT:    -5.317      2.387      4.752
REMARK INTER + INTRA:          -5.628
REMARK INTER:                  -5.628
REMARK INTRA:                   0.000
REMARK UNBOUND:                 0.000
REMARK SMILES O=c1ccc2cc(O)c(O)cc2o1
REMARK SMILES IDX 4 1 3 2 2 3 1 4 13 5 12 6 11 7 9 8 7 9 6 10 5 11 8 12 10 14
REMARK H PARENT 8 13 10 15
REMARK Flexibility Score: inf
ROOT
ATOM      1  C   UNL     1       8.573 -16.649   8.567  1.00  0.00     0.019 A 
ATOM      2  C   UNL     1       9.792 -17.273   8.308  1.00  0.00     0.094 A 
ATOM      3  C   UNL     1      10.425 -17.041   7.081  1.00  0.00     0.336 A 
ATOM      4  O   UNL     1      11.526 -17.596   6.828  1.00  0.00    -0.246 OA
ATOM      5  O   UNL     1       9.869 -16.237   6.178  1.00  0.00    -0.423 OA
ATOM      6  C   UNL     1       8.706 -15.622   6.386  1.00  0.00     0.142 A 
ATOM      7  C   UNL     1       8.171 -14.788   5.400  1.00  0.00     0.098 A 
ATOM      8  C   UNL     1       6.949 -14.137   5.611  1.00  0.00     0.161 A 
ATOM      9  C   UNL     1       6.255 -14.322   6.820  1.00  0.00     0.158 A 
ATOM     10  C   UNL     1       6.789 -15.159   7.813  1.00  0.00     0.062 A 
ATOM     11  C   UNL     1       8.012 -15.808   7.600  1.00  0.00     0.022 A 
ENDROOT
BRANCH   9  12
ATOM     12  O   UNL     1       5.038 -13.675   7.031  1.00  0.00    -0.504 OA
ATOM     13  H   UNL     1       4.856 -13.150   7.879  1.00  0.00     0.293 HD
ENDBRANCH   9  12
BRANCH   8  14
ATOM     14  O   UNL     1       6.441 -13.312   4.608  1.00  0.00    -0.504 OA
ATOM     15  H   UNL     1       6.475 -12.302   4.674  1.00  0.00     0.293 HD
ENDBRANCH   8  14
TORSDOF 2
ENDMDL
MODEL 4
REMARK VINA RESULT:    -5.282      2.354      4.756
REMARK INTER + INTRA:          -5.591
REMARK INTER:                  -5.591
REMARK INTRA:                   0.000
REMARK UNBOUND:                 0.000
REMARK SMILES O=c1ccc2cc(O)c(O)cc2o1
REMARK SMILES IDX 4 1 3 2 2 3 1 4 13 5 12 6 11 7 9 8 7 9 6 10 5 11 8 12 10 14
REMARK H PARENT 8 13 10 15
REMARK Flexibility Score: inf
ROOT
ATOM      1  C   UNL     1       9.992 -15.462   5.377  1.00  0.00     0.019 A 
ATOM      2  C   UNL     1      10.829 -16.269   6.146  1.00  0.00     0.094 A 
ATOM      3  C   UNL     1      10.388 -16.701   7.402  1.00  0.00     0.336 A 
ATOM      4  O   UNL     1      11.130 -17.430   8.111  1.00  0.00    -0.246 OA
ATOM      5  O   UNL     1       9.188 -16.346   7.853  1.00  0.00    -0.423 OA
ATOM      6  C   UNL     1       8.358 -15.576   7.151  1.00  0.00     0.142 A 
ATOM      7  C   UNL     1       7.109 -15.235   7.677  1.00  0.00     0.098 A 
ATOM      8  C   UNL     1       6.230 -14.427   6.945  1.00  0.00     0.161 A 
ATOM      9  C   UNL     1       6.604 -13.955   5.674  1.00  0.00     0.158 A 
ATOM     10  C   UNL     1       7.858 -14.295   5.143  1.00  0.00     0.062 A 
ATOM     11  C   UNL     1       8.735 -15.104   5.876  1.00  0.00     0.022 A 
ENDROOT
BRANCH   9  12
ATOM     12  O   UNL     1       5.730 -13.150   4.945  1.00  0.00    -0.504 OA
ATOM     13  H   UNL     1       6.062 -12.537   4.210  1.00  0.00     0.293 HD
ENDBRANCH   9  12
BRANCH   8  14
ATOM     14  O   UNL     1       4.991 -14.104   7.498  1.00  0.00    -0.504 OA
ATOM     15  H   UNL     1       4.171 -14.682   7.354  1.00  0.00     0.293 HD
ENDBRANCH   8  14
TORSDOF 2
ENDMDL
MODEL 5
REMARK VINA RESULT:    -5.273      1.257      2.306
REMARK INTER + INTRA:          -5.581
REMARK INTER:                  -5.581
REMARK INTRA:                   0.000
REMARK UNBOUND:                 0.000
REMARK SMILES O=c1ccc2cc(O)c(O)cc2o1
REMARK SMILES IDX 4 1 3 2 2 3 1 4 13 5 12 6 11 7 9 8 7 9 6 10 5 11 8 12 10 14
REMARK H PARENT 8 13 10 15
REMARK Flexibility Score: inf
ROOT
ATOM      1  C   UNL     1       5.001 -15.975   9.130  1.00  0.00     0.019 A 
ATOM      2  C   UNL     1       3.694 -15.674   9.510  1.00  0.00     0.094 A 
ATOM      3  C   UNL     1       2.957 -14.766   8.741  1.00  0.00     0.336 A 
ATOM      4  O   UNL     1       1.775 -14.482   9.068  1.00  0.00    -0.246 OA
ATOM      5  O   UNL     1       3.498 -14.199   7.666  1.00  0.00    -0.423 OA
ATOM      6  C   UNL     1       4.742 -14.458   7.270  1.00  0.00     0.142 A 
ATOM      7  C   UNL     1       5.258 -13.832   6.131  1.00  0.00     0.098 A 
ATOM      8  C   UNL     1       6.565 -14.099   5.707  1.00  0.00     0.161 A 
ATOM      9  C   UNL     1       7.367 -15.001   6.429  1.00  0.00     0.158 A 
ATOM     10  C   UNL     1       6.854 -15.632   7.573  1.00  0.00     0.062 A 
ATOM     11  C   UNL     1       5.545 -15.364   7.995  1.00  0.00     0.022 A 
ENDROOT
BRANCH   9  12
ATOM     12  O   UNL     1       8.669 -15.268   6.008  1.00  0.00    -0.504 OA
ATOM     13  H   UNL     1       9.473 -14.946   6.534  1.00  0.00     0.293 HD
ENDBRANCH   9  12
BRANCH   8  14
ATOM     14  O   UNL     1       7.049 -13.457   4.567  1.00  0.00    -0.504 OA
ATOM     15  H   UNL     1       6.561 -12.680   4.139  1.00  0.00     0.293 HD
ENDBRANCH   8  14
TORSDOF 2
ENDMDL
MODEL 6
REMARK VINA RESULT:    -5.208      7.854      8.898
REMARK INTER + INTRA:          -5.512
REMARK INTER:                  -5.512
REMARK INTRA:                   0.000
REMARK UNBOUND:                 0.000
REMARK SMILES O=c1ccc2cc(O)c(O)cc2o1
REMARK SMILES IDX 4 1 3 2 2 3 1 4 13 5 12 6 11 7 9 8 7 9 6 10 5 11 8 12 10 14
REMARK H PARENT 8 13 10 15
REMARK Flexibility Score: inf
ROOT
ATOM      1  C   UNL     1      10.438 -12.373  12.841  1.00  0.00     0.019 A 
ATOM      2  C   UNL     1      11.353 -13.314  13.312  1.00  0.00     0.094 A 
ATOM      3  C   UNL     1      11.051 -14.029  14.477  1.00  0.00     0.336 A 
ATOM      4  O   UNL     1      11.864 -14.883  14.917  1.00  0.00    -0.246 OA
ATOM      5  O   UNL     1       9.908 -13.813  15.123  1.00  0.00    -0.423 OA
ATOM      6  C   UNL     1       9.008 -12.923  14.707  1.00  0.00     0.142 A 
ATOM      7  C   UNL     1       7.825 -12.738  15.427  1.00  0.00     0.098 A 
ATOM      8  C   UNL     1       6.873 -11.806  14.997  1.00  0.00     0.161 A 
ATOM      9  C   UNL     1       7.107 -11.050  13.834  1.00  0.00     0.158 A 
ATOM     10  C   UNL     1       8.294 -11.231  13.108  1.00  0.00     0.062 A 
ATOM     11  C   UNL     1       9.244 -12.166  13.540  1.00  0.00     0.022 A 
ENDROOT
BRANCH   9  12
ATOM     12  O   UNL     1       6.160 -10.120  13.405  1.00  0.00    -0.504 OA
ATOM     13  H   UNL     1       5.716 -10.196  12.497  1.00  0.00     0.293 HD
ENDBRANCH   9  12
BRANCH   8  14
ATOM     14  O   UNL     1       5.702 -11.645  15.738  1.00  0.00    -0.504 OA
ATOM     15  H   UNL     1       4.786 -11.820  15.341  1.00  0.00     0.293 HD
ENDBRANCH   8  14
TORSDOF 2
ENDMDL
MODEL 7
REMARK VINA RESULT:    -5.182      1.288      4.518
REMARK INTER + INTRA:          -5.485
REMARK INTER:                  -5.485
REMARK INTRA:                   0.000
REMARK UNBOUND:                 0.000
REMARK SMILES O=c1ccc2cc(O)c(O)cc2o1
REMARK SMILES IDX 4 1 3 2 2 3 1 4 13 5 12 6 11 7 9 8 7 9 6 10 5 11 8 12 10 14
REMARK H PARENT 8 13 10 15
REMARK Flexibility Score: inf
ROOT
ATOM      1  C   UNL     1       6.516 -13.721   5.327  1.00  0.00     0.019 A 
ATOM      2  C   UNL     1       7.814 -14.073   4.962  1.00  0.00     0.094 A 
ATOM      3  C   UNL     1       8.491 -15.042   5.713  1.00  0.00     0.336 A 
ATOM      4  O   UNL     1       9.664 -15.372   5.399  1.00  0.00    -0.246 OA
ATOM      5  O   UNL     1       7.901 -15.617   6.757  1.00  0.00    -0.423 OA
ATOM      6  C   UNL     1       6.663 -15.310   7.140  1.00  0.00     0.142 A 
ATOM      7  C   UNL     1       6.095 -15.947   8.246  1.00  0.00     0.098 A 
ATOM      8  C   UNL     1       4.794 -15.631   8.655  1.00  0.00     0.161 A 
ATOM      9  C   UNL     1       4.052 -14.667   7.949  1.00  0.00     0.158 A 
ATOM     10  C   UNL     1       4.618 -14.023   6.837  1.00  0.00     0.062 A 
ATOM     11  C   UNL     1       5.920 -14.343   6.430  1.00  0.00     0.022 A 
ENDROOT
BRANCH   9  12
ATOM     12  O   UNL     1       2.756 -14.351   8.355  1.00  0.00    -0.504 OA
ATOM     13  H   UNL     1       2.268 -14.903   9.051  1.00  0.00     0.293 HD
ENDBRANCH   9  12
BRANCH   8  14
ATOM     14  O   UNL     1       4.256 -16.285   9.763  1.00  0.00    -0.504 OA
ATOM     15  H   UNL     1       4.687 -16.234  10.678  1.00  0.00     0.293 HD
ENDBRANCH   8  14
TORSDOF 2
ENDMDL
MODEL 8
REMARK VINA RESULT:    -5.147      7.016      8.544
REMARK INTER + INTRA:          -5.448
REMARK INTER:                  -5.448
REMARK INTRA:                   0.000
REMARK UNBOUND:                 0.000
REMARK SMILES O=c1ccc2cc(O)c(O)cc2o1
REMARK SMILES IDX 4 1 3 2 2 3 1 4 13 5 12 6 11 7 9 8 7 9 6 10 5 11 8 12 10 14
REMARK H PARENT 8 13 10 15
REMARK Flexibility Score: inf
ROOT
ATOM      1  C   UNL     1       9.549 -13.943  14.743  1.00  0.00     0.019 A 
ATOM      2  C   UNL     1      10.232 -14.539  13.683  1.00  0.00     0.094 A 
ATOM      3  C   UNL     1       9.934 -14.138  12.375  1.00  0.00     0.336 A 
ATOM      4  O   UNL     1      10.539 -14.665  11.405  1.00  0.00    -0.246 OA
ATOM      5  O   UNL     1       9.014 -13.204  12.149  1.00  0.00    -0.423 OA
ATOM      6  C   UNL     1       8.339 -12.611  13.133  1.00  0.00     0.142 A 
ATOM      7  C   UNL     1       7.384 -11.636  12.835  1.00  0.00     0.098 A 
ATOM      8  C   UNL     1       6.671 -11.006  13.863  1.00  0.00     0.161 A 
ATOM      9  C   UNL     1       6.916 -11.357  15.203  1.00  0.00     0.158 A 
ATOM     10  C   UNL     1       7.874 -12.336  15.507  1.00  0.00     0.062 A 
ATOM     11  C   UNL     1       8.587 -12.963  14.477  1.00  0.00     0.022 A 
ENDROOT
BRANCH   9  12
ATOM     12  O   UNL     1       6.206 -10.731  16.228  1.00  0.00    -0.504 OA
ATOM     13  H   UNL     1       6.640 -10.038  16.827  1.00  0.00     0.293 HD
ENDBRANCH   9  12
BRANCH   8  14
ATOM     14  O   UNL     1       5.723 -10.038  13.533  1.00  0.00    -0.504 OA
ATOM     15  H   UNL     1       5.986  -9.089  13.292  1.00  0.00     0.293 HD
ENDBRANCH   8  14
TORSDOF 2
ENDMDL
MODEL 9
REMARK VINA RESULT:    -5.131      1.482      2.164
REMARK INTER + INTRA:          -5.431
REMARK INTER:                  -5.431
REMARK INTRA:                   0.000
REMARK UNBOUND:                 0.000
REMARK SMILES O=c1ccc2cc(O)c(O)cc2o1
REMARK SMILES IDX 4 1 3 2 2 3 1 4 13 5 12 6 11 7 9 8 7 9 6 10 5 11 8 12 10 14
REMARK H PARENT 8 13 10 15
REMARK Flexibility Score: inf
ROOT
ATOM      1  C   UNL     1       5.375 -14.033   6.189  1.00  0.00     0.019 A 
ATOM      2  C   UNL     1       4.303 -14.110   7.077  1.00  0.00     0.094 A 
ATOM      3  C   UNL     1       4.425 -14.914   8.217  1.00  0.00     0.336 A 
ATOM      4  O   UNL     1       3.468 -14.997   9.030  1.00  0.00    -0.246 OA
ATOM      5  O   UNL     1       5.546 -15.592   8.446  1.00  0.00    -0.423 OA
ATOM      6  C   UNL     1       6.592 -15.546   7.623  1.00  0.00     0.142 A 
ATOM      7  C   UNL     1       7.744 -16.281   7.916  1.00  0.00     0.098 A 
ATOM      8  C   UNL     1       8.849 -16.237   7.057  1.00  0.00     0.161 A 
ATOM      9  C   UNL     1       8.801 -15.451   5.891  1.00  0.00     0.158 A 
ATOM     10  C   UNL     1       7.646 -14.712   5.593  1.00  0.00     0.062 A 
ATOM     11  C   UNL     1       6.542 -14.756   6.455  1.00  0.00     0.022 A 
ENDROOT
BRANCH   9  12
ATOM     12  O   UNL     1       9.900 -15.407   5.035  1.00  0.00    -0.504 OA
ATOM     13  H   UNL     1      10.054 -16.121   4.332  1.00  0.00     0.293 HD
ENDBRANCH   9  12
BRANCH   8  14
ATOM     14  O   UNL     1       9.984 -16.982   7.377  1.00  0.00    -0.504 OA
ATOM     15  H   UNL     1      10.788 -16.567   7.832  1.00  0.00     0.293 HD
ENDBRANCH   8  14
TORSDOF 2
ENDMDL
