MODEL 1
REMARK VINA RESULT:    -6.288      0.000      0.000
REMARK INTER + INTRA:          -7.353
REMARK INTER:                  -7.391
REMARK INTRA:                   0.037
REMARK UNBOUND:                 0.037
REMARK SMILES O=c1c(O)c(-c2ccc(O)cc2)oc2cc(O)cc(O)c12
REMARK SMILES IDX 5 1 3 2 2 3 1 4 21 5 19 6 18 7 16 8 15 9 14 10 13 11 6 12
REMARK SMILES IDX 7 13 8 14 9 15 12 16 11 17 10 18 4 20 20 22 17 24
REMARK H PARENT 10 19 4 21 20 23 17 25
REMARK Flexibility Score: inf
ROOT
ATOM      1  C   UNL     1       5.435   4.690 -32.256  1.00  0.00     0.180 A 
ATOM      2  C   UNL     1       5.665   3.657 -33.181  1.00  0.00     0.208 A 
ATOM      3  C   UNL     1       6.939   3.529 -33.757  1.00  0.00     0.238 A 
ATOM      4  O   UNL     1       7.159   2.558 -34.527  1.00  0.00    -0.285 OA
ATOM      5  C   UNL     1       7.952   4.470 -33.446  1.00  0.00     0.111 A 
ATOM      6  C   UNL     1       9.265   4.465 -34.006  1.00  0.00     0.134 A 
ATOM      7  C   UNL     1      10.217   5.382 -33.543  1.00  0.00     0.093 A 
ATOM      8  C   UNL     1       9.884   6.346 -32.587  1.00  0.00     0.123 A 
ATOM      9  C   UNL     1       8.590   6.394 -32.076  1.00  0.00     0.094 A 
ATOM     10  C   UNL     1       7.629   5.468 -32.490  1.00  0.00     0.146 A 
ATOM     11  O   UNL     1       6.414   5.537 -31.959  1.00  0.00    -0.452 OA
ENDROOT
BRANCH   1  12
ATOM     12  C   UNL     1       4.124   4.880 -31.595  1.00  0.00     0.021 A 
ATOM     13  C   UNL     1       4.022   5.028 -30.200  1.00  0.00     0.016 A 
ATOM     14  C   UNL     1       2.775   5.231 -29.601  1.00  0.00     0.047 A 
ATOM     15  C   UNL     1       1.618   5.302 -30.388  1.00  0.00     0.115 A 
ATOM     16  C   UNL     1       2.962   4.974 -32.379  1.00  0.00     0.016 A 
ATOM     17  C   UNL     1       1.717   5.175 -31.777  1.00  0.00     0.047 A 
BRANCH  15  18
ATOM     18  O   UNL     1       0.370   5.502 -29.802  1.00  0.00    -0.508 OA
ATOM     19  H   UNL     1      -0.418   5.842 -30.338  1.00  0.00     0.293 HD
ENDBRANCH  15  18
ENDBRANCH   1  12
BRANCH   2  20
ATOM     20  O   UNL     1       4.632   2.785 -33.533  1.00  0.00    -0.502 OA
ATOM     21  H   UNL     1       3.696   2.868 -33.155  1.00  0.00     0.293 HD
ENDBRANCH   2  20
BRANCH   6  22
ATOM     22  O   UNL     1       9.678   3.605 -35.028  1.00  0.00    -0.507 OA
ATOM     23  H   UNL     1       9.229   3.519 -35.927  1.00  0.00     0.293 HD
ENDBRANCH   6  22
BRANCH   8  24
ATOM     24  O   UNL     1      10.833   7.265 -32.146  1.00  0.00    -0.508 OA
ATOM     25  H   UNL     1      11.307   7.889 -32.788  1.00  0.00     0.293 HD
ENDBRANCH   8  24
TORSDOF 5
ENDMDL
MODEL 2
REMARK VINA RESULT:    -6.223      1.566      6.602
REMARK INTER + INTRA:          -7.277
REMARK INTER:                  -7.339
REMARK INTRA:                   0.062
REMARK UNBOUND:                 0.037
REMARK SMILES O=c1c(O)c(-c2ccc(O)cc2)oc2cc(O)cc(O)c12
REMARK SMILES IDX 5 1 3 2 2 3 1 4 21 5 19 6 18 7 16 8 15 9 14 10 13 11 6 12
REMARK SMILES IDX 7 13 8 14 9 15 12 16 11 17 10 18 4 20 20 22 17 24
REMARK H PARENT 10 19 4 21 20 23 17 25
REMARK Flexibility Score: inf
ROOT
ATOM      1  C   UNL     1       6.563   5.481 -32.718  1.00  0.00     0.180 A 
ATOM      2  C   UNL     1       5.797   5.268 -33.877  1.00  0.00     0.208 A 
ATOM      3  C   UNL     1       4.405   5.131 -33.758  1.00  0.00     0.238 A 
ATOM      4  O   UNL     1       3.718   5.015 -34.806  1.00  0.00    -0.285 OA
ATOM      5  C   UNL     1       3.801   5.153 -32.477  1.00  0.00     0.111 A 
ATOM      6  C   UNL     1       2.405   4.977 -32.233  1.00  0.00     0.134 A 
ATOM      7  C   UNL     1       1.908   5.124 -30.932  1.00  0.00     0.093 A 
ATOM      8  C   UNL     1       2.763   5.375 -29.857  1.00  0.00     0.123 A 
ATOM      9  C   UNL     1       4.133   5.492 -30.076  1.00  0.00     0.094 A 
ATOM     10  C   UNL     1       4.655   5.389 -31.368  1.00  0.00     0.146 A 
ATOM     11  O   UNL     1       5.965   5.529 -31.534  1.00  0.00    -0.452 OA
ENDROOT
BRANCH   1  12
ATOM     12  C   UNL     1       8.034   5.650 -32.764  1.00  0.00     0.021 A 
ATOM     13  C   UNL     1       8.851   4.760 -33.484  1.00  0.00     0.016 A 
ATOM     14  C   UNL     1      10.235   4.955 -33.533  1.00  0.00     0.047 A 
ATOM     15  C   UNL     1      10.816   6.046 -32.875  1.00  0.00     0.115 A 
ATOM     16  C   UNL     1       8.622   6.754 -32.126  1.00  0.00     0.016 A 
ATOM     17  C   UNL     1      10.006   6.945 -32.175  1.00  0.00     0.047 A 
BRANCH  15  18
ATOM     18  O   UNL     1      12.194   6.249 -32.916  1.00  0.00    -0.508 OA
ATOM     19  H   UNL     1      12.635   6.742 -33.683  1.00  0.00     0.293 HD
ENDBRANCH  15  18
ENDBRANCH   1  12
BRANCH   2  20
ATOM     20  O   UNL     1       6.419   5.174 -35.125  1.00  0.00    -0.502 OA
ATOM     21  H   UNL     1       6.846   5.970 -35.582  1.00  0.00     0.293 HD
ENDBRANCH   2  20
BRANCH   6  22
ATOM     22  O   UNL     1       1.474   4.637 -33.220  1.00  0.00    -0.507 OA
ATOM     23  H   UNL     1       0.494   4.467 -33.054  1.00  0.00     0.293 HD
ENDBRANCH   6  22
BRANCH   8  24
ATOM     24  O   UNL     1       2.260   5.501 -28.564  1.00  0.00    -0.508 OA
ATOM     25  H   UNL     1       1.553   4.871 -28.205  1.00  0.00     0.293 HD
ENDBRANCH   8  24
TORSDOF 5
ENDMDL
MODEL 3
REMARK VINA RESULT:    -6.193      1.613      6.567
REMARK INTER + INTRA:          -7.242
REMARK INTER:                  -7.306
REMARK INTRA:                   0.064
REMARK UNBOUND:                 0.037
REMARK SMILES O=c1c(O)c(-c2ccc(O)cc2)oc2cc(O)cc(O)c12
REMARK SMILES IDX 5 1 3 2 2 3 1 4 21 5 19 6 18 7 16 8 15 9 14 10 13 11 6 12
REMARK SMILES IDX 7 13 8 14 9 15 12 16 11 17 10 18 4 20 20 22 17 24
REMARK H PARENT 10 19 4 21 20 23 17 25
REMARK Flexibility Score: inf
ROOT
ATOM      1  C   UNL     1       6.520   5.584 -32.719  1.00  0.00     0.180 A 
ATOM      2  C   UNL     1       5.744   5.361 -33.869  1.00  0.00     0.208 A 
ATOM      3  C   UNL     1       4.356   5.194 -33.732  1.00  0.00     0.238 A 
ATOM      4  O   UNL     1       3.658   5.069 -34.772  1.00  0.00    -0.285 OA
ATOM      5  C   UNL     1       3.770   5.196 -32.442  1.00  0.00     0.111 A 
ATOM      6  C   UNL     1       2.381   4.990 -32.181  1.00  0.00     0.134 A 
ATOM      7  C   UNL     1       1.898   5.119 -30.873  1.00  0.00     0.093 A 
ATOM      8  C   UNL     1       2.762   5.382 -29.808  1.00  0.00     0.123 A 
ATOM      9  C   UNL     1       4.126   5.530 -30.045  1.00  0.00     0.094 A 
ATOM     10  C   UNL     1       4.633   5.444 -31.344  1.00  0.00     0.146 A 
ATOM     11  O   UNL     1       5.937   5.613 -31.526  1.00  0.00    -0.452 OA
ENDROOT
BRANCH   1  12
ATOM     12  C   UNL     1       7.986   5.784 -32.784  1.00  0.00     0.021 A 
ATOM     13  C   UNL     1       8.611   6.847 -32.106  1.00  0.00     0.016 A 
ATOM     14  C   UNL     1      10.000   7.001 -32.162  1.00  0.00     0.047 A 
ATOM     15  C   UNL     1      10.781   6.089 -32.884  1.00  0.00     0.115 A 
ATOM     16  C   UNL     1       8.779   4.863 -33.488  1.00  0.00     0.016 A 
ATOM     17  C   UNL     1      10.167   5.020 -33.543  1.00  0.00     0.047 A 
BRANCH  15  18
ATOM     18  O   UNL     1      12.165   6.234 -32.948  1.00  0.00    -0.508 OA
ATOM     19  H   UNL     1      12.744   6.165 -32.120  1.00  0.00     0.293 HD
ENDBRANCH  15  18
ENDBRANCH   1  12
BRANCH   2  20
ATOM     20  O   UNL     1       6.351   5.286 -35.125  1.00  0.00    -0.502 OA
ATOM     21  H   UNL     1       7.345   5.426 -35.259  1.00  0.00     0.293 HD
ENDBRANCH   2  20
BRANCH   6  22
ATOM     22  O   UNL     1       1.444   4.635 -33.157  1.00  0.00    -0.507 OA
ATOM     23  H   UNL     1       1.588   4.716 -34.152  1.00  0.00     0.293 HD
ENDBRANCH   6  22
BRANCH   8  24
ATOM     24  O   UNL     1       2.274   5.492 -28.508  1.00  0.00    -0.508 OA
ATOM     25  H   UNL     1       1.575   6.182 -28.259  1.00  0.00     0.293 HD
ENDBRANCH   8  24
TORSDOF 5
ENDMDL
MODEL 4
REMARK VINA RESULT:    -6.029      1.956      7.071
REMARK INTER + INTRA:          -7.049
REMARK INTER:                  -6.760
REMARK INTRA:                  -0.289
REMARK UNBOUND:                 0.037
REMARK SMILES O=c1c(O)c(-c2ccc(O)cc2)oc2cc(O)cc(O)c12
REMARK SMILES IDX 5 1 3 2 2 3 1 4 21 5 19 6 18 7 16 8 15 9 14 10 13 11 6 12
REMARK SMILES IDX 7 13 8 14 9 15 12 16 11 17 10 18 4 20 20 22 17 24
REMARK H PARENT 10 19 4 21 20 23 17 25
REMARK Flexibility Score: inf
ROOT
ATOM      1  C   UNL     1       6.546   6.004 -32.700  1.00  0.00     0.180 A 
ATOM      2  C   UNL     1       6.197   6.366 -31.388  1.00  0.00     0.208 A 
ATOM      3  C   UNL     1       4.909   6.063 -30.918  1.00  0.00     0.238 A 
ATOM      4  O   UNL     1       4.628   6.323 -29.719  1.00  0.00    -0.285 OA
ATOM      5  C   UNL     1       3.968   5.452 -31.783  1.00  0.00     0.111 A 
ATOM      6  C   UNL     1       2.620   5.142 -31.428  1.00  0.00     0.134 A 
ATOM      7  C   UNL     1       1.812   4.441 -32.332  1.00  0.00     0.093 A 
ATOM      8  C   UNL     1       2.281   4.098 -33.602  1.00  0.00     0.123 A 
ATOM      9  C   UNL     1       3.576   4.445 -33.978  1.00  0.00     0.094 A 
ATOM     10  C   UNL     1       4.419   5.110 -33.084  1.00  0.00     0.146 A 
ATOM     11  O   UNL     1       5.653   5.403 -33.478  1.00  0.00    -0.452 OA
ENDROOT
BRANCH   1  12
ATOM     12  C   UNL     1       7.889   6.275 -33.263  1.00  0.00     0.021 A 
ATOM     13  C   UNL     1       8.184   7.495 -33.898  1.00  0.00     0.016 A 
ATOM     14  C   UNL     1       9.467   7.738 -34.400  1.00  0.00     0.047 A 
ATOM     15  C   UNL     1      10.472   6.772 -34.261  1.00  0.00     0.115 A 
ATOM     16  C   UNL     1       8.908   5.321 -33.110  1.00  0.00     0.016 A 
ATOM     17  C   UNL     1      10.189   5.566 -33.613  1.00  0.00     0.047 A 
BRANCH  15  18
ATOM     18  O   UNL     1      11.752   7.003 -34.759  1.00  0.00    -0.508 OA
ATOM     19  H   UNL     1      12.411   6.246 -34.898  1.00  0.00     0.293 HD
ENDBRANCH  15  18
ENDBRANCH   1  12
BRANCH   2  20
ATOM     20  O   UNL     1       7.114   7.036 -30.575  1.00  0.00    -0.502 OA
ATOM     21  H   UNL     1       7.270   8.034 -30.638  1.00  0.00     0.293 HD
ENDBRANCH   2  20
BRANCH   6  22
ATOM     22  O   UNL     1       2.022   5.516 -30.221  1.00  0.00    -0.507 OA
ATOM     23  H   UNL     1       2.522   5.778 -29.385  1.00  0.00     0.293 HD
ENDBRANCH   6  22
BRANCH   8  24
ATOM     24  O   UNL     1       1.463   3.416 -34.501  1.00  0.00    -0.508 OA
ATOM     25  H   UNL     1       1.838   2.985 -35.338  1.00  0.00     0.293 HD
ENDBRANCH   8  24
TORSDOF 5
ENDMDL
MODEL 5
REMARK VINA RESULT:    -5.819      3.975      6.885
REMARK INTER + INTRA:          -6.803
REMARK INTER:                  -6.517
REMARK INTRA:                  -0.286
REMARK UNBOUND:                 0.037
REMARK SMILES O=c1c(O)c(-c2ccc(O)cc2)oc2cc(O)cc(O)c12
REMARK SMILES IDX 5 1 3 2 2 3 1 4 21 5 19 6 18 7 16 8 15 9 14 10 13 11 6 12
REMARK SMILES IDX 7 13 8 14 9 15 12 16 11 17 10 18 4 20 20 22 17 24
REMARK H PARENT 10 19 4 21 20 23 17 25
REMARK Flexibility Score: inf
ROOT
ATOM      1  C   UNL     1      11.771   5.771 -32.986  1.00  0.00     0.180 A 
ATOM      2  C   UNL     1      12.526   6.272 -34.060  1.00  0.00     0.208 A 
ATOM      3  C   UNL     1      13.923   6.132 -34.035  1.00  0.00     0.238 A 
ATOM      4  O   UNL     1      14.587   6.515 -35.034  1.00  0.00    -0.285 OA
ATOM      5  C   UNL     1      14.553   5.543 -32.911  1.00  0.00     0.111 A 
ATOM      6  C   UNL     1      15.964   5.391 -32.757  1.00  0.00     0.134 A 
ATOM      7  C   UNL     1      16.467   4.697 -31.649  1.00  0.00     0.093 A 
ATOM      8  C   UNL     1      15.614   4.207 -30.657  1.00  0.00     0.123 A 
ATOM      9  C   UNL     1      14.240   4.399 -30.771  1.00  0.00     0.094 A 
ATOM     10  C   UNL     1      13.705   5.053 -31.883  1.00  0.00     0.146 A 
ATOM     11  O   UNL     1      12.387   5.194 -31.960  1.00  0.00    -0.452 OA
ENDROOT
BRANCH   1  12
ATOM     12  C   UNL     1      10.294   5.868 -32.947  1.00  0.00     0.021 A 
ATOM     13  C   UNL     1       9.481   4.933 -33.614  1.00  0.00     0.016 A 
ATOM     14  C   UNL     1       8.088   5.032 -33.542  1.00  0.00     0.047 A 
ATOM     15  C   UNL     1       7.491   6.054 -32.793  1.00  0.00     0.115 A 
ATOM     16  C   UNL     1       9.688   6.877 -32.181  1.00  0.00     0.016 A 
ATOM     17  C   UNL     1       8.295   6.973 -32.112  1.00  0.00     0.047 A 
BRANCH  15  18
ATOM     18  O   UNL     1       6.104   6.162 -32.716  1.00  0.00    -0.508 OA
ATOM     19  H   UNL     1       5.500   5.379 -32.932  1.00  0.00     0.293 HD
ENDBRANCH  15  18
ENDBRANCH   1  12
BRANCH   2  20
ATOM     20  O   UNL     1      11.893   6.918 -35.125  1.00  0.00    -0.502 OA
ATOM     21  H   UNL     1      11.181   7.624 -34.987  1.00  0.00     0.293 HD
ENDBRANCH   2  20
BRANCH   6  22
ATOM     22  O   UNL     1      16.910   5.918 -33.641  1.00  0.00    -0.507 OA
ATOM     23  H   UNL     1      17.899   5.986 -33.456  1.00  0.00     0.293 HD
ENDBRANCH   6  22
BRANCH   8  24
ATOM     24  O   UNL     1      16.126   3.533 -29.550  1.00  0.00    -0.508 OA
ATOM     25  H   UNL     1      17.069   3.162 -29.543  1.00  0.00     0.293 HD
ENDBRANCH   8  24
TORSDOF 5
ENDMDL
MODEL 6
REMARK VINA RESULT:    -5.656      2.763      7.931
REMARK INTER + INTRA:          -6.611
REMARK INTER:                  -6.325
REMARK INTRA:                  -0.286
REMARK UNBOUND:                 0.037
REMARK SMILES O=c1c(O)c(-c2ccc(O)cc2)oc2cc(O)cc(O)c12
REMARK SMILES IDX 5 1 3 2 2 3 1 4 21 5 19 6 18 7 16 8 15 9 14 10 13 11 6 12
REMARK SMILES IDX 7 13 8 14 9 15 12 16 11 17 10 18 4 20 20 22 17 24
REMARK H PARENT 10 19 4 21 20 23 17 25
REMARK Flexibility Score: inf
ROOT
ATOM      1  C   UNL     1      11.224   5.562 -33.773  1.00  0.00     0.180 A 
ATOM      2  C   UNL     1      10.879   4.348 -34.390  1.00  0.00     0.208 A 
ATOM      3  C   UNL     1       9.568   3.862 -34.253  1.00  0.00     0.238 A 
ATOM      4  O   UNL     1       9.246   2.813 -34.870  1.00  0.00    -0.285 OA
ATOM      5  C   UNL     1       8.635   4.567 -33.455  1.00  0.00     0.111 A 
ATOM      6  C   UNL     1       7.294   4.143 -33.208  1.00  0.00     0.134 A 
ATOM      7  C   UNL     1       6.428   4.976 -32.488  1.00  0.00     0.093 A 
ATOM      8  C   UNL     1       6.873   6.186 -31.950  1.00  0.00     0.123 A 
ATOM      9  C   UNL     1       8.195   6.582 -32.138  1.00  0.00     0.094 A 
ATOM     10  C   UNL     1       9.072   5.791 -32.885  1.00  0.00     0.146 A 
ATOM     11  O   UNL     1      10.317   6.217 -33.057  1.00  0.00    -0.452 OA
ENDROOT
BRANCH   1  12
ATOM     12  C   UNL     1      12.580   6.147 -33.884  1.00  0.00     0.021 A 
ATOM     13  C   UNL     1      13.580   5.863 -32.936  1.00  0.00     0.016 A 
ATOM     14  C   UNL     1      14.860   6.408 -33.076  1.00  0.00     0.047 A 
ATOM     15  C   UNL     1      15.160   7.230 -34.170  1.00  0.00     0.115 A 
ATOM     16  C   UNL     1      12.895   6.955 -34.989  1.00  0.00     0.016 A 
ATOM     17  C   UNL     1      14.176   7.499 -35.125  1.00  0.00     0.047 A 
BRANCH  15  18
ATOM     18  O   UNL     1      16.432   7.779 -34.318  1.00  0.00    -0.508 OA
ATOM     19  H   UNL     1      17.204   7.494 -33.727  1.00  0.00     0.293 HD
ENDBRANCH  15  18
ENDBRANCH   1  12
BRANCH   2  20
ATOM     20  O   UNL     1      11.835   3.628 -35.112  1.00  0.00    -0.502 OA
ATOM     21  H   UNL     1      11.706   3.373 -36.083  1.00  0.00     0.293 HD
ENDBRANCH   2  20
BRANCH   6  22
ATOM     22  O   UNL     1       6.771   2.914 -33.622  1.00  0.00    -0.507 OA
ATOM     23  H   UNL     1       7.077   2.401 -34.434  1.00  0.00     0.293 HD
ENDBRANCH   6  22
BRANCH   8  24
ATOM     24  O   UNL     1       6.009   6.999 -31.220  1.00  0.00    -0.508 OA
ATOM     25  H   UNL     1       5.522   7.777 -31.650  1.00  0.00     0.293 HD
ENDBRANCH   8  24
TORSDOF 5
ENDMDL
MODEL 7
REMARK VINA RESULT:    -5.655      1.275      3.096
REMARK INTER + INTRA:          -6.610
REMARK INTER:                  -6.521
REMARK INTRA:                  -0.089
REMARK UNBOUND:                 0.037
REMARK SMILES O=c1c(O)c(-c2ccc(O)cc2)oc2cc(O)cc(O)c12
REMARK SMILES IDX 5 1 3 2 2 3 1 4 21 5 19 6 18 7 16 8 15 9 14 10 13 11 6 12
REMARK SMILES IDX 7 13 8 14 9 15 12 16 11 17 10 18 4 20 20 22 17 24
REMARK H PARENT 10 19 4 21 20 23 17 25
REMARK Flexibility Score: inf
ROOT
ATOM      1  C   UNL     1       5.712   5.131 -32.022  1.00  0.00     0.180 A 
ATOM      2  C   UNL     1       6.600   6.209 -31.868  1.00  0.00     0.208 A 
ATOM      3  C   UNL     1       7.891   6.111 -32.413  1.00  0.00     0.238 A 
ATOM      4  O   UNL     1       8.655   7.109 -32.337  1.00  0.00    -0.285 OA
ATOM      5  C   UNL     1       8.296   4.916 -33.057  1.00  0.00     0.111 A 
ATOM      6  C   UNL     1       9.595   4.689 -33.605  1.00  0.00     0.134 A 
ATOM      7  C   UNL     1       9.848   3.507 -34.312  1.00  0.00     0.093 A 
ATOM      8  C   UNL     1       8.871   2.516 -34.435  1.00  0.00     0.123 A 
ATOM      9  C   UNL     1       7.619   2.705 -33.855  1.00  0.00     0.094 A 
ATOM     10  C   UNL     1       7.324   3.890 -33.177  1.00  0.00     0.146 A 
ATOM     11  O   UNL     1       6.110   4.036 -32.659  1.00  0.00    -0.452 OA
ENDROOT
BRANCH   1  12
ATOM     12  C   UNL     1       4.331   5.165 -31.489  1.00  0.00     0.021 A 
ATOM     13  C   UNL     1       3.215   5.033 -32.336  1.00  0.00     0.016 A 
ATOM     14  C   UNL     1       1.921   5.043 -31.805  1.00  0.00     0.047 A 
ATOM     15  C   UNL     1       1.727   5.171 -30.424  1.00  0.00     0.115 A 
ATOM     16  C   UNL     1       4.128   5.272 -30.103  1.00  0.00     0.016 A 
ATOM     17  C   UNL     1       2.833   5.283 -29.576  1.00  0.00     0.047 A 
BRANCH  15  18
ATOM     18  O   UNL     1       0.442   5.185 -29.885  1.00  0.00    -0.508 OA
ATOM     19  H   UNL     1       0.077   4.395 -29.366  1.00  0.00     0.293 HD
ENDBRANCH  15  18
ENDBRANCH   1  12
BRANCH   2  20
ATOM     20  O   UNL     1       6.207   7.350 -31.164  1.00  0.00    -0.502 OA
ATOM     21  H   UNL     1       6.651   8.251 -31.296  1.00  0.00     0.293 HD
ENDBRANCH   2  20
BRANCH   6  22
ATOM     22  O   UNL     1      10.670   5.572 -33.466  1.00  0.00    -0.507 OA
ATOM     23  H   UNL     1      10.899   6.074 -32.622  1.00  0.00     0.293 HD
ENDBRANCH   6  22
BRANCH   8  24
ATOM     24  O   UNL     1       9.139   1.336 -35.125  1.00  0.00    -0.508 OA
ATOM     25  H   UNL     1      10.001   1.207 -35.641  1.00  0.00     0.293 HD
ENDBRANCH   8  24
TORSDOF 5
ENDMDL
MODEL 8
REMARK VINA RESULT:    -5.634      7.689     11.037
REMARK INTER + INTRA:          -6.585
REMARK INTER:                  -6.286
REMARK INTRA:                  -0.299
REMARK UNBOUND:                 0.037
REMARK SMILES O=c1c(O)c(-c2ccc(O)cc2)oc2cc(O)cc(O)c12
REMARK SMILES IDX 5 1 3 2 2 3 1 4 21 5 19 6 18 7 16 8 15 9 14 10 13 11 6 12
REMARK SMILES IDX 7 13 8 14 9 15 12 16 11 17 10 18 4 20 20 22 17 24
REMARK H PARENT 10 19 4 21 20 23 17 25
REMARK Flexibility Score: inf
ROOT
ATOM      1  C   UNL     1      15.847   3.776 -31.256  1.00  0.00     0.180 A 
ATOM      2  C   UNL     1      16.150   2.440 -31.570  1.00  0.00     0.208 A 
ATOM      3  C   UNL     1      17.032   1.729 -30.741  1.00  0.00     0.238 A 
ATOM      4  O   UNL     1      17.240   0.511 -30.985  1.00  0.00    -0.285 OA
ATOM      5  C   UNL     1      17.645   2.378 -29.641  1.00  0.00     0.111 A 
ATOM      6  C   UNL     1      18.590   1.768 -28.761  1.00  0.00     0.134 A 
ATOM      7  C   UNL     1      19.050   2.477 -27.644  1.00  0.00     0.093 A 
ATOM      8  C   UNL     1      18.648   3.794 -27.410  1.00  0.00     0.123 A 
ATOM      9  C   UNL     1      17.770   4.416 -28.293  1.00  0.00     0.094 A 
ATOM     10  C   UNL     1      17.264   3.723 -29.396  1.00  0.00     0.146 A 
ATOM     11  O   UNL     1      16.412   4.348 -30.200  1.00  0.00    -0.452 OA
ENDROOT
BRANCH   1  12
ATOM     12  C   UNL     1      14.915   4.587 -32.073  1.00  0.00     0.021 A 
ATOM     13  C   UNL     1      13.530   4.582 -31.825  1.00  0.00     0.016 A 
ATOM     14  C   UNL     1      12.672   5.375 -32.594  1.00  0.00     0.047 A 
ATOM     15  C   UNL     1      13.189   6.190 -33.609  1.00  0.00     0.115 A 
ATOM     16  C   UNL     1      15.426   5.423 -33.079  1.00  0.00     0.016 A 
ATOM     17  C   UNL     1      14.566   6.213 -33.846  1.00  0.00     0.047 A 
BRANCH  15  18
ATOM     18  O   UNL     1      12.343   6.983 -34.383  1.00  0.00    -0.508 OA
ATOM     19  H   UNL     1      12.434   7.991 -34.404  1.00  0.00     0.293 HD
ENDBRANCH  15  18
ENDBRANCH   1  12
BRANCH   2  20
ATOM     20  O   UNL     1      15.594   1.840 -32.703  1.00  0.00    -0.502 OA
ATOM     21  H   UNL     1      14.694   1.376 -32.687  1.00  0.00     0.293 HD
ENDBRANCH   2  20
BRANCH   6  22
ATOM     22  O   UNL     1      19.125   0.490 -28.950  1.00  0.00    -0.507 OA
ATOM     23  H   UNL     1      19.896   0.272 -29.561  1.00  0.00     0.293 HD
ENDBRANCH   6  22
BRANCH   8  24
ATOM     24  O   UNL     1      19.125   4.497 -26.306  1.00  0.00    -0.508 OA
ATOM     25  H   UNL     1      19.515   4.019 -25.501  1.00  0.00     0.293 HD
ENDBRANCH   8  24
TORSDOF 5
ENDMDL
MODEL 9
REMARK VINA RESULT:    -5.430      1.636      6.617
REMARK INTER + INTRA:          -6.345
REMARK INTER:                  -6.049
REMARK INTRA:                  -0.296
REMARK UNBOUND:                 0.037
REMARK SMILES O=c1c(O)c(-c2ccc(O)cc2)oc2cc(O)cc(O)c12
REMARK SMILES IDX 5 1 3 2 2 3 1 4 21 5 19 6 18 7 16 8 15 9 14 10 13 11 6 12
REMARK SMILES IDX 7 13 8 14 9 15 12 16 11 17 10 18 4 20 20 22 17 24
REMARK H PARENT 10 19 4 21 20 23 17 25
REMARK Flexibility Score: inf
ROOT
ATOM      1  C   UNL     1       7.914   5.073 -33.128  1.00  0.00     0.180 A 
ATOM      2  C   UNL     1       7.437   3.824 -33.559  1.00  0.00     0.208 A 
ATOM      3  C   UNL     1       6.194   3.370 -33.089  1.00  0.00     0.238 A 
ATOM      4  O   UNL     1       5.739   2.285 -33.537  1.00  0.00    -0.285 OA
ATOM      5  C   UNL     1       5.469   4.145 -32.151  1.00  0.00     0.111 A 
ATOM      6  C   UNL     1       4.221   3.762 -31.573  1.00  0.00     0.134 A 
ATOM      7  C   UNL     1       3.544   4.659 -30.736  1.00  0.00     0.093 A 
ATOM      8  C   UNL     1       4.100   5.897 -30.406  1.00  0.00     0.123 A 
ATOM      9  C   UNL     1       5.342   6.256 -30.921  1.00  0.00     0.094 A 
ATOM     10  C   UNL     1       6.024   5.400 -31.788  1.00  0.00     0.146 A 
ATOM     11  O   UNL     1       7.196   5.793 -32.273  1.00  0.00    -0.452 OA
ENDROOT
BRANCH   1  12
ATOM     12  C   UNL     1       9.208   5.627 -33.590  1.00  0.00     0.021 A 
ATOM     13  C   UNL     1       9.286   6.458 -34.722  1.00  0.00     0.016 A 
ATOM     14  C   UNL     1      10.517   6.988 -35.125  1.00  0.00     0.047 A 
ATOM     15  C   UNL     1      11.678   6.705 -34.394  1.00  0.00     0.115 A 
ATOM     16  C   UNL     1      10.374   5.365 -32.851  1.00  0.00     0.016 A 
ATOM     17  C   UNL     1      11.602   5.896 -33.257  1.00  0.00     0.047 A 
BRANCH  15  18
ATOM     18  O   UNL     1      12.909   7.227 -34.788  1.00  0.00    -0.508 OA
ATOM     19  H   UNL     1      12.999   7.808 -35.612  1.00  0.00     0.293 HD
ENDBRANCH  15  18
ENDBRANCH   1  12
BRANCH   2  20
ATOM     20  O   UNL     1       8.202   3.039 -34.425  1.00  0.00    -0.502 OA
ATOM     21  H   UNL     1       7.788   2.380 -35.073  1.00  0.00     0.293 HD
ENDBRANCH   2  20
BRANCH   6  22
ATOM     22  O   UNL     1       3.618   2.515 -31.764  1.00  0.00    -0.507 OA
ATOM     23  H   UNL     1       3.322   1.897 -31.025  1.00  0.00     0.293 HD
ENDBRANCH   6  22
BRANCH   8  24
ATOM     24  O   UNL     1       3.426   6.774 -29.559  1.00  0.00    -0.508 OA
ATOM     25  H   UNL     1       3.286   6.562 -28.578  1.00  0.00     0.293 HD
ENDBRANCH   8  24
TORSDOF 5
ENDMDL
