MODEL 1
REMARK VINA RESULT:    -0.008      0.000      0.000
REMARK INTER + INTRA:          -0.604
REMARK INTER:                  -0.012
REMARK INTRA:                  -0.592
REMARK UNBOUND:                -0.592
REMARK SMILES CCCCCCCCCCCC(=O)[O-]
REMARK SMILES IDX 7 1 8 2 9 3 10 4 11 5 12 6 13 7 14 8 6 9 5 10 4 11 3 12 2 13
REMARK SMILES IDX 1 14
REMARK H PARENT
REMARK Flexibility Score: inf
ROOT
ATOM      1  C   UNL     1      10.384  16.418   0.891  1.00  0.00     0.000 C 
ENDROOT
BRANCH   1   2
ATOM      2  C   UNL     1      11.901  16.495   1.127  1.00  0.00     0.000 C 
BRANCH   2   3
ATOM      3  C   UNL     1      12.433  15.308   1.949  1.00  0.00     0.000 C 
BRANCH   3   4
ATOM      4  C   UNL     1      11.418  14.159   2.053  1.00  0.00     0.006 C 
BRANCH   4   5
ATOM      5  C   UNL     1      11.840  12.925   1.244  1.00  0.00     0.053 C 
BRANCH   5   6
ATOM      6  C   UNL     1      11.966  13.270  -0.205  1.00  0.00     0.041 C 
ATOM      7  O   UNL     1      10.956  13.644  -0.858  1.00  0.00    -0.550 OA
ATOM      8  O   UNL     1      13.189  13.133  -0.850  1.00  0.00    -0.550 OA
ENDBRANCH   5   6
ENDBRANCH   4   5
ENDBRANCH   3   4
ENDBRANCH   2   3
ENDBRANCH   1   2
BRANCH   1   9
ATOM      9  C   UNL     1       9.580  17.156   1.973  1.00  0.00     0.000 C 
BRANCH   9  10
ATOM     10  C   UNL     1       8.165  16.577   2.096  1.00  0.00    -0.000 C 
BRANCH  10  11
ATOM     11  C   UNL     1       8.201  15.041   2.125  1.00  0.00    -0.000 C 
BRANCH  11  12
ATOM     12  C   UNL     1       7.156  14.407   1.194  1.00  0.00    -0.000 C 
BRANCH  12  13
ATOM     13  C   UNL     1       5.738  14.444   1.785  1.00  0.00    -0.003 C 
ATOM     14  C   UNL     1       4.762  13.655   0.917  1.00  0.00     0.004 C 
ENDBRANCH  12  13
ENDBRANCH  11  12
ENDBRANCH  10  11
ENDBRANCH   9  10
ENDBRANCH   1   9
TORSDOF 10
ENDMDL
MODEL 2
REMARK VINA RESULT:     0.908      1.999      3.261
REMARK INTER + INTRA:           0.847
REMARK INTER:                   0.979
REMARK INTRA:                  -0.132
REMARK UNBOUND:                -0.592
REMARK SMILES CCCCCCCCCCCC(=O)[O-]
REMARK SMILES IDX 7 1 8 2 9 3 10 4 11 5 12 6 13 7 14 8 6 9 5 10 4 11 3 12 2 13
REMARK SMILES IDX 1 14
REMARK H PARENT
REMARK Flexibility Score: inf
ROOT
ATOM      1  C   UNL     1      10.279  14.755  -0.097  1.00  0.00     0.000 C 
ENDROOT
BRANCH   1   2
ATOM      2  C   UNL     1      10.995  13.662  -0.905  1.00  0.00     0.000 C 
BRANCH   2   3
ATOM      3  C   UNL     1      12.335  13.242  -0.277  1.00  0.00     0.000 C 
BRANCH   3   4
ATOM      4  C   UNL     1      12.207  12.907   1.217  1.00  0.00     0.006 C 
BRANCH   4   5
ATOM      5  C   UNL     1      13.283  13.592   2.070  1.00  0.00     0.053 C 
BRANCH   5   6
ATOM      6  C   UNL     1      13.073  15.072   2.083  1.00  0.00     0.041 C 
ATOM      7  O   UNL     1      14.060  15.853   2.124  1.00  0.00    -0.550 OA
ATOM      8  O   UNL     1      11.784  15.592   2.097  1.00  0.00    -0.550 OA
ENDBRANCH   5   6
ENDBRANCH   4   5
ENDBRANCH   3   4
ENDBRANCH   2   3
ENDBRANCH   1   2
BRANCH   1   9
ATOM      9  C   UNL     1       8.816  14.400   0.212  1.00  0.00     0.000 C 
BRANCH   9  10
ATOM     10  C   UNL     1       8.598  14.240   1.722  1.00  0.00    -0.000 C 
BRANCH  10  11
ATOM     11  C   UNL     1       7.162  14.622   2.112  1.00  0.00    -0.000 C 
BRANCH  11  12
ATOM     12  C   UNL     1       6.897  16.131   1.993  1.00  0.00    -0.000 C 
BRANCH  12  13
ATOM     13  C   UNL     1       8.178  16.968   2.124  1.00  0.00    -0.003 C 
ATOM     14  C   UNL     1       8.039  18.301   1.395  1.00  0.00     0.004 C 
ENDBRANCH  12  13
ENDBRANCH  11  12
ENDBRANCH  10  11
ENDBRANCH   9  10
ENDBRANCH   1   9
TORSDOF 10
ENDMDL
MODEL 3
REMARK VINA RESULT:     0.917      2.049      3.190
REMARK INTER + INTRA:           0.862
REMARK INTER:                  -0.092
REMARK INTRA:                   0.954
REMARK UNBOUND:                -0.592
REMARK SMILES CCCCCCCCCCCC(=O)[O-]
REMARK SMILES IDX 7 1 8 2 9 3 10 4 11 5 12 6 13 7 14 8 6 9 5 10 4 11 3 12 2 13
REMARK SMILES IDX 1 14
REMARK H PARENT
REMARK Flexibility Score: inf
ROOT
ATOM      1  C   UNL     1      11.606  14.099  -0.735  1.00  0.00     0.000 C 
ENDROOT
BRANCH   1   2
ATOM      2  C   UNL     1      12.403  12.875  -0.257  1.00  0.00     0.000 C 
BRANCH   2   3
ATOM      3  C   UNL     1      12.650  12.886   1.262  1.00  0.00     0.000 C 
BRANCH   3   4
ATOM      4  C   UNL     1      12.768  14.309   1.830  1.00  0.00     0.006 C 
BRANCH   4   5
ATOM      5  C   UNL     1      11.401  14.956   2.086  1.00  0.00     0.053 C 
BRANCH   5   6
ATOM      6  C   UNL     1      11.481  16.437   1.897  1.00  0.00     0.041 C 
ATOM      7  O   UNL     1      12.560  17.047   2.118  1.00  0.00    -0.550 OA
ATOM      8  O   UNL     1      10.351  17.153   1.522  1.00  0.00    -0.550 OA
ENDBRANCH   5   6
ENDBRANCH   4   5
ENDBRANCH   3   4
ENDBRANCH   2   3
ENDBRANCH   1   2
BRANCH   1   9
ATOM      9  C   UNL     1      10.097  13.824  -0.828  1.00  0.00     0.000 C 
BRANCH   9  10
ATOM     10  C   UNL     1       9.474  13.706   0.569  1.00  0.00    -0.000 C 
BRANCH  10  11
ATOM     11  C   UNL     1       8.021  14.204   0.565  1.00  0.00    -0.000 C 
BRANCH  11  12
ATOM     12  C   UNL     1       7.652  14.962   1.850  1.00  0.00    -0.000 C 
BRANCH  12  13
ATOM     13  C   UNL     1       6.140  14.975   2.116  1.00  0.00    -0.003 C 
ATOM     14  C   UNL     1       5.424  13.932   1.263  1.00  0.00     0.004 C 
ENDBRANCH  12  13
ENDBRANCH  11  12
ENDBRANCH  10  11
ENDBRANCH   9  10
ENDBRANCH   1   9
TORSDOF 10
ENDMDL
MODEL 4
REMARK VINA RESULT:     2.856      4.217      6.428
REMARK INTER + INTRA:           3.934
REMARK INTER:                   4.358
REMARK INTRA:                  -0.424
REMARK UNBOUND:                -0.592
REMARK SMILES CCCCCCCCCCCC(=O)[O-]
REMARK SMILES IDX 7 1 8 2 9 3 10 4 11 5 12 6 13 7 14 8 6 9 5 10 4 11 3 12 2 13
REMARK SMILES IDX 1 14
REMARK H PARENT
REMARK Flexibility Score: inf
ROOT
ATOM      1  C   UNL     1      11.374  14.041  -1.459  1.00  0.00     0.000 C 
ENDROOT
BRANCH   1   2
ATOM      2  C   UNL     1      10.700  13.558  -0.165  1.00  0.00     0.000 C 
BRANCH   2   3
ATOM      3  C   UNL     1      11.684  13.459   1.014  1.00  0.00     0.000 C 
BRANCH   3   4
ATOM      4  C   UNL     1      11.584  14.659   1.968  1.00  0.00     0.006 C 
BRANCH   4   5
ATOM      5  C   UNL     1      10.164  15.235   2.043  1.00  0.00     0.053 C 
BRANCH   5   6
ATOM      6  C   UNL     1      10.168  16.682   1.665  1.00  0.00     0.041 C 
ATOM      7  O   UNL     1      11.239  17.242   1.311  1.00  0.00    -0.550 OA
ATOM      8  O   UNL     1       8.998  17.426   1.751  1.00  0.00    -0.550 OA
ENDBRANCH   5   6
ENDBRANCH   4   5
ENDBRANCH   3   4
ENDBRANCH   2   3
ENDBRANCH   1   2
BRANCH   1   9
ATOM      9  C   UNL     1      10.362  14.353  -2.572  1.00  0.00     0.000 C 
BRANCH   9  10
ATOM     10  C   UNL     1      11.037  14.330  -3.949  1.00  0.00    -0.000 C 
BRANCH  10  11
ATOM     11  C   UNL     1      10.787  15.644  -4.705  1.00  0.00    -0.000 C 
BRANCH  11  12
ATOM     12  C   UNL     1      11.893  15.960  -5.724  1.00  0.00    -0.000 C 
BRANCH  12  13
ATOM     13  C   UNL     1      12.293  17.443  -5.722  1.00  0.00    -0.003 C 
ATOM     14  C   UNL     1      13.672  17.640  -6.346  1.00  0.00     0.004 C 
ENDBRANCH  12  13
ENDBRANCH  11  12
ENDBRANCH  10  11
ENDBRANCH   9  10
ENDBRANCH   1   9
TORSDOF 10
ENDMDL
