MODEL 1
REMARK VINA RESULT:    -3.326      0.000      0.000
REMARK INTER + INTRA:          -3.326
REMARK INTER:                  -3.326
REMARK INTRA:                   0.000
REMARK UNBOUND:                 0.000
REMARK SMILES CC1(C)C(=O)[C@]2(C)CC[C@H]1C2
REMARK SMILES IDX 1 1 2 2 10 3 9 4 8 5 6 6 11 7 4 8 5 9 7 10 3 11
REMARK H PARENT
REMARK Flexibility Score: inf
ROOT
ATOM      1  C   UNL     1     143.289 147.659 141.363  1.00  0.00     0.020 C 
ATOM      2  C   UNL     1     141.783 147.362 141.524  1.00  0.00     0.027 C 
ATOM      3  C   UNL     1     140.855 148.619 141.357  1.00  0.00     0.003 C 
ATOM      4  C   UNL     1     141.224 149.421 140.083  1.00  0.00     0.005 C 
ATOM      5  C   UNL     1     140.804 148.472 138.938  1.00  0.00     0.015 C 
ATOM      6  C   UNL     1     140.159 147.296 139.696  1.00  0.00     0.027 C 
ATOM      7  C   UNL     1     139.538 148.002 140.884  1.00  0.00     0.019 C 
ATOM      8  C   UNL     1     141.260 146.537 140.383  1.00  0.00     0.144 C 
ATOM      9  O   UNL     1     141.709 145.457 140.025  1.00  0.00    -0.298 OA
ATOM     10  C   UNL     1     139.186 146.443 138.879  1.00  0.00     0.020 C 
ATOM     11  C   UNL     1     141.548 146.657 142.877  1.00  0.00     0.020 C 
ENDROOT
TORSDOF 0
ENDMDL
MODEL 2
REMARK VINA RESULT:    -3.322      8.363      9.682
REMARK INTER + INTRA:          -3.322
REMARK INTER:                  -3.322
REMARK INTRA:                   0.000
REMARK UNBOUND:                 0.000
REMARK SMILES CC1(C)C(=O)[C@]2(C)CC[C@H]1C2
REMARK SMILES IDX 1 1 2 2 10 3 9 4 8 5 6 6 11 7 4 8 5 9 7 10 3 11
REMARK H PARENT
REMARK Flexibility Score: inf
ROOT
ATOM      1  C   UNL     1     147.680 138.344 141.413  1.00  0.00     0.020 C 
ATOM      2  C   UNL     1     147.398 139.855 141.552  1.00  0.00     0.027 C 
ATOM      3  C   UNL     1     148.668 140.767 141.397  1.00  0.00     0.003 C 
ATOM      4  C   UNL     1     149.488 140.374 140.141  1.00  0.00     0.005 C 
ATOM      5  C   UNL     1     148.562 140.792 138.975  1.00  0.00     0.015 C 
ATOM      6  C   UNL     1     147.381 141.459 139.706  1.00  0.00     0.027 C 
ATOM      7  C   UNL     1     148.076 142.085 140.899  1.00  0.00     0.019 C 
ATOM      8  C   UNL     1     146.599 140.374 140.392  1.00  0.00     0.144 C 
ATOM      9  O   UNL     1     145.520 139.934 140.022  1.00  0.00    -0.298 OA
ATOM     10  C   UNL     1     146.554 142.433 138.864  1.00  0.00     0.020 C 
ATOM     11  C   UNL     1     146.674 140.113 142.891  1.00  0.00     0.020 C 
ENDROOT
TORSDOF 0
ENDMDL
MODEL 3
REMARK VINA RESULT:    -3.317      1.364      2.930
REMARK INTER + INTRA:          -3.317
REMARK INTER:                  -3.317
REMARK INTRA:                   0.000
REMARK UNBOUND:                 0.000
REMARK SMILES CC1(C)C(=O)[C@]2(C)CC[C@H]1C2
REMARK SMILES IDX 1 1 2 2 10 3 9 4 8 5 6 6 11 7 4 8 5 9 7 10 3 11
REMARK H PARENT
REMARK Flexibility Score: inf
ROOT
ATOM      1  C   UNL     1     142.460 148.599 138.863  1.00  0.00     0.020 C 
ATOM      2  C   UNL     1     141.780 148.843 140.228  1.00  0.00     0.027 C 
ATOM      3  C   UNL     1     140.272 148.406 140.287  1.00  0.00     0.003 C 
ATOM      4  C   UNL     1     140.082 146.977 139.715  1.00  0.00     0.005 C 
ATOM      5  C   UNL     1     140.789 146.085 140.761  1.00  0.00     0.015 C 
ATOM      6  C   UNL     1     141.203 147.101 141.844  1.00  0.00     0.027 C 
ATOM      7  C   UNL     1     140.070 148.103 141.771  1.00  0.00     0.019 C 
ATOM      8  C   UNL     1     142.327 147.928 141.285  1.00  0.00     0.144 C 
ATOM      9  O   UNL     1     143.507 147.821 141.589  1.00  0.00    -0.298 OA
ATOM     10  C   UNL     1     141.450 146.512 143.235  1.00  0.00     0.020 C 
ATOM     11  C   UNL     1     141.958 150.325 140.623  1.00  0.00     0.020 C 
ENDROOT
TORSDOF 0
ENDMDL
MODEL 4
REMARK VINA RESULT:    -3.311      8.356      9.682
REMARK INTER + INTRA:          -3.311
REMARK INTER:                  -3.311
REMARK INTRA:                   0.000
REMARK UNBOUND:                 0.000
REMARK SMILES CC1(C)C(=O)[C@]2(C)CC[C@H]1C2
REMARK SMILES IDX 1 1 2 2 10 3 9 4 8 5 6 6 11 7 4 8 5 9 7 10 3 11
REMARK H PARENT
REMARK Flexibility Score: inf
ROOT
ATOM      1  C   UNL     1     133.941 143.299 141.403  1.00  0.00     0.020 C 
ATOM      2  C   UNL     1     134.228 141.789 141.549  1.00  0.00     0.027 C 
ATOM      3  C   UNL     1     132.956 140.875 141.425  1.00  0.00     0.003 C 
ATOM      4  C   UNL     1     132.111 141.257 140.183  1.00  0.00     0.005 C 
ATOM      5  C   UNL     1     133.014 140.831 139.002  1.00  0.00     0.015 C 
ATOM      6  C   UNL     1     134.210 140.171 139.716  1.00  0.00     0.027 C 
ATOM      7  C   UNL     1     133.541 139.554 140.927  1.00  0.00     0.019 C 
ATOM      8  C   UNL     1     135.005 141.262 140.377  1.00  0.00     0.144 C 
ATOM      9  O   UNL     1     136.076 141.701 139.982  1.00  0.00    -0.298 OA
ATOM     10  C   UNL     1     135.022 139.192 138.865  1.00  0.00     0.020 C 
ATOM     11  C   UNL     1     134.979 141.543 142.875  1.00  0.00     0.020 C 
ENDROOT
TORSDOF 0
ENDMDL
MODEL 5
REMARK VINA RESULT:    -3.295     12.492     13.691
REMARK INTER + INTRA:          -3.295
REMARK INTER:                  -3.295
REMARK INTRA:                   0.000
REMARK UNBOUND:                 0.000
REMARK SMILES CC1(C)C(=O)[C@]2(C)CC[C@H]1C2
REMARK SMILES IDX 1 1 2 2 10 3 9 4 8 5 6 6 11 7 4 8 5 9 7 10 3 11
REMARK H PARENT
REMARK Flexibility Score: inf
ROOT
ATOM      1  C   UNL     1     138.333 133.974 141.430  1.00  0.00     0.020 C 
ATOM      2  C   UNL     1     139.845 134.254 141.570  1.00  0.00     0.027 C 
ATOM      3  C   UNL     1     140.752 132.977 141.453  1.00  0.00     0.003 C 
ATOM      4  C   UNL     1     140.363 132.126 140.217  1.00  0.00     0.005 C 
ATOM      5  C   UNL     1     140.790 133.018 139.029  1.00  0.00     0.015 C 
ATOM      6  C   UNL     1     141.458 134.216 139.733  1.00  0.00     0.027 C 
ATOM      7  C   UNL     1     142.075 133.552 140.947  1.00  0.00     0.019 C 
ATOM      8  C   UNL     1     140.373 135.021 140.392  1.00  0.00     0.144 C 
ATOM      9  O   UNL     1     139.938 136.091 139.990  1.00  0.00    -0.298 OA
ATOM     10  C   UNL     1     142.439 135.017 138.874  1.00  0.00     0.020 C 
ATOM     11  C   UNL     1     140.099 135.014 142.890  1.00  0.00     0.020 C 
ENDROOT
TORSDOF 0
ENDMDL
MODEL 6
REMARK VINA RESULT:    -3.291     12.940     14.161
REMARK INTER + INTRA:          -3.291
REMARK INTER:                  -3.291
REMARK INTRA:                   0.000
REMARK UNBOUND:                 0.000
REMARK SMILES CC1(C)C(=O)[C@]2(C)CC[C@H]1C2
REMARK SMILES IDX 1 1 2 2 10 3 9 4 8 5 6 6 11 7 4 8 5 9 7 10 3 11
REMARK H PARENT
REMARK Flexibility Score: inf
ROOT
ATOM      1  C   UNL     1     139.282 132.863 138.726  1.00  0.00     0.020 C 
ATOM      2  C   UNL     1     139.945 132.660 140.106  1.00  0.00     0.027 C 
ATOM      3  C   UNL     1     141.433 133.160 140.188  1.00  0.00     0.003 C 
ATOM      4  C   UNL     1     141.575 134.590 139.606  1.00  0.00     0.005 C 
ATOM      5  C   UNL     1     140.812 135.462 140.629  1.00  0.00     0.015 C 
ATOM      6  C   UNL     1     140.420 134.440 141.714  1.00  0.00     0.027 C 
ATOM      7  C   UNL     1     141.595 133.484 141.673  1.00  0.00     0.019 C 
ATOM      8  C   UNL     1     139.341 133.562 141.144  1.00  0.00     0.144 C 
ATOM      9  O   UNL     1     138.153 133.622 141.424  1.00  0.00    -0.298 OA
ATOM     10  C   UNL     1     140.123 135.031 143.094  1.00  0.00     0.020 C 
ATOM     11  C   UNL     1     139.821 131.176 140.513  1.00  0.00     0.020 C 
ENDROOT
TORSDOF 0
ENDMDL
MODEL 7
REMARK VINA RESULT:    -3.282      8.926     10.313
REMARK INTER + INTRA:          -3.282
REMARK INTER:                  -3.282
REMARK INTRA:                   0.000
REMARK UNBOUND:                 0.000
REMARK SMILES CC1(C)C(=O)[C@]2(C)CC[C@H]1C2
REMARK SMILES IDX 1 1 2 2 10 3 9 4 8 5 6 6 11 7 4 8 5 9 7 10 3 11
REMARK H PARENT
REMARK Flexibility Score: inf
ROOT
ATOM      1  C   UNL     1     148.804 139.349 138.658  1.00  0.00     0.020 C 
ATOM      2  C   UNL     1     149.003 139.984 140.052  1.00  0.00     0.027 C 
ATOM      3  C   UNL     1     148.485 141.463 140.168  1.00  0.00     0.003 C 
ATOM      4  C   UNL     1     147.052 141.600 139.593  1.00  0.00     0.005 C 
ATOM      5  C   UNL     1     146.192 140.804 140.602  1.00  0.00     0.015 C 
ATOM      6  C   UNL     1     147.222 140.401 141.675  1.00  0.00     0.027 C 
ATOM      7  C   UNL     1     148.163 141.589 141.657  1.00  0.00     0.019 C 
ATOM      8  C   UNL     1     148.113 139.347 141.079  1.00  0.00     0.144 C 
ATOM      9  O   UNL     1     148.068 138.152 141.334  1.00  0.00    -0.298 OA
ATOM     10  C   UNL     1     146.640 140.067 143.050  1.00  0.00     0.020 C 
ATOM     11  C   UNL     1     150.490 139.870 140.452  1.00  0.00     0.020 C 
ENDROOT
TORSDOF 0
ENDMDL
MODEL 8
REMARK VINA RESULT:    -3.281      8.799     10.134
REMARK INTER + INTRA:          -3.281
REMARK INTER:                  -3.281
REMARK INTRA:                   0.000
REMARK UNBOUND:                 0.000
REMARK SMILES CC1(C)C(=O)[C@]2(C)CC[C@H]1C2
REMARK SMILES IDX 1 1 2 2 10 3 9 4 8 5 6 6 11 7 4 8 5 9 7 10 3 11
REMARK H PARENT
REMARK Flexibility Score: inf
ROOT
ATOM      1  C   UNL     1     132.885 142.237 138.685  1.00  0.00     0.020 C 
ATOM      2  C   UNL     1     132.691 141.653 140.101  1.00  0.00     0.027 C 
ATOM      3  C   UNL     1     133.181 140.169 140.261  1.00  0.00     0.003 C 
ATOM      4  C   UNL     1     134.604 139.984 139.674  1.00  0.00     0.005 C 
ATOM      5  C   UNL     1     135.491 140.795 140.646  1.00  0.00     0.015 C 
ATOM      6  C   UNL     1     134.483 141.255 141.717  1.00  0.00     0.027 C 
ATOM      7  C   UNL     1     133.518 140.087 141.749  1.00  0.00     0.019 C 
ATOM      8  C   UNL     1     133.606 142.307 141.096  1.00  0.00     0.144 C 
ATOM      9  O   UNL     1     133.678 143.509 141.309  1.00  0.00    -0.298 OA
ATOM     10  C   UNL     1     135.088 141.623 143.073  1.00  0.00     0.020 C 
ATOM     11  C   UNL     1     131.211 141.811 140.515  1.00  0.00     0.020 C 
ENDROOT
TORSDOF 0
ENDMDL
MODEL 9
REMARK VINA RESULT:    -3.188      8.170      9.603
REMARK INTER + INTRA:          -3.188
REMARK INTER:                  -3.188
REMARK INTRA:                   0.000
REMARK UNBOUND:                 0.000
REMARK SMILES CC1(C)C(=O)[C@]2(C)CC[C@H]1C2
REMARK SMILES IDX 1 1 2 2 10 3 9 4 8 5 6 6 11 7 4 8 5 9 7 10 3 11
REMARK H PARENT
REMARK Flexibility Score: inf
ROOT
ATOM      1  C   UNL     1     132.467 141.001 139.028  1.00  0.00     0.020 C 
ATOM      2  C   UNL     1     133.872 140.895 139.660  1.00  0.00     0.027 C 
ATOM      3  C   UNL     1     134.715 142.219 139.588  1.00  0.00     0.003 C 
ATOM      4  C   UNL     1     133.882 143.437 140.063  1.00  0.00     0.005 C 
ATOM      5  C   UNL     1     133.702 143.171 141.574  1.00  0.00     0.015 C 
ATOM      6  C   UNL     1     134.535 141.893 141.792  1.00  0.00     0.027 C 
ATOM      7  C   UNL     1     135.653 142.083 140.787  1.00  0.00     0.019 C 
ATOM      8  C   UNL     1     133.794 140.751 141.153  1.00  0.00     0.144 C 
ATOM      9  O   UNL     1     133.167 139.889 141.750  1.00  0.00    -0.298 OA
ATOM     10  C   UNL     1     135.001 141.650 143.229  1.00  0.00     0.020 C 
ATOM     11  C   UNL     1     134.625 139.707 139.023  1.00  0.00     0.020 C 
ENDROOT
TORSDOF 0
ENDMDL
