MODEL 1
REMARK VINA RESULT:    -3.955      0.000      0.000
REMARK INTER + INTRA:         -12.561
REMARK INTER:                  -9.041
REMARK INTRA:                  -3.520
REMARK UNBOUND:                -3.520
REMARK SMILES CCCCCCCCCCCCCCCCCCCCCCCC(=O)[O-]
REMARK SMILES IDX 13 1 14 2 15 3 16 4 17 5 18 6 19 7 20 8 21 9 22 10 23 11
REMARK SMILES IDX 24 12 25 13 26 14 12 15 11 16 10 17 9 18 8 19 7 20 6 21 5 22
REMARK SMILES IDX 4 23 3 24 2 25 1 26
REMARK H PARENT
REMARK Flexibility Score: inf
ROOT
ATOM      1  C   UNL     1      12.806 -10.757  21.401  1.00  0.00     0.000 C 
ENDROOT
BRANCH   1   2
ATOM      2  C   UNL     1      12.997  -9.229  21.378  1.00  0.00     0.000 C 
BRANCH   2   3
ATOM      3  C   UNL     1      13.409  -8.703  19.990  1.00  0.00     0.000 C 
BRANCH   3   4
ATOM      4  C   UNL     1      13.753  -9.800  18.965  1.00  0.00     0.000 C 
BRANCH   4   5
ATOM      5  C   UNL     1      12.625 -10.037  17.947  1.00  0.00     0.000 C 
BRANCH   5   6
ATOM      6  C   UNL     1      13.068 -10.901  16.752  1.00  0.00     0.000 C 
BRANCH   6   7
ATOM      7  C   UNL     1      12.011 -11.896  16.239  1.00  0.00     0.000 C 
BRANCH   7   8
ATOM      8  C   UNL     1      10.879 -11.218  15.454  1.00  0.00     0.000 C 
BRANCH   8   9
ATOM      9  C   UNL     1      11.406 -10.610  14.149  1.00  0.00     0.000 C 
BRANCH   9  10
ATOM     10  C   UNL     1      10.292 -10.515  13.097  1.00  0.00     0.006 C 
BRANCH  10  11
ATOM     11  C   UNL     1      10.540  -9.346  12.138  1.00  0.00     0.053 C 
BRANCH  11  12
ATOM     12  C   UNL     1       9.427  -9.230  11.146  1.00  0.00     0.041 C 
ATOM     13  O   UNL     1       8.354  -9.869  11.319  1.00  0.00    -0.550 OA
ATOM     14  O   UNL     1       9.580  -8.437  10.014  1.00  0.00    -0.550 OA
ENDBRANCH  11  12
ENDBRANCH  10  11
ENDBRANCH   9  10
ENDBRANCH   8   9
ENDBRANCH   7   8
ENDBRANCH   6   7
ENDBRANCH   5   6
ENDBRANCH   4   5
ENDBRANCH   3   4
ENDBRANCH   2   3
ENDBRANCH   1   2
BRANCH   1  15
ATOM     15  C   UNL     1      13.832 -11.476  22.299  1.00  0.00     0.000 C 
BRANCH  15  16
ATOM     16  C   UNL     1      15.006 -12.137  21.553  1.00  0.00     0.000 C 
BRANCH  16  17
ATOM     17  C   UNL     1      14.630 -13.487  20.918  1.00  0.00     0.000 C 
BRANCH  17  18
ATOM     18  C   UNL     1      14.255 -13.362  19.430  1.00  0.00    -0.000 C 
BRANCH  18  19
ATOM     19  C   UNL     1      13.040 -14.223  19.022  1.00  0.00    -0.000 C 
BRANCH  19  20
ATOM     20  C   UNL     1      12.195 -14.643  20.239  1.00  0.00    -0.000 C 
BRANCH  20  21
ATOM     21  C   UNL     1      10.735 -14.162  20.153  1.00  0.00    -0.000 C 
BRANCH  21  22
ATOM     22  C   UNL     1      10.194 -13.496  21.433  1.00  0.00    -0.000 C 
BRANCH  22  23
ATOM     23  C   UNL     1       9.335 -12.254  21.145  1.00  0.00    -0.000 C 
BRANCH  23  24
ATOM     24  C   UNL     1       9.570 -11.744  19.717  1.00  0.00    -0.000 C 
BRANCH  24  25
ATOM     25  C   UNL     1       9.410 -10.221  19.644  1.00  0.00    -0.003 C 
ATOM     26  C   UNL     1       9.260  -9.616  21.036  1.00  0.00     0.004 C 
ENDBRANCH  24  25
ENDBRANCH  23  24
ENDBRANCH  22  23
ENDBRANCH  21  22
ENDBRANCH  20  21
ENDBRANCH  19  20
ENDBRANCH  18  19
ENDBRANCH  17  18
ENDBRANCH  16  17
ENDBRANCH  15  16
ENDBRANCH   1  15
TORSDOF 22
ENDMDL
MODEL 2
REMARK VINA RESULT:    -3.945      2.271      4.212
REMARK INTER + INTRA:         -12.538
REMARK INTER:                  -8.824
REMARK INTRA:                  -3.714
REMARK UNBOUND:                -3.520
REMARK SMILES CCCCCCCCCCCCCCCCCCCCCCCC(=O)[O-]
REMARK SMILES IDX 13 1 14 2 15 3 16 4 17 5 18 6 19 7 20 8 21 9 22 10 23 11
REMARK SMILES IDX 24 12 25 13 26 14 12 15 11 16 10 17 9 18 8 19 7 20 6 21 5 22
REMARK SMILES IDX 4 23 3 24 2 25 1 26
REMARK H PARENT
REMARK Flexibility Score: inf
ROOT
ATOM      1  C   UNL     1      13.826 -13.173  16.350  1.00  0.00     0.000 C 
ENDROOT
BRANCH   1   2
ATOM      2  C   UNL     1      14.348 -12.449  17.604  1.00  0.00     0.000 C 
BRANCH   2   3
ATOM      3  C   UNL     1      13.390 -12.573  18.804  1.00  0.00     0.000 C 
BRANCH   3   4
ATOM      4  C   UNL     1      12.934 -11.229  19.402  1.00  0.00     0.000 C 
BRANCH   4   5
ATOM      5  C   UNL     1      11.416 -11.009  19.281  1.00  0.00     0.000 C 
BRANCH   5   6
ATOM      6  C   UNL     1      11.054  -9.804  18.394  1.00  0.00     0.000 C 
BRANCH   6   7
ATOM      7  C   UNL     1      11.760  -9.763  17.026  1.00  0.00     0.000 C 
BRANCH   7   8
ATOM      8  C   UNL     1      11.205 -10.796  16.034  1.00  0.00     0.000 C 
BRANCH   8   9
ATOM      9  C   UNL     1      11.772 -10.563  14.629  1.00  0.00     0.000 C 
BRANCH   9  10
ATOM     10  C   UNL     1      10.657 -10.589  13.574  1.00  0.00     0.006 C 
BRANCH  10  11
ATOM     11  C   UNL     1      10.847  -9.470  12.545  1.00  0.00     0.053 C 
BRANCH  11  12
ATOM     12  C   UNL     1       9.690  -9.421  11.597  1.00  0.00     0.041 C 
ATOM     13  O   UNL     1       9.763  -8.734  10.544  1.00  0.00    -0.550 OA
ATOM     14  O   UNL     1       8.521 -10.115  11.888  1.00  0.00    -0.550 OA
ENDBRANCH  11  12
ENDBRANCH  10  11
ENDBRANCH   9  10
ENDBRANCH   8   9
ENDBRANCH   7   8
ENDBRANCH   6   7
ENDBRANCH   5   6
ENDBRANCH   4   5
ENDBRANCH   3   4
ENDBRANCH   2   3
ENDBRANCH   1   2
BRANCH   1  15
ATOM     15  C   UNL     1      12.688 -14.165  16.660  1.00  0.00     0.000 C 
BRANCH  15  16
ATOM     16  C   UNL     1      12.880 -15.581  16.084  1.00  0.00     0.000 C 
BRANCH  16  17
ATOM     17  C   UNL     1      14.341 -15.886  15.712  1.00  0.00     0.000 C 
BRANCH  17  18
ATOM     18  C   UNL     1      14.773 -17.308  16.113  1.00  0.00    -0.000 C 
BRANCH  18  19
ATOM     19  C   UNL     1      15.737 -17.346  17.318  1.00  0.00    -0.000 C 
BRANCH  19  20
ATOM     20  C   UNL     1      15.755 -16.012  18.086  1.00  0.00    -0.000 C 
BRANCH  20  21
ATOM     21  C   UNL     1      15.558 -16.187  19.603  1.00  0.00    -0.000 C 
BRANCH  21  22
ATOM     22  C   UNL     1      14.144 -15.852  20.116  1.00  0.00    -0.000 C 
BRANCH  22  23
ATOM     23  C   UNL     1      13.063 -16.782  19.541  1.00  0.00    -0.000 C 
BRANCH  23  24
ATOM     24  C   UNL     1      11.659 -16.218  19.800  1.00  0.00    -0.000 C 
BRANCH  24  25
ATOM     25  C   UNL     1      11.719 -14.999  20.728  1.00  0.00    -0.003 C 
ATOM     26  C   UNL     1      10.323 -14.571  21.167  1.00  0.00     0.004 C 
ENDBRANCH  24  25
ENDBRANCH  23  24
ENDBRANCH  22  23
ENDBRANCH  21  22
ENDBRANCH  20  21
ENDBRANCH  19  20
ENDBRANCH  18  19
ENDBRANCH  17  18
ENDBRANCH  16  17
ENDBRANCH  15  16
ENDBRANCH   1  15
TORSDOF 22
ENDMDL
MODEL 3
REMARK VINA RESULT:    -3.849      3.644      6.760
REMARK INTER + INTRA:         -12.319
REMARK INTER:                  -7.399
REMARK INTRA:                  -4.920
REMARK UNBOUND:                -3.520
REMARK SMILES CCCCCCCCCCCCCCCCCCCCCCCC(=O)[O-]
REMARK SMILES IDX 13 1 14 2 15 3 16 4 17 5 18 6 19 7 20 8 21 9 22 10 23 11
REMARK SMILES IDX 24 12 25 13 26 14 12 15 11 16 10 17 9 18 8 19 7 20 6 21 5 22
REMARK SMILES IDX 4 23 3 24 2 25 1 26
REMARK H PARENT
REMARK Flexibility Score: inf
ROOT
ATOM      1  C   UNL     1      11.325 -12.483  18.195  1.00  0.00     0.000 C 
ENDROOT
BRANCH   1   2
ATOM      2  C   UNL     1      10.748 -12.888  19.564  1.00  0.00     0.000 C 
BRANCH   2   3
ATOM      3  C   UNL     1      11.037 -14.359  19.918  1.00  0.00     0.000 C 
BRANCH   3   4
ATOM      4  C   UNL     1      10.689 -14.750  21.367  1.00  0.00     0.000 C 
BRANCH   4   5
ATOM      5  C   UNL     1      10.419 -13.529  22.263  1.00  0.00     0.000 C 
BRANCH   5   6
ATOM      6  C   UNL     1      11.479 -13.347  23.365  1.00  0.00     0.000 C 
BRANCH   6   7
ATOM      7  C   UNL     1      12.339 -14.591  23.654  1.00  0.00     0.000 C 
BRANCH   7   8
ATOM      8  C   UNL     1      13.843 -14.281  23.705  1.00  0.00     0.000 C 
BRANCH   8   9
ATOM      9  C   UNL     1      14.265 -13.423  22.507  1.00  0.00     0.000 C 
BRANCH   9  10
ATOM     10  C   UNL     1      14.527 -14.293  21.271  1.00  0.00     0.006 C 
BRANCH  10  11
ATOM     11  C   UNL     1      14.471 -13.457  19.988  1.00  0.00     0.053 C 
BRANCH  11  12
ATOM     12  C   UNL     1      14.538 -14.337  18.780  1.00  0.00     0.041 C 
ATOM     13  O   UNL     1      14.575 -15.589  18.910  1.00  0.00    -0.550 OA
ATOM     14  O   UNL     1      14.585 -13.775  17.509  1.00  0.00    -0.550 OA
ENDBRANCH  11  12
ENDBRANCH  10  11
ENDBRANCH   9  10
ENDBRANCH   8   9
ENDBRANCH   7   8
ENDBRANCH   6   7
ENDBRANCH   5   6
ENDBRANCH   4   5
ENDBRANCH   3   4
ENDBRANCH   2   3
ENDBRANCH   1   2
BRANCH   1  15
ATOM     15  C   UNL     1      10.739 -11.160  17.665  1.00  0.00     0.000 C 
BRANCH  15  16
ATOM     16  C   UNL     1      11.767 -10.037  17.429  1.00  0.00     0.000 C 
BRANCH  16  17
ATOM     17  C   UNL     1      13.185 -10.569  17.157  1.00  0.00     0.000 C 
BRANCH  17  18
ATOM     18  C   UNL     1      14.202 -10.125  18.223  1.00  0.00    -0.000 C 
BRANCH  18  19
ATOM     19  C   UNL     1      13.606  -9.188  19.297  1.00  0.00    -0.000 C 
BRANCH  19  20
ATOM     20  C   UNL     1      13.722  -9.784  20.712  1.00  0.00    -0.000 C 
BRANCH  20  21
ATOM     21  C   UNL     1      12.417 -10.445  21.195  1.00  0.00    -0.000 C 
BRANCH  21  22
ATOM     22  C   UNL     1      11.815  -9.831  22.474  1.00  0.00    -0.000 C 
BRANCH  22  23
ATOM     23  C   UNL     1      10.290  -9.658  22.395  1.00  0.00    -0.000 C 
BRANCH  23  24
ATOM     24  C   UNL     1       9.794  -9.813  20.950  1.00  0.00    -0.000 C 
BRANCH  24  25
ATOM     25  C   UNL     1       8.298 -10.144  20.915  1.00  0.00    -0.003 C 
ATOM     26  C   UNL     1       7.906 -11.053  22.076  1.00  0.00     0.004 C 
ENDBRANCH  24  25
ENDBRANCH  23  24
ENDBRANCH  22  23
ENDBRANCH  21  22
ENDBRANCH  20  21
ENDBRANCH  19  20
ENDBRANCH  18  19
ENDBRANCH  17  18
ENDBRANCH  16  17
ENDBRANCH  15  16
ENDBRANCH   1  15
TORSDOF 22
ENDMDL
MODEL 4
REMARK VINA RESULT:    -3.809      3.561      5.713
REMARK INTER + INTRA:         -12.228
REMARK INTER:                  -7.372
REMARK INTRA:                  -4.856
REMARK UNBOUND:                -3.520
REMARK SMILES CCCCCCCCCCCCCCCCCCCCCCCC(=O)[O-]
REMARK SMILES IDX 13 1 14 2 15 3 16 4 17 5 18 6 19 7 20 8 21 9 22 10 23 11
REMARK SMILES IDX 24 12 25 13 26 14 12 15 11 16 10 17 9 18 8 19 7 20 6 21 5 22
REMARK SMILES IDX 4 23 3 24 2 25 1 26
REMARK H PARENT
REMARK Flexibility Score: inf
ROOT
ATOM      1  C   UNL     1      10.622 -11.262  17.808  1.00  0.00     0.000 C 
ENDROOT
BRANCH   1   2
ATOM      2  C   UNL     1      11.539 -10.032  17.940  1.00  0.00     0.000 C 
BRANCH   2   3
ATOM      3  C   UNL     1      12.925 -10.255  17.307  1.00  0.00     0.000 C 
BRANCH   3   4
ATOM      4  C   UNL     1      14.111 -10.010  18.259  1.00  0.00     0.000 C 
BRANCH   4   5
ATOM      5  C   UNL     1      13.668  -9.509  19.644  1.00  0.00     0.000 C 
BRANCH   5   6
ATOM      6  C   UNL     1      14.047 -10.476  20.781  1.00  0.00     0.000 C 
BRANCH   6   7
ATOM      7  C   UNL     1      14.661 -11.812  20.324  1.00  0.00     0.000 C 
BRANCH   7   8
ATOM      8  C   UNL     1      14.652 -12.883  21.425  1.00  0.00     0.000 C 
BRANCH   8   9
ATOM      9  C   UNL     1      14.646 -14.291  20.817  1.00  0.00     0.000 C 
BRANCH   9  10
ATOM     10  C   UNL     1      14.541 -14.231  19.287  1.00  0.00     0.006 C 
BRANCH  10  11
ATOM     11  C   UNL     1      13.859 -15.486  18.732  1.00  0.00     0.053 C 
BRANCH  11  12
ATOM     12  C   UNL     1      13.858 -15.469  17.236  1.00  0.00     0.041 C 
ATOM     13  O   UNL     1      14.893 -15.798  16.598  1.00  0.00    -0.550 OA
ATOM     14  O   UNL     1      12.721 -15.066  16.545  1.00  0.00    -0.550 OA
ENDBRANCH  11  12
ENDBRANCH  10  11
ENDBRANCH   9  10
ENDBRANCH   8   9
ENDBRANCH   7   8
ENDBRANCH   6   7
ENDBRANCH   5   6
ENDBRANCH   4   5
ENDBRANCH   3   4
ENDBRANCH   2   3
ENDBRANCH   1   2
BRANCH   1  15
ATOM     15  C   UNL     1      11.251 -12.544  18.389  1.00  0.00     0.000 C 
BRANCH  15  16
ATOM     16  C   UNL     1      11.182 -12.670  19.922  1.00  0.00     0.000 C 
BRANCH  16  17
ATOM     17  C   UNL     1      10.741 -14.067  20.391  1.00  0.00     0.000 C 
BRANCH  17  18
ATOM     18  C   UNL     1      11.214 -14.393  21.818  1.00  0.00    -0.000 C 
BRANCH  18  19
ATOM     19  C   UNL     1      10.567 -13.507  22.905  1.00  0.00    -0.000 C 
BRANCH  19  20
ATOM     20  C   UNL     1      11.568 -12.500  23.501  1.00  0.00    -0.000 C 
BRANCH  20  21
ATOM     21  C   UNL     1      10.958 -11.104  23.723  1.00  0.00    -0.000 C 
BRANCH  21  22
ATOM     22  C   UNL     1      10.970 -10.186  22.486  1.00  0.00    -0.000 C 
BRANCH  22  23
ATOM     23  C   UNL     1       9.560  -9.796  22.016  1.00  0.00    -0.000 C 
BRANCH  23  24
ATOM     24  C   UNL     1       8.486 -10.497  22.859  1.00  0.00    -0.000 C 
BRANCH  24  25
ATOM     25  C   UNL     1       7.608 -11.403  21.989  1.00  0.00    -0.003 C 
ATOM     26  C   UNL     1       8.003 -11.306  20.519  1.00  0.00     0.004 C 
ENDBRANCH  24  25
ENDBRANCH  23  24
ENDBRANCH  22  23
ENDBRANCH  21  22
ENDBRANCH  20  21
ENDBRANCH  19  20
ENDBRANCH  18  19
ENDBRANCH  17  18
ENDBRANCH  16  17
ENDBRANCH  15  16
ENDBRANCH   1  15
TORSDOF 22
ENDMDL
MODEL 5
REMARK VINA RESULT:    -3.802      3.197      6.479
REMARK INTER + INTRA:         -12.212
REMARK INTER:                  -7.383
REMARK INTRA:                  -4.829
REMARK UNBOUND:                -3.520
REMARK SMILES CCCCCCCCCCCCCCCCCCCCCCCC(=O)[O-]
REMARK SMILES IDX 13 1 14 2 15 3 16 4 17 5 18 6 19 7 20 8 21 9 22 10 23 11
REMARK SMILES IDX 24 12 25 13 26 14 12 15 11 16 10 17 9 18 8 19 7 20 6 21 5 22
REMARK SMILES IDX 4 23 3 24 2 25 1 26
REMARK H PARENT
REMARK Flexibility Score: inf
ROOT
ATOM      1  C   UNL     1      10.862 -12.598  20.007  1.00  0.00     0.000 C 
ENDROOT
BRANCH   1   2
ATOM      2  C   UNL     1      10.886 -14.137  19.973  1.00  0.00     0.000 C 
BRANCH   2   3
ATOM      3  C   UNL     1      10.806 -14.764  21.378  1.00  0.00     0.000 C 
BRANCH   3   4
ATOM      4  C   UNL     1      11.088 -13.785  22.533  1.00  0.00     0.000 C 
BRANCH   4   5
ATOM      5  C   UNL     1      12.235 -14.255  23.444  1.00  0.00     0.000 C 
BRANCH   5   6
ATOM      6  C   UNL     1      13.450 -14.779  22.656  1.00  0.00     0.000 C 
BRANCH   6   7
ATOM      7  C   UNL     1      14.466 -13.703  22.230  1.00  0.00     0.000 C 
BRANCH   7   8
ATOM      8  C   UNL     1      14.633 -13.605  20.707  1.00  0.00     0.000 C 
BRANCH   8   9
ATOM      9  C   UNL     1      14.375 -14.962  20.040  1.00  0.00     0.000 C 
BRANCH   9  10
ATOM     10  C   UNL     1      14.860 -14.962  18.585  1.00  0.00     0.006 C 
BRANCH  10  11
ATOM     11  C   UNL     1      13.677 -14.973  17.610  1.00  0.00     0.053 C 
BRANCH  11  12
ATOM     12  C   UNL     1      13.344 -13.584  17.168  1.00  0.00     0.041 C 
ATOM     13  O   UNL     1      12.213 -13.331  16.673  1.00  0.00    -0.550 OA
ATOM     14  O   UNL     1      14.289 -12.571  17.278  1.00  0.00    -0.550 OA
ENDBRANCH  11  12
ENDBRANCH  10  11
ENDBRANCH   9  10
ENDBRANCH   8   9
ENDBRANCH   7   8
ENDBRANCH   6   7
ENDBRANCH   5   6
ENDBRANCH   4   5
ENDBRANCH   3   4
ENDBRANCH   2   3
ENDBRANCH   1   2
BRANCH   1  15
ATOM     15  C   UNL     1       9.810 -11.993  19.057  1.00  0.00     0.000 C 
BRANCH  15  16
ATOM     16  C   UNL     1       8.763 -11.087  19.731  1.00  0.00     0.000 C 
BRANCH  16  17
ATOM     17  C   UNL     1       8.294 -11.622  21.095  1.00  0.00     0.000 C 
BRANCH  17  18
ATOM     18  C   UNL     1       8.323 -10.549  22.198  1.00  0.00    -0.000 C 
BRANCH  18  19
ATOM     19  C   UNL     1       9.618 -10.561  23.041  1.00  0.00    -0.000 C 
BRANCH  19  20
ATOM     20  C   UNL     1      10.735  -9.723  22.393  1.00  0.00    -0.000 C 
BRANCH  20  21
ATOM     21  C   UNL     1      12.148 -10.199  22.782  1.00  0.00    -0.000 C 
BRANCH  21  22
ATOM     22  C   UNL     1      13.133 -10.336  21.606  1.00  0.00    -0.000 C 
BRANCH  22  23
ATOM     23  C   UNL     1      13.169  -9.089  20.707  1.00  0.00    -0.000 C 
BRANCH  23  24
ATOM     24  C   UNL     1      13.298  -9.482  19.229  1.00  0.00    -0.000 C 
BRANCH  24  25
ATOM     25  C   UNL     1      12.015  -9.149  18.458  1.00  0.00    -0.003 C 
ATOM     26  C   UNL     1      12.023  -9.787  17.072  1.00  0.00     0.004 C 
ENDBRANCH  24  25
ENDBRANCH  23  24
ENDBRANCH  22  23
ENDBRANCH  21  22
ENDBRANCH  20  21
ENDBRANCH  19  20
ENDBRANCH  18  19
ENDBRANCH  17  18
ENDBRANCH  16  17
ENDBRANCH  15  16
ENDBRANCH   1  15
TORSDOF 22
ENDMDL
MODEL 6
REMARK VINA RESULT:    -3.793      3.328      6.799
REMARK INTER + INTRA:         -12.191
REMARK INTER:                  -7.388
REMARK INTRA:                  -4.802
REMARK UNBOUND:                -3.520
REMARK SMILES CCCCCCCCCCCCCCCCCCCCCCCC(=O)[O-]
REMARK SMILES IDX 13 1 14 2 15 3 16 4 17 5 18 6 19 7 20 8 21 9 22 10 23 11
REMARK SMILES IDX 24 12 25 13 26 14 12 15 11 16 10 17 9 18 8 19 7 20 6 21 5 22
REMARK SMILES IDX 4 23 3 24 2 25 1 26
REMARK H PARENT
REMARK Flexibility Score: inf
ROOT
ATOM      1  C   UNL     1      10.698 -10.767  20.179  1.00  0.00     0.000 C 
ENDROOT
BRANCH   1   2
ATOM      2  C   UNL     1      10.041 -12.030  19.592  1.00  0.00     0.000 C 
BRANCH   2   3
ATOM      3  C   UNL     1      10.767 -13.324  20.007  1.00  0.00     0.000 C 
BRANCH   3   4
ATOM      4  C   UNL     1      10.271 -13.941  21.329  1.00  0.00     0.000 C 
BRANCH   4   5
ATOM      5  C   UNL     1      11.422 -14.440  22.220  1.00  0.00     0.000 C 
BRANCH   5   6
ATOM      6  C   UNL     1      11.502 -13.698  23.567  1.00  0.00     0.000 C 
BRANCH   6   7
ATOM      7  C   UNL     1      10.226 -12.937  23.970  1.00  0.00     0.000 C 
BRANCH   7   8
ATOM      8  C   UNL     1      10.415 -11.412  23.978  1.00  0.00     0.000 C 
BRANCH   8   9
ATOM      9  C   UNL     1       9.116 -10.699  23.586  1.00  0.00     0.000 C 
BRANCH   9  10
ATOM     10  C   UNL     1       7.991 -11.708  23.320  1.00  0.00     0.006 C 
BRANCH  10  11
ATOM     11  C   UNL     1       7.485 -11.602  21.878  1.00  0.00     0.053 C 
BRANCH  11  12
ATOM     12  C   UNL     1       6.899 -10.250  21.621  1.00  0.00     0.041 C 
ATOM     13  O   UNL     1       7.556  -9.386  20.981  1.00  0.00    -0.550 OA
ATOM     14  O   UNL     1       5.637  -9.932  22.110  1.00  0.00    -0.550 OA
ENDBRANCH  11  12
ENDBRANCH  10  11
ENDBRANCH   9  10
ENDBRANCH   8   9
ENDBRANCH   7   8
ENDBRANCH   6   7
ENDBRANCH   5   6
ENDBRANCH   4   5
ENDBRANCH   3   4
ENDBRANCH   2   3
ENDBRANCH   1   2
BRANCH   1  15
ATOM     15  C   UNL     1      12.237 -10.819  20.143  1.00  0.00     0.000 C 
BRANCH  15  16
ATOM     16  C   UNL     1      12.923 -10.860  21.522  1.00  0.00     0.000 C 
BRANCH  16  17
ATOM     17  C   UNL     1      14.032 -11.922  21.610  1.00  0.00     0.000 C 
BRANCH  17  18
ATOM     18  C   UNL     1      14.564 -12.344  20.229  1.00  0.00    -0.000 C 
BRANCH  18  19
ATOM     19  C   UNL     1      14.408 -13.853  19.938  1.00  0.00    -0.000 C 
BRANCH  19  20
ATOM     20  C   UNL     1      14.529 -14.167  18.436  1.00  0.00    -0.000 C 
BRANCH  20  21
ATOM     21  C   UNL     1      13.176 -14.501  17.780  1.00  0.00    -0.000 C 
BRANCH  21  22
ATOM     22  C   UNL     1      12.634 -13.421  16.824  1.00  0.00    -0.000 C 
BRANCH  22  23
ATOM     23  C   UNL     1      13.551 -12.192  16.727  1.00  0.00    -0.000 C 
BRANCH  23  24
ATOM     24  C   UNL     1      12.739 -10.922  16.437  1.00  0.00    -0.000 C 
BRANCH  24  25
ATOM     25  C   UNL     1      11.274 -11.262  16.142  1.00  0.00    -0.003 C 
ATOM     26  C   UNL     1      10.920 -10.961  14.689  1.00  0.00     0.004 C 
ENDBRANCH  24  25
ENDBRANCH  23  24
ENDBRANCH  22  23
ENDBRANCH  21  22
ENDBRANCH  20  21
ENDBRANCH  19  20
ENDBRANCH  18  19
ENDBRANCH  17  18
ENDBRANCH  16  17
ENDBRANCH  15  16
ENDBRANCH   1  15
TORSDOF 22
ENDMDL
MODEL 7
REMARK VINA RESULT:    -3.786      3.292      6.643
REMARK INTER + INTRA:         -12.177
REMARK INTER:                  -7.696
REMARK INTRA:                  -4.481
REMARK UNBOUND:                -3.520
REMARK SMILES CCCCCCCCCCCCCCCCCCCCCCCC(=O)[O-]
REMARK SMILES IDX 13 1 14 2 15 3 16 4 17 5 18 6 19 7 20 8 21 9 22 10 23 11
REMARK SMILES IDX 24 12 25 13 26 14 12 15 11 16 10 17 9 18 8 19 7 20 6 21 5 22
REMARK SMILES IDX 4 23 3 24 2 25 1 26
REMARK H PARENT
REMARK Flexibility Score: inf
ROOT
ATOM      1  C   UNL     1      12.290 -17.355  19.122  1.00  0.00     0.000 C 
ENDROOT
BRANCH   1   2
ATOM      2  C   UNL     1      13.448 -18.263  19.575  1.00  0.00     0.000 C 
BRANCH   2   3
ATOM      3  C   UNL     1      13.940 -17.933  20.997  1.00  0.00     0.000 C 
BRANCH   3   4
ATOM      4  C   UNL     1      14.749 -16.628  21.108  1.00  0.00     0.000 C 
BRANCH   4   5
ATOM      5  C   UNL     1      14.092 -15.600  22.046  1.00  0.00     0.000 C 
BRANCH   5   6
ATOM      6  C   UNL     1      13.147 -14.634  21.308  1.00  0.00     0.000 C 
BRANCH   6   7
ATOM      7  C   UNL     1      11.772 -14.433  21.971  1.00  0.00     0.000 C 
BRANCH   7   8
ATOM      8  C   UNL     1      10.643 -14.212  20.954  1.00  0.00     0.000 C 
BRANCH   8   9
ATOM      9  C   UNL     1      11.151 -13.435  19.733  1.00  0.00     0.000 C 
BRANCH   9  10
ATOM     10  C   UNL     1      10.197 -12.288  19.374  1.00  0.00     0.006 C 
BRANCH  10  11
ATOM     11  C   UNL     1       9.421 -11.811  20.607  1.00  0.00     0.053 C 
BRANCH  11  12
ATOM     12  C   UNL     1       8.163 -11.111  20.201  1.00  0.00     0.041 C 
ATOM     13  O   UNL     1       7.440 -10.553  21.069  1.00  0.00    -0.550 OA
ATOM     14  O   UNL     1       7.773 -11.095  18.867  1.00  0.00    -0.550 OA
ENDBRANCH  11  12
ENDBRANCH  10  11
ENDBRANCH   9  10
ENDBRANCH   8   9
ENDBRANCH   7   8
ENDBRANCH   6   7
ENDBRANCH   5   6
ENDBRANCH   4   5
ENDBRANCH   3   4
ENDBRANCH   2   3
ENDBRANCH   1   2
BRANCH   1  15
ATOM     15  C   UNL     1      12.694 -16.386  17.994  1.00  0.00     0.000 C 
BRANCH  15  16
ATOM     16  C   UNL     1      14.066 -16.663  17.353  1.00  0.00     0.000 C 
BRANCH  16  17
ATOM     17  C   UNL     1      15.064 -15.509  17.547  1.00  0.00     0.000 C 
BRANCH  17  18
ATOM     18  C   UNL     1      14.374 -14.173  17.873  1.00  0.00    -0.000 C 
BRANCH  18  19
ATOM     19  C   UNL     1      14.268 -13.218  16.664  1.00  0.00    -0.000 C 
BRANCH  19  20
ATOM     20  C   UNL     1      12.875 -12.570  16.560  1.00  0.00    -0.000 C 
BRANCH  20  21
ATOM     21  C   UNL     1      12.934 -11.051  16.314  1.00  0.00    -0.000 C 
BRANCH  21  22
ATOM     22  C   UNL     1      12.655 -10.182  17.556  1.00  0.00    -0.000 C 
BRANCH  22  23
ATOM     23  C   UNL     1      13.897  -9.984  18.440  1.00  0.00    -0.000 C 
BRANCH  23  24
ATOM     24  C   UNL     1      13.876 -10.943  19.638  1.00  0.00    -0.000 C 
BRANCH  24  25
ATOM     25  C   UNL     1      13.798 -10.169  20.959  1.00  0.00    -0.003 C 
ATOM     26  C   UNL     1      12.885 -10.874  21.957  1.00  0.00     0.004 C 
ENDBRANCH  24  25
ENDBRANCH  23  24
ENDBRANCH  22  23
ENDBRANCH  21  22
ENDBRANCH  20  21
ENDBRANCH  19  20
ENDBRANCH  18  19
ENDBRANCH  17  18
ENDBRANCH  16  17
ENDBRANCH  15  16
ENDBRANCH   1  15
TORSDOF 22
ENDMDL
MODEL 8
REMARK VINA RESULT:    -3.753      3.429      6.751
REMARK INTER + INTRA:         -12.101
REMARK INTER:                  -7.156
REMARK INTRA:                  -4.945
REMARK UNBOUND:                -3.520
REMARK SMILES CCCCCCCCCCCCCCCCCCCCCCCC(=O)[O-]
REMARK SMILES IDX 13 1 14 2 15 3 16 4 17 5 18 6 19 7 20 8 21 9 22 10 23 11
REMARK SMILES IDX 24 12 25 13 26 14 12 15 11 16 10 17 9 18 8 19 7 20 6 21 5 22
REMARK SMILES IDX 4 23 3 24 2 25 1 26
REMARK H PARENT
REMARK Flexibility Score: inf
ROOT
ATOM      1  C   UNL     1       9.923 -13.153  21.059  1.00  0.00     0.000 C 
ENDROOT
BRANCH   1   2
ATOM      2  C   UNL     1      10.823 -14.096  21.877  1.00  0.00     0.000 C 
BRANCH   2   3
ATOM      3  C   UNL     1      11.085 -13.579  23.304  1.00  0.00     0.000 C 
BRANCH   3   4
ATOM      4  C   UNL     1      12.436 -14.008  23.904  1.00  0.00     0.000 C 
BRANCH   4   5
ATOM      5  C   UNL     1      13.153 -15.072  23.055  1.00  0.00     0.000 C 
BRANCH   5   6
ATOM      6  C   UNL     1      14.530 -14.607  22.548  1.00  0.00     0.000 C 
BRANCH   6   7
ATOM      7  C   UNL     1      14.858 -13.126  22.814  1.00  0.00     0.000 C 
BRANCH   7   8
ATOM      8  C   UNL     1      14.973 -12.297  21.526  1.00  0.00     0.000 C 
BRANCH   8   9
ATOM      9  C   UNL     1      13.593 -11.810  21.065  1.00  0.00     0.000 C 
BRANCH   9  10
ATOM     10  C   UNL     1      13.343 -10.362  21.508  1.00  0.00     0.006 C 
BRANCH  10  11
ATOM     11  C   UNL     1      12.110  -9.779  20.811  1.00  0.00     0.053 C 
BRANCH  11  12
ATOM     12  C   UNL     1      12.514  -8.875  19.690  1.00  0.00     0.041 C 
ATOM     13  O   UNL     1      11.649  -8.437  18.885  1.00  0.00    -0.550 OA
ATOM     14  O   UNL     1      13.850  -8.533  19.518  1.00  0.00    -0.550 OA
ENDBRANCH  11  12
ENDBRANCH  10  11
ENDBRANCH   9  10
ENDBRANCH   8   9
ENDBRANCH   7   8
ENDBRANCH   6   7
ENDBRANCH   5   6
ENDBRANCH   4   5
ENDBRANCH   3   4
ENDBRANCH   2   3
ENDBRANCH   1   2
BRANCH   1  15
ATOM     15  C   UNL     1      10.459 -12.894  19.638  1.00  0.00     0.000 C 
BRANCH  15  16
ATOM     16  C   UNL     1       9.740 -11.776  18.860  1.00  0.00     0.000 C 
BRANCH  16  17
ATOM     17  C   UNL     1      10.421 -11.440  17.523  1.00  0.00     0.000 C 
BRANCH  17  18
ATOM     18  C   UNL     1      11.691 -12.274  17.275  1.00  0.00    -0.000 C 
BRANCH  18  19
ATOM     19  C   UNL     1      12.959 -11.421  17.055  1.00  0.00    -0.000 C 
BRANCH  19  20
ATOM     20  C   UNL     1      14.232 -12.146  17.530  1.00  0.00    -0.000 C 
BRANCH  20  21
ATOM     21  C   UNL     1      14.353 -13.577  16.971  1.00  0.00    -0.000 C 
BRANCH  21  22
ATOM     22  C   UNL     1      14.703 -14.653  18.017  1.00  0.00    -0.000 C 
BRANCH  22  23
ATOM     23  C   UNL     1      13.608 -14.834  19.080  1.00  0.00    -0.000 C 
BRANCH  23  24
ATOM     24  C   UNL     1      12.517 -15.794  18.586  1.00  0.00    -0.000 C 
BRANCH  24  25
ATOM     25  C   UNL     1      12.137 -16.801  19.678  1.00  0.00    -0.003 C 
ATOM     26  C   UNL     1      13.337 -17.647  20.091  1.00  0.00     0.004 C 
ENDBRANCH  24  25
ENDBRANCH  23  24
ENDBRANCH  22  23
ENDBRANCH  21  22
ENDBRANCH  20  21
ENDBRANCH  19  20
ENDBRANCH  18  19
ENDBRANCH  17  18
ENDBRANCH  16  17
ENDBRANCH  15  16
ENDBRANCH   1  15
TORSDOF 22
ENDMDL
MODEL 9
REMARK VINA RESULT:    -3.747      3.607      5.977
REMARK INTER + INTRA:         -12.087
REMARK INTER:                  -7.311
REMARK INTRA:                  -4.776
REMARK UNBOUND:                -3.520
REMARK SMILES CCCCCCCCCCCCCCCCCCCCCCCC(=O)[O-]
REMARK SMILES IDX 13 1 14 2 15 3 16 4 17 5 18 6 19 7 20 8 21 9 22 10 23 11
REMARK SMILES IDX 24 12 25 13 26 14 12 15 11 16 10 17 9 18 8 19 7 20 6 21 5 22
REMARK SMILES IDX 4 23 3 24 2 25 1 26
REMARK H PARENT
REMARK Flexibility Score: inf
ROOT
ATOM      1  C   UNL     1      10.591 -10.670  18.334  1.00  0.00     0.000 C 
ENDROOT
BRANCH   1   2
ATOM      2  C   UNL     1      10.911 -12.176  18.352  1.00  0.00     0.000 C 
BRANCH   2   3
ATOM      3  C   UNL     1      11.239 -12.697  19.764  1.00  0.00     0.000 C 
BRANCH   3   4
ATOM      4  C   UNL     1      10.496 -13.986  20.160  1.00  0.00     0.000 C 
BRANCH   4   5
ATOM      5  C   UNL     1      11.441 -15.076  20.696  1.00  0.00     0.000 C 
BRANCH   5   6
ATOM      6  C   UNL     1      12.533 -14.517  21.626  1.00  0.00     0.000 C 
BRANCH   6   7
ATOM      7  C   UNL     1      13.936 -15.117  21.420  1.00  0.00     0.000 C 
BRANCH   7   8
ATOM      8  C   UNL     1      14.854 -14.221  20.575  1.00  0.00     0.000 C 
BRANCH   8   9
ATOM      9  C   UNL     1      15.030 -14.795  19.164  1.00  0.00     0.000 C 
BRANCH   9  10
ATOM     10  C   UNL     1      14.291 -13.940  18.125  1.00  0.00     0.006 C 
BRANCH  10  11
ATOM     11  C   UNL     1      13.324 -14.794  17.298  1.00  0.00     0.053 C 
BRANCH  11  12
ATOM     12  C   UNL     1      14.073 -15.668  16.344  1.00  0.00     0.041 C 
ATOM     13  O   UNL     1      14.592 -15.176  15.307  1.00  0.00    -0.550 OA
ATOM     14  O   UNL     1      14.180 -17.033  16.586  1.00  0.00    -0.550 OA
ENDBRANCH  11  12
ENDBRANCH  10  11
ENDBRANCH   9  10
ENDBRANCH   8   9
ENDBRANCH   7   8
ENDBRANCH   6   7
ENDBRANCH   5   6
ENDBRANCH   4   5
ENDBRANCH   3   4
ENDBRANCH   2   3
ENDBRANCH   1   2
BRANCH   1  15
ATOM     15  C   UNL     1      11.657  -9.838  17.595  1.00  0.00     0.000 C 
BRANCH  15  16
ATOM     16  C   UNL     1      12.886 -10.630  17.113  1.00  0.00     0.000 C 
BRANCH  16  17
ATOM     17  C   UNL     1      14.184 -10.221  17.830  1.00  0.00     0.000 C 
BRANCH  17  18
ATOM     18  C   UNL     1      13.929  -9.593  19.211  1.00  0.00    -0.000 C 
BRANCH  18  19
ATOM     19  C   UNL     1      14.036 -10.598  20.379  1.00  0.00    -0.000 C 
BRANCH  19  20
ATOM     20  C   UNL     1      13.557  -9.990  21.710  1.00  0.00    -0.000 C 
BRANCH  20  21
ATOM     21  C   UNL     1      12.105 -10.370  22.058  1.00  0.00    -0.000 C 
BRANCH  21  22
ATOM     22  C   UNL     1      11.955 -11.332  23.252  1.00  0.00    -0.000 C 
BRANCH  22  23
ATOM     23  C   UNL     1      10.530 -11.890  23.396  1.00  0.00    -0.000 C 
BRANCH  23  24
ATOM     24  C   UNL     1       9.511 -10.979  22.698  1.00  0.00    -0.000 C 
BRANCH  24  25
ATOM     25  C   UNL     1       8.306 -11.784  22.199  1.00  0.00    -0.003 C 
ATOM     26  C   UNL     1       7.887 -11.341  20.801  1.00  0.00     0.004 C 
ENDBRANCH  24  25
ENDBRANCH  23  24
ENDBRANCH  22  23
ENDBRANCH  21  22
ENDBRANCH  20  21
ENDBRANCH  19  20
ENDBRANCH  18  19
ENDBRANCH  17  18
ENDBRANCH  16  17
ENDBRANCH  15  16
ENDBRANCH   1  15
TORSDOF 22
ENDMDL
