MODEL 1
REMARK VINA RESULT:    -7.116      0.000      0.000
REMARK INTER + INTRA:          -8.631
REMARK INTER:                  -8.365
REMARK INTRA:                  -0.267
REMARK UNBOUND:                -0.267
REMARK SMILES O=c1cc(-c2ccc(O)c(O)c2)oc2cc(O)cc(O)c12
REMARK SMILES IDX 4 1 3 2 2 3 1 4 21 5 19 6 18 7 16 8 15 9 14 10 13 11 5 12
REMARK SMILES IDX 6 13 7 14 8 15 12 16 10 17 9 18 11 20 20 22 17 24
REMARK H PARENT 9 19 11 21 20 23 17 25
REMARK Flexibility Score: inf
ROOT
ATOM      1  C   UNL     1      21.912  47.458  -5.490  1.00  0.00     0.138 A 
ATOM      2  C   UNL     1      21.641  48.634  -4.777  1.00  0.00     0.100 A 
ATOM      3  C   UNL     1      21.161  48.552  -3.469  1.00  0.00     0.197 A 
ATOM      4  O   UNL     1      20.869  49.622  -2.876  1.00  0.00    -0.289 OA
ATOM      5  C   UNL     1      20.982  47.286  -2.862  1.00  0.00     0.107 A 
ATOM      6  C   UNL     1      20.537  47.083  -1.522  1.00  0.00     0.134 A 
ATOM      7  C   UNL     1      20.286  45.782  -1.069  1.00  0.00     0.093 A 
ATOM      8  C   UNL     1      20.521  44.675  -1.889  1.00  0.00     0.123 A 
ATOM      9  C   UNL     1      21.006  44.860  -3.180  1.00  0.00     0.094 A 
ATOM     10  C   UNL     1      21.234  46.147  -3.674  1.00  0.00     0.146 A 
ATOM     11  O   UNL     1      21.684  46.281  -4.917  1.00  0.00    -0.456 OA
ENDROOT
BRANCH   1  12
ATOM     12  C   UNL     1      22.426  47.487  -6.884  1.00  0.00     0.021 A 
ATOM     13  C   UNL     1      23.671  46.925  -7.225  1.00  0.00     0.016 A 
ATOM     14  C   UNL     1      24.124  46.957  -8.546  1.00  0.00     0.051 A 
ATOM     15  C   UNL     1      23.341  47.542  -9.549  1.00  0.00     0.157 A 
ATOM     16  C   UNL     1      21.640  48.061  -7.899  1.00  0.00     0.062 A 
ATOM     17  C   UNL     1      22.093  48.095  -9.222  1.00  0.00     0.158 A 
BRANCH  15  18
ATOM     18  O   UNL     1      23.798  47.574 -10.865  1.00  0.00    -0.504 OA
ATOM     19  H   UNL     1      24.597  47.027 -11.163  1.00  0.00     0.293 HD
ENDBRANCH  15  18
BRANCH  17  20
ATOM     20  O   UNL     1      21.287  48.682 -10.198  1.00  0.00    -0.504 OA
ATOM     21  H   UNL     1      21.186  48.283 -11.124  1.00  0.00     0.293 HD
ENDBRANCH  17  20
ENDBRANCH   1  12
BRANCH   6  22
ATOM     22  O   UNL     1      20.353  48.113  -0.595  1.00  0.00    -0.507 OA
ATOM     23  H   UNL     1      19.539  48.222  -0.010  1.00  0.00     0.293 HD
ENDBRANCH   6  22
BRANCH   8  24
ATOM     24  O   UNL     1      20.282  43.383  -1.424  1.00  0.00    -0.508 OA
ATOM     25  H   UNL     1      20.752  42.580  -1.824  1.00  0.00     0.293 HD
ENDBRANCH   8  24
TORSDOF 5
ENDMDL
MODEL 2
REMARK VINA RESULT:    -7.033      1.027      1.166
REMARK INTER + INTRA:          -8.533
REMARK INTER:                  -8.247
REMARK INTRA:                  -0.285
REMARK UNBOUND:                -0.267
REMARK SMILES O=c1cc(-c2ccc(O)c(O)c2)oc2cc(O)cc(O)c12
REMARK SMILES IDX 4 1 3 2 2 3 1 4 21 5 19 6 18 7 16 8 15 9 14 10 13 11 5 12
REMARK SMILES IDX 6 13 7 14 8 15 12 16 10 17 9 18 11 20 20 22 17 24
REMARK H PARENT 9 19 11 21 20 23 17 25
REMARK Flexibility Score: inf
ROOT
ATOM      1  C   UNL     1      21.524  47.143  -5.141  1.00  0.00     0.138 A 
ATOM      2  C   UNL     1      21.284  48.353  -4.475  1.00  0.00     0.100 A 
ATOM      3  C   UNL     1      20.918  48.339  -3.128  1.00  0.00     0.197 A 
ATOM      4  O   UNL     1      20.650  49.436  -2.574  1.00  0.00    -0.289 OA
ATOM      5  C   UNL     1      20.824  47.107  -2.438  1.00  0.00     0.107 A 
ATOM      6  C   UNL     1      20.499  46.974  -1.055  1.00  0.00     0.134 A 
ATOM      7  C   UNL     1      20.319  45.697  -0.508  1.00  0.00     0.093 A 
ATOM      8  C   UNL     1      20.512  44.548  -1.281  1.00  0.00     0.123 A 
ATOM      9  C   UNL     1      20.883  44.668  -2.618  1.00  0.00     0.094 A 
ATOM     10  C   UNL     1      21.035  45.928  -3.202  1.00  0.00     0.146 A 
ATOM     11  O   UNL     1      21.375  45.997  -4.485  1.00  0.00    -0.456 OA
ENDROOT
BRANCH   1  12
ATOM     12  C   UNL     1      21.917  47.100  -6.573  1.00  0.00     0.021 A 
ATOM     13  C   UNL     1      21.532  46.038  -7.414  1.00  0.00     0.016 A 
ATOM     14  C   UNL     1      21.907  46.029  -8.760  1.00  0.00     0.051 A 
ATOM     15  C   UNL     1      22.664  47.081  -9.291  1.00  0.00     0.157 A 
ATOM     16  C   UNL     1      22.666  48.158  -7.117  1.00  0.00     0.062 A 
ATOM     17  C   UNL     1      23.044  48.151  -8.464  1.00  0.00     0.158 A 
BRANCH  15  18
ATOM     18  O   UNL     1      23.038  47.067 -10.633  1.00  0.00    -0.504 OA
ATOM     19  H   UNL     1      22.351  47.111 -11.376  1.00  0.00     0.293 HD
ENDBRANCH  15  18
BRANCH  17  20
ATOM     20  O   UNL     1      23.795  49.215  -8.963  1.00  0.00    -0.504 OA
ATOM     21  H   UNL     1      23.675  49.562  -9.907  1.00  0.00     0.293 HD
ENDBRANCH  17  20
ENDBRANCH   1  12
BRANCH   6  22
ATOM     22  O   UNL     1      20.367  48.052  -0.176  1.00  0.00    -0.507 OA
ATOM     23  H   UNL     1      20.960  48.868  -0.172  1.00  0.00     0.293 HD
ENDBRANCH   6  22
BRANCH   8  24
ATOM     24  O   UNL     1      20.347  43.282  -0.725  1.00  0.00    -0.508 OA
ATOM     25  H   UNL     1      19.490  43.018  -0.251  1.00  0.00     0.293 HD
ENDBRANCH   8  24
TORSDOF 5
ENDMDL
MODEL 3
REMARK VINA RESULT:    -6.782      1.490      2.788
REMARK INTER + INTRA:          -8.239
REMARK INTER:                  -7.969
REMARK INTRA:                  -0.269
REMARK UNBOUND:                -0.267
REMARK SMILES O=c1cc(-c2ccc(O)c(O)c2)oc2cc(O)cc(O)c12
REMARK SMILES IDX 4 1 3 2 2 3 1 4 21 5 19 6 18 7 16 8 15 9 14 10 13 11 5 12
REMARK SMILES IDX 6 13 7 14 8 15 12 16 10 17 9 18 11 20 20 22 17 24
REMARK H PARENT 9 19 11 21 20 23 17 25
REMARK Flexibility Score: inf
ROOT
ATOM      1  C   UNL     1      21.821  47.389  -6.568  1.00  0.00     0.138 A 
ATOM      2  C   UNL     1      21.272  46.101  -6.631  1.00  0.00     0.100 A 
ATOM      3  C   UNL     1      20.797  45.495  -5.466  1.00  0.00     0.197 A 
ATOM      4  O   UNL     1      20.367  44.316  -5.543  1.00  0.00    -0.289 OA
ATOM      5  C   UNL     1      20.845  46.198  -4.239  1.00  0.00     0.107 A 
ATOM      6  C   UNL     1      20.354  45.696  -2.996  1.00  0.00     0.134 A 
ATOM      7  C   UNL     1      20.561  46.434  -1.824  1.00  0.00     0.093 A 
ATOM      8  C   UNL     1      21.189  47.683  -1.860  1.00  0.00     0.123 A 
ATOM      9  C   UNL     1      21.623  48.204  -3.075  1.00  0.00     0.094 A 
ATOM     10  C   UNL     1      21.463  47.477  -4.257  1.00  0.00     0.146 A 
ATOM     11  O   UNL     1      21.905  48.005  -5.393  1.00  0.00    -0.456 OA
ENDROOT
BRANCH   1  12
ATOM     12  C   UNL     1      22.340  48.080  -7.776  1.00  0.00     0.021 A 
ATOM     13  C   UNL     1      23.660  48.565  -7.841  1.00  0.00     0.016 A 
ATOM     14  C   UNL     1      24.125  49.202  -8.994  1.00  0.00     0.051 A 
ATOM     15  C   UNL     1      23.284  49.359 -10.104  1.00  0.00     0.157 A 
ATOM     16  C   UNL     1      21.507  48.230  -8.899  1.00  0.00     0.062 A 
ATOM     17  C   UNL     1      21.970  48.869 -10.054  1.00  0.00     0.158 A 
BRANCH  15  18
ATOM     18  O   UNL     1      23.752  49.997 -11.251  1.00  0.00    -0.504 OA
ATOM     19  H   UNL     1      23.193  50.685 -11.742  1.00  0.00     0.293 HD
ENDBRANCH  15  18
BRANCH  17  20
ATOM     20  O   UNL     1      21.109  49.006 -11.143  1.00  0.00    -0.504 OA
ATOM     21  H   UNL     1      20.107  49.104 -11.028  1.00  0.00     0.293 HD
ENDBRANCH  17  20
ENDBRANCH   1  12
BRANCH   6  22
ATOM     22  O   UNL     1      19.639  44.502  -2.863  1.00  0.00    -0.507 OA
ATOM     23  H   UNL     1      18.697  44.432  -2.510  1.00  0.00     0.293 HD
ENDBRANCH   6  22
BRANCH   8  24
ATOM     24  O   UNL     1      21.377  48.417  -0.690  1.00  0.00    -0.508 OA
ATOM     25  H   UNL     1      21.402  49.430  -0.698  1.00  0.00     0.293 HD
ENDBRANCH   8  24
TORSDOF 5
ENDMDL
MODEL 4
REMARK VINA RESULT:    -6.655      1.816      3.324
REMARK INTER + INTRA:          -8.089
REMARK INTER:                  -7.780
REMARK INTRA:                  -0.309
REMARK UNBOUND:                -0.267
REMARK SMILES O=c1cc(-c2ccc(O)c(O)c2)oc2cc(O)cc(O)c12
REMARK SMILES IDX 4 1 3 2 2 3 1 4 21 5 19 6 18 7 16 8 15 9 14 10 13 11 5 12
REMARK SMILES IDX 6 13 7 14 8 15 12 16 10 17 9 18 11 20 20 22 17 24
REMARK H PARENT 9 19 11 21 20 23 17 25
REMARK Flexibility Score: inf
ROOT
ATOM      1  C   UNL     1      21.372  46.335  -4.136  1.00  0.00     0.138 A 
ATOM      2  C   UNL     1      20.762  45.205  -3.574  1.00  0.00     0.100 A 
ATOM      3  C   UNL     1      20.492  45.176  -2.205  1.00  0.00     0.197 A 
ATOM      4  O   UNL     1      20.001  44.125  -1.718  1.00  0.00    -0.289 OA
ATOM      5  C   UNL     1      20.808  46.297  -1.401  1.00  0.00     0.107 A 
ATOM      6  C   UNL     1      20.542  46.395  -0.003  1.00  0.00     0.134 A 
ATOM      7  C   UNL     1      21.005  47.508   0.711  1.00  0.00     0.093 A 
ATOM      8  C   UNL     1      21.671  48.553   0.064  1.00  0.00     0.123 A 
ATOM      9  C   UNL     1      21.888  48.491  -1.309  1.00  0.00     0.094 A 
ATOM     10  C   UNL     1      21.469  47.379  -2.044  1.00  0.00     0.146 A 
ATOM     11  O   UNL     1      21.709  47.353  -3.351  1.00  0.00    -0.456 OA
ENDROOT
BRANCH   1  12
ATOM     12  C   UNL     1      21.681  46.419  -5.587  1.00  0.00     0.021 A 
ATOM     13  C   UNL     1      20.926  45.716  -6.545  1.00  0.00     0.016 A 
ATOM     14  C   UNL     1      21.232  45.822  -7.904  1.00  0.00     0.051 A 
ATOM     15  C   UNL     1      22.289  46.636  -8.331  1.00  0.00     0.157 A 
ATOM     16  C   UNL     1      22.731  47.245  -6.024  1.00  0.00     0.062 A 
ATOM     17  C   UNL     1      23.040  47.352  -7.385  1.00  0.00     0.158 A 
BRANCH  15  18
ATOM     18  O   UNL     1      22.592  46.738  -9.687  1.00  0.00    -0.504 OA
ATOM     19  H   UNL     1      22.329  47.551 -10.231  1.00  0.00     0.293 HD
ENDBRANCH  15  18
BRANCH  17  20
ATOM     20  O   UNL     1      24.097  48.174  -7.776  1.00  0.00    -0.504 OA
ATOM     21  H   UNL     1      24.328  49.026  -7.280  1.00  0.00     0.293 HD
ENDBRANCH  17  20
ENDBRANCH   1  12
BRANCH   6  22
ATOM     22  O   UNL     1      19.811  45.450   0.722  1.00  0.00    -0.507 OA
ATOM     23  H   UNL     1      19.076  45.669   1.377  1.00  0.00     0.293 HD
ENDBRANCH   6  22
BRANCH   8  24
ATOM     24  O   UNL     1      22.115  49.663   0.780  1.00  0.00    -0.508 OA
ATOM     25  H   UNL     1      22.912  49.609   1.403  1.00  0.00     0.293 HD
ENDBRANCH   8  24
TORSDOF 5
ENDMDL
MODEL 5
REMARK VINA RESULT:    -6.436      1.612      1.849
REMARK INTER + INTRA:          -7.831
REMARK INTER:                  -7.528
REMARK INTRA:                  -0.303
REMARK UNBOUND:                -0.267
REMARK SMILES O=c1cc(-c2ccc(O)c(O)c2)oc2cc(O)cc(O)c12
REMARK SMILES IDX 4 1 3 2 2 3 1 4 21 5 19 6 18 7 16 8 15 9 14 10 13 11 5 12
REMARK SMILES IDX 6 13 7 14 8 15 12 16 10 17 9 18 11 20 20 22 17 24
REMARK H PARENT 9 19 11 21 20 23 17 25
REMARK Flexibility Score: inf
ROOT
ATOM      1  C   UNL     1      21.426  46.939  -4.378  1.00  0.00     0.138 A 
ATOM      2  C   UNL     1      21.430  48.187  -3.741  1.00  0.00     0.100 A 
ATOM      3  C   UNL     1      21.139  48.268  -2.379  1.00  0.00     0.197 A 
ATOM      4  O   UNL     1      21.090  49.407  -1.848  1.00  0.00    -0.289 OA
ATOM      5  C   UNL     1      20.874  47.087  -1.645  1.00  0.00     0.107 A 
ATOM      6  C   UNL     1      20.604  47.044  -0.245  1.00  0.00     0.134 A 
ATOM      7  C   UNL     1      20.240  45.829   0.351  1.00  0.00     0.093 A 
ATOM      8  C   UNL     1      20.195  44.647  -0.393  1.00  0.00     0.123 A 
ATOM      9  C   UNL     1      20.509  44.670  -1.749  1.00  0.00     0.094 A 
ATOM     10  C   UNL     1      20.841  45.871  -2.380  1.00  0.00     0.146 A 
ATOM     11  O   UNL     1      21.119  45.851  -3.679  1.00  0.00    -0.456 OA
ENDROOT
BRANCH   1  12
ATOM     12  C   UNL     1      21.730  46.796  -5.826  1.00  0.00     0.021 A 
ATOM     13  C   UNL     1      22.677  47.618  -6.467  1.00  0.00     0.016 A 
ATOM     14  C   UNL     1      22.951  47.454  -7.827  1.00  0.00     0.051 A 
ATOM     15  C   UNL     1      22.291  46.465  -8.568  1.00  0.00     0.157 A 
ATOM     16  C   UNL     1      21.082  45.798  -6.573  1.00  0.00     0.062 A 
ATOM     17  C   UNL     1      21.353  45.633  -7.936  1.00  0.00     0.158 A 
BRANCH  15  18
ATOM     18  O   UNL     1      22.565  46.308  -9.925  1.00  0.00    -0.504 OA
ATOM     19  H   UNL     1      21.868  45.957 -10.571  1.00  0.00     0.293 HD
ENDBRANCH  15  18
BRANCH  17  20
ATOM     20  O   UNL     1      20.681  44.637  -8.645  1.00  0.00    -0.504 OA
ATOM     21  H   UNL     1      20.444  43.746  -8.226  1.00  0.00     0.293 HD
ENDBRANCH  17  20
ENDBRANCH   1  12
BRANCH   6  22
ATOM     22  O   UNL     1      20.704  48.149   0.605  1.00  0.00    -0.507 OA
ATOM     23  H   UNL     1      21.280  48.189   1.432  1.00  0.00     0.293 HD
ENDBRANCH   6  22
BRANCH   8  24
ATOM     24  O   UNL     1      19.847  43.441   0.211  1.00  0.00    -0.508 OA
ATOM     25  H   UNL     1      20.192  43.189   1.130  1.00  0.00     0.293 HD
ENDBRANCH   8  24
TORSDOF 5
ENDMDL
MODEL 6
REMARK VINA RESULT:    -6.029      2.554      6.482
REMARK INTER + INTRA:          -7.353
REMARK INTER:                  -7.065
REMARK INTRA:                  -0.287
REMARK UNBOUND:                -0.267
REMARK SMILES O=c1cc(-c2ccc(O)c(O)c2)oc2cc(O)cc(O)c12
REMARK SMILES IDX 4 1 3 2 2 3 1 4 21 5 19 6 18 7 16 8 15 9 14 10 13 11 5 12
REMARK SMILES IDX 6 13 7 14 8 15 12 16 10 17 9 18 11 20 20 22 17 24
REMARK H PARENT 9 19 11 21 20 23 17 25
REMARK Flexibility Score: inf
ROOT
ATOM      1  C   UNL     1      21.843  47.357  -4.216  1.00  0.00     0.138 A 
ATOM      2  C   UNL     1      22.461  48.045  -5.269  1.00  0.00     0.100 A 
ATOM      3  C   UNL     1      22.407  47.521  -6.561  1.00  0.00     0.197 A 
ATOM      4  O   UNL     1      23.022  48.129  -7.475  1.00  0.00    -0.289 OA
ATOM      5  C   UNL     1      21.703  46.318  -6.804  1.00  0.00     0.107 A 
ATOM      6  C   UNL     1      21.547  45.712  -8.086  1.00  0.00     0.134 A 
ATOM      7  C   UNL     1      20.929  44.459  -8.187  1.00  0.00     0.093 A 
ATOM      8  C   UNL     1      20.409  43.819  -7.058  1.00  0.00     0.123 A 
ATOM      9  C   UNL     1      20.508  44.428  -5.810  1.00  0.00     0.094 A 
ATOM     10  C   UNL     1      21.150  45.661  -5.671  1.00  0.00     0.146 A 
ATOM     11  O   UNL     1      21.236  46.200  -4.460  1.00  0.00    -0.456 OA
ENDROOT
BRANCH   1  12
ATOM     12  C   UNL     1      21.869  47.870  -2.822  1.00  0.00     0.021 A 
ATOM     13  C   UNL     1      20.880  47.513  -1.884  1.00  0.00     0.016 A 
ATOM     14  C   UNL     1      20.935  48.002  -0.577  1.00  0.00     0.051 A 
ATOM     15  C   UNL     1      21.979  48.848  -0.180  1.00  0.00     0.157 A 
ATOM     16  C   UNL     1      22.920  48.708  -2.412  1.00  0.00     0.062 A 
ATOM     17  C   UNL     1      22.977  49.200  -1.103  1.00  0.00     0.158 A 
BRANCH  15  18
ATOM     18  O   UNL     1      22.029  49.334   1.125  1.00  0.00    -0.504 OA
ATOM     19  H   UNL     1      22.517  48.837   1.859  1.00  0.00     0.293 HD
ENDBRANCH  15  18
BRANCH  17  20
ATOM     20  O   UNL     1      24.032  50.037  -0.739  1.00  0.00    -0.504 OA
ATOM     21  H   UNL     1      24.530  50.600  -1.418  1.00  0.00     0.293 HD
ENDBRANCH  17  20
ENDBRANCH   1  12
BRANCH   6  22
ATOM     22  O   UNL     1      21.955  46.304  -9.285  1.00  0.00    -0.507 OA
ATOM     23  H   UNL     1      21.355  46.468 -10.079  1.00  0.00     0.293 HD
ENDBRANCH   6  22
BRANCH   8  24
ATOM     24  O   UNL     1      19.782  42.580  -7.170  1.00  0.00    -0.508 OA
ATOM     25  H   UNL     1      18.925  42.372  -6.670  1.00  0.00     0.293 HD
ENDBRANCH   8  24
TORSDOF 5
ENDMDL
MODEL 7
REMARK VINA RESULT:    -5.289      1.813      6.952
REMARK INTER + INTRA:          -6.483
REMARK INTER:                  -6.179
REMARK INTRA:                  -0.304
REMARK UNBOUND:                -0.267
REMARK SMILES O=c1cc(-c2ccc(O)c(O)c2)oc2cc(O)cc(O)c12
REMARK SMILES IDX 4 1 3 2 2 3 1 4 21 5 19 6 18 7 16 8 15 9 14 10 13 11 5 12
REMARK SMILES IDX 6 13 7 14 8 15 12 16 10 17 9 18 11 20 20 22 17 24
REMARK H PARENT 9 19 11 21 20 23 17 25
REMARK Flexibility Score: inf
ROOT
ATOM      1  C   UNL     1      21.741  47.127  -3.843  1.00  0.00     0.138 A 
ATOM      2  C   UNL     1      22.605  48.226  -3.942  1.00  0.00     0.100 A 
ATOM      3  C   UNL     1      23.087  48.615  -5.193  1.00  0.00     0.197 A 
ATOM      4  O   UNL     1      23.909  49.566  -5.244  1.00  0.00    -0.289 OA
ATOM      5  C   UNL     1      22.676  47.917  -6.353  1.00  0.00     0.107 A 
ATOM      6  C   UNL     1      23.071  48.249  -7.683  1.00  0.00     0.134 A 
ATOM      7  C   UNL     1      22.694  47.414  -8.743  1.00  0.00     0.093 A 
ATOM      8  C   UNL     1      21.887  46.294  -8.527  1.00  0.00     0.123 A 
ATOM      9  C   UNL     1      21.451  45.993  -7.239  1.00  0.00     0.094 A 
ATOM     10  C   UNL     1      21.839  46.786  -6.156  1.00  0.00     0.146 A 
ATOM     11  O   UNL     1      21.413  46.454  -4.942  1.00  0.00    -0.456 OA
ENDROOT
BRANCH   1  12
ATOM     12  C   UNL     1      21.197  46.672  -2.538  1.00  0.00     0.021 A 
ATOM     13  C   UNL     1      20.895  47.581  -1.505  1.00  0.00     0.016 A 
ATOM     14  C   UNL     1      20.375  47.125  -0.291  1.00  0.00     0.051 A 
ATOM     15  C   UNL     1      20.141  45.759  -0.089  1.00  0.00     0.157 A 
ATOM     16  C   UNL     1      20.946  45.304  -2.332  1.00  0.00     0.062 A 
ATOM     17  C   UNL     1      20.427  44.846  -1.116  1.00  0.00     0.158 A 
BRANCH  15  18
ATOM     18  O   UNL     1      19.624  45.309   1.124  1.00  0.00    -0.504 OA
ATOM     19  H   UNL     1      19.192  45.944   1.786  1.00  0.00     0.293 HD
ENDBRANCH  15  18
BRANCH  17  20
ATOM     20  O   UNL     1      20.201  43.479  -0.948  1.00  0.00    -0.504 OA
ATOM     21  H   UNL     1      20.312  42.819  -1.708  1.00  0.00     0.293 HD
ENDBRANCH  17  20
ENDBRANCH   1  12
BRANCH   6  22
ATOM     22  O   UNL     1      23.805  49.390  -8.019  1.00  0.00    -0.507 OA
ATOM     23  H   UNL     1      24.427  49.880  -7.393  1.00  0.00     0.293 HD
ENDBRANCH   6  22
BRANCH   8  24
ATOM     24  O   UNL     1      21.504  45.479  -9.590  1.00  0.00    -0.508 OA
ATOM     25  H   UNL     1      22.102  44.733  -9.929  1.00  0.00     0.293 HD
ENDBRANCH   8  24
TORSDOF 5
ENDMDL
