MODEL 1
REMARK VINA RESULT:    -5.581      0.000      0.000
REMARK INTER + INTRA:         -12.739
REMARK INTER:                 -10.801
REMARK INTRA:                  -1.938
REMARK UNBOUND:                -1.938
REMARK SMILES CCCCCCCCCCCCCCCCCC(=O)[O-]
REMARK SMILES IDX 10 1 11 2 12 3 13 4 14 5 15 6 16 7 17 8 18 9 19 10 20 11
REMARK SMILES IDX 9 12 8 13 7 14 6 15 5 16 4 17 3 18 2 19 1 20
REMARK H PARENT
REMARK Flexibility Score: inf
ROOT
ATOM      1  C   UNL     1     -10.784 -15.987  27.366  1.00  0.00     0.000 C 
ENDROOT
BRANCH   1   2
ATOM      2  C   UNL     1     -10.671 -15.181  26.062  1.00  0.00     0.000 C 
BRANCH   2   3
ATOM      3  C   UNL     1      -9.221 -14.777  25.742  1.00  0.00     0.000 C 
BRANCH   3   4
ATOM      4  C   UNL     1      -8.287 -14.917  26.956  1.00  0.00     0.000 C 
BRANCH   4   5
ATOM      5  C   UNL     1      -6.826 -14.577  26.623  1.00  0.00     0.000 C 
BRANCH   5   6
ATOM      6  C   UNL     1      -5.985 -14.461  27.900  1.00  0.00     0.000 C 
BRANCH   6   7
ATOM      7  C   UNL     1      -6.882 -14.371  29.143  1.00  0.00     0.006 C 
BRANCH   7   8
ATOM      8  C   UNL     1      -6.074 -14.132  30.426  1.00  0.00     0.053 C 
BRANCH   8   9
ATOM      9  C   UNL     1      -6.530 -12.899  31.148  1.00  0.00     0.041 C 
ATOM     10  O   UNL     1      -6.011 -11.783  30.884  1.00  0.00    -0.550 OA
ATOM     11  O   UNL     1      -7.548 -12.980  32.090  1.00  0.00    -0.550 OA
ENDBRANCH   8   9
ENDBRANCH   7   8
ENDBRANCH   6   7
ENDBRANCH   5   6
ENDBRANCH   4   5
ENDBRANCH   3   4
ENDBRANCH   2   3
ENDBRANCH   1   2
BRANCH   1  12
ATOM     12  C   UNL     1     -12.239 -16.342  27.717  1.00  0.00     0.000 C 
BRANCH  12  13
ATOM     13  C   UNL     1     -12.588 -16.060  29.190  1.00  0.00    -0.000 C 
BRANCH  13  14
ATOM     14  C   UNL     1     -13.015 -17.291  30.012  1.00  0.00    -0.000 C 
BRANCH  14  15
ATOM     15  C   UNL     1     -12.294 -18.580  29.581  1.00  0.00    -0.000 C 
BRANCH  15  16
ATOM     16  C   UNL     1     -10.836 -18.633  30.067  1.00  0.00    -0.000 C 
BRANCH  16  17
ATOM     17  C   UNL     1     -10.673 -18.132  31.511  1.00  0.00    -0.000 C 
BRANCH  17  18
ATOM     18  C   UNL     1      -9.284 -17.514  31.722  1.00  0.00    -0.000 C 
BRANCH  18  19
ATOM     19  C   UNL     1      -9.239 -16.020  31.364  1.00  0.00    -0.003 C 
ATOM     20  C   UNL     1     -10.429 -15.241  31.925  1.00  0.00     0.004 C 
ENDBRANCH  18  19
ENDBRANCH  17  18
ENDBRANCH  16  17
ENDBRANCH  15  16
ENDBRANCH  14  15
ENDBRANCH  13  14
ENDBRANCH  12  13
ENDBRANCH   1  12
TORSDOF 16
ENDMDL
MODEL 2
REMARK VINA RESULT:    -5.548      1.029      4.806
REMARK INTER + INTRA:         -12.675
REMARK INTER:                 -11.067
REMARK INTRA:                  -1.609
REMARK UNBOUND:                -1.938
REMARK SMILES CCCCCCCCCCCCCCCCCC(=O)[O-]
REMARK SMILES IDX 10 1 11 2 12 3 13 4 14 5 15 6 16 7 17 8 18 9 19 10 20 11
REMARK SMILES IDX 9 12 8 13 7 14 6 15 5 16 4 17 3 18 2 19 1 20
REMARK H PARENT
REMARK Flexibility Score: inf
ROOT
ATOM      1  C   UNL     1     -13.421 -17.057  30.203  1.00  0.00     0.000 C 
ENDROOT
BRANCH   1   2
ATOM      2  C   UNL     1     -12.829 -18.473  30.294  1.00  0.00     0.000 C 
BRANCH   2   3
ATOM      3  C   UNL     1     -11.829 -18.621  31.454  1.00  0.00     0.000 C 
BRANCH   3   4
ATOM      4  C   UNL     1     -10.375 -18.741  30.969  1.00  0.00     0.000 C 
BRANCH   4   5
ATOM      5  C   UNL     1      -9.411 -17.843  31.758  1.00  0.00     0.000 C 
BRANCH   5   6
ATOM      6  C   UNL     1      -9.573 -16.373  31.351  1.00  0.00     0.000 C 
BRANCH   6   7
ATOM      7  C   UNL     1      -8.242 -15.617  31.478  1.00  0.00     0.006 C 
BRANCH   7   8
ATOM      8  C   UNL     1      -8.446 -14.137  31.832  1.00  0.00     0.053 C 
BRANCH   8   9
ATOM      9  C   UNL     1      -7.182 -13.507  32.335  1.00  0.00     0.041 C 
ATOM     10  O   UNL     1      -6.452 -14.122  33.157  1.00  0.00    -0.550 OA
ATOM     11  O   UNL     1      -6.797 -12.255  31.874  1.00  0.00    -0.550 OA
ENDBRANCH   8   9
ENDBRANCH   7   8
ENDBRANCH   6   7
ENDBRANCH   5   6
ENDBRANCH   4   5
ENDBRANCH   3   4
ENDBRANCH   2   3
ENDBRANCH   1   2
BRANCH   1  12
ATOM     12  C   UNL     1     -12.656 -16.159  29.217  1.00  0.00     0.000 C 
BRANCH  12  13
ATOM     13  C   UNL     1     -12.127 -16.927  27.991  1.00  0.00    -0.000 C 
BRANCH  13  14
ATOM     14  C   UNL     1     -11.600 -16.048  26.842  1.00  0.00    -0.000 C 
BRANCH  14  15
ATOM     15  C   UNL     1     -10.177 -15.520  27.094  1.00  0.00    -0.000 C 
BRANCH  15  16
ATOM     16  C   UNL     1      -9.614 -14.743  25.892  1.00  0.00    -0.000 C 
BRANCH  16  17
ATOM     17  C   UNL     1      -8.290 -14.033  26.212  1.00  0.00    -0.000 C 
BRANCH  17  18
ATOM     18  C   UNL     1      -7.142 -15.046  26.335  1.00  0.00    -0.000 C 
BRANCH  18  19
ATOM     19  C   UNL     1      -5.995 -14.537  27.222  1.00  0.00    -0.003 C 
ATOM     20  C   UNL     1      -6.434 -14.266  28.661  1.00  0.00     0.004 C 
ENDBRANCH  18  19
ENDBRANCH  17  18
ENDBRANCH  16  17
ENDBRANCH  15  16
ENDBRANCH  14  15
ENDBRANCH  13  14
ENDBRANCH  12  13
ENDBRANCH   1  12
TORSDOF 16
ENDMDL
MODEL 3
REMARK VINA RESULT:    -5.442      2.405      5.707
REMARK INTER + INTRA:         -12.471
REMARK INTER:                 -10.889
REMARK INTRA:                  -1.582
REMARK UNBOUND:                -1.938
REMARK SMILES CCCCCCCCCCCCCCCCCC(=O)[O-]
REMARK SMILES IDX 10 1 11 2 12 3 13 4 14 5 15 6 16 7 17 8 18 9 19 10 20 11
REMARK SMILES IDX 9 12 8 13 7 14 6 15 5 16 4 17 3 18 2 19 1 20
REMARK H PARENT
REMARK Flexibility Score: inf
ROOT
ATOM      1  C   UNL     1     -10.003 -14.888  25.888  1.00  0.00     0.000 C 
ENDROOT
BRANCH   1   2
ATOM      2  C   UNL     1     -10.502 -15.627  27.140  1.00  0.00     0.000 C 
BRANCH   2   3
ATOM      3  C   UNL     1     -11.907 -16.225  26.951  1.00  0.00     0.000 C 
BRANCH   3   4
ATOM      4  C   UNL     1     -12.732 -16.219  28.248  1.00  0.00     0.000 C 
BRANCH   4   5
ATOM      5  C   UNL     1     -11.915 -16.658  29.472  1.00  0.00     0.000 C 
BRANCH   5   6
ATOM      6  C   UNL     1     -11.918 -18.185  29.615  1.00  0.00     0.000 C 
BRANCH   6   7
ATOM      7  C   UNL     1     -10.502 -18.716  29.884  1.00  0.00     0.006 C 
BRANCH   7   8
ATOM      8  C   UNL     1      -9.960 -18.263  31.246  1.00  0.00     0.053 C 
BRANCH   8   9
ATOM      9  C   UNL     1     -10.957 -18.487  32.343  1.00  0.00     0.041 C 
ATOM     10  O   UNL     1     -11.235 -19.656  32.716  1.00  0.00    -0.550 OA
ATOM     11  O   UNL     1     -11.554 -17.402  32.973  1.00  0.00    -0.550 OA
ENDBRANCH   8   9
ENDBRANCH   7   8
ENDBRANCH   6   7
ENDBRANCH   5   6
ENDBRANCH   4   5
ENDBRANCH   3   4
ENDBRANCH   2   3
ENDBRANCH   1   2
BRANCH   1  12
ATOM     12  C   UNL     1      -8.656 -14.181  26.117  1.00  0.00     0.000 C 
BRANCH  12  13
ATOM     13  C   UNL     1      -7.607 -15.090  26.784  1.00  0.00    -0.000 C 
BRANCH  13  14
ATOM     14  C   UNL     1      -6.188 -14.497  26.879  1.00  0.00    -0.000 C 
BRANCH  14  15
ATOM     15  C   UNL     1      -5.642 -14.472  28.317  1.00  0.00    -0.000 C 
BRANCH  15  16
ATOM     16  C   UNL     1      -6.760 -14.443  29.373  1.00  0.00    -0.000 C 
BRANCH  16  17
ATOM     17  C   UNL     1      -6.481 -13.444  30.506  1.00  0.00    -0.000 C 
BRANCH  17  18
ATOM     18  C   UNL     1      -7.489 -13.618  31.650  1.00  0.00    -0.000 C 
BRANCH  18  19
ATOM     19  C   UNL     1      -8.367 -14.868  31.482  1.00  0.00    -0.003 C 
ATOM     20  C   UNL     1      -9.810 -14.644  31.936  1.00  0.00     0.004 C 
ENDBRANCH  18  19
ENDBRANCH  17  18
ENDBRANCH  16  17
ENDBRANCH  15  16
ENDBRANCH  14  15
ENDBRANCH  13  14
ENDBRANCH  12  13
ENDBRANCH   1  12
TORSDOF 16
ENDMDL
MODEL 4
REMARK VINA RESULT:    -5.440      2.572      5.788
REMARK INTER + INTRA:         -12.467
REMARK INTER:                 -10.885
REMARK INTRA:                  -1.582
REMARK UNBOUND:                -1.938
REMARK SMILES CCCCCCCCCCCCCCCCCC(=O)[O-]
REMARK SMILES IDX 10 1 11 2 12 3 13 4 14 5 15 6 16 7 17 8 18 9 19 10 20 11
REMARK SMILES IDX 9 12 8 13 7 14 6 15 5 16 4 17 3 18 2 19 1 20
REMARK H PARENT
REMARK Flexibility Score: inf
ROOT
ATOM      1  C   UNL     1      -6.741 -14.476  28.882  1.00  0.00     0.000 C 
ENDROOT
BRANCH   1   2
ATOM      2  C   UNL     1      -6.059 -13.545  29.897  1.00  0.00     0.000 C 
BRANCH   2   3
ATOM      3  C   UNL     1      -6.914 -13.318  31.157  1.00  0.00     0.000 C 
BRANCH   3   4
ATOM      4  C   UNL     1      -6.724 -14.424  32.207  1.00  0.00     0.000 C 
BRANCH   4   5
ATOM      5  C   UNL     1      -7.632 -15.638  31.961  1.00  0.00     0.000 C 
BRANCH   5   6
ATOM      6  C   UNL     1      -9.089 -15.202  31.763  1.00  0.00     0.000 C 
BRANCH   6   7
ATOM      7  C   UNL     1     -10.050 -16.382  31.970  1.00  0.00     0.006 C 
BRANCH   7   8
ATOM      8  C   UNL     1      -9.351 -17.738  31.798  1.00  0.00     0.053 C 
BRANCH   8   9
ATOM      9  C   UNL     1     -10.266 -18.762  31.198  1.00  0.00     0.041 C 
ATOM     10  O   UNL     1     -11.203 -19.253  31.883  1.00  0.00    -0.550 OA
ATOM     11  O   UNL     1     -10.102 -19.152  29.875  1.00  0.00    -0.550 OA
ENDBRANCH   8   9
ENDBRANCH   7   8
ENDBRANCH   6   7
ENDBRANCH   5   6
ENDBRANCH   4   5
ENDBRANCH   3   4
ENDBRANCH   2   3
ENDBRANCH   1   2
BRANCH   1  12
ATOM     12  C   UNL     1      -6.066 -14.439  27.500  1.00  0.00     0.000 C 
BRANCH  12  13
ATOM     13  C   UNL     1      -7.072 -14.283  26.345  1.00  0.00    -0.000 C 
BRANCH  13  14
ATOM     14  C   UNL     1      -8.297 -15.214  26.410  1.00  0.00    -0.000 C 
BRANCH  14  15
ATOM     15  C   UNL     1      -9.573 -14.568  25.843  1.00  0.00    -0.000 C 
BRANCH  15  16
ATOM     16  C   UNL     1     -10.852 -15.301  26.281  1.00  0.00    -0.000 C 
BRANCH  16  17
ATOM     17  C   UNL     1     -10.717 -15.955  27.664  1.00  0.00    -0.000 C 
BRANCH  17  18
ATOM     18  C   UNL     1     -12.010 -16.687  28.053  1.00  0.00    -0.000 C 
BRANCH  18  19
ATOM     19  C   UNL     1     -12.486 -16.337  29.471  1.00  0.00    -0.003 C 
ATOM     20  C   UNL     1     -13.494 -17.345  30.023  1.00  0.00     0.004 C 
ENDBRANCH  18  19
ENDBRANCH  17  18
ENDBRANCH  16  17
ENDBRANCH  15  16
ENDBRANCH  14  15
ENDBRANCH  13  14
ENDBRANCH  12  13
ENDBRANCH   1  12
TORSDOF 16
ENDMDL
MODEL 5
REMARK VINA RESULT:    -5.404      2.284      5.479
REMARK INTER + INTRA:         -12.397
REMARK INTER:                 -10.300
REMARK INTRA:                  -2.097
REMARK UNBOUND:                -1.938
REMARK SMILES CCCCCCCCCCCCCCCCCC(=O)[O-]
REMARK SMILES IDX 10 1 11 2 12 3 13 4 14 5 15 6 16 7 17 8 18 9 19 10 20 11
REMARK SMILES IDX 9 12 8 13 7 14 6 15 5 16 4 17 3 18 2 19 1 20
REMARK H PARENT
REMARK Flexibility Score: inf
ROOT
ATOM      1  C   UNL     1     -10.149 -18.997  30.092  1.00  0.00     0.000 C 
ENDROOT
BRANCH   1   2
ATOM      2  C   UNL     1     -11.404 -18.763  29.236  1.00  0.00     0.000 C 
BRANCH   2   3
ATOM      3  C   UNL     1     -12.659 -18.502  30.089  1.00  0.00     0.000 C 
BRANCH   3   4
ATOM      4  C   UNL     1     -13.390 -17.212  29.685  1.00  0.00     0.000 C 
BRANCH   4   5
ATOM      5  C   UNL     1     -12.472 -16.209  28.971  1.00  0.00     0.000 C 
BRANCH   5   6
ATOM      6  C   UNL     1     -12.982 -15.908  27.556  1.00  0.00     0.000 C 
BRANCH   6   7
ATOM      7  C   UNL     1     -11.824 -15.877  26.548  1.00  0.00     0.006 C 
BRANCH   7   8
ATOM      8  C   UNL     1     -10.458 -15.756  27.236  1.00  0.00     0.053 C 
BRANCH   8   9
ATOM      9  C   UNL     1      -9.475 -15.002  26.392  1.00  0.00     0.041 C 
ATOM     10  O   UNL     1      -9.882 -14.238  25.477  1.00  0.00    -0.550 OA
ATOM     11  O   UNL     1      -8.112 -15.120  26.635  1.00  0.00    -0.550 OA
ENDBRANCH   8   9
ENDBRANCH   7   8
ENDBRANCH   6   7
ENDBRANCH   5   6
ENDBRANCH   4   5
ENDBRANCH   3   4
ENDBRANCH   2   3
ENDBRANCH   1   2
BRANCH   1  12
ATOM     12  C   UNL     1     -10.422 -18.836  31.598  1.00  0.00     0.000 C 
BRANCH  12  13
ATOM     13  C   UNL     1      -9.632 -17.675  32.231  1.00  0.00    -0.000 C 
BRANCH  13  14
ATOM     14  C   UNL     1     -10.251 -16.278  32.042  1.00  0.00    -0.000 C 
BRANCH  14  15
ATOM     15  C   UNL     1      -9.440 -15.386  31.087  1.00  0.00    -0.000 C 
BRANCH  15  16
ATOM     16  C   UNL     1      -8.672 -14.276  31.823  1.00  0.00    -0.000 C 
BRANCH  16  17
ATOM     17  C   UNL     1      -7.187 -14.613  32.021  1.00  0.00    -0.000 C 
BRANCH  17  18
ATOM     18  C   UNL     1      -6.500 -14.873  30.672  1.00  0.00    -0.000 C 
BRANCH  18  19
ATOM     19  C   UNL     1      -6.620 -13.684  29.706  1.00  0.00    -0.003 C 
ATOM     20  C   UNL     1      -5.288 -13.311  29.057  1.00  0.00     0.004 C 
ENDBRANCH  18  19
ENDBRANCH  17  18
ENDBRANCH  16  17
ENDBRANCH  15  16
ENDBRANCH  14  15
ENDBRANCH  13  14
ENDBRANCH  12  13
ENDBRANCH   1  12
TORSDOF 16
ENDMDL
MODEL 6
REMARK VINA RESULT:    -5.392      2.600      6.416
REMARK INTER + INTRA:         -12.374
REMARK INTER:                 -10.623
REMARK INTRA:                  -1.751
REMARK UNBOUND:                -1.938
REMARK SMILES CCCCCCCCCCCCCCCCCC(=O)[O-]
REMARK SMILES IDX 10 1 11 2 12 3 13 4 14 5 15 6 16 7 17 8 18 9 19 10 20 11
REMARK SMILES IDX 9 12 8 13 7 14 6 15 5 16 4 17 3 18 2 19 1 20
REMARK H PARENT
REMARK Flexibility Score: inf
ROOT
ATOM      1  C   UNL     1      -6.514 -13.550  30.446  1.00  0.00     0.000 C 
ENDROOT
BRANCH   1   2
ATOM      2  C   UNL     1      -7.275 -13.976  31.712  1.00  0.00     0.000 C 
BRANCH   2   3
ATOM      3  C   UNL     1      -7.239 -15.498  31.939  1.00  0.00     0.000 C 
BRANCH   3   4
ATOM      4  C   UNL     1      -8.606 -16.163  31.709  1.00  0.00     0.000 C 
BRANCH   4   5
ATOM      5  C   UNL     1      -9.764 -15.154  31.716  1.00  0.00     0.000 C 
BRANCH   5   6
ATOM      6  C   UNL     1     -11.035 -15.773  31.121  1.00  0.00     0.000 C 
BRANCH   6   7
ATOM      7  C   UNL     1     -11.500 -16.978  31.951  1.00  0.00     0.006 C 
BRANCH   7   8
ATOM      8  C   UNL     1     -11.892 -18.174  31.072  1.00  0.00     0.053 C 
BRANCH   8   9
ATOM      9  C   UNL     1     -10.689 -18.860  30.498  1.00  0.00     0.041 C 
ATOM     10  O   UNL     1     -10.546 -18.949  29.250  1.00  0.00    -0.550 OA
ATOM     11  O   UNL     1      -9.712 -19.374  31.342  1.00  0.00    -0.550 OA
ENDBRANCH   8   9
ENDBRANCH   7   8
ENDBRANCH   6   7
ENDBRANCH   5   6
ENDBRANCH   4   5
ENDBRANCH   3   4
ENDBRANCH   2   3
ENDBRANCH   1   2
BRANCH   1  12
ATOM     12  C   UNL     1      -7.020 -14.269  29.183  1.00  0.00     0.000 C 
BRANCH  12  13
ATOM     13  C   UNL     1      -5.934 -14.416  28.101  1.00  0.00    -0.000 C 
BRANCH  13  14
ATOM     14  C   UNL     1      -6.452 -14.449  26.651  1.00  0.00    -0.000 C 
BRANCH  14  15
ATOM     15  C   UNL     1      -7.791 -15.195  26.508  1.00  0.00    -0.000 C 
BRANCH  15  16
ATOM     16  C   UNL     1      -8.914 -14.296  25.967  1.00  0.00    -0.000 C 
BRANCH  16  17
ATOM     17  C   UNL     1     -10.300 -14.950  26.070  1.00  0.00    -0.000 C 
BRANCH  17  18
ATOM     18  C   UNL     1     -10.407 -15.809  27.338  1.00  0.00    -0.000 C 
BRANCH  18  19
ATOM     19  C   UNL     1     -11.800 -16.431  27.517  1.00  0.00    -0.003 C 
ATOM     20  C   UNL     1     -12.836 -15.851  26.554  1.00  0.00     0.004 C 
ENDBRANCH  18  19
ENDBRANCH  17  18
ENDBRANCH  16  17
ENDBRANCH  15  16
ENDBRANCH  14  15
ENDBRANCH  13  14
ENDBRANCH  12  13
ENDBRANCH   1  12
TORSDOF 16
ENDMDL
MODEL 7
REMARK VINA RESULT:    -5.313      2.404      4.590
REMARK INTER + INTRA:         -12.220
REMARK INTER:                 -10.370
REMARK INTRA:                  -1.849
REMARK UNBOUND:                -1.938
REMARK SMILES CCCCCCCCCCCCCCCCCC(=O)[O-]
REMARK SMILES IDX 10 1 11 2 12 3 13 4 14 5 15 6 16 7 17 8 18 9 19 10 20 11
REMARK SMILES IDX 9 12 8 13 7 14 6 15 5 16 4 17 3 18 2 19 1 20
REMARK H PARENT
REMARK Flexibility Score: inf
ROOT
ATOM      1  C   UNL     1      -7.333 -15.486  31.795  1.00  0.00     0.000 C 
ENDROOT
BRANCH   1   2
ATOM      2  C   UNL     1      -7.629 -13.982  31.914  1.00  0.00     0.000 C 
BRANCH   2   3
ATOM      3  C   UNL     1      -6.685 -13.125  31.052  1.00  0.00     0.000 C 
BRANCH   3   4
ATOM      4  C   UNL     1      -5.634 -13.968  30.311  1.00  0.00     0.000 C 
BRANCH   4   5
ATOM      5  C   UNL     1      -5.363 -13.459  28.887  1.00  0.00     0.000 C 
BRANCH   5   6
ATOM      6  C   UNL     1      -5.789 -14.499  27.843  1.00  0.00     0.000 C 
BRANCH   6   7
ATOM      7  C   UNL     1      -7.318 -14.544  27.703  1.00  0.00     0.006 C 
BRANCH   7   8
ATOM      8  C   UNL     1      -7.761 -14.994  26.305  1.00  0.00     0.053 C 
BRANCH   8   9
ATOM      9  C   UNL     1      -9.047 -14.343  25.892  1.00  0.00     0.041 C 
ATOM     10  O   UNL     1      -9.033 -13.215  25.332  1.00  0.00    -0.550 OA
ATOM     11  O   UNL     1     -10.256 -14.994  26.100  1.00  0.00    -0.550 OA
ENDBRANCH   8   9
ENDBRANCH   7   8
ENDBRANCH   6   7
ENDBRANCH   5   6
ENDBRANCH   4   5
ENDBRANCH   3   4
ENDBRANCH   2   3
ENDBRANCH   1   2
BRANCH   1  12
ATOM     12  C   UNL     1      -8.503 -16.270  31.176  1.00  0.00     0.000 C 
BRANCH  12  13
ATOM     13  C   UNL     1      -9.020 -17.397  32.090  1.00  0.00    -0.000 C 
BRANCH  13  14
ATOM     14  C   UNL     1      -9.757 -18.541  31.370  1.00  0.00    -0.000 C 
BRANCH  14  15
ATOM     15  C   UNL     1     -11.145 -18.832  31.967  1.00  0.00    -0.000 C 
BRANCH  15  16
ATOM     16  C   UNL     1     -11.972 -17.555  32.190  1.00  0.00    -0.000 C 
BRANCH  16  17
ATOM     17  C   UNL     1     -12.805 -17.165  30.961  1.00  0.00    -0.000 C 
BRANCH  17  18
ATOM     18  C   UNL     1     -12.149 -16.002  30.201  1.00  0.00    -0.000 C 
BRANCH  18  19
ATOM     19  C   UNL     1     -12.000 -16.285  28.698  1.00  0.00    -0.003 C 
ATOM     20  C   UNL     1     -11.856 -17.775  28.388  1.00  0.00     0.004 C 
ENDBRANCH  18  19
ENDBRANCH  17  18
ENDBRANCH  16  17
ENDBRANCH  15  16
ENDBRANCH  14  15
ENDBRANCH  13  14
ENDBRANCH  12  13
ENDBRANCH   1  12
TORSDOF 16
ENDMDL
MODEL 8
REMARK VINA RESULT:    -5.237      2.337      6.079
REMARK INTER + INTRA:         -12.074
REMARK INTER:                 -10.571
REMARK INTRA:                  -1.503
REMARK UNBOUND:                -1.938
REMARK SMILES CCCCCCCCCCCCCCCCCC(=O)[O-]
REMARK SMILES IDX 10 1 11 2 12 3 13 4 14 5 15 6 16 7 17 8 18 9 19 10 20 11
REMARK SMILES IDX 9 12 8 13 7 14 6 15 5 16 4 17 3 18 2 19 1 20
REMARK H PARENT
REMARK Flexibility Score: inf
ROOT
ATOM      1  C   UNL     1      -9.867 -17.976  31.684  1.00  0.00     0.000 C 
ENDROOT
BRANCH   1   2
ATOM      2  C   UNL     1     -11.093 -18.188  30.781  1.00  0.00     0.000 C 
BRANCH   2   3
ATOM      3  C   UNL     1     -12.026 -16.964  30.757  1.00  0.00     0.000 C 
BRANCH   3   4
ATOM      4  C   UNL     1     -13.183 -17.122  29.757  1.00  0.00     0.000 C 
BRANCH   4   5
ATOM      5  C   UNL     1     -13.027 -16.221  28.523  1.00  0.00     0.000 C 
BRANCH   5   6
ATOM      6  C   UNL     1     -12.035 -16.829  27.523  1.00  0.00     0.000 C 
BRANCH   6   7
ATOM      7  C   UNL     1     -11.227 -15.732  26.814  1.00  0.00     0.006 C 
BRANCH   7   8
ATOM      8  C   UNL     1      -9.776 -15.667  27.310  1.00  0.00     0.053 C 
BRANCH   8   9
ATOM      9  C   UNL     1      -8.891 -14.936  26.345  1.00  0.00     0.041 C 
ATOM     10  O   UNL     1      -7.680 -15.258  26.228  1.00  0.00    -0.550 OA
ATOM     11  O   UNL     1      -9.413 -13.919  25.555  1.00  0.00    -0.550 OA
ENDBRANCH   8   9
ENDBRANCH   7   8
ENDBRANCH   6   7
ENDBRANCH   5   6
ENDBRANCH   4   5
ENDBRANCH   3   4
ENDBRANCH   2   3
ENDBRANCH   1   2
BRANCH   1  12
ATOM     12  C   UNL     1      -9.295 -16.552  31.579  1.00  0.00     0.000 C 
BRANCH  12  13
ATOM     13  C   UNL     1      -7.791 -16.484  31.900  1.00  0.00    -0.000 C 
BRANCH  13  14
ATOM     14  C   UNL     1      -7.090 -15.174  31.492  1.00  0.00    -0.000 C 
BRANCH  14  15
ATOM     15  C   UNL     1      -7.525 -14.668  30.106  1.00  0.00    -0.000 C 
BRANCH  15  16
ATOM     16  C   UNL     1      -6.349 -14.116  29.282  1.00  0.00    -0.000 C 
BRANCH  16  17
ATOM     17  C   UNL     1      -5.316 -13.375  30.145  1.00  0.00    -0.000 C 
BRANCH  17  18
ATOM     18  C   UNL     1      -5.732 -11.913  30.362  1.00  0.00    -0.000 C 
BRANCH  18  19
ATOM     19  C   UNL     1      -5.936 -11.569  31.846  1.00  0.00    -0.003 C 
ATOM     20  C   UNL     1      -4.619 -11.425  32.607  1.00  0.00     0.004 C 
ENDBRANCH  18  19
ENDBRANCH  17  18
ENDBRANCH  16  17
ENDBRANCH  15  16
ENDBRANCH  14  15
ENDBRANCH  13  14
ENDBRANCH  12  13
ENDBRANCH   1  12
TORSDOF 16
ENDMDL
MODEL 9
REMARK VINA RESULT:    -5.184      1.170      1.794
REMARK INTER + INTRA:         -11.970
REMARK INTER:                 -10.386
REMARK INTRA:                  -1.584
REMARK UNBOUND:                -1.938
REMARK SMILES CCCCCCCCCCCCCCCCCC(=O)[O-]
REMARK SMILES IDX 10 1 11 2 12 3 13 4 14 5 15 6 16 7 17 8 18 9 19 10 20 11
REMARK SMILES IDX 9 12 8 13 7 14 6 15 5 16 4 17 3 18 2 19 1 20
REMARK H PARENT
REMARK Flexibility Score: inf
ROOT
ATOM      1  C   UNL     1      -9.763 -15.363  26.663  1.00  0.00     0.000 C 
ENDROOT
BRANCH   1   2
ATOM      2  C   UNL     1      -9.373 -14.154  25.797  1.00  0.00     0.000 C 
BRANCH   2   3
ATOM      3  C   UNL     1      -7.901 -13.746  25.983  1.00  0.00     0.000 C 
BRANCH   3   4
ATOM      4  C   UNL     1      -7.052 -14.866  26.608  1.00  0.00     0.000 C 
BRANCH   4   5
ATOM      5  C   UNL     1      -6.193 -14.373  27.782  1.00  0.00     0.000 C 
BRANCH   5   6
ATOM      6  C   UNL     1      -6.939 -14.535  29.113  1.00  0.00     0.000 C 
BRANCH   6   7
ATOM      7  C   UNL     1      -6.545 -13.428  30.102  1.00  0.00     0.006 C 
BRANCH   7   8
ATOM      8  C   UNL     1      -5.286 -12.671  29.658  1.00  0.00     0.053 C 
BRANCH   8   9
ATOM      9  C   UNL     1      -5.105 -11.395  30.424  1.00  0.00     0.041 C 
ATOM     10  O   UNL     1      -6.070 -10.899  31.063  1.00  0.00    -0.550 OA
ATOM     11  O   UNL     1      -3.864 -10.772  30.456  1.00  0.00    -0.550 OA
ENDBRANCH   8   9
ENDBRANCH   7   8
ENDBRANCH   6   7
ENDBRANCH   5   6
ENDBRANCH   4   5
ENDBRANCH   3   4
ENDBRANCH   2   3
ENDBRANCH   1   2
BRANCH   1  12
ATOM     12  C   UNL     1     -11.272 -15.658  26.621  1.00  0.00     0.000 C 
BRANCH  12  13
ATOM     13  C   UNL     1     -11.812 -16.216  27.951  1.00  0.00    -0.000 C 
BRANCH  13  14
ATOM     14  C   UNL     1     -11.587 -17.724  28.171  1.00  0.00    -0.000 C 
BRANCH  14  15
ATOM     15  C   UNL     1     -11.628 -18.127  29.655  1.00  0.00    -0.000 C 
BRANCH  15  16
ATOM     16  C   UNL     1     -10.279 -18.669  30.158  1.00  0.00    -0.000 C 
BRANCH  16  17
ATOM     17  C   UNL     1      -9.646 -17.778  31.237  1.00  0.00    -0.000 C 
BRANCH  17  18
ATOM     18  C   UNL     1      -9.663 -16.303  30.808  1.00  0.00    -0.000 C 
BRANCH  18  19
ATOM     19  C   UNL     1     -10.401 -15.402  31.811  1.00  0.00    -0.003 C 
ATOM     20  C   UNL     1      -9.606 -14.150  32.179  1.00  0.00     0.004 C 
ENDBRANCH  18  19
ENDBRANCH  17  18
ENDBRANCH  16  17
ENDBRANCH  15  16
ENDBRANCH  14  15
ENDBRANCH  13  14
ENDBRANCH  12  13
ENDBRANCH   1  12
TORSDOF 16
ENDMDL
