MODEL 1
REMARK VINA RESULT:    -4.401      0.000      0.000
REMARK INTER + INTRA:         -16.360
REMARK INTER:                 -11.606
REMARK INTRA:                  -4.754
REMARK UNBOUND:                -4.754
REMARK SMILES CCCCCCCCCCCCCCCCCCCCCCCCCCCCCC(=O)[O-]
REMARK SMILES IDX 16 1 17 2 18 3 19 4 20 5 21 6 22 7 23 8 24 9 25 10 26 11
REMARK SMILES IDX 27 12 28 13 29 14 30 15 31 16 32 17 15 18 14 19 13 20 12 21
REMARK SMILES IDX 11 22 10 23 9 24 8 25 7 26 6 27 5 28 4 29 3 30 2 31 1 32
REMARK H PARENT
REMARK Flexibility Score: inf
ROOT
ATOM      1  C   UNL     1      20.342  37.403  30.848  1.00  0.00     0.000 C 
ENDROOT
BRANCH   1   2
ATOM      2  C   UNL     1      21.496  37.963  31.695  1.00  0.00     0.000 C 
BRANCH   2   3
ATOM      3  C   UNL     1      21.242  37.739  33.190  1.00  0.00     0.000 C 
BRANCH   3   4
ATOM      4  C   UNL     1      22.131  38.656  34.042  1.00  0.00     0.000 C 
BRANCH   4   5
ATOM      5  C   UNL     1      22.368  38.109  35.460  1.00  0.00     0.000 C 
BRANCH   5   6
ATOM      6  C   UNL     1      21.878  36.656  35.651  1.00  0.00     0.000 C 
BRANCH   6   7
ATOM      7  C   UNL     1      22.473  36.000  36.909  1.00  0.00     0.000 C 
BRANCH   7   8
ATOM      8  C   UNL     1      21.587  36.199  38.151  1.00  0.00     0.000 C 
BRANCH   8   9
ATOM      9  C   UNL     1      22.141  37.271  39.108  1.00  0.00     0.000 C 
BRANCH   9  10
ATOM     10  C   UNL     1      21.249  38.524  39.179  1.00  0.00     0.000 C 
BRANCH  10  11
ATOM     11  C   UNL     1      19.804  38.269  39.654  1.00  0.00     0.000 C 
BRANCH  11  12
ATOM     12  C   UNL     1      18.723  38.385  38.563  1.00  0.00     0.000 C 
BRANCH  12  13
ATOM     13  C   UNL     1      19.212  38.941  37.212  1.00  0.00     0.006 C 
BRANCH  13  14
ATOM     14  C   UNL     1      18.579  38.254  35.988  1.00  0.00     0.053 C 
BRANCH  14  15
ATOM     15  C   UNL     1      18.091  39.238  34.968  1.00  0.00     0.041 C 
ATOM     16  O   UNL     1      16.882  39.244  34.622  1.00  0.00    -0.550 OA
ATOM     17  O   UNL     1      18.961  40.187  34.442  1.00  0.00    -0.550 OA
ENDBRANCH  14  15
ENDBRANCH  13  14
ENDBRANCH  12  13
ENDBRANCH  11  12
ENDBRANCH  10  11
ENDBRANCH   9  10
ENDBRANCH   8   9
ENDBRANCH   7   8
ENDBRANCH   6   7
ENDBRANCH   5   6
ENDBRANCH   4   5
ENDBRANCH   3   4
ENDBRANCH   2   3
ENDBRANCH   1   2
BRANCH   1  18
ATOM     18  C   UNL     1      19.126  36.981  31.688  1.00  0.00     0.000 C 
BRANCH  18  19
ATOM     19  C   UNL     1      17.861  37.839  31.503  1.00  0.00     0.000 C 
BRANCH  19  20
ATOM     20  C   UNL     1      18.137  39.318  31.157  1.00  0.00     0.000 C 
BRANCH  20  21
ATOM     21  C   UNL     1      16.892  40.057  30.627  1.00  0.00     0.000 C 
BRANCH  21  22
ATOM     22  C   UNL     1      16.871  40.153  29.093  1.00  0.00     0.000 C 
BRANCH  22  23
ATOM     23  C   UNL     1      15.493  40.567  28.545  1.00  0.00     0.000 C 
BRANCH  23  24
ATOM     24  C   UNL     1      15.287  40.141  27.082  1.00  0.00    -0.000 C 
BRANCH  24  25
ATOM     25  C   UNL     1      14.333  38.941  26.945  1.00  0.00    -0.000 C 
BRANCH  25  26
ATOM     26  C   UNL     1      14.589  38.128  25.666  1.00  0.00    -0.000 C 
BRANCH  26  27
ATOM     27  C   UNL     1      15.956  38.446  25.030  1.00  0.00    -0.000 C 
BRANCH  27  28
ATOM     28  C   UNL     1      16.706  37.178  24.587  1.00  0.00    -0.000 C 
BRANCH  28  29
ATOM     29  C   UNL     1      18.111  37.079  25.208  1.00  0.00    -0.000 C 
BRANCH  29  30
ATOM     30  C   UNL     1      18.249  37.905  26.497  1.00  0.00    -0.000 C 
BRANCH  30  31
ATOM     31  C   UNL     1      18.322  37.033  27.760  1.00  0.00    -0.003 C 
ATOM     32  C   UNL     1      16.937  36.538  28.167  1.00  0.00     0.004 C 
ENDBRANCH  30  31
ENDBRANCH  29  30
ENDBRANCH  28  29
ENDBRANCH  27  28
ENDBRANCH  26  27
ENDBRANCH  25  26
ENDBRANCH  24  25
ENDBRANCH  23  24
ENDBRANCH  22  23
ENDBRANCH  21  22
ENDBRANCH  20  21
ENDBRANCH  19  20
ENDBRANCH  18  19
ENDBRANCH   1  18
TORSDOF 28
ENDMDL
MODEL 2
REMARK VINA RESULT:    -4.348      3.705      8.358
REMARK INTER + INTRA:         -16.220
REMARK INTER:                 -10.935
REMARK INTRA:                  -5.285
REMARK UNBOUND:                -4.754
REMARK SMILES CCCCCCCCCCCCCCCCCCCCCCCCCCCCCC(=O)[O-]
REMARK SMILES IDX 16 1 17 2 18 3 19 4 20 5 21 6 22 7 23 8 24 9 25 10 26 11
REMARK SMILES IDX 27 12 28 13 29 14 30 15 31 16 32 17 15 18 14 19 13 20 12 21
REMARK SMILES IDX 11 22 10 23 9 24 8 25 7 26 6 27 5 28 4 29 3 30 2 31 1 32
REMARK H PARENT
REMARK Flexibility Score: inf
ROOT
ATOM      1  C   UNL     1      17.975  35.115  28.025  1.00  0.00     0.000 C 
ENDROOT
BRANCH   1   2
ATOM      2  C   UNL     1      16.976  36.274  27.873  1.00  0.00     0.000 C 
BRANCH   2   3
ATOM      3  C   UNL     1      17.299  37.120  26.635  1.00  0.00     0.000 C 
BRANCH   3   4
ATOM      4  C   UNL     1      16.022  37.726  26.036  1.00  0.00     0.000 C 
BRANCH   4   5
ATOM      5  C   UNL     1      14.915  37.940  27.081  1.00  0.00     0.000 C 
BRANCH   5   6
ATOM      6  C   UNL     1      14.101  39.235  26.864  1.00  0.00     0.000 C 
BRANCH   6   7
ATOM      7  C   UNL     1      14.594  40.390  27.753  1.00  0.00     0.000 C 
BRANCH   7   8
ATOM      8  C   UNL     1      15.802  41.124  27.148  1.00  0.00     0.000 C 
BRANCH   8   9
ATOM      9  C   UNL     1      17.113  40.827  27.898  1.00  0.00     0.000 C 
BRANCH   9  10
ATOM     10  C   UNL     1      16.879  40.388  29.355  1.00  0.00     0.000 C 
BRANCH  10  11
ATOM     11  C   UNL     1      17.703  39.166  29.807  1.00  0.00     0.000 C 
BRANCH  11  12
ATOM     12  C   UNL     1      18.977  39.492  30.610  1.00  0.00     0.000 C 
BRANCH  12  13
ATOM     13  C   UNL     1      20.059  38.396  30.595  1.00  0.00     0.006 C 
BRANCH  13  14
ATOM     14  C   UNL     1      19.525  36.988  30.919  1.00  0.00     0.053 C 
BRANCH  14  15
ATOM     15  C   UNL     1      19.410  36.745  32.394  1.00  0.00     0.041 C 
ATOM     16  O   UNL     1      20.269  37.217  33.183  1.00  0.00    -0.550 OA
ATOM     17  O   UNL     1      18.321  36.046  32.903  1.00  0.00    -0.550 OA
ENDBRANCH  14  15
ENDBRANCH  13  14
ENDBRANCH  12  13
ENDBRANCH  11  12
ENDBRANCH  10  11
ENDBRANCH   9  10
ENDBRANCH   8   9
ENDBRANCH   7   8
ENDBRANCH   6   7
ENDBRANCH   5   6
ENDBRANCH   4   5
ENDBRANCH   3   4
ENDBRANCH   2   3
ENDBRANCH   1   2
BRANCH   1  18
ATOM     18  C   UNL     1      19.374  35.448  27.484  1.00  0.00     0.000 C 
BRANCH  18  19
ATOM     19  C   UNL     1      19.930  34.468  26.434  1.00  0.00     0.000 C 
BRANCH  19  20
ATOM     20  C   UNL     1      19.766  34.937  24.972  1.00  0.00     0.000 C 
BRANCH  20  21
ATOM     21  C   UNL     1      20.730  34.230  23.999  1.00  0.00     0.000 C 
BRANCH  21  22
ATOM     22  C   UNL     1      21.284  32.915  24.569  1.00  0.00     0.000 C 
BRANCH  22  23
ATOM     23  C   UNL     1      20.577  31.675  23.993  1.00  0.00     0.000 C 
BRANCH  23  24
ATOM     24  C   UNL     1      19.881  30.835  25.077  1.00  0.00    -0.000 C 
BRANCH  24  25
ATOM     25  C   UNL     1      18.472  31.356  25.414  1.00  0.00    -0.000 C 
BRANCH  25  26
ATOM     26  C   UNL     1      17.451  31.048  24.308  1.00  0.00    -0.000 C 
BRANCH  26  27
ATOM     27  C   UNL     1      16.297  32.068  24.271  1.00  0.00    -0.000 C 
BRANCH  27  28
ATOM     28  C   UNL     1      16.497  33.218  25.273  1.00  0.00    -0.000 C 
BRANCH  28  29
ATOM     29  C   UNL     1      15.291  34.173  25.320  1.00  0.00    -0.000 C 
BRANCH  29  30
ATOM     30  C   UNL     1      14.320  33.847  26.467  1.00  0.00    -0.000 C 
BRANCH  30  31
ATOM     31  C   UNL     1      14.966  33.001  27.574  1.00  0.00    -0.003 C 
ATOM     32  C   UNL     1      14.691  33.597  28.952  1.00  0.00     0.004 C 
ENDBRANCH  30  31
ENDBRANCH  29  30
ENDBRANCH  28  29
ENDBRANCH  27  28
ENDBRANCH  26  27
ENDBRANCH  25  26
ENDBRANCH  24  25
ENDBRANCH  23  24
ENDBRANCH  22  23
ENDBRANCH  21  22
ENDBRANCH  20  21
ENDBRANCH  19  20
ENDBRANCH  18  19
ENDBRANCH   1  18
TORSDOF 28
ENDMDL
MODEL 3
REMARK VINA RESULT:    -4.337      4.572      9.485
REMARK INTER + INTRA:         -16.190
REMARK INTER:                 -10.753
REMARK INTRA:                  -5.436
REMARK UNBOUND:                -4.754
REMARK SMILES CCCCCCCCCCCCCCCCCCCCCCCCCCCCCC(=O)[O-]
REMARK SMILES IDX 16 1 17 2 18 3 19 4 20 5 21 6 22 7 23 8 24 9 25 10 26 11
REMARK SMILES IDX 27 12 28 13 29 14 30 15 31 16 32 17 15 18 14 19 13 20 12 21
REMARK SMILES IDX 11 22 10 23 9 24 8 25 7 26 6 27 5 28 4 29 3 30 2 31 1 32
REMARK H PARENT
REMARK Flexibility Score: inf
ROOT
ATOM      1  C   UNL     1      19.697  34.229  26.763  1.00  0.00     0.000 C 
ENDROOT
BRANCH   1   2
ATOM      2  C   UNL     1      20.511  33.007  26.309  1.00  0.00     0.000 C 
BRANCH   2   3
ATOM      3  C   UNL     1      20.908  33.127  24.833  1.00  0.00     0.000 C 
BRANCH   3   4
ATOM      4  C   UNL     1      20.522  31.860  24.055  1.00  0.00     0.000 C 
BRANCH   4   5
ATOM      5  C   UNL     1      19.501  30.988  24.804  1.00  0.00     0.000 C 
BRANCH   5   6
ATOM      6  C   UNL     1      18.072  31.075  24.225  1.00  0.00     0.000 C 
BRANCH   6   7
ATOM      7  C   UNL     1      17.094  31.775  25.184  1.00  0.00     0.000 C 
BRANCH   7   8
ATOM      8  C   UNL     1      16.098  32.687  24.448  1.00  0.00     0.000 C 
BRANCH   8   9
ATOM      9  C   UNL     1      16.606  34.134  24.316  1.00  0.00     0.000 C 
BRANCH   9  10
ATOM     10  C   UNL     1      15.556  35.175  24.745  1.00  0.00     0.000 C 
BRANCH  10  11
ATOM     11  C   UNL     1      14.838  34.866  26.074  1.00  0.00     0.000 C 
BRANCH  11  12
ATOM     12  C   UNL     1      15.731  34.905  27.329  1.00  0.00     0.000 C 
BRANCH  12  13
ATOM     13  C   UNL     1      15.224  34.068  28.520  1.00  0.00     0.006 C 
BRANCH  13  14
ATOM     14  C   UNL     1      13.930  33.286  28.226  1.00  0.00     0.053 C 
BRANCH  14  15
ATOM     15  C   UNL     1      14.166  31.810  28.114  1.00  0.00     0.041 C 
ATOM     16  O   UNL     1      14.474  31.139  29.132  1.00  0.00    -0.550 OA
ATOM     17  O   UNL     1      13.987  31.165  26.894  1.00  0.00    -0.550 OA
ENDBRANCH  14  15
ENDBRANCH  13  14
ENDBRANCH  12  13
ENDBRANCH  11  12
ENDBRANCH  10  11
ENDBRANCH   9  10
ENDBRANCH   8   9
ENDBRANCH   7   8
ENDBRANCH   6   7
ENDBRANCH   5   6
ENDBRANCH   4   5
ENDBRANCH   3   4
ENDBRANCH   2   3
ENDBRANCH   1   2
BRANCH   1  18
ATOM     18  C   UNL     1      19.623  35.335  25.698  1.00  0.00     0.000 C 
BRANCH  18  19
ATOM     19  C   UNL     1      18.830  36.593  26.101  1.00  0.00     0.000 C 
BRANCH  19  20
ATOM     20  C   UNL     1      18.503  37.545  24.930  1.00  0.00     0.000 C 
BRANCH  20  21
ATOM     21  C   UNL     1      17.831  38.855  25.387  1.00  0.00     0.000 C 
BRANCH  21  22
ATOM     22  C   UNL     1      16.344  38.920  25.006  1.00  0.00     0.000 C 
BRANCH  22  23
ATOM     23  C   UNL     1      15.416  38.596  26.190  1.00  0.00     0.000 C 
BRANCH  23  24
ATOM     24  C   UNL     1      14.890  39.860  26.892  1.00  0.00    -0.000 C 
BRANCH  24  25
ATOM     25  C   UNL     1      15.362  39.965  28.354  1.00  0.00    -0.000 C 
BRANCH  25  26
ATOM     26  C   UNL     1      16.797  40.501  28.471  1.00  0.00    -0.000 C 
BRANCH  26  27
ATOM     27  C   UNL     1      17.716  39.554  29.265  1.00  0.00    -0.000 C 
BRANCH  27  28
ATOM     28  C   UNL     1      17.364  38.073  29.045  1.00  0.00    -0.000 C 
BRANCH  28  29
ATOM     29  C   UNL     1      18.049  37.148  30.067  1.00  0.00    -0.000 C 
BRANCH  29  30
ATOM     30  C   UNL     1      19.477  36.759  29.651  1.00  0.00    -0.000 C 
BRANCH  30  31
ATOM     31  C   UNL     1      20.518  37.054  30.741  1.00  0.00    -0.003 C 
ATOM     32  C   UNL     1      19.871  37.711  31.957  1.00  0.00     0.004 C 
ENDBRANCH  30  31
ENDBRANCH  29  30
ENDBRANCH  28  29
ENDBRANCH  27  28
ENDBRANCH  26  27
ENDBRANCH  25  26
ENDBRANCH  24  25
ENDBRANCH  23  24
ENDBRANCH  22  23
ENDBRANCH  21  22
ENDBRANCH  20  21
ENDBRANCH  19  20
ENDBRANCH  18  19
ENDBRANCH   1  18
TORSDOF 28
ENDMDL
MODEL 4
REMARK VINA RESULT:    -4.334      1.548      3.809
REMARK INTER + INTRA:         -16.184
REMARK INTER:                 -10.959
REMARK INTRA:                  -5.225
REMARK UNBOUND:                -4.754
REMARK SMILES CCCCCCCCCCCCCCCCCCCCCCCCCCCCCC(=O)[O-]
REMARK SMILES IDX 16 1 17 2 18 3 19 4 20 5 21 6 22 7 23 8 24 9 25 10 26 11
REMARK SMILES IDX 27 12 28 13 29 14 30 15 31 16 32 17 15 18 14 19 13 20 12 21
REMARK SMILES IDX 11 22 10 23 9 24 8 25 7 26 6 27 5 28 4 29 3 30 2 31 1 32
REMARK H PARENT
REMARK Flexibility Score: inf
ROOT
ATOM      1  C   UNL     1      18.736  40.271  33.423  1.00  0.00     0.000 C 
ENDROOT
BRANCH   1   2
ATOM      2  C   UNL     1      17.972  40.013  34.732  1.00  0.00     0.000 C 
BRANCH   2   3
ATOM      3  C   UNL     1      17.832  38.509  34.999  1.00  0.00     0.000 C 
BRANCH   3   4
ATOM      4  C   UNL     1      16.533  37.961  34.389  1.00  0.00     0.000 C 
BRANCH   4   5
ATOM      5  C   UNL     1      16.785  36.991  33.223  1.00  0.00     0.000 C 
BRANCH   5   6
ATOM      6  C   UNL     1      18.227  36.439  33.179  1.00  0.00     0.000 C 
BRANCH   6   7
ATOM      7  C   UNL     1      18.889  36.646  31.806  1.00  0.00     0.000 C 
BRANCH   7   8
ATOM      8  C   UNL     1      20.348  37.121  31.922  1.00  0.00     0.000 C 
BRANCH   8   9
ATOM      9  C   UNL     1      20.888  37.029  33.360  1.00  0.00     0.000 C 
BRANCH   9  10
ATOM     10  C   UNL     1      21.721  38.260  33.763  1.00  0.00     0.000 C 
BRANCH  10  11
ATOM     11  C   UNL     1      21.639  38.641  35.255  1.00  0.00     0.000 C 
BRANCH  11  12
ATOM     12  C   UNL     1      22.127  37.559  36.238  1.00  0.00     0.000 C 
BRANCH  12  13
ATOM     13  C   UNL     1      21.042  36.987  37.171  1.00  0.00     0.006 C 
BRANCH  13  14
ATOM     14  C   UNL     1      20.875  37.769  38.486  1.00  0.00     0.053 C 
BRANCH  14  15
ATOM     15  C   UNL     1      19.577  38.516  38.548  1.00  0.00     0.041 C 
ATOM     16  O   UNL     1      18.600  38.037  39.179  1.00  0.00    -0.550 OA
ATOM     17  O   UNL     1      19.466  39.770  37.957  1.00  0.00    -0.550 OA
ENDBRANCH  14  15
ENDBRANCH  13  14
ENDBRANCH  12  13
ENDBRANCH  11  12
ENDBRANCH  10  11
ENDBRANCH   9  10
ENDBRANCH   8   9
ENDBRANCH   7   8
ENDBRANCH   6   7
ENDBRANCH   5   6
ENDBRANCH   4   5
ENDBRANCH   3   4
ENDBRANCH   2   3
ENDBRANCH   1   2
BRANCH   1  18
ATOM     18  C   UNL     1      17.819  40.682  32.260  1.00  0.00     0.000 C 
BRANCH  18  19
ATOM     19  C   UNL     1      18.167  40.065  30.891  1.00  0.00     0.000 C 
BRANCH  19  20
ATOM     20  C   UNL     1      17.394  40.673  29.701  1.00  0.00     0.000 C 
BRANCH  20  21
ATOM     21  C   UNL     1      16.163  39.841  29.292  1.00  0.00     0.000 C 
BRANCH  21  22
ATOM     22  C   UNL     1      14.935  40.714  28.989  1.00  0.00     0.000 C 
BRANCH  22  23
ATOM     23  C   UNL     1      14.246  40.327  27.668  1.00  0.00     0.000 C 
BRANCH  23  24
ATOM     24  C   UNL     1      14.324  38.818  27.380  1.00  0.00    -0.000 C 
BRANCH  24  25
ATOM     25  C   UNL     1      14.714  38.514  25.922  1.00  0.00    -0.000 C 
BRANCH  25  26
ATOM     26  C   UNL     1      16.076  39.115  25.541  1.00  0.00    -0.000 C 
BRANCH  26  27
ATOM     27  C   UNL     1      16.986  38.102  24.821  1.00  0.00    -0.000 C 
BRANCH  27  28
ATOM     28  C   UNL     1      18.359  37.958  25.501  1.00  0.00    -0.000 C 
BRANCH  28  29
ATOM     29  C   UNL     1      18.263  38.026  27.036  1.00  0.00    -0.000 C 
BRANCH  29  30
ATOM     30  C   UNL     1      18.386  36.645  27.699  1.00  0.00    -0.000 C 
BRANCH  30  31
ATOM     31  C   UNL     1      17.199  36.315  28.616  1.00  0.00    -0.003 C 
ATOM     32  C   UNL     1      16.124  35.536  27.864  1.00  0.00     0.004 C 
ENDBRANCH  30  31
ENDBRANCH  29  30
ENDBRANCH  28  29
ENDBRANCH  27  28
ENDBRANCH  26  27
ENDBRANCH  25  26
ENDBRANCH  24  25
ENDBRANCH  23  24
ENDBRANCH  22  23
ENDBRANCH  21  22
ENDBRANCH  20  21
ENDBRANCH  19  20
ENDBRANCH  18  19
ENDBRANCH   1  18
TORSDOF 28
ENDMDL
MODEL 5
REMARK VINA RESULT:    -4.316      2.176      3.713
REMARK INTER + INTRA:         -16.136
REMARK INTER:                 -11.668
REMARK INTRA:                  -4.467
REMARK UNBOUND:                -4.754
REMARK SMILES CCCCCCCCCCCCCCCCCCCCCCCCCCCCCC(=O)[O-]
REMARK SMILES IDX 16 1 17 2 18 3 19 4 20 5 21 6 22 7 23 8 24 9 25 10 26 11
REMARK SMILES IDX 27 12 28 13 29 14 30 15 31 16 32 17 15 18 14 19 13 20 12 21
REMARK SMILES IDX 11 22 10 23 9 24 8 25 7 26 6 27 5 28 4 29 3 30 2 31 1 32
REMARK H PARENT
REMARK Flexibility Score: inf
ROOT
ATOM      1  C   UNL     1      19.494  36.675  32.063  1.00  0.00     0.000 C 
ENDROOT
BRANCH   1   2
ATOM      2  C   UNL     1      18.586  36.279  33.240  1.00  0.00     0.000 C 
BRANCH   2   3
ATOM      3  C   UNL     1      17.207  36.937  33.116  1.00  0.00     0.000 C 
BRANCH   3   4
ATOM      4  C   UNL     1      16.876  37.760  34.370  1.00  0.00     0.000 C 
BRANCH   4   5
ATOM      5  C   UNL     1      17.844  38.935  34.586  1.00  0.00     0.000 C 
BRANCH   5   6
ATOM      6  C   UNL     1      18.621  38.859  35.918  1.00  0.00     0.000 C 
BRANCH   6   7
ATOM      7  C   UNL     1      20.038  39.448  35.803  1.00  0.00     0.000 C 
BRANCH   7   8
ATOM      8  C   UNL     1      20.770  38.977  34.535  1.00  0.00     0.000 C 
BRANCH   8   9
ATOM      9  C   UNL     1      21.950  38.040  34.846  1.00  0.00     0.000 C 
BRANCH   9  10
ATOM     10  C   UNL     1      21.497  36.666  35.374  1.00  0.00     0.000 C 
BRANCH  10  11
ATOM     11  C   UNL     1      22.302  36.134  36.578  1.00  0.00     0.000 C 
BRANCH  11  12
ATOM     12  C   UNL     1      21.641  36.341  37.954  1.00  0.00     0.000 C 
BRANCH  12  13
ATOM     13  C   UNL     1      21.945  37.693  38.629  1.00  0.00     0.006 C 
BRANCH  13  14
ATOM     14  C   UNL     1      20.699  38.407  39.183  1.00  0.00     0.053 C 
BRANCH  14  15
ATOM     15  C   UNL     1      20.959  39.076  40.499  1.00  0.00     0.041 C 
ATOM     16  O   UNL     1      20.388  40.160  40.782  1.00  0.00    -0.550 OA
ATOM     17  O   UNL     1      21.788  38.470  41.437  1.00  0.00    -0.550 OA
ENDBRANCH  14  15
ENDBRANCH  13  14
ENDBRANCH  12  13
ENDBRANCH  11  12
ENDBRANCH  10  11
ENDBRANCH   9  10
ENDBRANCH   8   9
ENDBRANCH   7   8
ENDBRANCH   6   7
ENDBRANCH   5   6
ENDBRANCH   4   5
ENDBRANCH   3   4
ENDBRANCH   2   3
ENDBRANCH   1   2
BRANCH   1  18
ATOM     18  C   UNL     1      18.749  37.434  30.955  1.00  0.00     0.000 C 
BRANCH  18  19
ATOM     19  C   UNL     1      19.358  38.792  30.556  1.00  0.00     0.000 C 
BRANCH  19  20
ATOM     20  C   UNL     1      18.544  40.019  31.022  1.00  0.00     0.000 C 
BRANCH  20  21
ATOM     21  C   UNL     1      17.023  39.830  30.866  1.00  0.00     0.000 C 
BRANCH  21  22
ATOM     22  C   UNL     1      16.512  40.270  29.486  1.00  0.00     0.000 C 
BRANCH  22  23
ATOM     23  C   UNL     1      14.982  40.436  29.446  1.00  0.00     0.000 C 
BRANCH  23  24
ATOM     24  C   UNL     1      14.480  40.965  28.092  1.00  0.00    -0.000 C 
BRANCH  24  25
ATOM     25  C   UNL     1      15.182  40.293  26.897  1.00  0.00    -0.000 C 
BRANCH  25  26
ATOM     26  C   UNL     1      14.537  38.951  26.515  1.00  0.00    -0.000 C 
BRANCH  26  27
ATOM     27  C   UNL     1      15.582  37.871  26.179  1.00  0.00    -0.000 C 
BRANCH  27  28
ATOM     28  C   UNL     1      16.171  37.211  27.437  1.00  0.00    -0.000 C 
BRANCH  28  29
ATOM     29  C   UNL     1      17.707  37.309  27.488  1.00  0.00    -0.000 C 
BRANCH  29  30
ATOM     30  C   UNL     1      18.385  35.935  27.598  1.00  0.00    -0.000 C 
BRANCH  30  31
ATOM     31  C   UNL     1      19.260  35.601  26.381  1.00  0.00    -0.003 C 
ATOM     32  C   UNL     1      19.894  34.220  26.522  1.00  0.00     0.004 C 
ENDBRANCH  30  31
ENDBRANCH  29  30
ENDBRANCH  28  29
ENDBRANCH  27  28
ENDBRANCH  26  27
ENDBRANCH  25  26
ENDBRANCH  24  25
ENDBRANCH  23  24
ENDBRANCH  22  23
ENDBRANCH  21  22
ENDBRANCH  20  21
ENDBRANCH  19  20
ENDBRANCH  18  19
ENDBRANCH   1  18
TORSDOF 28
ENDMDL
MODEL 6
REMARK VINA RESULT:    -4.296      2.766     10.096
REMARK INTER + INTRA:         -16.082
REMARK INTER:                 -11.264
REMARK INTRA:                  -4.817
REMARK UNBOUND:                -4.754
REMARK SMILES CCCCCCCCCCCCCCCCCCCCCCCCCCCCCC(=O)[O-]
REMARK SMILES IDX 16 1 17 2 18 3 19 4 20 5 21 6 22 7 23 8 24 9 25 10 26 11
REMARK SMILES IDX 27 12 28 13 29 14 30 15 31 16 32 17 15 18 14 19 13 20 12 21
REMARK SMILES IDX 11 22 10 23 9 24 8 25 7 26 6 27 5 28 4 29 3 30 2 31 1 32
REMARK H PARENT
REMARK Flexibility Score: inf
ROOT
ATOM      1  C   UNL     1      18.964  36.384  32.694  1.00  0.00     0.000 C 
ENDROOT
BRANCH   1   2
ATOM      2  C   UNL     1      18.242  36.724  31.379  1.00  0.00     0.000 C 
BRANCH   2   3
ATOM      3  C   UNL     1      18.742  38.055  30.804  1.00  0.00     0.000 C 
BRANCH   3   4
ATOM      4  C   UNL     1      17.701  39.166  31.007  1.00  0.00     0.000 C 
BRANCH   4   5
ATOM      5  C   UNL     1      17.736  40.226  29.894  1.00  0.00     0.000 C 
BRANCH   5   6
ATOM      6  C   UNL     1      16.381  40.412  29.176  1.00  0.00     0.000 C 
BRANCH   6   7
ATOM      7  C   UNL     1      16.549  40.912  27.731  1.00  0.00     0.000 C 
BRANCH   7   8
ATOM      8  C   UNL     1      15.309  40.636  26.865  1.00  0.00     0.000 C 
BRANCH   8   9
ATOM      9  C   UNL     1      14.575  39.346  27.274  1.00  0.00     0.000 C 
BRANCH   9  10
ATOM     10  C   UNL     1      14.558  38.289  26.155  1.00  0.00     0.000 C 
BRANCH  10  11
ATOM     11  C   UNL     1      15.388  37.022  26.444  1.00  0.00     0.000 C 
BRANCH  11  12
ATOM     12  C   UNL     1      16.372  37.135  27.625  1.00  0.00     0.000 C 
BRANCH  12  13
ATOM     13  C   UNL     1      17.833  37.428  27.234  1.00  0.00     0.006 C 
BRANCH  13  14
ATOM     14  C   UNL     1      18.799  36.262  27.512  1.00  0.00     0.053 C 
BRANCH  14  15
ATOM     15  C   UNL     1      18.863  35.286  26.376  1.00  0.00     0.041 C 
ATOM     16  O   UNL     1      19.843  35.296  25.588  1.00  0.00    -0.550 OA
ATOM     17  O   UNL     1      17.867  34.327  26.223  1.00  0.00    -0.550 OA
ENDBRANCH  14  15
ENDBRANCH  13  14
ENDBRANCH  12  13
ENDBRANCH  11  12
ENDBRANCH  10  11
ENDBRANCH   9  10
ENDBRANCH   8   9
ENDBRANCH   7   8
ENDBRANCH   6   7
ENDBRANCH   5   6
ENDBRANCH   4   5
ENDBRANCH   3   4
ENDBRANCH   2   3
ENDBRANCH   1   2
BRANCH   1  18
ATOM     18  C   UNL     1      20.405  36.916  32.746  1.00  0.00     0.000 C 
BRANCH  18  19
ATOM     19  C   UNL     1      21.023  37.018  34.154  1.00  0.00     0.000 C 
BRANCH  19  20
ATOM     20  C   UNL     1      21.962  38.228  34.353  1.00  0.00     0.000 C 
BRANCH  20  21
ATOM     21  C   UNL     1      22.640  38.244  35.737  1.00  0.00     0.000 C 
BRANCH  21  22
ATOM     22  C   UNL     1      22.304  37.000  36.574  1.00  0.00     0.000 C 
BRANCH  22  23
ATOM     23  C   UNL     1      22.737  37.141  38.044  1.00  0.00     0.000 C 
BRANCH  23  24
ATOM     24  C   UNL     1      21.586  37.594  38.959  1.00  0.00    -0.000 C 
BRANCH  24  25
ATOM     25  C   UNL     1      20.222  37.036  38.512  1.00  0.00    -0.000 C 
BRANCH  25  26
ATOM     26  C   UNL     1      19.127  38.114  38.483  1.00  0.00    -0.000 C 
BRANCH  26  27
ATOM     27  C   UNL     1      19.630  39.449  37.903  1.00  0.00    -0.000 C 
BRANCH  27  28
ATOM     28  C   UNL     1      19.266  39.620  36.419  1.00  0.00    -0.000 C 
BRANCH  28  29
ATOM     29  C   UNL     1      18.249  38.568  35.939  1.00  0.00    -0.000 C 
BRANCH  29  30
ATOM     30  C   UNL     1      17.441  39.038  34.719  1.00  0.00    -0.000 C 
BRANCH  30  31
ATOM     31  C   UNL     1      16.274  38.099  34.378  1.00  0.00    -0.003 C 
ATOM     32  C   UNL     1      15.118  38.868  33.743  1.00  0.00     0.004 C 
ENDBRANCH  30  31
ENDBRANCH  29  30
ENDBRANCH  28  29
ENDBRANCH  27  28
ENDBRANCH  26  27
ENDBRANCH  25  26
ENDBRANCH  24  25
ENDBRANCH  23  24
ENDBRANCH  22  23
ENDBRANCH  21  22
ENDBRANCH  20  21
ENDBRANCH  19  20
ENDBRANCH  18  19
ENDBRANCH   1  18
TORSDOF 28
ENDMDL
MODEL 7
REMARK VINA RESULT:    -4.280      1.868      6.262
REMARK INTER + INTRA:         -16.040
REMARK INTER:                 -11.501
REMARK INTRA:                  -4.539
REMARK UNBOUND:                -4.754
REMARK SMILES CCCCCCCCCCCCCCCCCCCCCCCCCCCCCC(=O)[O-]
REMARK SMILES IDX 16 1 17 2 18 3 19 4 20 5 21 6 22 7 23 8 24 9 25 10 26 11
REMARK SMILES IDX 27 12 28 13 29 14 30 15 31 16 32 17 15 18 14 19 13 20 12 21
REMARK SMILES IDX 11 22 10 23 9 24 8 25 7 26 6 27 5 28 4 29 3 30 2 31 1 32
REMARK H PARENT
REMARK Flexibility Score: inf
ROOT
ATOM      1  C   UNL     1      15.924  35.663  26.255  1.00  0.00     0.000 C 
ENDROOT
BRANCH   1   2
ATOM      2  C   UNL     1      15.977  35.434  27.774  1.00  0.00     0.000 C 
BRANCH   2   3
ATOM      3  C   UNL     1      16.798  36.529  28.467  1.00  0.00     0.000 C 
BRANCH   3   4
ATOM      4  C   UNL     1      18.091  36.820  27.692  1.00  0.00     0.000 C 
BRANCH   4   5
ATOM      5  C   UNL     1      19.357  36.436  28.476  1.00  0.00     0.000 C 
BRANCH   5   6
ATOM      6  C   UNL     1      19.251  36.712  29.992  1.00  0.00     0.000 C 
BRANCH   6   7
ATOM      7  C   UNL     1      20.606  37.094  30.613  1.00  0.00     0.000 C 
BRANCH   7   8
ATOM      8  C   UNL     1      20.550  37.168  32.148  1.00  0.00     0.000 C 
BRANCH   8   9
ATOM      9  C   UNL     1      21.373  38.338  32.715  1.00  0.00     0.000 C 
BRANCH   9  10
ATOM     10  C   UNL     1      21.607  38.223  34.232  1.00  0.00     0.000 C 
BRANCH  10  11
ATOM     11  C   UNL     1      21.215  36.865  34.850  1.00  0.00     0.000 C 
BRANCH  11  12
ATOM     12  C   UNL     1      21.802  36.584  36.246  1.00  0.00     0.000 C 
BRANCH  12  13
ATOM     13  C   UNL     1      21.482  37.645  37.316  1.00  0.00     0.006 C 
BRANCH  13  14
ATOM     14  C   UNL     1      19.982  37.778  37.634  1.00  0.00     0.053 C 
BRANCH  14  15
ATOM     15  C   UNL     1      19.733  38.351  38.997  1.00  0.00     0.041 C 
ATOM     16  O   UNL     1      20.263  39.442  39.332  1.00  0.00    -0.550 OA
ATOM     17  O   UNL     1      18.869  37.708  39.877  1.00  0.00    -0.550 OA
ENDBRANCH  14  15
ENDBRANCH  13  14
ENDBRANCH  12  13
ENDBRANCH  11  12
ENDBRANCH  10  11
ENDBRANCH   9  10
ENDBRANCH   8   9
ENDBRANCH   7   8
ENDBRANCH   6   7
ENDBRANCH   5   6
ENDBRANCH   4   5
ENDBRANCH   3   4
ENDBRANCH   2   3
ENDBRANCH   1   2
BRANCH   1  18
ATOM     18  C   UNL     1      14.516  36.010  25.745  1.00  0.00     0.000 C 
BRANCH  18  19
ATOM     19  C   UNL     1      14.316  37.468  25.290  1.00  0.00     0.000 C 
BRANCH  19  20
ATOM     20  C   UNL     1      14.483  38.516  26.410  1.00  0.00     0.000 C 
BRANCH  20  21
ATOM     21  C   UNL     1      15.661  39.480  26.165  1.00  0.00     0.000 C 
BRANCH  21  22
ATOM     22  C   UNL     1      15.659  40.673  27.133  1.00  0.00     0.000 C 
BRANCH  22  23
ATOM     23  C   UNL     1      15.608  40.238  28.608  1.00  0.00     0.000 C 
BRANCH  23  24
ATOM     24  C   UNL     1      17.005  40.160  29.250  1.00  0.00    -0.000 C 
BRANCH  24  25
ATOM     25  C   UNL     1      16.984  40.491  30.753  1.00  0.00    -0.000 C 
BRANCH  25  26
ATOM     26  C   UNL     1      18.262  40.035  31.474  1.00  0.00    -0.000 C 
BRANCH  26  27
ATOM     27  C   UNL     1      18.488  40.781  32.802  1.00  0.00    -0.000 C 
BRANCH  27  28
ATOM     28  C   UNL     1      17.536  40.306  33.913  1.00  0.00    -0.000 C 
BRANCH  28  29
ATOM     29  C   UNL     1      18.144  39.177  34.764  1.00  0.00    -0.000 C 
BRANCH  29  30
ATOM     30  C   UNL     1      17.134  38.062  35.081  1.00  0.00    -0.000 C 
BRANCH  30  31
ATOM     31  C   UNL     1      16.318  37.629  33.855  1.00  0.00    -0.003 C 
ATOM     32  C   UNL     1      17.121  36.683  32.966  1.00  0.00     0.004 C 
ENDBRANCH  30  31
ENDBRANCH  29  30
ENDBRANCH  28  29
ENDBRANCH  27  28
ENDBRANCH  26  27
ENDBRANCH  25  26
ENDBRANCH  24  25
ENDBRANCH  23  24
ENDBRANCH  22  23
ENDBRANCH  21  22
ENDBRANCH  20  21
ENDBRANCH  19  20
ENDBRANCH  18  19
ENDBRANCH   1  18
TORSDOF 28
ENDMDL
MODEL 8
REMARK VINA RESULT:    -4.264      1.396      2.369
REMARK INTER + INTRA:         -15.997
REMARK INTER:                 -11.080
REMARK INTRA:                  -4.917
REMARK UNBOUND:                -4.754
REMARK SMILES CCCCCCCCCCCCCCCCCCCCCCCCCCCCCC(=O)[O-]
REMARK SMILES IDX 16 1 17 2 18 3 19 4 20 5 21 6 22 7 23 8 24 9 25 10 26 11
REMARK SMILES IDX 27 12 28 13 29 14 30 15 31 16 32 17 15 18 14 19 13 20 12 21
REMARK SMILES IDX 11 22 10 23 9 24 8 25 7 26 6 27 5 28 4 29 3 30 2 31 1 32
REMARK H PARENT
REMARK Flexibility Score: inf
ROOT
ATOM      1  C   UNL     1      18.318  36.702  30.894  1.00  0.00     0.000 C 
ENDROOT
BRANCH   1   2
ATOM      2  C   UNL     1      19.732  36.599  31.488  1.00  0.00     0.000 C 
BRANCH   2   3
ATOM      3  C   UNL     1      20.746  37.367  30.632  1.00  0.00     0.000 C 
BRANCH   3   4
ATOM      4  C   UNL     1      21.600  38.304  31.499  1.00  0.00     0.000 C 
BRANCH   4   5
ATOM      5  C   UNL     1      21.506  37.978  32.999  1.00  0.00     0.000 C 
BRANCH   5   6
ATOM      6  C   UNL     1      22.347  38.920  33.889  1.00  0.00     0.000 C 
BRANCH   6   7
ATOM      7  C   UNL     1      22.536  38.365  35.312  1.00  0.00     0.000 C 
BRANCH   7   8
ATOM      8  C   UNL     1      21.747  37.065  35.546  1.00  0.00     0.000 C 
BRANCH   8   9
ATOM      9  C   UNL     1      21.246  36.931  36.995  1.00  0.00     0.000 C 
BRANCH   9  10
ATOM     10  C   UNL     1      20.514  38.190  37.492  1.00  0.00     0.000 C 
BRANCH  10  11
ATOM     11  C   UNL     1      19.083  38.370  36.945  1.00  0.00     0.000 C 
BRANCH  11  12
ATOM     12  C   UNL     1      18.906  39.516  35.931  1.00  0.00     0.000 C 
BRANCH  12  13
ATOM     13  C   UNL     1      18.533  39.075  34.503  1.00  0.00     0.006 C 
BRANCH  13  14
ATOM     14  C   UNL     1      17.787  37.730  34.441  1.00  0.00     0.053 C 
BRANCH  14  15
ATOM     15  C   UNL     1      16.338  37.894  34.094  1.00  0.00     0.041 C 
ATOM     16  O   UNL     1      15.813  39.037  34.087  1.00  0.00    -0.550 OA
ATOM     17  O   UNL     1      15.580  36.788  33.720  1.00  0.00    -0.550 OA
ENDBRANCH  14  15
ENDBRANCH  13  14
ENDBRANCH  12  13
ENDBRANCH  11  12
ENDBRANCH  10  11
ENDBRANCH   9  10
ENDBRANCH   8   9
ENDBRANCH   7   8
ENDBRANCH   6   7
ENDBRANCH   5   6
ENDBRANCH   4   5
ENDBRANCH   3   4
ENDBRANCH   2   3
ENDBRANCH   1   2
BRANCH   1  18
ATOM     18  C   UNL     1      18.098  37.985  30.078  1.00  0.00     0.000 C 
BRANCH  18  19
ATOM     19  C   UNL     1      17.627  39.211  30.884  1.00  0.00     0.000 C 
BRANCH  19  20
ATOM     20  C   UNL     1      17.901  40.569  30.202  1.00  0.00     0.000 C 
BRANCH  20  21
ATOM     21  C   UNL     1      17.099  40.764  28.900  1.00  0.00     0.000 C 
BRANCH  21  22
ATOM     22  C   UNL     1      15.596  40.508  29.089  1.00  0.00     0.000 C 
BRANCH  22  23
ATOM     23  C   UNL     1      14.799  40.668  27.783  1.00  0.00     0.000 C 
BRANCH  23  24
ATOM     24  C   UNL     1      15.702  40.689  26.538  1.00  0.00    -0.000 C 
BRANCH  24  25
ATOM     25  C   UNL     1      15.713  39.343  25.792  1.00  0.00    -0.000 C 
BRANCH  25  26
ATOM     26  C   UNL     1      14.442  38.518  26.049  1.00  0.00    -0.000 C 
BRANCH  26  27
ATOM     27  C   UNL     1      14.743  37.024  26.267  1.00  0.00    -0.000 C 
BRANCH  27  28
ATOM     28  C   UNL     1      15.791  36.791  27.369  1.00  0.00    -0.000 C 
BRANCH  28  29
ATOM     29  C   UNL     1      16.662  35.551  27.099  1.00  0.00    -0.000 C 
BRANCH  29  30
ATOM     30  C   UNL     1      17.651  35.761  25.941  1.00  0.00    -0.000 C 
BRANCH  30  31
ATOM     31  C   UNL     1      19.088  36.012  26.421  1.00  0.00    -0.003 C 
ATOM     32  C   UNL     1      19.366  35.281  27.732  1.00  0.00     0.004 C 
ENDBRANCH  30  31
ENDBRANCH  29  30
ENDBRANCH  28  29
ENDBRANCH  27  28
ENDBRANCH  26  27
ENDBRANCH  25  26
ENDBRANCH  24  25
ENDBRANCH  23  24
ENDBRANCH  22  23
ENDBRANCH  21  22
ENDBRANCH  20  21
ENDBRANCH  19  20
ENDBRANCH  18  19
ENDBRANCH   1  18
TORSDOF 28
ENDMDL
MODEL 9
REMARK VINA RESULT:    -4.251      3.091      9.703
REMARK INTER + INTRA:         -15.963
REMARK INTER:                 -10.373
REMARK INTRA:                  -5.590
REMARK UNBOUND:                -4.754
REMARK SMILES CCCCCCCCCCCCCCCCCCCCCCCCCCCCCC(=O)[O-]
REMARK SMILES IDX 16 1 17 2 18 3 19 4 20 5 21 6 22 7 23 8 24 9 25 10 26 11
REMARK SMILES IDX 27 12 28 13 29 14 30 15 31 16 32 17 15 18 14 19 13 20 12 21
REMARK SMILES IDX 11 22 10 23 9 24 8 25 7 26 6 27 5 28 4 29 3 30 2 31 1 32
REMARK H PARENT
REMARK Flexibility Score: inf
ROOT
ATOM      1  C   UNL     1      18.018  39.235  28.790  1.00  0.00     0.000 C 
ENDROOT
BRANCH   1   2
ATOM      2  C   UNL     1      17.323  40.573  29.092  1.00  0.00     0.000 C 
BRANCH   2   3
ATOM      3  C   UNL     1      15.810  40.384  29.249  1.00  0.00     0.000 C 
BRANCH   3   4
ATOM      4  C   UNL     1      15.072  40.761  27.956  1.00  0.00     0.000 C 
BRANCH   4   5
ATOM      5  C   UNL     1      14.157  39.638  27.442  1.00  0.00     0.000 C 
BRANCH   5   6
ATOM      6  C   UNL     1      14.779  38.809  26.297  1.00  0.00     0.000 C 
BRANCH   6   7
ATOM      7  C   UNL     1      15.996  39.507  25.666  1.00  0.00     0.000 C 
BRANCH   7   8
ATOM      8  C   UNL     1      16.879  38.537  24.861  1.00  0.00     0.000 C 
BRANCH   8   9
ATOM      9  C   UNL     1      18.222  38.245  25.555  1.00  0.00     0.000 C 
BRANCH   9  10
ATOM     10  C   UNL     1      18.710  36.803  25.325  1.00  0.00     0.000 C 
BRANCH  10  11
ATOM     11  C   UNL     1      18.289  35.792  26.411  1.00  0.00     0.000 C 
BRANCH  11  12
ATOM     12  C   UNL     1      16.970  35.045  26.139  1.00  0.00     0.000 C 
BRANCH  12  13
ATOM     13  C   UNL     1      15.798  35.430  27.062  1.00  0.00     0.006 C 
BRANCH  13  14
ATOM     14  C   UNL     1      15.533  34.417  28.190  1.00  0.00     0.053 C 
BRANCH  14  15
ATOM     15  C   UNL     1      14.716  33.247  27.729  1.00  0.00     0.041 C 
ATOM     16  O   UNL     1      15.252  32.325  27.061  1.00  0.00    -0.550 OA
ATOM     17  O   UNL     1      13.376  33.147  28.088  1.00  0.00    -0.550 OA
ENDBRANCH  14  15
ENDBRANCH  13  14
ENDBRANCH  12  13
ENDBRANCH  11  12
ENDBRANCH  10  11
ENDBRANCH   9  10
ENDBRANCH   8   9
ENDBRANCH   7   8
ENDBRANCH   6   7
ENDBRANCH   5   6
ENDBRANCH   4   5
ENDBRANCH   3   4
ENDBRANCH   2   3
ENDBRANCH   1   2
BRANCH   1  18
ATOM     18  C   UNL     1      17.212  38.015  29.266  1.00  0.00     0.000 C 
BRANCH  18  19
ATOM     19  C   UNL     1      18.031  36.906  29.954  1.00  0.00     0.000 C 
BRANCH  19  20
ATOM     20  C   UNL     1      19.542  36.938  29.637  1.00  0.00     0.000 C 
BRANCH  20  21
ATOM     21  C   UNL     1      20.423  36.957  30.902  1.00  0.00     0.000 C 
BRANCH  21  22
ATOM     22  C   UNL     1      21.015  38.346  31.187  1.00  0.00     0.000 C 
BRANCH  22  23
ATOM     23  C   UNL     1      20.420  38.995  32.450  1.00  0.00     0.000 C 
BRANCH  23  24
ATOM     24  C   UNL     1      19.324  40.025  32.124  1.00  0.00    -0.000 C 
BRANCH  24  25
ATOM     25  C   UNL     1      17.991  39.712  32.828  1.00  0.00    -0.000 C 
BRANCH  25  26
ATOM     26  C   UNL     1      17.914  38.259  33.322  1.00  0.00    -0.000 C 
BRANCH  26  27
ATOM     27  C   UNL     1      17.152  38.130  34.654  1.00  0.00    -0.000 C 
BRANCH  27  28
ATOM     28  C   UNL     1      18.026  38.489  35.868  1.00  0.00    -0.000 C 
BRANCH  28  29
ATOM     29  C   UNL     1      19.392  37.781  35.838  1.00  0.00    -0.000 C 
BRANCH  29  30
ATOM     30  C   UNL     1      20.568  38.753  36.027  1.00  0.00    -0.000 C 
BRANCH  30  31
ATOM     31  C   UNL     1      21.924  38.038  36.128  1.00  0.00    -0.003 C 
ATOM     32  C   UNL     1      21.918  36.733  35.335  1.00  0.00     0.004 C 
ENDBRANCH  30  31
ENDBRANCH  29  30
ENDBRANCH  28  29
ENDBRANCH  27  28
ENDBRANCH  26  27
ENDBRANCH  25  26
ENDBRANCH  24  25
ENDBRANCH  23  24
ENDBRANCH  22  23
ENDBRANCH  21  22
ENDBRANCH  20  21
ENDBRANCH  19  20
ENDBRANCH  18  19
ENDBRANCH   1  18
TORSDOF 28
ENDMDL
