MODEL 1
REMARK VINA RESULT:    -5.937      0.000      0.000
REMARK INTER + INTRA:          -8.383
REMARK INTER:                  -8.713
REMARK INTRA:                   0.330
REMARK UNBOUND:                 0.330
REMARK SMILES O=c1c(O[C@@H]2O[C@@H](CO)[C@H](O)[C@@H](O)[C@H]2O)c(-c2ccc(O)c(O)c2)oc2cc(O)cc(O)c12
REMARK SMILES IDX 4 1 3 2 16 3 25 4 2 5 26 6 1 7 33 8 27 9 31 10 28 11 30 12
REMARK SMILES IDX 17 13 18 14 19 15 20 16 24 17 22 18 21 19 23 21 32 23 29 25
REMARK SMILES IDX 5 27 14 28 6 29 12 30 7 31 10 32 15 33 13 35 8 37 9 38 11 40
REMARK H PARENT 21 20 23 22 32 24 29 26 15 34 13 36 9 39 11 41
REMARK Flexibility Score: inf
ROOT
ATOM      1  O   UNL     1       4.222 -17.855   6.416  1.00  0.00    -0.454 OA
ENDROOT
BRANCH   1   2
ATOM      2  C   UNL     1       4.262 -16.449   6.475  1.00  0.00     0.214 A 
ATOM      3  C   UNL     1       4.467 -15.854   7.731  1.00  0.00     0.180 A 
ATOM      4  O   UNL     1       4.653 -14.544   7.828  1.00  0.00    -0.452 OA
ATOM      5  C   UNL     1       4.145 -15.610   5.345  1.00  0.00     0.239 A 
ATOM      6  C   UNL     1       4.584 -13.720   6.790  1.00  0.00     0.146 A 
ATOM      7  O   UNL     1       3.967 -16.118   4.211  1.00  0.00    -0.285 OA
ATOM      8  C   UNL     1       4.259 -14.206   5.498  1.00  0.00     0.111 A 
ATOM      9  C   UNL     1       4.842 -12.363   6.994  1.00  0.00     0.094 A 
ATOM     10  C   UNL     1       4.116 -13.264   4.437  1.00  0.00     0.134 A 
ATOM     11  C   UNL     1       4.773 -11.462   5.938  1.00  0.00     0.123 A 
ATOM     12  C   UNL     1       4.404 -11.912   4.673  1.00  0.00     0.093 A 
BRANCH   3  13
ATOM     13  C   UNL     1       4.532 -16.670   8.964  1.00  0.00     0.025 A 
ATOM     14  C   UNL     1       4.557 -18.075   8.902  1.00  0.00     0.016 A 
ATOM     15  C   UNL     1       4.662 -18.833  10.072  1.00  0.00     0.051 A 
ATOM     16  C   UNL     1       4.729 -18.198  11.321  1.00  0.00     0.157 A 
ATOM     17  C   UNL     1       4.569 -16.040  10.219  1.00  0.00     0.062 A 
ATOM     18  C   UNL     1       4.677 -16.800  11.393  1.00  0.00     0.158 A 
BRANCH  16  19
ATOM     19  O   UNL     1       4.846 -18.950  12.492  1.00  0.00    -0.504 OA
ATOM     20  H   UNL     1       5.623 -18.818  13.131  1.00  0.00     0.293 HD
ENDBRANCH  16  19
BRANCH  18  21
ATOM     21  O   UNL     1       4.742 -16.169  12.636  1.00  0.00    -0.504 OA
ATOM     22  H   UNL     1       4.469 -16.643  13.487  1.00  0.00     0.293 HD
ENDBRANCH  18  21
ENDBRANCH   3  13
BRANCH  10  23
ATOM     23  O   UNL     1       3.670 -13.599   3.151  1.00  0.00    -0.507 OA
ATOM     24  H   UNL     1       4.269 -13.724   2.341  1.00  0.00     0.293 HD
ENDBRANCH  10  23
BRANCH  11  25
ATOM     25  O   UNL     1       5.065 -10.117   6.155  1.00  0.00    -0.508 OA
ATOM     26  H   UNL     1       5.584  -9.808   6.968  1.00  0.00     0.293 HD
ENDBRANCH  11  25
ENDBRANCH   1   2
BRANCH   1  27
ATOM     27  C   UNL     1       3.273 -18.659   5.707  1.00  0.00     0.339 C 
ATOM     28  C   UNL     1       3.867 -19.087   4.355  1.00  0.00     0.214 C 
ATOM     29  O   UNL     1       2.875 -19.790   6.470  1.00  0.00    -0.332 OA
ATOM     30  C   UNL     1       5.019 -20.090   4.554  1.00  0.00     0.180 C 
ATOM     31  C   UNL     1       3.979 -20.620   6.804  1.00  0.00     0.179 C 
ATOM     32  C   UNL     1       4.617 -21.217   5.523  1.00  0.00     0.177 C 
BRANCH  28  33
ATOM     33  O   UNL     1       2.876 -19.600   3.502  1.00  0.00    -0.384 OA
ATOM     34  H   UNL     1       3.157 -19.422   2.561  1.00  0.00     0.211 HD
ENDBRANCH  28  33
BRANCH  30  35
ATOM     35  O   UNL     1       5.403 -20.642   3.320  1.00  0.00    -0.387 OA
ATOM     36  H   UNL     1       4.584 -20.676   2.758  1.00  0.00     0.211 HD
ENDBRANCH  30  35
BRANCH  31  37
ATOM     37  C   UNL     1       3.460 -21.723   7.738  1.00  0.00     0.191 C 
BRANCH  37  38
ATOM     38  O   UNL     1       4.425 -22.055   8.697  1.00  0.00    -0.394 OA
ATOM     39  H   UNL     1       5.272 -21.610   8.416  1.00  0.00     0.210 HD
ENDBRANCH  37  38
ENDBRANCH  31  37
BRANCH  32  40
ATOM     40  O   UNL     1       5.762 -21.952   5.867  1.00  0.00    -0.387 OA
ATOM     41  H   UNL     1       5.459 -22.789   6.301  1.00  0.00     0.211 HD
ENDBRANCH  32  40
ENDBRANCH   1  27
TORSDOF 12
ENDMDL
MODEL 2
REMARK VINA RESULT:    -5.696      1.301      2.341
REMARK INTER + INTRA:          -8.029
REMARK INTER:                  -7.212
REMARK INTRA:                  -0.817
REMARK UNBOUND:                 0.330
REMARK SMILES O=c1c(O[C@@H]2O[C@@H](CO)[C@H](O)[C@@H](O)[C@H]2O)c(-c2ccc(O)c(O)c2)oc2cc(O)cc(O)c12
REMARK SMILES IDX 4 1 3 2 16 3 25 4 2 5 26 6 1 7 33 8 27 9 31 10 28 11 30 12
REMARK SMILES IDX 17 13 18 14 19 15 20 16 24 17 22 18 21 19 23 21 32 23 29 25
REMARK SMILES IDX 5 27 14 28 6 29 12 30 7 31 10 32 15 33 13 35 8 37 9 38 11 40
REMARK H PARENT 21 20 23 22 32 24 29 26 15 34 13 36 9 39 11 41
REMARK Flexibility Score: inf
ROOT
ATOM      1  O   UNL     1       4.184 -17.593   6.732  1.00  0.00    -0.454 OA
ENDROOT
BRANCH   1   2
ATOM      2  C   UNL     1       4.158 -16.194   6.578  1.00  0.00     0.214 A 
ATOM      3  C   UNL     1       4.405 -15.408   7.716  1.00  0.00     0.180 A 
ATOM      4  O   UNL     1       4.532 -14.092   7.605  1.00  0.00    -0.452 OA
ATOM      5  C   UNL     1       3.935 -15.541   5.346  1.00  0.00     0.239 A 
ATOM      6  C   UNL     1       4.363 -13.438   6.463  1.00  0.00     0.146 A 
ATOM      7  O   UNL     1       3.717 -16.221   4.314  1.00  0.00    -0.285 OA
ATOM      8  C   UNL     1       3.988 -14.127   5.281  1.00  0.00     0.111 A 
ATOM      9  C   UNL     1       4.565 -12.057   6.446  1.00  0.00     0.094 A 
ATOM     10  C   UNL     1       3.738 -13.362   4.103  1.00  0.00     0.134 A 
ATOM     11  C   UNL     1       4.391 -11.329   5.274  1.00  0.00     0.123 A 
ATOM     12  C   UNL     1       3.973 -11.979   4.117  1.00  0.00     0.093 A 
BRANCH   3  13
ATOM     13  C   UNL     1       4.581 -16.025   9.050  1.00  0.00     0.025 A 
ATOM     14  C   UNL     1       5.493 -15.493   9.980  1.00  0.00     0.016 A 
ATOM     15  C   UNL     1       5.618 -16.060  11.252  1.00  0.00     0.051 A 
ATOM     16  C   UNL     1       4.844 -17.174  11.608  1.00  0.00     0.157 A 
ATOM     17  C   UNL     1       3.830 -17.159   9.401  1.00  0.00     0.062 A 
ATOM     18  C   UNL     1       3.952 -17.726  10.678  1.00  0.00     0.158 A 
BRANCH  16  19
ATOM     19  O   UNL     1       4.955 -17.737  12.881  1.00  0.00    -0.504 OA
ATOM     20  H   UNL     1       4.590 -17.266  13.701  1.00  0.00     0.293 HD
ENDBRANCH  16  19
BRANCH  18  21
ATOM     21  O   UNL     1       3.183 -18.835  11.032  1.00  0.00    -0.504 OA
ATOM     22  H   UNL     1       2.240 -18.736  11.385  1.00  0.00     0.293 HD
ENDBRANCH  18  21
ENDBRANCH   3  13
BRANCH  10  23
ATOM     23  O   UNL     1       3.236 -13.905   2.912  1.00  0.00    -0.507 OA
ATOM     24  H   UNL     1       3.103 -14.896   2.735  1.00  0.00     0.293 HD
ENDBRANCH  10  23
BRANCH  11  25
ATOM     25  O   UNL     1       4.628  -9.956   5.270  1.00  0.00    -0.508 OA
ATOM     26  H   UNL     1       3.962  -9.298   5.657  1.00  0.00     0.293 HD
ENDBRANCH  11  25
ENDBRANCH   1   2
BRANCH   1  27
ATOM     27  C   UNL     1       5.176 -18.495   6.230  1.00  0.00     0.339 C 
ATOM     28  C   UNL     1       5.731 -19.347   7.384  1.00  0.00     0.214 C 
ATOM     29  O   UNL     1       4.657 -19.317   5.194  1.00  0.00    -0.332 OA
ATOM     30  C   UNL     1       4.667 -20.332   7.900  1.00  0.00     0.180 C 
ATOM     31  C   UNL     1       3.554 -20.094   5.636  1.00  0.00     0.179 C 
ATOM     32  C   UNL     1       3.997 -21.089   6.739  1.00  0.00     0.177 C 
BRANCH  28  33
ATOM     33  O   UNL     1       6.911 -20.009   7.007  1.00  0.00    -0.384 OA
ATOM     34  H   UNL     1       7.140 -20.663   7.725  1.00  0.00     0.211 HD
ENDBRANCH  28  33
BRANCH  30  35
ATOM     35  O   UNL     1       5.246 -21.251   8.792  1.00  0.00    -0.387 OA
ATOM     36  H   UNL     1       4.705 -22.083   8.733  1.00  0.00     0.211 HD
ENDBRANCH  30  35
BRANCH  31  37
ATOM     37  C   UNL     1       2.988 -20.829   4.412  1.00  0.00     0.191 C 
BRANCH  37  38
ATOM     38  O   UNL     1       3.513 -22.125   4.325  1.00  0.00    -0.394 OA
ATOM     39  H   UNL     1       2.922 -22.631   3.701  1.00  0.00     0.210 HD
ENDBRANCH  37  38
ENDBRANCH  31  37
BRANCH  32  40
ATOM     40  O   UNL     1       2.876 -21.776   7.231  1.00  0.00    -0.387 OA
ATOM     41  H   UNL     1       2.893 -21.706   8.218  1.00  0.00     0.211 HD
ENDBRANCH  32  40
ENDBRANCH   1  27
TORSDOF 12
ENDMDL
MODEL 3
REMARK VINA RESULT:    -4.198      1.501      5.200
REMARK INTER + INTRA:          -5.831
REMARK INTER:                  -4.916
REMARK INTRA:                  -0.915
REMARK UNBOUND:                 0.330
REMARK SMILES O=c1c(O[C@@H]2O[C@@H](CO)[C@H](O)[C@@H](O)[C@H]2O)c(-c2ccc(O)c(O)c2)oc2cc(O)cc(O)c12
REMARK SMILES IDX 4 1 3 2 16 3 25 4 2 5 26 6 1 7 33 8 27 9 31 10 28 11 30 12
REMARK SMILES IDX 17 13 18 14 19 15 20 16 24 17 22 18 21 19 23 21 32 23 29 25
REMARK SMILES IDX 5 27 14 28 6 29 12 30 7 31 10 32 15 33 13 35 8 37 9 38 11 40
REMARK H PARENT 21 20 23 22 32 24 29 26 15 34 13 36 9 39 11 41
REMARK Flexibility Score: inf
ROOT
ATOM      1  O   UNL     1       4.505 -17.278   7.876  1.00  0.00    -0.454 OA
ENDROOT
BRANCH   1   2
ATOM      2  C   UNL     1       4.382 -16.262   6.908  1.00  0.00     0.214 A 
ATOM      3  C   UNL     1       4.093 -16.651   5.589  1.00  0.00     0.180 A 
ATOM      4  O   UNL     1       3.827 -15.735   4.666  1.00  0.00    -0.452 OA
ATOM      5  C   UNL     1       4.496 -14.884   7.193  1.00  0.00     0.239 A 
ATOM      6  C   UNL     1       3.891 -14.430   4.895  1.00  0.00     0.146 A 
ATOM      7  O   UNL     1       4.749 -14.512   8.365  1.00  0.00    -0.285 OA
ATOM      8  C   UNL     1       4.295 -13.935   6.161  1.00  0.00     0.111 A 
ATOM      9  C   UNL     1       3.547 -13.552   3.866  1.00  0.00     0.094 A 
ATOM     10  C   UNL     1       4.427 -12.524   6.325  1.00  0.00     0.134 A 
ATOM     11  C   UNL     1       3.607 -12.176   4.058  1.00  0.00     0.123 A 
ATOM     12  C   UNL     1       4.051 -11.671   5.277  1.00  0.00     0.093 A 
BRANCH   3  13
ATOM     13  C   UNL     1       4.025 -18.079   5.208  1.00  0.00     0.025 A 
ATOM     14  C   UNL     1       2.921 -18.589   4.501  1.00  0.00     0.016 A 
ATOM     15  C   UNL     1       2.890 -19.931   4.110  1.00  0.00     0.051 A 
ATOM     16  C   UNL     1       3.955 -20.785   4.432  1.00  0.00     0.157 A 
ATOM     17  C   UNL     1       5.076 -18.946   5.553  1.00  0.00     0.062 A 
ATOM     18  C   UNL     1       5.047 -20.291   5.159  1.00  0.00     0.158 A 
BRANCH  16  19
ATOM     19  O   UNL     1       3.935 -22.123   4.033  1.00  0.00    -0.504 OA
ATOM     20  H   UNL     1       4.669 -22.514   3.453  1.00  0.00     0.293 HD
ENDBRANCH  16  19
BRANCH  18  21
ATOM     21  O   UNL     1       6.105 -21.142   5.480  1.00  0.00    -0.504 OA
ATOM     22  H   UNL     1       6.758 -20.920   6.220  1.00  0.00     0.293 HD
ENDBRANCH  18  21
ENDBRANCH   3  13
BRANCH  10  23
ATOM     23  O   UNL     1       4.943 -11.917   7.478  1.00  0.00    -0.507 OA
ATOM     24  H   UNL     1       4.451 -11.835   8.363  1.00  0.00     0.293 HD
ENDBRANCH  10  23
BRANCH  11  25
ATOM     25  O   UNL     1       3.230 -11.316   3.029  1.00  0.00    -0.508 OA
ATOM     26  H   UNL     1       2.970 -10.353   3.206  1.00  0.00     0.293 HD
ENDBRANCH  11  25
ENDBRANCH   1   2
BRANCH   1  27
ATOM     27  C   UNL     1       3.440 -17.965   8.541  1.00  0.00     0.339 C 
ATOM     28  C   UNL     1       3.944 -19.323   9.056  1.00  0.00     0.214 C 
ATOM     29  O   UNL     1       2.899 -17.187   9.600  1.00  0.00    -0.332 OA
ATOM     30  C   UNL     1       4.945 -19.135  10.212  1.00  0.00     0.180 C 
ATOM     31  C   UNL     1       3.879 -16.865  10.575  1.00  0.00     0.179 C 
ATOM     32  C   UNL     1       4.404 -18.151  11.264  1.00  0.00     0.177 C 
BRANCH  28  33
ATOM     33  O   UNL     1       2.875 -20.156   9.428  1.00  0.00    -0.384 OA
ATOM     34  H   UNL     1       2.685 -20.000  10.395  1.00  0.00     0.211 HD
ENDBRANCH  28  33
BRANCH  30  35
ATOM     35  O   UNL     1       5.225 -20.371  10.819  1.00  0.00    -0.387 OA
ATOM     36  H   UNL     1       4.447 -20.584  11.400  1.00  0.00     0.211 HD
ENDBRANCH  30  35
BRANCH  31  37
ATOM     37  C   UNL     1       3.226 -15.913  11.589  1.00  0.00     0.191 C 
BRANCH  37  38
ATOM     38  O   UNL     1       4.172 -15.438  12.505  1.00  0.00    -0.394 OA
ATOM     39  H   UNL     1       3.850 -15.702  13.411  1.00  0.00     0.210 HD
ENDBRANCH  37  38
ENDBRANCH  31  37
BRANCH  32  40
ATOM     40  O   UNL     1       5.439 -17.820  12.153  1.00  0.00    -0.387 OA
ATOM     41  H   UNL     1       5.020 -17.512  12.996  1.00  0.00     0.211 HD
ENDBRANCH  32  40
ENDBRANCH   1  27
TORSDOF 12
ENDMDL
MODEL 4
REMARK VINA RESULT:    -3.837      1.712      6.765
REMARK INTER + INTRA:          -5.301
REMARK INTER:                  -4.519
REMARK INTRA:                  -0.782
REMARK UNBOUND:                 0.330
REMARK SMILES O=c1c(O[C@@H]2O[C@@H](CO)[C@H](O)[C@@H](O)[C@H]2O)c(-c2ccc(O)c(O)c2)oc2cc(O)cc(O)c12
REMARK SMILES IDX 4 1 3 2 16 3 25 4 2 5 26 6 1 7 33 8 27 9 31 10 28 11 30 12
REMARK SMILES IDX 17 13 18 14 19 15 20 16 24 17 22 18 21 19 23 21 32 23 29 25
REMARK SMILES IDX 5 27 14 28 6 29 12 30 7 31 10 32 15 33 13 35 8 37 9 38 11 40
REMARK H PARENT 21 20 23 22 32 24 29 26 15 34 13 36 9 39 11 41
REMARK Flexibility Score: inf
ROOT
ATOM      1  O   UNL     1       4.433 -16.218   6.856  1.00  0.00    -0.454 OA
ENDROOT
BRANCH   1   2
ATOM      2  C   UNL     1       4.508 -16.822   8.126  1.00  0.00     0.214 A 
ATOM      3  C   UNL     1       4.492 -18.226   8.182  1.00  0.00     0.180 A 
ATOM      4  O   UNL     1       4.701 -18.851   9.333  1.00  0.00    -0.452 OA
ATOM      5  C   UNL     1       4.636 -16.103   9.334  1.00  0.00     0.239 A 
ATOM      6  C   UNL     1       4.857 -18.217  10.488  1.00  0.00     0.146 A 
ATOM      7  O   UNL     1       4.658 -14.848   9.309  1.00  0.00    -0.285 OA
ATOM      8  C   UNL     1       4.766 -16.804  10.558  1.00  0.00     0.111 A 
ATOM      9  C   UNL     1       5.118 -18.970  11.635  1.00  0.00     0.094 A 
ATOM     10  C   UNL     1       4.859 -16.183  11.839  1.00  0.00     0.134 A 
ATOM     11  C   UNL     1       5.281 -18.349  12.868  1.00  0.00     0.123 A 
ATOM     12  C   UNL     1       5.143 -16.967  12.966  1.00  0.00     0.093 A 
BRANCH   3  13
ATOM     13  C   UNL     1       4.295 -19.039   6.961  1.00  0.00     0.025 A 
ATOM     14  C   UNL     1       3.039 -19.107   6.330  1.00  0.00     0.016 A 
ATOM     15  C   UNL     1       2.877 -19.844   5.154  1.00  0.00     0.051 A 
ATOM     16  C   UNL     1       3.963 -20.535   4.598  1.00  0.00     0.157 A 
ATOM     17  C   UNL     1       5.372 -19.757   6.417  1.00  0.00     0.062 A 
ATOM     18  C   UNL     1       5.212 -20.494   5.234  1.00  0.00     0.158 A 
BRANCH  16  19
ATOM     19  O   UNL     1       3.810 -21.263   3.416  1.00  0.00    -0.504 OA
ATOM     20  H   UNL     1       4.404 -21.096   2.611  1.00  0.00     0.293 HD
ENDBRANCH  16  19
BRANCH  18  21
ATOM     21  O   UNL     1       6.292 -21.183   4.682  1.00  0.00    -0.504 OA
ATOM     22  H   UNL     1       6.997 -20.710   4.132  1.00  0.00     0.293 HD
ENDBRANCH  18  21
ENDBRANCH   3  13
BRANCH  10  23
ATOM     23  O   UNL     1       4.653 -14.814  12.059  1.00  0.00    -0.507 OA
ATOM     24  H   UNL     1       4.638 -14.366  12.970  1.00  0.00     0.293 HD
ENDBRANCH  10  23
BRANCH  11  25
ATOM     25  O   UNL     1       5.571 -19.114  13.995  1.00  0.00    -0.508 OA
ATOM     26  H   UNL     1       6.458 -19.592  14.102  1.00  0.00     0.293 HD
ENDBRANCH  11  25
ENDBRANCH   1   2
BRANCH   1  27
ATOM     27  C   UNL     1       3.393 -15.360   6.374  1.00  0.00     0.339 C 
ATOM     28  C   UNL     1       3.924 -13.921   6.254  1.00  0.00     0.214 C 
ATOM     29  O   UNL     1       2.875 -15.816   5.132  1.00  0.00    -0.332 OA
ATOM     30  C   UNL     1       4.956 -13.810   5.116  1.00  0.00     0.180 C 
ATOM     31  C   UNL     1       3.880 -15.881   4.130  1.00  0.00     0.179 C 
ATOM     32  C   UNL     1       4.436 -14.466   3.825  1.00  0.00     0.177 C 
BRANCH  28  33
ATOM     33  O   UNL     1       2.875 -13.002   6.093  1.00  0.00    -0.384 OA
ATOM     34  H   UNL     1       2.751 -12.844   5.115  1.00  0.00     0.211 HD
ENDBRANCH  28  33
BRANCH  30  35
ATOM     35  O   UNL     1       5.265 -12.462   4.869  1.00  0.00    -0.387 OA
ATOM     36  H   UNL     1       4.536 -11.924   5.277  1.00  0.00     0.211 HD
ENDBRANCH  30  35
BRANCH  31  37
ATOM     37  C   UNL     1       3.247 -16.516   2.883  1.00  0.00     0.191 C 
BRANCH  37  38
ATOM     38  O   UNL     1       3.441 -17.903   2.878  1.00  0.00    -0.394 OA
ATOM     39  H   UNL     1       3.765 -18.143   1.967  1.00  0.00     0.210 HD
ENDBRANCH  37  38
ENDBRANCH  31  37
BRANCH  32  40
ATOM     40  O   UNL     1       5.493 -14.565   2.906  1.00  0.00    -0.387 OA
ATOM     41  H   UNL     1       5.412 -13.804   2.277  1.00  0.00     0.211 HD
ENDBRANCH  32  40
ENDBRANCH   1  27
TORSDOF 12
ENDMDL
MODEL 5
REMARK VINA RESULT:    -3.367      1.635      5.754
REMARK INTER + INTRA:          -4.611
REMARK INTER:                  -4.537
REMARK INTRA:                  -0.074
REMARK UNBOUND:                 0.330
REMARK SMILES O=c1c(O[C@@H]2O[C@@H](CO)[C@H](O)[C@@H](O)[C@H]2O)c(-c2ccc(O)c(O)c2)oc2cc(O)cc(O)c12
REMARK SMILES IDX 4 1 3 2 16 3 25 4 2 5 26 6 1 7 33 8 27 9 31 10 28 11 30 12
REMARK SMILES IDX 17 13 18 14 19 15 20 16 24 17 22 18 21 19 23 21 32 23 29 25
REMARK SMILES IDX 5 27 14 28 6 29 12 30 7 31 10 32 15 33 13 35 8 37 9 38 11 40
REMARK H PARENT 21 20 23 22 32 24 29 26 15 34 13 36 9 39 11 41
REMARK Flexibility Score: inf
ROOT
ATOM      1  O   UNL     1       4.467 -19.031   6.878  1.00  0.00    -0.454 OA
ENDROOT
BRANCH   1   2
ATOM      2  C   UNL     1       4.492 -18.239   8.043  1.00  0.00     0.214 A 
ATOM      3  C   UNL     1       4.148 -16.882   7.916  1.00  0.00     0.180 A 
ATOM      4  O   UNL     1       4.018 -16.122   8.995  1.00  0.00    -0.452 OA
ATOM      5  C   UNL     1       4.805 -18.735   9.327  1.00  0.00     0.239 A 
ATOM      6  C   UNL     1       4.271 -16.553  10.224  1.00  0.00     0.146 A 
ATOM      7  O   UNL     1       5.109 -19.945   9.466  1.00  0.00    -0.285 OA
ATOM      8  C   UNL     1       4.743 -17.872  10.448  1.00  0.00     0.111 A 
ATOM      9  C   UNL     1       4.057 -15.684  11.296  1.00  0.00     0.094 A 
ATOM     10  C   UNL     1       5.078 -18.254  11.781  1.00  0.00     0.134 A 
ATOM     11  C   UNL     1       4.316 -16.091  12.600  1.00  0.00     0.123 A 
ATOM     12  C   UNL     1       4.830 -17.363  12.835  1.00  0.00     0.093 A 
BRANCH   3  13
ATOM     13  C   UNL     1       3.874 -16.281   6.591  1.00  0.00     0.025 A 
ATOM     14  C   UNL     1       3.168 -16.994   5.605  1.00  0.00     0.016 A 
ATOM     15  C   UNL     1       2.878 -16.399   4.373  1.00  0.00     0.051 A 
ATOM     16  C   UNL     1       3.302 -15.089   4.105  1.00  0.00     0.157 A 
ATOM     17  C   UNL     1       4.322 -14.981   6.306  1.00  0.00     0.062 A 
ATOM     18  C   UNL     1       4.029 -14.382   5.072  1.00  0.00     0.158 A 
BRANCH  16  19
ATOM     19  O   UNL     1       3.005 -14.486   2.881  1.00  0.00    -0.504 OA
ATOM     20  H   UNL     1       3.530 -14.704   2.042  1.00  0.00     0.293 HD
ENDBRANCH  16  19
BRANCH  18  21
ATOM     21  O   UNL     1       4.451 -13.080   4.804  1.00  0.00    -0.504 OA
ATOM     22  H   UNL     1       4.427 -12.358   5.512  1.00  0.00     0.293 HD
ENDBRANCH  18  21
ENDBRANCH   3  13
BRANCH  10  23
ATOM     23  O   UNL     1       5.677 -19.476  12.115  1.00  0.00    -0.507 OA
ATOM     24  H   UNL     1       5.248 -20.199  12.684  1.00  0.00     0.293 HD
ENDBRANCH  10  23
BRANCH  11  25
ATOM     25  O   UNL     1       4.067 -15.220  13.659  1.00  0.00    -0.508 OA
ATOM     26  H   UNL     1       3.167 -15.187  14.123  1.00  0.00     0.293 HD
ENDBRANCH  11  25
ENDBRANCH   1   2
BRANCH   1  27
ATOM     27  C   UNL     1       4.277 -20.448   6.807  1.00  0.00     0.339 C 
ATOM     28  C   UNL     1       3.544 -20.806   5.503  1.00  0.00     0.214 C 
ATOM     29  O   UNL     1       5.512 -21.144   6.904  1.00  0.00    -0.332 OA
ATOM     30  C   UNL     1       4.447 -20.563   4.280  1.00  0.00     0.180 C 
ATOM     31  C   UNL     1       6.411 -20.777   5.868  1.00  0.00     0.179 C 
ATOM     32  C   UNL     1       5.841 -21.183   4.484  1.00  0.00     0.177 C 
BRANCH  28  33
ATOM     33  O   UNL     1       3.060 -22.124   5.536  1.00  0.00    -0.384 OA
ATOM     34  H   UNL     1       3.430 -22.608   4.745  1.00  0.00     0.211 HD
ENDBRANCH  28  33
BRANCH  30  35
ATOM     35  O   UNL     1       3.856 -21.099   3.124  1.00  0.00    -0.387 OA
ATOM     36  H   UNL     1       3.763 -20.349   2.479  1.00  0.00     0.211 HD
ENDBRANCH  30  35
BRANCH  31  37
ATOM     37  C   UNL     1       7.750 -21.474   6.150  1.00  0.00     0.191 C 
BRANCH  37  38
ATOM     38  O   UNL     1       8.753 -20.986   5.303  1.00  0.00    -0.394 OA
ATOM     39  H   UNL     1       8.296 -20.655   4.481  1.00  0.00     0.210 HD
ENDBRANCH  37  38
ENDBRANCH  31  37
BRANCH  32  40
ATOM     40  O   UNL     1       6.697 -20.724   3.470  1.00  0.00    -0.387 OA
ATOM     41  H   UNL     1       6.915 -19.779   3.670  1.00  0.00     0.211 HD
ENDBRANCH  32  40
ENDBRANCH   1  27
TORSDOF 12
ENDMDL
MODEL 6
REMARK VINA RESULT:    -3.238      1.025      5.414
REMARK INTER + INTRA:          -4.422
REMARK INTER:                  -5.288
REMARK INTRA:                   0.865
REMARK UNBOUND:                 0.330
REMARK SMILES O=c1c(O[C@@H]2O[C@@H](CO)[C@H](O)[C@@H](O)[C@H]2O)c(-c2ccc(O)c(O)c2)oc2cc(O)cc(O)c12
REMARK SMILES IDX 4 1 3 2 16 3 25 4 2 5 26 6 1 7 33 8 27 9 31 10 28 11 30 12
REMARK SMILES IDX 17 13 18 14 19 15 20 16 24 17 22 18 21 19 23 21 32 23 29 25
REMARK SMILES IDX 5 27 14 28 6 29 12 30 7 31 10 32 15 33 13 35 8 37 9 38 11 40
REMARK H PARENT 21 20 23 22 32 24 29 26 15 34 13 36 9 39 11 41
REMARK Flexibility Score: inf
ROOT
ATOM      1  O   UNL     1       4.623 -17.792   6.004  1.00  0.00    -0.454 OA
ENDROOT
BRANCH   1   2
ATOM      2  C   UNL     1       4.612 -17.246   7.302  1.00  0.00     0.214 A 
ATOM      3  C   UNL     1       4.343 -15.873   7.429  1.00  0.00     0.180 A 
ATOM      4  O   UNL     1       4.182 -15.332   8.630  1.00  0.00    -0.452 OA
ATOM      5  C   UNL     1       4.819 -18.002   8.476  1.00  0.00     0.239 A 
ATOM      6  C   UNL     1       4.335 -16.010   9.760  1.00  0.00     0.146 A 
ATOM      7  O   UNL     1       5.056 -19.232   8.388  1.00  0.00    -0.285 OA
ATOM      8  C   UNL     1       4.728 -17.372   9.742  1.00  0.00     0.111 A 
ATOM      9  C   UNL     1       4.096 -15.356  10.971  1.00  0.00     0.094 A 
ATOM     10  C   UNL     1       4.960 -18.027  10.988  1.00  0.00     0.134 A 
ATOM     11  C   UNL     1       4.252 -16.024  12.180  1.00  0.00     0.123 A 
ATOM     12  C   UNL     1       4.689 -17.346  12.184  1.00  0.00     0.093 A 
BRANCH   3  13
ATOM     13  C   UNL     1       4.182 -15.009   6.238  1.00  0.00     0.025 A 
ATOM     14  C   UNL     1       3.513 -15.474   5.091  1.00  0.00     0.016 A 
ATOM     15  C   UNL     1       3.330 -14.634   3.989  1.00  0.00     0.051 A 
ATOM     16  C   UNL     1       3.826 -13.322   4.011  1.00  0.00     0.157 A 
ATOM     17  C   UNL     1       4.703 -13.705   6.244  1.00  0.00     0.062 A 
ATOM     18  C   UNL     1       4.518 -12.860   5.140  1.00  0.00     0.158 A 
BRANCH  16  19
ATOM     19  O   UNL     1       3.636 -12.474   2.918  1.00  0.00    -0.504 OA
ATOM     20  H   UNL     1       2.772 -11.960   2.791  1.00  0.00     0.293 HD
ENDBRANCH  16  19
BRANCH  18  21
ATOM     21  O   UNL     1       5.012 -11.555   5.161  1.00  0.00    -0.504 OA
ATOM     22  H   UNL     1       5.888 -11.313   4.718  1.00  0.00     0.293 HD
ENDBRANCH  18  21
ENDBRANCH   3  13
BRANCH  10  23
ATOM     23  O   UNL     1       5.477 -19.324  11.104  1.00  0.00    -0.507 OA
ATOM     24  H   UNL     1       5.032 -20.086  11.606  1.00  0.00     0.293 HD
ENDBRANCH  10  23
BRANCH  11  25
ATOM     25  O   UNL     1       3.979 -15.364  13.376  1.00  0.00    -0.508 OA
ATOM     26  H   UNL     1       4.697 -15.201  14.072  1.00  0.00     0.293 HD
ENDBRANCH  11  25
ENDBRANCH   1   2
BRANCH   1  27
ATOM     27  C   UNL     1       3.511 -18.354   5.299  1.00  0.00     0.339 C 
ATOM     28  C   UNL     1       3.981 -18.893   3.937  1.00  0.00     0.214 C 
ATOM     29  O   UNL     1       2.875 -19.374   6.058  1.00  0.00    -0.332 OA
ATOM     30  C   UNL     1       4.879 -20.131   4.117  1.00  0.00     0.180 C 
ATOM     31  C   UNL     1       3.766 -20.434   6.374  1.00  0.00     0.179 C 
ATOM     32  C   UNL     1       4.242 -21.147   5.082  1.00  0.00     0.177 C 
BRANCH  28  33
ATOM     33  O   UNL     1       2.893 -19.161   3.092  1.00  0.00    -0.384 OA
ATOM     34  H   UNL     1       2.054 -18.977   3.601  1.00  0.00     0.211 HD
ENDBRANCH  28  33
BRANCH  30  35
ATOM     35  O   UNL     1       5.117 -20.744   2.875  1.00  0.00    -0.387 OA
ATOM     36  H   UNL     1       5.730 -21.507   3.048  1.00  0.00     0.211 HD
ENDBRANCH  30  35
BRANCH  31  37
ATOM     37  C   UNL     1       3.021 -21.400   7.306  1.00  0.00     0.191 C 
BRANCH  37  38
ATOM     38  O   UNL     1       3.887 -21.924   8.273  1.00  0.00    -0.394 OA
ATOM     39  H   UNL     1       3.566 -21.589   9.156  1.00  0.00     0.210 HD
ENDBRANCH  37  38
ENDBRANCH  31  37
BRANCH  32  40
ATOM     40  O   UNL     1       5.195 -22.125   5.408  1.00  0.00    -0.387 OA
ATOM     41  H   UNL     1       5.525 -21.925   6.320  1.00  0.00     0.211 HD
ENDBRANCH  32  40
ENDBRANCH   1  27
TORSDOF 12
ENDMDL
