MODEL 1
REMARK VINA RESULT:    -3.868      0.000      0.000
REMARK INTER + INTRA:          -8.121
REMARK INTER:                  -6.581
REMARK INTRA:                  -1.540
REMARK UNBOUND:                -1.540
REMARK SMILES CCCCCCCCCCCCCC(=O)[O-]
REMARK SMILES IDX 8 1 9 2 10 3 11 4 12 5 13 6 14 7 15 8 16 9 7 10 6 11 5 12
REMARK SMILES IDX 4 13 3 14 2 15 1 16
REMARK H PARENT
REMARK Flexibility Score: inf
ROOT
ATOM      1  C   UNL     1      27.679 -19.751  25.042  1.00  0.00     0.000 C 
ENDROOT
BRANCH   1   2
ATOM      2  C   UNL     1      26.436 -18.866  25.240  1.00  0.00     0.000 C 
BRANCH   2   3
ATOM      3  C   UNL     1      26.601 -17.469  24.620  1.00  0.00     0.000 C 
BRANCH   3   4
ATOM      4  C   UNL     1      26.341 -16.337  25.631  1.00  0.00     0.000 C 
BRANCH   4   5
ATOM      5  C   UNL     1      24.894 -16.332  26.148  1.00  0.00     0.006 C 
BRANCH   5   6
ATOM      6  C   UNL     1      24.405 -14.925  26.518  1.00  0.00     0.053 C 
BRANCH   6   7
ATOM      7  C   UNL     1      22.916 -14.912  26.665  1.00  0.00     0.041 C 
ATOM      8  O   UNL     1      22.191 -14.486  25.727  1.00  0.00    -0.550 OA
ATOM      9  O   UNL     1      22.331 -15.325  27.855  1.00  0.00    -0.550 OA
ENDBRANCH   6   7
ENDBRANCH   5   6
ENDBRANCH   4   5
ENDBRANCH   3   4
ENDBRANCH   2   3
ENDBRANCH   1   2
BRANCH   1  10
ATOM     10  C   UNL     1      28.835 -18.999  24.363  1.00  0.00     0.000 C 
BRANCH  10  11
ATOM     11  C   UNL     1      29.966 -18.639  25.343  1.00  0.00    -0.000 C 
BRANCH  11  12
ATOM     12  C   UNL     1      30.020 -19.580  26.557  1.00  0.00    -0.000 C 
BRANCH  12  13
ATOM     13  C   UNL     1      30.405 -18.846  27.855  1.00  0.00    -0.000 C 
BRANCH  13  14
ATOM     14  C   UNL     1      29.267 -18.842  28.889  1.00  0.00    -0.000 C 
BRANCH  14  15
ATOM     15  C   UNL     1      28.120 -17.894  28.504  1.00  0.00    -0.003 C 
ATOM     16  C   UNL     1      26.765 -18.510  28.839  1.00  0.00     0.004 C 
ENDBRANCH  14  15
ENDBRANCH  13  14
ENDBRANCH  12  13
ENDBRANCH  11  12
ENDBRANCH  10  11
ENDBRANCH   1  10
TORSDOF 12
ENDMDL
MODEL 2
REMARK VINA RESULT:    -3.776      0.959      1.751
REMARK INTER + INTRA:          -7.964
REMARK INTER:                  -6.628
REMARK INTRA:                  -1.336
REMARK UNBOUND:                -1.540
REMARK SMILES CCCCCCCCCCCCCC(=O)[O-]
REMARK SMILES IDX 8 1 9 2 10 3 11 4 12 5 13 6 14 7 15 8 16 9 7 10 6 11 5 12
REMARK SMILES IDX 4 13 3 14 2 15 1 16
REMARK H PARENT
REMARK Flexibility Score: inf
ROOT
ATOM      1  C   UNL     1      26.311 -18.578  25.226  1.00  0.00     0.000 C 
ENDROOT
BRANCH   1   2
ATOM      2  C   UNL     1      26.492 -17.270  24.436  1.00  0.00     0.000 C 
BRANCH   2   3
ATOM      3  C   UNL     1      26.485 -16.028  25.342  1.00  0.00     0.000 C 
BRANCH   3   4
ATOM      4  C   UNL     1      25.435 -16.118  26.464  1.00  0.00     0.000 C 
BRANCH   4   5
ATOM      5  C   UNL     1      24.679 -14.797  26.670  1.00  0.00     0.006 C 
BRANCH   5   6
ATOM      6  C   UNL     1      23.246 -14.846  26.125  1.00  0.00     0.053 C 
BRANCH   6   7
ATOM      7  C   UNL     1      22.600 -16.151  26.473  1.00  0.00     0.041 C 
ATOM      8  O   UNL     1      22.263 -16.394  27.662  1.00  0.00    -0.550 OA
ATOM      9  O   UNL     1      22.414 -17.118  25.493  1.00  0.00    -0.550 OA
ENDBRANCH   6   7
ENDBRANCH   5   6
ENDBRANCH   4   5
ENDBRANCH   3   4
ENDBRANCH   2   3
ENDBRANCH   1   2
BRANCH   1  10
ATOM     10  C   UNL     1      27.397 -19.617  24.901  1.00  0.00     0.000 C 
BRANCH  10  11
ATOM     11  C   UNL     1      28.644 -18.989  24.253  1.00  0.00    -0.000 C 
BRANCH  11  12
ATOM     12  C   UNL     1      29.783 -18.760  25.259  1.00  0.00    -0.000 C 
BRANCH  12  13
ATOM     13  C   UNL     1      29.532 -19.463  26.605  1.00  0.00    -0.000 C 
BRANCH  13  14
ATOM     14  C   UNL     1      29.521 -18.483  27.789  1.00  0.00    -0.000 C 
BRANCH  14  15
ATOM     15  C   UNL     1      28.100 -18.148  28.269  1.00  0.00    -0.003 C 
ATOM     16  C   UNL     1      28.135 -17.239  29.494  1.00  0.00     0.004 C 
ENDBRANCH  14  15
ENDBRANCH  13  14
ENDBRANCH  12  13
ENDBRANCH  11  12
ENDBRANCH  10  11
ENDBRANCH   1  10
TORSDOF 12
ENDMDL
MODEL 3
REMARK VINA RESULT:    -3.676      2.220      5.188
REMARK INTER + INTRA:          -7.794
REMARK INTER:                  -6.464
REMARK INTRA:                  -1.330
REMARK UNBOUND:                -1.540
REMARK SMILES CCCCCCCCCCCCCC(=O)[O-]
REMARK SMILES IDX 8 1 9 2 10 3 11 4 12 5 13 6 14 7 15 8 16 9 7 10 6 11 5 12
REMARK SMILES IDX 4 13 3 14 2 15 1 16
REMARK H PARENT
REMARK Flexibility Score: inf
ROOT
ATOM      1  C   UNL     1      27.785 -19.805  24.767  1.00  0.00     0.000 C 
ENDROOT
BRANCH   1   2
ATOM      2  C   UNL     1      29.003 -18.989  24.301  1.00  0.00     0.000 C 
BRANCH   2   3
ATOM      3  C   UNL     1      29.964 -18.653  25.453  1.00  0.00     0.000 C 
BRANCH   3   4
ATOM      4  C   UNL     1      30.279 -19.873  26.337  1.00  0.00     0.000 C 
BRANCH   4   5
ATOM      5  C   UNL     1      29.599 -19.795  27.713  1.00  0.00     0.006 C 
BRANCH   5   6
ATOM      6  C   UNL     1      29.159 -18.370  28.073  1.00  0.00     0.053 C 
BRANCH   6   7
ATOM      7  C   UNL     1      27.752 -18.372  28.583  1.00  0.00     0.041 C 
ATOM      8  O   UNL     1      27.243 -17.315  29.041  1.00  0.00    -0.550 OA
ATOM      9  O   UNL     1      27.019 -19.552  28.597  1.00  0.00    -0.550 OA
ENDBRANCH   6   7
ENDBRANCH   5   6
ENDBRANCH   4   5
ENDBRANCH   3   4
ENDBRANCH   2   3
ENDBRANCH   1   2
BRANCH   1  10
ATOM     10  C   UNL     1      26.575 -18.918  25.102  1.00  0.00     0.000 C 
BRANCH  10  11
ATOM     11  C   UNL     1      26.656 -17.529  24.443  1.00  0.00    -0.000 C 
BRANCH  11  12
ATOM     12  C   UNL     1      26.620 -16.383  25.466  1.00  0.00    -0.000 C 
BRANCH  12  13
ATOM     13  C   UNL     1      25.319 -16.369  26.290  1.00  0.00    -0.000 C 
BRANCH  13  14
ATOM     14  C   UNL     1      24.769 -14.949  26.498  1.00  0.00    -0.000 C 
BRANCH  14  15
ATOM     15  C   UNL     1      23.248 -14.928  26.712  1.00  0.00    -0.003 C 
ATOM     16  C   UNL     1      22.585 -16.134  26.053  1.00  0.00     0.004 C 
ENDBRANCH  14  15
ENDBRANCH  13  14
ENDBRANCH  12  13
ENDBRANCH  11  12
ENDBRANCH  10  11
ENDBRANCH   1  10
TORSDOF 12
ENDMDL
MODEL 4
REMARK VINA RESULT:    -3.624      2.708      5.928
REMARK INTER + INTRA:          -7.706
REMARK INTER:                  -6.243
REMARK INTRA:                  -1.464
REMARK UNBOUND:                -1.540
REMARK SMILES CCCCCCCCCCCCCC(=O)[O-]
REMARK SMILES IDX 8 1 9 2 10 3 11 4 12 5 13 6 14 7 15 8 16 9 7 10 6 11 5 12
REMARK SMILES IDX 4 13 3 14 2 15 1 16
REMARK H PARENT
REMARK Flexibility Score: inf
ROOT
ATOM      1  C   UNL     1      27.011 -16.809  25.419  1.00  0.00     0.000 C 
ENDROOT
BRANCH   1   2
ATOM      2  C   UNL     1      26.737 -18.084  24.603  1.00  0.00     0.000 C 
BRANCH   2   3
ATOM      3  C   UNL     1      27.972 -18.994  24.496  1.00  0.00     0.000 C 
BRANCH   3   4
ATOM      4  C   UNL     1      29.167 -18.468  25.312  1.00  0.00     0.000 C 
BRANCH   4   5
ATOM      5  C   UNL     1      29.499 -19.366  26.514  1.00  0.00     0.006 C 
BRANCH   5   6
ATOM      6  C   UNL     1      29.701 -18.568  27.809  1.00  0.00     0.053 C 
BRANCH   6   7
ATOM      7  C   UNL     1      28.462 -18.610  28.646  1.00  0.00     0.041 C 
ATOM      8  O   UNL     1      28.216 -17.680  29.459  1.00  0.00    -0.550 OA
ATOM      9  O   UNL     1      27.604 -19.699  28.565  1.00  0.00    -0.550 OA
ENDBRANCH   6   7
ENDBRANCH   5   6
ENDBRANCH   4   5
ENDBRANCH   3   4
ENDBRANCH   2   3
ENDBRANCH   1   2
BRANCH   1  10
ATOM     10  C   UNL     1      26.149 -16.726  26.689  1.00  0.00     0.000 C 
BRANCH  10  11
ATOM     11  C   UNL     1      24.902 -17.627  26.620  1.00  0.00    -0.000 C 
BRANCH  11  12
ATOM     12  C   UNL     1      23.637 -16.928  27.142  1.00  0.00    -0.000 C 
BRANCH  12  13
ATOM     13  C   UNL     1      22.738 -16.410  26.005  1.00  0.00    -0.000 C 
BRANCH  13  14
ATOM     14  C   UNL     1      22.572 -14.882  26.035  1.00  0.00    -0.000 C 
BRANCH  14  15
ATOM     15  C   UNL     1      23.411 -14.216  27.136  1.00  0.00    -0.003 C 
ATOM     16  C   UNL     1      24.536 -13.377  26.536  1.00  0.00     0.004 C 
ENDBRANCH  14  15
ENDBRANCH  13  14
ENDBRANCH  12  13
ENDBRANCH  11  12
ENDBRANCH  10  11
ENDBRANCH   1  10
TORSDOF 12
ENDMDL
MODEL 5
REMARK VINA RESULT:    -3.603      2.770      5.257
REMARK INTER + INTRA:          -7.670
REMARK INTER:                  -6.251
REMARK INTRA:                  -1.419
REMARK UNBOUND:                -1.540
REMARK SMILES CCCCCCCCCCCCCC(=O)[O-]
REMARK SMILES IDX 8 1 9 2 10 3 11 4 12 5 13 6 14 7 15 8 16 9 7 10 6 11 5 12
REMARK SMILES IDX 4 13 3 14 2 15 1 16
REMARK H PARENT
REMARK Flexibility Score: inf
ROOT
ATOM      1  C   UNL     1      28.795 -18.166  25.617  1.00  0.00     0.000 C 
ENDROOT
BRANCH   1   2
ATOM      2  C   UNL     1      29.278 -19.276  26.567  1.00  0.00     0.000 C 
BRANCH   2   3
ATOM      3  C   UNL     1      29.111 -18.899  28.048  1.00  0.00     0.000 C 
BRANCH   3   4
ATOM      4  C   UNL     1      27.674 -18.468  28.392  1.00  0.00     0.000 C 
BRANCH   4   5
ATOM      5  C   UNL     1      27.620 -17.096  29.082  1.00  0.00     0.006 C 
BRANCH   5   6
ATOM      6  C   UNL     1      28.637 -16.969  30.223  1.00  0.00     0.053 C 
BRANCH   6   7
ATOM      7  C   UNL     1      28.345 -15.757  31.050  1.00  0.00     0.041 C 
ATOM      8  O   UNL     1      28.132 -15.870  32.287  1.00  0.00    -0.550 OA
ATOM      9  O   UNL     1      28.260 -14.508  30.448  1.00  0.00    -0.550 OA
ENDBRANCH   6   7
ENDBRANCH   5   6
ENDBRANCH   4   5
ENDBRANCH   3   4
ENDBRANCH   2   3
ENDBRANCH   1   2
BRANCH   1  10
ATOM     10  C   UNL     1      27.686 -18.645  24.667  1.00  0.00     0.000 C 
BRANCH  10  11
ATOM     11  C   UNL     1      26.366 -17.877  24.862  1.00  0.00    -0.000 C 
BRANCH  11  12
ATOM     12  C   UNL     1      26.586 -16.391  25.186  1.00  0.00    -0.000 C 
BRANCH  12  13
ATOM     13  C   UNL     1      25.589 -15.862  26.233  1.00  0.00    -0.000 C 
BRANCH  13  14
ATOM     14  C   UNL     1      24.554 -16.919  26.648  1.00  0.00    -0.000 C 
BRANCH  14  15
ATOM     15  C   UNL     1      23.138 -16.592  26.147  1.00  0.00    -0.003 C 
ATOM     16  C   UNL     1      22.714 -15.192  26.581  1.00  0.00     0.004 C 
ENDBRANCH  14  15
ENDBRANCH  13  14
ENDBRANCH  12  13
ENDBRANCH  11  12
ENDBRANCH  10  11
ENDBRANCH   1  10
TORSDOF 12
ENDMDL
MODEL 6
REMARK VINA RESULT:    -3.591      1.430      2.171
REMARK INTER + INTRA:          -7.649
REMARK INTER:                  -6.249
REMARK INTRA:                  -1.400
REMARK UNBOUND:                -1.540
REMARK SMILES CCCCCCCCCCCCCC(=O)[O-]
REMARK SMILES IDX 8 1 9 2 10 3 11 4 12 5 13 6 14 7 15 8 16 9 7 10 6 11 5 12
REMARK SMILES IDX 4 13 3 14 2 15 1 16
REMARK H PARENT
REMARK Flexibility Score: inf
ROOT
ATOM      1  C   UNL     1      29.791 -18.373  25.378  1.00  0.00     0.000 C 
ENDROOT
BRANCH   1   2
ATOM      2  C   UNL     1      28.688 -18.991  24.501  1.00  0.00     0.000 C 
BRANCH   2   3
ATOM      3  C   UNL     1      27.284 -18.499  24.886  1.00  0.00     0.000 C 
BRANCH   3   4
ATOM      4  C   UNL     1      27.309 -17.137  25.603  1.00  0.00     0.000 C 
BRANCH   4   5
ATOM      5  C   UNL     1      25.986 -16.369  25.455  1.00  0.00     0.006 C 
BRANCH   5   6
ATOM      6  C   UNL     1      25.471 -15.818  26.791  1.00  0.00     0.053 C 
BRANCH   6   7
ATOM      7  C   UNL     1      24.442 -14.757  26.556  1.00  0.00     0.041 C 
ATOM      8  O   UNL     1      23.288 -15.071  26.161  1.00  0.00    -0.550 OA
ATOM      9  O   UNL     1      24.771 -13.419  26.727  1.00  0.00    -0.550 OA
ENDBRANCH   6   7
ENDBRANCH   5   6
ENDBRANCH   4   5
ENDBRANCH   3   4
ENDBRANCH   2   3
ENDBRANCH   1   2
BRANCH   1  10
ATOM     10  C   UNL     1      30.698 -19.435  26.020  1.00  0.00     0.000 C 
BRANCH  10  11
ATOM     11  C   UNL     1      30.379 -19.668  27.508  1.00  0.00    -0.000 C 
BRANCH  11  12
ATOM     12  C   UNL     1      29.587 -18.508  28.132  1.00  0.00    -0.000 C 
BRANCH  12  13
ATOM     13  C   UNL     1      28.246 -18.966  28.734  1.00  0.00    -0.000 C 
BRANCH  13  14
ATOM     14  C   UNL     1      27.408 -17.794  29.269  1.00  0.00    -0.000 C 
BRANCH  14  15
ATOM     15  C   UNL     1      28.265 -16.714  29.947  1.00  0.00    -0.003 C 
ATOM     16  C   UNL     1      27.950 -16.619  31.437  1.00  0.00     0.004 C 
ENDBRANCH  14  15
ENDBRANCH  13  14
ENDBRANCH  12  13
ENDBRANCH  11  12
ENDBRANCH  10  11
ENDBRANCH   1  10
TORSDOF 12
ENDMDL
MODEL 7
REMARK VINA RESULT:    -3.583      3.065      4.154
REMARK INTER + INTRA:          -7.636
REMARK INTER:                  -6.803
REMARK INTRA:                  -0.833
REMARK UNBOUND:                -1.540
REMARK SMILES CCCCCCCCCCCCCC(=O)[O-]
REMARK SMILES IDX 8 1 9 2 10 3 11 4 12 5 13 6 14 7 15 8 16 9 7 10 6 11 5 12
REMARK SMILES IDX 4 13 3 14 2 15 1 16
REMARK H PARENT
REMARK Flexibility Score: inf
ROOT
ATOM      1  C   UNL     1      27.790 -17.827  28.584  1.00  0.00     0.000 C 
ENDROOT
BRANCH   1   2
ATOM      2  C   UNL     1      27.564 -18.686  27.327  1.00  0.00     0.000 C 
BRANCH   2   3
ATOM      3  C   UNL     1      27.912 -17.936  26.031  1.00  0.00     0.000 C 
BRANCH   3   4
ATOM      4  C   UNL     1      26.663 -17.500  25.244  1.00  0.00     0.000 C 
BRANCH   4   5
ATOM      5  C   UNL     1      26.216 -16.072  25.594  1.00  0.00     0.006 C 
BRANCH   5   6
ATOM      6  C   UNL     1      25.038 -16.047  26.576  1.00  0.00     0.053 C 
BRANCH   6   7
ATOM      7  C   UNL     1      24.438 -14.677  26.636  1.00  0.00     0.041 C 
ATOM      8  O   UNL     1      25.132 -13.669  26.339  1.00  0.00    -0.550 OA
ATOM      9  O   UNL     1      23.129 -14.510  27.067  1.00  0.00    -0.550 OA
ENDBRANCH   6   7
ENDBRANCH   5   6
ENDBRANCH   4   5
ENDBRANCH   3   4
ENDBRANCH   2   3
ENDBRANCH   1   2
BRANCH   1  10
ATOM     10  C   UNL     1      29.233 -17.919  29.108  1.00  0.00     0.000 C 
BRANCH  10  11
ATOM     11  C   UNL     1      29.392 -17.317  30.516  1.00  0.00    -0.000 C 
BRANCH  11  12
ATOM     12  C   UNL     1      28.127 -16.588  30.995  1.00  0.00    -0.000 C 
BRANCH  12  13
ATOM     13  C   UNL     1      28.444 -15.246  31.680  1.00  0.00    -0.000 C 
BRANCH  13  14
ATOM     14  C   UNL     1      29.291 -14.317  30.795  1.00  0.00    -0.000 C 
BRANCH  14  15
ATOM     15  C   UNL     1      30.078 -13.279  31.608  1.00  0.00    -0.003 C 
ATOM     16  C   UNL     1      29.152 -12.484  32.525  1.00  0.00     0.004 C 
ENDBRANCH  14  15
ENDBRANCH  13  14
ENDBRANCH  12  13
ENDBRANCH  11  12
ENDBRANCH  10  11
ENDBRANCH   1  10
TORSDOF 12
ENDMDL
MODEL 8
REMARK VINA RESULT:    -3.560      0.954      3.000
REMARK INTER + INTRA:          -7.597
REMARK INTER:                  -6.066
REMARK INTRA:                  -1.531
REMARK UNBOUND:                -1.540
REMARK SMILES CCCCCCCCCCCCCC(=O)[O-]
REMARK SMILES IDX 8 1 9 2 10 3 11 4 12 5 13 6 14 7 15 8 16 9 7 10 6 11 5 12
REMARK SMILES IDX 4 13 3 14 2 15 1 16
REMARK H PARENT
REMARK Flexibility Score: inf
ROOT
ATOM      1  C   UNL     1      27.500 -17.379  29.024  1.00  0.00     0.000 C 
ENDROOT
BRANCH   1   2
ATOM      2  C   UNL     1      26.277 -18.244  28.674  1.00  0.00     0.000 C 
BRANCH   2   3
ATOM      3  C   UNL     1      25.777 -18.007  27.240  1.00  0.00     0.000 C 
BRANCH   3   4
ATOM      4  C   UNL     1      26.244 -16.657  26.665  1.00  0.00     0.000 C 
BRANCH   4   5
ATOM      5  C   UNL     1      25.077 -15.689  26.414  1.00  0.00     0.006 C 
BRANCH   5   6
ATOM      6  C   UNL     1      23.715 -16.307  26.753  1.00  0.00     0.053 C 
BRANCH   6   7
ATOM      7  C   UNL     1      22.666 -15.242  26.837  1.00  0.00     0.041 C 
ATOM      8  O   UNL     1      22.071 -15.025  27.925  1.00  0.00    -0.550 OA
ATOM      9  O   UNL     1      22.312 -14.524  25.702  1.00  0.00    -0.550 OA
ENDBRANCH   6   7
ENDBRANCH   5   6
ENDBRANCH   4   5
ENDBRANCH   3   4
ENDBRANCH   2   3
ENDBRANCH   1   2
BRANCH   1  10
ATOM     10  C   UNL     1      28.741 -18.221  29.362  1.00  0.00     0.000 C 
BRANCH  10  11
ATOM     11  C   UNL     1      29.754 -18.275  28.205  1.00  0.00    -0.000 C 
BRANCH  11  12
ATOM     12  C   UNL     1      30.014 -19.707  27.710  1.00  0.00    -0.000 C 
BRANCH  12  13
ATOM     13  C   UNL     1      29.837 -19.846  26.187  1.00  0.00    -0.000 C 
BRANCH  13  14
ATOM     14  C   UNL     1      29.502 -18.508  25.508  1.00  0.00    -0.000 C 
BRANCH  14  15
ATOM     15  C   UNL     1      28.319 -18.618  24.533  1.00  0.00    -0.003 C 
ATOM     16  C   UNL     1      27.632 -19.975  24.656  1.00  0.00     0.004 C 
ENDBRANCH  14  15
ENDBRANCH  13  14
ENDBRANCH  12  13
ENDBRANCH  11  12
ENDBRANCH  10  11
ENDBRANCH   1  10
TORSDOF 12
ENDMDL
MODEL 9
REMARK VINA RESULT:    -3.537      2.526      5.383
REMARK INTER + INTRA:          -7.558
REMARK INTER:                  -5.943
REMARK INTRA:                  -1.615
REMARK UNBOUND:                -1.540
REMARK SMILES CCCCCCCCCCCCCC(=O)[O-]
REMARK SMILES IDX 8 1 9 2 10 3 11 4 12 5 13 6 14 7 15 8 16 9 7 10 6 11 5 12
REMARK SMILES IDX 4 13 3 14 2 15 1 16
REMARK H PARENT
REMARK Flexibility Score: inf
ROOT
ATOM      1  C   UNL     1      26.566 -17.712  24.476  1.00  0.00     0.000 C 
ENDROOT
BRANCH   1   2
ATOM      2  C   UNL     1      27.857 -18.548  24.418  1.00  0.00     0.000 C 
BRANCH   2   3
ATOM      3  C   UNL     1      28.717 -18.393  25.682  1.00  0.00     0.000 C 
BRANCH   3   4
ATOM      4  C   UNL     1      28.745 -19.670  26.542  1.00  0.00     0.000 C 
BRANCH   4   5
ATOM      5  C   UNL     1      28.029 -19.488  27.889  1.00  0.00     0.006 C 
BRANCH   5   6
ATOM      6  C   UNL     1      28.239 -18.091  28.486  1.00  0.00     0.053 C 
BRANCH   6   7
ATOM      7  C   UNL     1      27.384 -17.908  29.700  1.00  0.00     0.041 C 
ATOM      8  O   UNL     1      26.291 -18.525  29.803  1.00  0.00    -0.550 OA
ATOM      9  O   UNL     1      27.770 -17.019  30.695  1.00  0.00    -0.550 OA
ENDBRANCH   6   7
ENDBRANCH   5   6
ENDBRANCH   4   5
ENDBRANCH   3   4
ENDBRANCH   2   3
ENDBRANCH   1   2
BRANCH   1  10
ATOM     10  C   UNL     1      26.748 -16.402  25.260  1.00  0.00     0.000 C 
BRANCH  10  11
ATOM     11  C   UNL     1      25.772 -16.278  26.443  1.00  0.00    -0.000 C 
BRANCH  11  12
ATOM     12  C   UNL     1      25.016 -17.586  26.728  1.00  0.00    -0.000 C 
BRANCH  12  13
ATOM     13  C   UNL     1      23.531 -17.348  27.059  1.00  0.00    -0.000 C 
BRANCH  13  14
ATOM     14  C   UNL     1      22.736 -16.815  25.856  1.00  0.00    -0.000 C 
BRANCH  14  15
ATOM     15  C   UNL     1      22.390 -15.324  25.989  1.00  0.00    -0.003 C 
ATOM     16  C   UNL     1      22.418 -14.882  27.449  1.00  0.00     0.004 C 
ENDBRANCH  14  15
ENDBRANCH  13  14
ENDBRANCH  12  13
ENDBRANCH  11  12
ENDBRANCH  10  11
ENDBRANCH   1  10
TORSDOF 12
ENDMDL
