MODEL 1
REMARK VINA RESULT:    -8.385      0.000      0.000
REMARK INTER + INTRA:          -9.402
REMARK INTER:                  -9.120
REMARK INTRA:                  -0.282
REMARK UNBOUND:                -0.282
REMARK SMILES C[C@@H]1[C@H]2C3=CC[C@H]4[C@@]5(C)CC[C@@H](O)C(C)(C)[C@@H]5CC[C@@]4(C)[C@]3(C)CC[C@@]2(C(=O)[O-])CC[C@@H]1C
REMARK SMILES IDX 26 1 30 2 25 3 3 4 31 5 24 6 4 7 2 8 32 9 22 10 5 11 1 12
REMARK SMILES IDX 33 13 23 14 20 15 6 16 7 17 19 18 21 19 8 20 18 21 17 22
REMARK SMILES IDX 10 23 9 24 14 25 11 26 12 27 15 28 16 29 27 30 28 31 29 32
REMARK SMILES IDX 13 33
REMARK H PARENT 13 34
REMARK Flexibility Score: inf
ROOT
ATOM      1  C   UNL     1      -6.267  -2.637  -3.215  1.00  0.00     0.017 C 
ATOM      2  C   UNL     1      -7.122  -3.942  -3.084  1.00  0.00     0.014 C 
ATOM      3  C   UNL     1      -5.850  -2.508  -4.713  1.00  0.00     0.014 C 
ATOM      4  C   UNL     1      -5.042  -2.688  -2.225  1.00  0.00     0.030 C 
ATOM      5  C   UNL     1      -7.216  -4.434  -1.636  1.00  0.00     0.004 C 
ATOM      6  C   UNL     1      -4.661  -1.566  -5.004  1.00  0.00     0.013 C 
ATOM      7  C   UNL     1      -3.879  -1.789  -2.701  1.00  0.00    -0.063 C 
ATOM      8  C   UNL     1      -4.636  -4.126  -1.774  1.00  0.00    -0.003 C 
ATOM      9  C   UNL     1      -5.836  -4.859  -1.069  1.00  0.00    -0.011 C 
ATOM     10  C   UNL     1      -3.377  -1.845  -4.154  1.00  0.00    -0.006 C 
ATOM     11  C   UNL     1      -3.569  -0.769  -1.888  1.00  0.00    -0.027 C 
ATOM     12  C   UNL     1      -3.357  -4.127  -0.910  1.00  0.00     0.008 C 
ATOM     13  C   UNL     1      -5.861  -4.711   0.467  1.00  0.00     0.008 C 
ATOM     14  C   UNL     1      -2.873  -3.290  -4.472  1.00  0.00     0.017 C 
ATOM     15  C   UNL     1      -2.184  -0.780  -4.488  1.00  0.00    -0.020 C 
ATOM     16  C   UNL     1      -2.713   0.386  -2.236  1.00  0.00     0.032 C 
ATOM     17  C   UNL     1      -2.408   0.608  -3.745  1.00  0.00     0.006 C 
ATOM     18  C   UNL     1      -0.781  -1.317  -4.044  1.00  0.00     0.008 C 
ATOM     19  C   UNL     1      -2.150  -0.592  -6.045  1.00  0.00     0.012 C 
ATOM     20  C   UNL     1      -1.221   1.684  -3.926  1.00  0.00    -0.025 C 
ATOM     21  C   UNL     1       0.390  -0.326  -4.241  1.00  0.00     0.005 C 
ATOM     22  C   UNL     1       0.155   1.022  -3.519  1.00  0.00     0.003 C 
ATOM     23  C   UNL     1      -1.440   2.928  -2.994  1.00  0.00     0.010 C 
ATOM     24  C   UNL     1      -1.240   2.225  -5.395  1.00  0.00     0.012 C 
ATOM     25  C   UNL     1       1.408   1.993  -3.466  1.00  0.00    -0.006 C 
ATOM     26  C   UNL     1      -0.270   3.928  -2.977  1.00  0.00     0.033 C 
ATOM     27  C   UNL     1       1.073   3.271  -2.613  1.00  0.00     0.120 C 
ATOM     28  C   UNL     1       1.900   2.434  -4.870  1.00  0.00     0.014 C 
ATOM     29  C   UNL     1       2.611   1.270  -2.793  1.00  0.00     0.014 C 
ENDROOT
BRANCH   1  30
ATOM     30  C   UNL     1      -7.124  -1.419  -2.859  1.00  0.00     0.048 C 
ATOM     31  O   UNL     1      -7.886  -0.905  -3.721  1.00  0.00    -0.550 OA
ATOM     32  O   UNL     1      -7.048  -0.821  -1.603  1.00  0.00    -0.550 OA
ENDBRANCH   1  30
BRANCH  27  33
ATOM     33  O   UNL     1       1.129   3.038  -1.224  1.00  0.00    -0.393 OA
ATOM     34  H   UNL     1       0.247   2.717  -0.917  1.00  0.00     0.210 HD
ENDBRANCH  27  33
TORSDOF 2
ENDMDL
MODEL 2
REMARK VINA RESULT:    -8.345      1.863      2.533
REMARK INTER + INTRA:          -9.358
REMARK INTER:                  -9.093
REMARK INTRA:                  -0.266
REMARK UNBOUND:                -0.282
REMARK SMILES C[C@@H]1[C@H]2C3=CC[C@H]4[C@@]5(C)CC[C@@H](O)C(C)(C)[C@@H]5CC[C@@]4(C)[C@]3(C)CC[C@@]2(C(=O)[O-])CC[C@@H]1C
REMARK SMILES IDX 26 1 30 2 25 3 3 4 31 5 24 6 4 7 2 8 32 9 22 10 5 11 1 12
REMARK SMILES IDX 33 13 23 14 20 15 6 16 7 17 19 18 21 19 8 20 18 21 17 22
REMARK SMILES IDX 10 23 9 24 14 25 11 26 12 27 15 28 16 29 27 30 28 31 29 32
REMARK SMILES IDX 13 33
REMARK H PARENT 13 34
REMARK Flexibility Score: inf
ROOT
ATOM      1  C   UNL     1      -5.675  -2.757  -1.464  1.00  0.00     0.017 C 
ATOM      2  C   UNL     1      -6.308  -4.150  -1.134  1.00  0.00     0.014 C 
ATOM      3  C   UNL     1      -6.567  -2.093  -2.558  1.00  0.00     0.014 C 
ATOM      4  C   UNL     1      -4.172  -2.935  -1.902  1.00  0.00     0.030 C 
ATOM      5  C   UNL     1      -5.321  -5.088  -0.432  1.00  0.00     0.004 C 
ATOM      6  C   UNL     1      -5.916  -0.937  -3.349  1.00  0.00     0.013 C 
ATOM      7  C   UNL     1      -3.687  -1.764  -2.787  1.00  0.00    -0.063 C 
ATOM      8  C   UNL     1      -3.815  -4.361  -2.426  1.00  0.00    -0.003 C 
ATOM      9  C   UNL     1      -4.116  -5.456  -1.337  1.00  0.00    -0.011 C 
ATOM     10  C   UNL     1      -4.524  -1.273  -3.980  1.00  0.00    -0.006 C 
ATOM     11  C   UNL     1      -2.696  -1.023  -2.270  1.00  0.00    -0.027 C 
ATOM     12  C   UNL     1      -2.369  -4.443  -2.959  1.00  0.00     0.008 C 
ATOM     13  C   UNL     1      -2.911  -5.814  -0.441  1.00  0.00     0.008 C 
ATOM     14  C   UNL     1      -4.708  -2.446  -4.999  1.00  0.00     0.017 C 
ATOM     15  C   UNL     1      -3.883   0.011  -4.760  1.00  0.00    -0.020 C 
ATOM     16  C   UNL     1      -2.256   0.299  -2.766  1.00  0.00     0.032 C 
ATOM     17  C   UNL     1      -3.208   1.037  -3.749  1.00  0.00     0.006 C 
ATOM     18  C   UNL     1      -2.778  -0.418  -5.784  1.00  0.00     0.008 C 
ATOM     19  C   UNL     1      -5.043   0.691  -5.568  1.00  0.00     0.012 C 
ATOM     20  C   UNL     1      -2.450   2.283  -4.438  1.00  0.00    -0.025 C 
ATOM     21  C   UNL     1      -2.056   0.750  -6.495  1.00  0.00     0.005 C 
ATOM     22  C   UNL     1      -1.412   1.743  -5.499  1.00  0.00     0.003 C 
ATOM     23  C   UNL     1      -1.649   3.113  -3.373  1.00  0.00     0.010 C 
ATOM     24  C   UNL     1      -3.514   3.255  -5.047  1.00  0.00     0.012 C 
ATOM     25  C   UNL     1      -0.449   2.826  -6.145  1.00  0.00    -0.006 C 
ATOM     26  C   UNL     1      -0.760   4.222  -3.965  1.00  0.00     0.033 C 
ATOM     27  C   UNL     1       0.226   3.696  -5.023  1.00  0.00     0.120 C 
ATOM     28  C   UNL     1      -1.170   3.763  -7.150  1.00  0.00     0.014 C 
ATOM     29  C   UNL     1       0.682   2.119  -6.948  1.00  0.00     0.014 C 
ENDROOT
BRANCH   1  30
ATOM     30  C   UNL     1      -5.712  -1.864  -0.221  1.00  0.00     0.048 C 
ATOM     31  O   UNL     1      -4.761  -1.886   0.606  1.00  0.00    -0.550 OA
ATOM     32  O   UNL     1      -6.808  -1.049   0.054  1.00  0.00    -0.550 OA
ENDBRANCH   1  30
BRANCH  27  33
ATOM     33  O   UNL     1       1.302   3.043  -4.389  1.00  0.00    -0.393 OA
ATOM     34  H   UNL     1       1.006   2.146  -4.101  1.00  0.00     0.210 HD
ENDBRANCH  27  33
TORSDOF 2
ENDMDL
MODEL 3
REMARK VINA RESULT:    -8.192      2.039      7.706
REMARK INTER + INTRA:          -9.192
REMARK INTER:                  -8.906
REMARK INTRA:                  -0.286
REMARK UNBOUND:                -0.282
REMARK SMILES C[C@@H]1[C@H]2C3=CC[C@H]4[C@@]5(C)CC[C@@H](O)C(C)(C)[C@@H]5CC[C@@]4(C)[C@]3(C)CC[C@@]2(C(=O)[O-])CC[C@@H]1C
REMARK SMILES IDX 26 1 30 2 25 3 3 4 31 5 24 6 4 7 2 8 32 9 22 10 5 11 1 12
REMARK SMILES IDX 33 13 23 14 20 15 6 16 7 17 19 18 21 19 8 20 18 21 17 22
REMARK SMILES IDX 10 23 9 24 14 25 11 26 12 27 15 28 16 29 27 30 28 31 29 32
REMARK SMILES IDX 13 33
REMARK H PARENT 13 34
REMARK Flexibility Score: inf
ROOT
ATOM      1  C   UNL     1      -0.585  -0.357  -5.263  1.00  0.00     0.017 C 
ATOM      2  C   UNL     1       0.166   0.339  -6.446  1.00  0.00     0.014 C 
ATOM      3  C   UNL     1      -1.229  -1.661  -5.828  1.00  0.00     0.014 C 
ATOM      4  C   UNL     1      -1.633   0.634  -4.627  1.00  0.00     0.030 C 
ATOM      5  C   UNL     1       0.453   1.817  -6.166  1.00  0.00     0.004 C 
ATOM      6  C   UNL     1      -2.365  -2.275  -4.981  1.00  0.00     0.013 C 
ATOM      7  C   UNL     1      -2.778  -0.118  -3.913  1.00  0.00    -0.063 C 
ATOM      8  C   UNL     1      -2.080   1.794  -5.570  1.00  0.00    -0.003 C 
ATOM      9  C   UNL     1      -0.846   2.654  -6.035  1.00  0.00    -0.011 C 
ATOM     10  C   UNL     1      -3.512  -1.281  -4.600  1.00  0.00    -0.006 C 
ATOM     11  C   UNL     1      -2.864   0.085  -2.590  1.00  0.00    -0.027 C 
ATOM     12  C   UNL     1      -3.196   2.658  -4.946  1.00  0.00     0.008 C 
ATOM     13  C   UNL     1      -0.558   3.887  -5.153  1.00  0.00     0.008 C 
ATOM     14  C   UNL     1      -4.182  -0.764  -5.915  1.00  0.00     0.017 C 
ATOM     15  C   UNL     1      -4.650  -1.993  -3.669  1.00  0.00    -0.020 C 
ATOM     16  C   UNL     1      -3.665  -0.719  -1.642  1.00  0.00     0.032 C 
ATOM     17  C   UNL     1      -4.192  -2.091  -2.150  1.00  0.00     0.006 C 
ATOM     18  C   UNL     1      -6.002  -1.202  -3.691  1.00  0.00     0.008 C 
ATOM     19  C   UNL     1      -4.922  -3.416  -4.273  1.00  0.00     0.012 C 
ATOM     20  C   UNL     1      -5.298  -2.679  -1.134  1.00  0.00    -0.025 C 
ATOM     21  C   UNL     1      -7.102  -1.762  -2.759  1.00  0.00     0.005 C 
ATOM     22  C   UNL     1      -6.639  -1.858  -1.286  1.00  0.00     0.003 C 
ATOM     23  C   UNL     1      -4.825  -2.541   0.356  1.00  0.00     0.010 C 
ATOM     24  C   UNL     1      -5.473  -4.212  -1.401  1.00  0.00     0.012 C 
ATOM     25  C   UNL     1      -7.781  -2.187  -0.234  1.00  0.00    -0.006 C 
ATOM     26  C   UNL     1      -5.889  -2.923   1.402  1.00  0.00     0.033 C 
ATOM     27  C   UNL     1      -7.205  -2.144   1.228  1.00  0.00     0.120 C 
ATOM     28  C   UNL     1      -8.456  -3.563  -0.475  1.00  0.00     0.014 C 
ATOM     29  C   UNL     1      -8.915  -1.125  -0.333  1.00  0.00     0.014 C 
ENDROOT
BRANCH   1  30
ATOM     30  C   UNL     1       0.418  -0.760  -4.178  1.00  0.00     0.048 C 
ATOM     31  O   UNL     1       0.997  -1.877  -4.232  1.00  0.00    -0.550 OA
ATOM     32  O   UNL     1       0.676   0.067  -3.087  1.00  0.00    -0.550 OA
ENDBRANCH   1  30
BRANCH  27  33
ATOM     33  O   UNL     1      -7.052  -0.834   1.724  1.00  0.00    -0.393 OA
ATOM     34  H   UNL     1      -6.523  -0.307   1.079  1.00  0.00     0.210 HD
ENDBRANCH  27  33
TORSDOF 2
ENDMDL
MODEL 4
REMARK VINA RESULT:    -8.059      1.492      2.315
REMARK INTER + INTRA:          -9.048
REMARK INTER:                  -8.760
REMARK INTRA:                  -0.288
REMARK UNBOUND:                -0.282
REMARK SMILES C[C@@H]1[C@H]2C3=CC[C@H]4[C@@]5(C)CC[C@@H](O)C(C)(C)[C@@H]5CC[C@@]4(C)[C@]3(C)CC[C@@]2(C(=O)[O-])CC[C@@H]1C
REMARK SMILES IDX 26 1 30 2 25 3 3 4 31 5 24 6 4 7 2 8 32 9 22 10 5 11 1 12
REMARK SMILES IDX 33 13 23 14 20 15 6 16 7 17 19 18 21 19 8 20 18 21 17 22
REMARK SMILES IDX 10 23 9 24 14 25 11 26 12 27 15 28 16 29 27 30 28 31 29 32
REMARK SMILES IDX 13 33
REMARK H PARENT 13 34
REMARK Flexibility Score: inf
ROOT
ATOM      1  C   UNL     1      -7.070  -2.885  -1.297  1.00  0.00     0.017 C 
ATOM      2  C   UNL     1      -8.137  -3.884  -0.737  1.00  0.00     0.014 C 
ATOM      3  C   UNL     1      -7.263  -2.824  -2.844  1.00  0.00     0.014 C 
ATOM      4  C   UNL     1      -5.624  -3.336  -0.862  1.00  0.00     0.030 C 
ATOM      5  C   UNL     1      -7.787  -4.385   0.668  1.00  0.00     0.004 C 
ATOM      6  C   UNL     1      -6.070  -2.264  -3.651  1.00  0.00     0.013 C 
ATOM      7  C   UNL     1      -4.540  -2.803  -1.825  1.00  0.00    -0.063 C 
ATOM      8  C   UNL     1      -5.503  -4.847  -0.490  1.00  0.00    -0.003 C 
ATOM      9  C   UNL     1      -6.481  -5.221   0.685  1.00  0.00    -0.011 C 
ATOM     10  C   UNL     1      -4.694  -2.944  -3.349  1.00  0.00    -0.006 C 
ATOM     11  C   UNL     1      -3.655  -1.953  -1.283  1.00  0.00    -0.027 C 
ATOM     12  C   UNL     1      -4.046  -5.261  -0.195  1.00  0.00     0.008 C 
ATOM     13  C   UNL     1      -5.852  -5.135   2.091  1.00  0.00     0.008 C 
ATOM     14  C   UNL     1      -4.794  -4.460  -3.719  1.00  0.00     0.017 C 
ATOM     15  C   UNL     1      -3.479  -2.267  -4.206  1.00  0.00    -0.020 C 
ATOM     16  C   UNL     1      -2.715  -1.090  -2.030  1.00  0.00     0.032 C 
ATOM     17  C   UNL     1      -2.983  -0.906  -3.551  1.00  0.00     0.006 C 
ATOM     18  C   UNL     1      -2.234  -3.212  -4.303  1.00  0.00     0.008 C 
ATOM     19  C   UNL     1      -4.013  -2.034  -5.664  1.00  0.00     0.012 C 
ATOM     20  C   UNL     1      -1.710  -0.222  -4.267  1.00  0.00    -0.025 C 
ATOM     21  C   UNL     1      -1.006  -2.604  -5.020  1.00  0.00     0.005 C 
ATOM     22  C   UNL     1      -0.539  -1.277  -4.375  1.00  0.00     0.003 C 
ATOM     23  C   UNL     1      -1.176   0.992  -3.428  1.00  0.00     0.010 C 
ATOM     24  C   UNL     1      -2.153   0.359  -5.651  1.00  0.00     0.012 C 
ATOM     25  C   UNL     1       0.854  -0.722  -4.894  1.00  0.00    -0.006 C 
ATOM     26  C   UNL     1       0.139   1.600  -3.950  1.00  0.00     0.033 C 
ATOM     27  C   UNL     1       1.266   0.562  -4.085  1.00  0.00     0.120 C 
ATOM     28  C   UNL     1       0.853  -0.390  -6.410  1.00  0.00     0.014 C 
ATOM     29  C   UNL     1       1.962  -1.795  -4.687  1.00  0.00     0.014 C 
ENDROOT
BRANCH   1  30
ATOM     30  C   UNL     1      -7.327  -1.484  -0.735  1.00  0.00     0.048 C 
ATOM     31  O   UNL     1      -8.154  -0.717  -1.297  1.00  0.00    -0.550 OA
ATOM     32  O   UNL     1      -6.625  -1.006   0.368  1.00  0.00    -0.550 OA
ENDBRANCH   1  30
BRANCH  27  33
ATOM     33  O   UNL     1       1.798   0.267  -2.814  1.00  0.00    -0.393 OA
ATOM     34  H   UNL     1       2.783   0.268  -2.871  1.00  0.00     0.210 HD
ENDBRANCH  27  33
TORSDOF 2
ENDMDL
MODEL 5
REMARK VINA RESULT:    -8.052      1.734      7.686
REMARK INTER + INTRA:          -9.040
REMARK INTER:                  -8.758
REMARK INTRA:                  -0.282
REMARK UNBOUND:                -0.282
REMARK SMILES C[C@@H]1[C@H]2C3=CC[C@H]4[C@@]5(C)CC[C@@H](O)C(C)(C)[C@@H]5CC[C@@]4(C)[C@]3(C)CC[C@@]2(C(=O)[O-])CC[C@@H]1C
REMARK SMILES IDX 26 1 30 2 25 3 3 4 31 5 24 6 4 7 2 8 32 9 22 10 5 11 1 12
REMARK SMILES IDX 33 13 23 14 20 15 6 16 7 17 19 18 21 19 8 20 18 21 17 22
REMARK SMILES IDX 10 23 9 24 14 25 11 26 12 27 15 28 16 29 27 30 28 31 29 32
REMARK SMILES IDX 13 33
REMARK H PARENT 13 34
REMARK Flexibility Score: inf
ROOT
ATOM      1  C   UNL     1      -0.892   1.672  -4.380  1.00  0.00     0.017 C 
ATOM      2  C   UNL     1      -0.351   2.652  -5.474  1.00  0.00     0.014 C 
ATOM      3  C   UNL     1      -0.107   0.332  -4.531  1.00  0.00     0.014 C 
ATOM      4  C   UNL     1      -2.453   1.505  -4.525  1.00  0.00     0.030 C 
ATOM      5  C   UNL     1      -1.311   3.815  -5.742  1.00  0.00     0.004 C 
ATOM      6  C   UNL     1      -0.754  -0.907  -3.874  1.00  0.00     0.013 C 
ATOM      7  C   UNL     1      -2.947   0.168  -3.929  1.00  0.00    -0.063 C 
ATOM      8  C   UNL     1      -3.011   1.855  -5.940  1.00  0.00    -0.003 C 
ATOM      9  C   UNL     1      -2.662   3.337  -6.336  1.00  0.00    -0.011 C 
ATOM     10  C   UNL     1      -2.247  -1.159  -4.270  1.00  0.00    -0.006 C 
ATOM     11  C   UNL     1      -3.781   0.275  -2.884  1.00  0.00    -0.027 C 
ATOM     12  C   UNL     1      -4.519   1.553  -6.063  1.00  0.00     0.008 C 
ATOM     13  C   UNL     1      -3.755   4.367  -5.982  1.00  0.00     0.008 C 
ATOM     14  C   UNL     1      -2.319  -1.399  -5.814  1.00  0.00     0.017 C 
ATOM     15  C   UNL     1      -2.870  -2.458  -3.500  1.00  0.00    -0.020 C 
ATOM     16  C   UNL     1      -4.163  -0.819  -1.966  1.00  0.00     0.032 C 
ATOM     17  C   UNL     1      -3.295  -2.110  -2.008  1.00  0.00     0.006 C 
ATOM     18  C   UNL     1      -4.144  -3.011  -4.224  1.00  0.00     0.008 C 
ATOM     19  C   UNL     1      -1.778  -3.585  -3.531  1.00  0.00     0.012 C 
ATOM     20  C   UNL     1      -4.024  -3.303  -1.205  1.00  0.00    -0.025 C 
ATOM     21  C   UNL     1      -4.848  -4.184  -3.503  1.00  0.00     0.005 C 
ATOM     22  C   UNL     1      -5.249  -3.833  -2.051  1.00  0.00     0.003 C 
ATOM     23  C   UNL     1      -4.585  -2.797   0.171  1.00  0.00     0.010 C 
ATOM     24  C   UNL     1      -2.972  -4.413  -0.871  1.00  0.00     0.012 C 
ATOM     25  C   UNL     1      -6.189  -4.889  -1.331  1.00  0.00    -0.006 C 
ATOM     26  C   UNL     1      -5.442  -3.826   0.930  1.00  0.00     0.033 C 
ATOM     27  C   UNL     1      -6.614  -4.364   0.089  1.00  0.00     0.120 C 
ATOM     28  C   UNL     1      -5.534  -6.288  -1.181  1.00  0.00     0.014 C 
ATOM     29  C   UNL     1      -7.483  -5.105  -2.168  1.00  0.00     0.014 C 
ENDROOT
BRANCH   1  30
ATOM     30  C   UNL     1      -0.595   2.236  -2.987  1.00  0.00     0.048 C 
ATOM     31  O   UNL     1      -1.441   2.966  -2.404  1.00  0.00    -0.550 OA
ATOM     32  O   UNL     1       0.623   2.001  -2.355  1.00  0.00    -0.550 OA
ENDBRANCH   1  30
BRANCH  27  33
ATOM     33  O   UNL     1      -7.644  -3.404   0.038  1.00  0.00    -0.393 OA
ATOM     34  H   UNL     1      -8.515  -3.867   0.074  1.00  0.00     0.210 HD
ENDBRANCH  27  33
TORSDOF 2
ENDMDL
MODEL 6
REMARK VINA RESULT:    -7.875      2.789      8.366
REMARK INTER + INTRA:          -8.847
REMARK INTER:                  -8.693
REMARK INTRA:                  -0.154
REMARK UNBOUND:                -0.282
REMARK SMILES C[C@@H]1[C@H]2C3=CC[C@H]4[C@@]5(C)CC[C@@H](O)C(C)(C)[C@@H]5CC[C@@]4(C)[C@]3(C)CC[C@@]2(C(=O)[O-])CC[C@@H]1C
REMARK SMILES IDX 26 1 30 2 25 3 3 4 31 5 24 6 4 7 2 8 32 9 22 10 5 11 1 12
REMARK SMILES IDX 33 13 23 14 20 15 6 16 7 17 19 18 21 19 8 20 18 21 17 22
REMARK SMILES IDX 10 23 9 24 14 25 11 26 12 27 15 28 16 29 27 30 28 31 29 32
REMARK SMILES IDX 13 33
REMARK H PARENT 13 34
REMARK Flexibility Score: inf
ROOT
ATOM      1  C   UNL     1      -2.761  -1.301  -3.330  1.00  0.00     0.017 C 
ATOM      2  C   UNL     1      -2.142  -1.063  -4.748  1.00  0.00     0.014 C 
ATOM      3  C   UNL     1      -2.216  -2.669  -2.813  1.00  0.00     0.014 C 
ATOM      4  C   UNL     1      -4.334  -1.241  -3.406  1.00  0.00     0.030 C 
ATOM      5  C   UNL     1      -2.917  -0.015  -5.553  1.00  0.00     0.004 C 
ATOM      6  C   UNL     1      -3.009  -3.319  -1.658  1.00  0.00     0.013 C 
ATOM      7  C   UNL     1      -4.997  -2.031  -2.256  1.00  0.00    -0.063 C 
ATOM      8  C   UNL     1      -4.922  -1.506  -4.827  1.00  0.00    -0.003 C 
ATOM      9  C   UNL     1      -4.364  -0.471  -5.873  1.00  0.00    -0.011 C 
ATOM     10  C   UNL     1      -4.547  -3.461  -1.914  1.00  0.00    -0.006 C 
ATOM     11  C   UNL     1      -5.730  -1.301  -1.402  1.00  0.00    -0.027 C 
ATOM     12  C   UNL     1      -6.464  -1.560  -4.820  1.00  0.00     0.008 C 
ATOM     13  C   UNL     1      -5.249   0.778  -6.070  1.00  0.00     0.008 C 
ATOM     14  C   UNL     1      -4.762  -4.382  -3.159  1.00  0.00     0.017 C 
ATOM     15  C   UNL     1      -5.319  -4.114  -0.631  1.00  0.00    -0.020 C 
ATOM     16  C   UNL     1      -6.222  -1.749  -0.082  1.00  0.00     0.032 C 
ATOM     17  C   UNL     1      -5.580  -3.037   0.510  1.00  0.00     0.006 C 
ATOM     18  C   UNL     1      -6.712  -4.710  -1.028  1.00  0.00     0.008 C 
ATOM     19  C   UNL     1      -4.430  -5.295  -0.104  1.00  0.00     0.012 C 
ATOM     20  C   UNL     1      -6.438  -3.564   1.769  1.00  0.00    -0.025 C 
ATOM     21  C   UNL     1      -7.547  -5.263   0.150  1.00  0.00     0.005 C 
ATOM     22  C   UNL     1      -7.787  -4.206   1.255  1.00  0.00     0.003 C 
ATOM     23  C   UNL     1      -6.814  -2.381   2.730  1.00  0.00     0.010 C 
ATOM     24  C   UNL     1      -5.560  -4.552   2.608  1.00  0.00     0.012 C 
ATOM     25  C   UNL     1      -8.835  -4.617   2.372  1.00  0.00    -0.006 C 
ATOM     26  C   UNL     1      -7.774  -2.765   3.871  1.00  0.00     0.033 C 
ATOM     27  C   UNL     1      -9.072  -3.420   3.365  1.00  0.00     0.120 C 
ATOM     28  C   UNL     1      -8.407  -5.871   3.181  1.00  0.00     0.014 C 
ATOM     29  C   UNL     1     -10.201  -4.970   1.715  1.00  0.00     0.014 C 
ENDROOT
BRANCH   1  30
ATOM     30  C   UNL     1      -2.283  -0.211  -2.366  1.00  0.00     0.048 C 
ATOM     31  O   UNL     1      -3.095   0.643  -1.921  1.00  0.00    -0.550 OA
ATOM     32  O   UNL     1      -0.943  -0.104  -1.999  1.00  0.00    -0.550 OA
ENDBRANCH   1  30
BRANCH  27  33
ATOM     33  O   UNL     1      -9.933  -2.434   2.846  1.00  0.00    -0.393 OA
ATOM     34  H   UNL     1     -10.854  -2.790   2.827  1.00  0.00     0.210 HD
ENDBRANCH  27  33
TORSDOF 2
ENDMDL
MODEL 7
REMARK VINA RESULT:    -7.783      2.935      7.865
REMARK INTER + INTRA:          -8.747
REMARK INTER:                  -8.602
REMARK INTRA:                  -0.146
REMARK UNBOUND:                -0.282
REMARK SMILES C[C@@H]1[C@H]2C3=CC[C@H]4[C@@]5(C)CC[C@@H](O)C(C)(C)[C@@H]5CC[C@@]4(C)[C@]3(C)CC[C@@]2(C(=O)[O-])CC[C@@H]1C
REMARK SMILES IDX 26 1 30 2 25 3 3 4 31 5 24 6 4 7 2 8 32 9 22 10 5 11 1 12
REMARK SMILES IDX 33 13 23 14 20 15 6 16 7 17 19 18 21 19 8 20 18 21 17 22
REMARK SMILES IDX 10 23 9 24 14 25 11 26 12 27 15 28 16 29 27 30 28 31 29 32
REMARK SMILES IDX 13 33
REMARK H PARENT 13 34
REMARK Flexibility Score: inf
ROOT
ATOM      1  C   UNL     1      -2.101  -3.309  -5.035  1.00  0.00     0.017 C 
ATOM      2  C   UNL     1      -1.280  -2.688  -6.214  1.00  0.00     0.014 C 
ATOM      3  C   UNL     1      -3.557  -3.526  -5.552  1.00  0.00     0.014 C 
ATOM      4  C   UNL     1      -2.018  -2.378  -3.766  1.00  0.00     0.030 C 
ATOM      5  C   UNL     1       0.010  -2.014  -5.735  1.00  0.00     0.004 C 
ATOM      6  C   UNL     1      -4.639  -3.708  -4.464  1.00  0.00     0.013 C 
ATOM      7  C   UNL     1      -3.225  -2.581  -2.823  1.00  0.00    -0.063 C 
ATOM      8  C   UNL     1      -1.654  -0.893  -4.077  1.00  0.00    -0.003 C 
ATOM      9  C   UNL     1      -0.270  -0.793  -4.821  1.00  0.00    -0.011 C 
ATOM     10  C   UNL     1      -4.663  -2.593  -3.367  1.00  0.00    -0.006 C 
ATOM     11  C   UNL     1      -2.930  -3.054  -1.603  1.00  0.00    -0.027 C 
ATOM     12  C   UNL     1      -1.710  -0.002  -2.818  1.00  0.00     0.008 C 
ATOM     13  C   UNL     1       0.941  -0.578  -3.889  1.00  0.00     0.008 C 
ATOM     14  C   UNL     1      -4.966  -1.221  -4.055  1.00  0.00     0.017 C 
ATOM     15  C   UNL     1      -5.802  -2.880  -2.232  1.00  0.00    -0.020 C 
ATOM     16  C   UNL     1      -3.900  -3.601  -0.630  1.00  0.00     0.032 C 
ATOM     17  C   UNL     1      -5.315  -3.957  -1.168  1.00  0.00     0.006 C 
ATOM     18  C   UNL     1      -6.176  -1.584  -1.436  1.00  0.00     0.008 C 
ATOM     19  C   UNL     1      -7.093  -3.367  -2.981  1.00  0.00     0.012 C 
ATOM     20  C   UNL     1      -6.331  -4.223   0.056  1.00  0.00    -0.025 C 
ATOM     21  C   UNL     1      -7.180  -1.793  -0.279  1.00  0.00     0.005 C 
ATOM     22  C   UNL     1      -6.696  -2.848   0.744  1.00  0.00     0.003 C 
ATOM     23  C   UNL     1      -5.671  -5.137   1.148  1.00  0.00     0.010 C 
ATOM     24  C   UNL     1      -7.580  -5.002  -0.476  1.00  0.00     0.012 C 
ATOM     25  C   UNL     1      -7.546  -2.940   2.080  1.00  0.00    -0.006 C 
ATOM     26  C   UNL     1      -6.507  -5.306   2.430  1.00  0.00     0.033 C 
ATOM     27  C   UNL     1      -6.888  -3.963   3.077  1.00  0.00     0.120 C 
ATOM     28  C   UNL     1      -9.024  -3.347   1.837  1.00  0.00     0.014 C 
ATOM     29  C   UNL     1      -7.590  -1.550   2.779  1.00  0.00     0.014 C 
ENDROOT
BRANCH   1  30
ATOM     30  C   UNL     1      -1.524  -4.679  -4.666  1.00  0.00     0.048 C 
ATOM     31  O   UNL     1      -2.121  -5.733  -5.014  1.00  0.00    -0.550 OA
ATOM     32  O   UNL     1      -0.365  -4.796  -3.903  1.00  0.00    -0.550 OA
ENDBRANCH   1  30
BRANCH  27  33
ATOM     33  O   UNL     1      -5.776  -3.430   3.760  1.00  0.00    -0.393 OA
ATOM     34  H   UNL     1      -6.079  -2.683   4.330  1.00  0.00     0.210 HD
ENDBRANCH  27  33
TORSDOF 2
ENDMDL
MODEL 8
REMARK VINA RESULT:    -7.657      2.422      4.447
REMARK INTER + INTRA:          -8.610
REMARK INTER:                  -8.493
REMARK INTRA:                  -0.117
REMARK UNBOUND:                -0.282
REMARK SMILES C[C@@H]1[C@H]2C3=CC[C@H]4[C@@]5(C)CC[C@@H](O)C(C)(C)[C@@H]5CC[C@@]4(C)[C@]3(C)CC[C@@]2(C(=O)[O-])CC[C@@H]1C
REMARK SMILES IDX 26 1 30 2 25 3 3 4 31 5 24 6 4 7 2 8 32 9 22 10 5 11 1 12
REMARK SMILES IDX 33 13 23 14 20 15 6 16 7 17 19 18 21 19 8 20 18 21 17 22
REMARK SMILES IDX 10 23 9 24 14 25 11 26 12 27 15 28 16 29 27 30 28 31 29 32
REMARK SMILES IDX 13 33
REMARK H PARENT 13 34
REMARK Flexibility Score: inf
ROOT
ATOM      1  C   UNL     1      -3.558  -0.432  -3.733  1.00  0.00     0.017 C 
ATOM      2  C   UNL     1      -4.334  -1.665  -4.306  1.00  0.00     0.014 C 
ATOM      3  C   UNL     1      -4.189   0.846  -4.368  1.00  0.00     0.014 C 
ATOM      4  C   UNL     1      -2.015  -0.579  -4.022  1.00  0.00     0.030 C 
ATOM      5  C   UNL     1      -3.556  -2.974  -4.136  1.00  0.00     0.004 C 
ATOM      6  C   UNL     1      -3.328   2.127  -4.304  1.00  0.00     0.013 C 
ATOM      7  C   UNL     1      -1.300   0.790  -4.046  1.00  0.00    -0.063 C 
ATOM      8  C   UNL     1      -1.668  -1.537  -5.204  1.00  0.00    -0.003 C 
ATOM      9  C   UNL     1      -2.235  -2.982  -4.948  1.00  0.00    -0.011 C 
ATOM     10  C   UNL     1      -1.871   1.968  -4.853  1.00  0.00    -0.006 C 
ATOM     11  C   UNL     1      -0.371   0.972  -3.096  1.00  0.00    -0.027 C 
ATOM     12  C   UNL     1      -0.159  -1.546  -5.525  1.00  0.00     0.008 C 
ATOM     13  C   UNL     1      -1.240  -3.948  -4.272  1.00  0.00     0.008 C 
ATOM     14  C   UNL     1      -1.947   1.571  -6.364  1.00  0.00     0.017 C 
ATOM     15  C   UNL     1      -1.013   3.351  -4.709  1.00  0.00    -0.020 C 
ATOM     16  C   UNL     1       0.241   2.265  -2.721  1.00  0.00     0.032 C 
ATOM     17  C   UNL     1      -0.465   3.554  -3.231  1.00  0.00     0.006 C 
ATOM     18  C   UNL     1       0.227   3.372  -5.666  1.00  0.00     0.008 C 
ATOM     19  C   UNL     1      -1.959   4.531  -5.130  1.00  0.00     0.012 C 
ATOM     20  C   UNL     1       0.489   4.837  -3.021  1.00  0.00    -0.025 C 
ATOM     21  C   UNL     1       1.143   4.609  -5.522  1.00  0.00     0.005 C 
ATOM     22  C   UNL     1       1.663   4.797  -4.077  1.00  0.00     0.003 C 
ATOM     23  C   UNL     1       1.138   4.829  -1.591  1.00  0.00     0.010 C 
ATOM     24  C   UNL     1      -0.378   6.138  -3.104  1.00  0.00     0.012 C 
ATOM     25  C   UNL     1       2.799   5.891  -3.899  1.00  0.00    -0.006 C 
ATOM     26  C   UNL     1       2.194   5.927  -1.363  1.00  0.00     0.033 C 
ATOM     27  C   UNL     1       3.317   5.904  -2.415  1.00  0.00     0.120 C 
ATOM     28  C   UNL     1       2.337   7.320  -4.290  1.00  0.00     0.014 C 
ATOM     29  C   UNL     1       4.005   5.558  -4.824  1.00  0.00     0.014 C 
ENDROOT
BRANCH   1  30
ATOM     30  C   UNL     1      -3.759  -0.352  -2.217  1.00  0.00     0.048 C 
ATOM     31  O   UNL     1      -2.781  -0.509  -1.438  1.00  0.00    -0.550 OA
ATOM     32  O   UNL     1      -5.021  -0.156  -1.662  1.00  0.00    -0.550 OA
ENDBRANCH   1  30
BRANCH  27  33
ATOM     33  O   UNL     1       4.212   4.853  -2.133  1.00  0.00    -0.393 OA
ATOM     34  H   UNL     1       4.263   4.256  -2.917  1.00  0.00     0.210 HD
ENDBRANCH  27  33
TORSDOF 2
ENDMDL
MODEL 9
REMARK VINA RESULT:    -7.594      2.920      5.276
REMARK INTER + INTRA:          -8.541
REMARK INTER:                  -8.257
REMARK INTRA:                  -0.285
REMARK UNBOUND:                -0.282
REMARK SMILES C[C@@H]1[C@H]2C3=CC[C@H]4[C@@]5(C)CC[C@@H](O)C(C)(C)[C@@H]5CC[C@@]4(C)[C@]3(C)CC[C@@]2(C(=O)[O-])CC[C@@H]1C
REMARK SMILES IDX 26 1 30 2 25 3 3 4 31 5 24 6 4 7 2 8 32 9 22 10 5 11 1 12
REMARK SMILES IDX 33 13 23 14 20 15 6 16 7 17 19 18 21 19 8 20 18 21 17 22
REMARK SMILES IDX 10 23 9 24 14 25 11 26 12 27 15 28 16 29 27 30 28 31 29 32
REMARK SMILES IDX 13 33
REMARK H PARENT 13 34
REMARK Flexibility Score: inf
ROOT
ATOM      1  C   UNL     1      -2.826   1.644  -5.689  1.00  0.00     0.017 C 
ATOM      2  C   UNL     1      -3.853   0.546  -6.124  1.00  0.00     0.014 C 
ATOM      3  C   UNL     1      -1.680   1.647  -6.748  1.00  0.00     0.014 C 
ATOM      4  C   UNL     1      -2.324   1.368  -4.221  1.00  0.00     0.030 C 
ATOM      5  C   UNL     1      -4.773   0.120  -4.975  1.00  0.00     0.004 C 
ATOM      6  C   UNL     1      -0.359   2.318  -6.310  1.00  0.00     0.013 C 
ATOM      7  C   UNL     1      -0.938   1.997  -3.958  1.00  0.00    -0.063 C 
ATOM      8  C   UNL     1      -2.488  -0.111  -3.750  1.00  0.00    -0.003 C 
ATOM      9  C   UNL     1      -3.994  -0.564  -3.821  1.00  0.00    -0.011 C 
ATOM     10  C   UNL     1       0.222   1.804  -4.950  1.00  0.00    -0.006 C 
ATOM     11  C   UNL     1      -0.907   2.953  -3.018  1.00  0.00    -0.027 C 
ATOM     12  C   UNL     1      -1.867  -0.352  -2.358  1.00  0.00     0.008 C 
ATOM     13  C   UNL     1      -4.781  -0.376  -2.507  1.00  0.00     0.008 C 
ATOM     14  C   UNL     1       0.535   0.278  -5.088  1.00  0.00     0.017 C 
ATOM     15  C   UNL     1       1.591   2.593  -4.536  1.00  0.00    -0.020 C 
ATOM     16  C   UNL     1       0.205   3.898  -2.781  1.00  0.00     0.032 C 
ATOM     17  C   UNL     1       1.281   4.015  -3.898  1.00  0.00     0.006 C 
ATOM     18  C   UNL     1       2.433   1.791  -3.486  1.00  0.00     0.008 C 
ATOM     19  C   UNL     1       2.460   2.731  -5.836  1.00  0.00     0.012 C 
ATOM     20  C   UNL     1       2.569   4.820  -3.355  1.00  0.00    -0.025 C 
ATOM     21  C   UNL     1       3.699   2.515  -2.972  1.00  0.00     0.005 C 
ATOM     22  C   UNL     1       3.382   3.901  -2.361  1.00  0.00     0.003 C 
ATOM     23  C   UNL     1       2.138   6.106  -2.564  1.00  0.00     0.010 C 
ATOM     24  C   UNL     1       3.414   5.316  -4.576  1.00  0.00     0.012 C 
ATOM     25  C   UNL     1       4.584   4.595  -1.593  1.00  0.00    -0.006 C 
ATOM     26  C   UNL     1       3.295   6.845  -1.867  1.00  0.00     0.033 C 
ATOM     27  C   UNL     1       4.104   5.936  -0.926  1.00  0.00     0.120 C 
ATOM     28  C   UNL     1       5.804   4.891  -2.506  1.00  0.00     0.014 C 
ATOM     29  C   UNL     1       5.105   3.659  -0.464  1.00  0.00     0.014 C 
ENDROOT
BRANCH   1  30
ATOM     30  C   UNL     1      -3.496   3.021  -5.719  1.00  0.00     0.048 C 
ATOM     31  O   UNL     1      -4.026   3.491  -4.676  1.00  0.00    -0.550 OA
ATOM     32  O   UNL     1      -3.583   3.760  -6.896  1.00  0.00    -0.550 OA
ENDBRANCH   1  30
BRANCH  27  33
ATOM     33  O   UNL     1       3.389   5.732   0.271  1.00  0.00    -0.393 OA
ATOM     34  H   UNL     1       3.726   4.915   0.710  1.00  0.00     0.210 HD
ENDBRANCH  27  33
TORSDOF 2
ENDMDL
