MODEL 1
REMARK VINA RESULT:    -7.221      0.000      0.000
REMARK INTER + INTRA:          -8.778
REMARK INTER:                  -8.487
REMARK INTRA:                  -0.291
REMARK UNBOUND:                -0.291
REMARK SMILES O=c1cc(-c2ccc(O)c(O)c2)oc2cc(O)cc(O)c12
REMARK SMILES IDX 4 1 3 2 2 3 1 4 21 5 19 6 18 7 16 8 15 9 14 10 13 11 5 12
REMARK SMILES IDX 6 13 7 14 8 15 12 16 10 17 9 18 11 20 20 22 17 24
REMARK H PARENT 9 19 11 21 20 23 17 25
REMARK Flexibility Score: inf
ROOT
ATOM      1  C   UNL     1     -13.631  55.326  18.390  1.00  0.00     0.138 A 
ATOM      2  C   UNL     1     -13.827  56.259  19.418  1.00  0.00     0.100 A 
ATOM      3  C   UNL     1     -14.986  56.199  20.193  1.00  0.00     0.197 A 
ATOM      4  O   UNL     1     -15.106  57.015  21.143  1.00  0.00    -0.289 OA
ATOM      5  C   UNL     1     -15.970  55.221  19.913  1.00  0.00     0.107 A 
ATOM      6  C   UNL     1     -17.207  55.086  20.615  1.00  0.00     0.134 A 
ATOM      7  C   UNL     1     -18.058  54.016  20.312  1.00  0.00     0.093 A 
ATOM      8  C   UNL     1     -17.746  53.111  19.294  1.00  0.00     0.123 A 
ATOM      9  C   UNL     1     -16.567  53.264  18.571  1.00  0.00     0.094 A 
ATOM     10  C   UNL     1     -15.679  54.299  18.872  1.00  0.00     0.146 A 
ATOM     11  O   UNL     1     -14.556  54.397  18.168  1.00  0.00    -0.456 OA
ENDROOT
BRANCH   1  12
ATOM     12  C   UNL     1     -12.419  55.344  17.532  1.00  0.00     0.021 A 
ATOM     13  C   UNL     1     -12.015  54.166  16.882  1.00  0.00     0.016 A 
ATOM     14  C   UNL     1     -10.875  54.154  16.075  1.00  0.00     0.051 A 
ATOM     15  C   UNL     1     -10.113  55.318  15.912  1.00  0.00     0.157 A 
ATOM     16  C   UNL     1     -11.641  56.509  17.375  1.00  0.00     0.062 A 
ATOM     17  C   UNL     1     -10.495  56.496  16.565  1.00  0.00     0.158 A 
BRANCH  15  18
ATOM     18  O   UNL     1      -8.976  55.311  15.107  1.00  0.00    -0.504 OA
ATOM     19  H   UNL     1      -8.763  56.081  14.483  1.00  0.00     0.293 HD
ENDBRANCH  15  18
BRANCH  17  20
ATOM     20  O   UNL     1      -9.729  57.649  16.410  1.00  0.00    -0.504 OA
ATOM     21  H   UNL     1      -9.548  58.275  17.186  1.00  0.00     0.293 HD
ENDBRANCH  17  20
ENDBRANCH   1  12
BRANCH   6  22
ATOM     22  O   UNL     1     -17.654  55.979  21.594  1.00  0.00    -0.507 OA
ATOM     23  H   UNL     1     -17.067  56.434  22.276  1.00  0.00     0.293 HD
ENDBRANCH   6  22
BRANCH   8  24
ATOM     24  O   UNL     1     -18.608  52.059  18.991  1.00  0.00    -0.508 OA
ATOM     25  H   UNL     1     -18.272  51.206  18.558  1.00  0.00     0.293 HD
ENDBRANCH   8  24
TORSDOF 5
ENDMDL
MODEL 2
REMARK VINA RESULT:    -6.786      1.889      7.167
REMARK INTER + INTRA:          -8.267
REMARK INTER:                  -7.993
REMARK INTRA:                  -0.273
REMARK UNBOUND:                -0.291
REMARK SMILES O=c1cc(-c2ccc(O)c(O)c2)oc2cc(O)cc(O)c12
REMARK SMILES IDX 4 1 3 2 2 3 1 4 21 5 19 6 18 7 16 8 15 9 14 10 13 11 5 12
REMARK SMILES IDX 6 13 7 14 8 15 12 16 10 17 9 18 11 20 20 22 17 24
REMARK H PARENT 9 19 11 21 20 23 17 25
REMARK Flexibility Score: inf
ROOT
ATOM      1  C   UNL     1     -13.403  56.594  17.991  1.00  0.00     0.138 A 
ATOM      2  C   UNL     1     -13.712  57.875  17.513  1.00  0.00     0.100 A 
ATOM      3  C   UNL     1     -12.838  58.512  16.630  1.00  0.00     0.197 A 
ATOM      4  O   UNL     1     -13.171  59.637  16.176  1.00  0.00    -0.289 OA
ATOM      5  C   UNL     1     -11.630  57.877  16.254  1.00  0.00     0.107 A 
ATOM      6  C   UNL     1     -10.647  58.444  15.387  1.00  0.00     0.134 A 
ATOM      7  C   UNL     1      -9.538  57.679  15.009  1.00  0.00     0.093 A 
ATOM      8  C   UNL     1      -9.346  56.389  15.510  1.00  0.00     0.123 A 
ATOM      9  C   UNL     1     -10.273  55.845  16.395  1.00  0.00     0.094 A 
ATOM     10  C   UNL     1     -11.409  56.570  16.765  1.00  0.00     0.146 A 
ATOM     11  O   UNL     1     -12.278  56.006  17.597  1.00  0.00    -0.456 OA
ENDROOT
BRANCH   1  12
ATOM     12  C   UNL     1     -14.294  55.871  18.933  1.00  0.00     0.021 A 
ATOM     13  C   UNL     1     -14.696  54.558  18.635  1.00  0.00     0.016 A 
ATOM     14  C   UNL     1     -15.539  53.858  19.500  1.00  0.00     0.051 A 
ATOM     15  C   UNL     1     -16.003  54.462  20.675  1.00  0.00     0.157 A 
ATOM     16  C   UNL     1     -14.775  56.478  20.111  1.00  0.00     0.062 A 
ATOM     17  C   UNL     1     -15.623  55.775  20.979  1.00  0.00     0.158 A 
BRANCH  15  18
ATOM     18  O   UNL     1     -16.844  53.767  21.543  1.00  0.00    -0.504 OA
ATOM     19  H   UNL     1     -17.006  52.771  21.439  1.00  0.00     0.293 HD
ENDBRANCH  15  18
BRANCH  17  20
ATOM     20  O   UNL     1     -16.096  56.377  22.144  1.00  0.00    -0.504 OA
ATOM     21  H   UNL     1     -15.671  56.196  23.046  1.00  0.00     0.293 HD
ENDBRANCH  17  20
ENDBRANCH   1  12
BRANCH   6  22
ATOM     22  O   UNL     1     -10.699  59.751  14.893  1.00  0.00    -0.507 OA
ATOM     23  H   UNL     1     -10.396  60.037  13.975  1.00  0.00     0.293 HD
ENDBRANCH   6  22
BRANCH   8  24
ATOM     24  O   UNL     1      -8.230  55.641  15.139  1.00  0.00    -0.508 OA
ATOM     25  H   UNL     1      -7.907  54.858  15.695  1.00  0.00     0.293 HD
ENDBRANCH   8  24
TORSDOF 5
ENDMDL
MODEL 3
REMARK VINA RESULT:    -6.777      1.753      7.141
REMARK INTER + INTRA:          -8.256
REMARK INTER:                  -7.961
REMARK INTRA:                  -0.295
REMARK UNBOUND:                -0.291
REMARK SMILES O=c1cc(-c2ccc(O)c(O)c2)oc2cc(O)cc(O)c12
REMARK SMILES IDX 4 1 3 2 2 3 1 4 21 5 19 6 18 7 16 8 15 9 14 10 13 11 5 12
REMARK SMILES IDX 6 13 7 14 8 15 12 16 10 17 9 18 11 20 20 22 17 24
REMARK H PARENT 9 19 11 21 20 23 17 25
REMARK Flexibility Score: inf
ROOT
ATOM      1  C   UNL     1     -12.255  54.902  17.508  1.00  0.00     0.138 A 
ATOM      2  C   UNL     1     -11.467  56.054  17.381  1.00  0.00     0.100 A 
ATOM      3  C   UNL     1     -10.495  56.119  16.382  1.00  0.00     0.197 A 
ATOM      4  O   UNL     1      -9.843  57.188  16.258  1.00  0.00    -0.289 OA
ATOM      5  C   UNL     1     -10.286  55.009  15.529  1.00  0.00     0.107 A 
ATOM      6  C   UNL     1      -9.302  54.948  14.496  1.00  0.00     0.134 A 
ATOM      7  C   UNL     1      -9.257  53.832  13.651  1.00  0.00     0.093 A 
ATOM      8  C   UNL     1     -10.121  52.751  13.837  1.00  0.00     0.123 A 
ATOM      9  C   UNL     1     -11.052  52.779  14.872  1.00  0.00     0.094 A 
ATOM     10  C   UNL     1     -11.146  53.892  15.710  1.00  0.00     0.146 A 
ATOM     11  O   UNL     1     -12.062  53.885  16.674  1.00  0.00    -0.456 OA
ENDROOT
BRANCH   1  12
ATOM     12  C   UNL     1     -13.301  54.776  18.555  1.00  0.00     0.021 A 
ATOM     13  C   UNL     1     -14.251  53.746  18.461  1.00  0.00     0.016 A 
ATOM     14  C   UNL     1     -15.250  53.609  19.428  1.00  0.00     0.051 A 
ATOM     15  C   UNL     1     -15.322  54.508  20.499  1.00  0.00     0.157 A 
ATOM     16  C   UNL     1     -13.387  55.685  19.628  1.00  0.00     0.062 A 
ATOM     17  C   UNL     1     -14.391  55.549  20.598  1.00  0.00     0.158 A 
BRANCH  15  18
ATOM     18  O   UNL     1     -16.317  54.375  21.467  1.00  0.00    -0.504 OA
ATOM     19  H   UNL     1     -16.313  54.936  22.311  1.00  0.00     0.293 HD
ENDBRANCH  15  18
BRANCH  17  20
ATOM     20  O   UNL     1     -14.473  56.448  21.660  1.00  0.00    -0.504 OA
ATOM     21  H   UNL     1     -14.099  57.387  21.590  1.00  0.00     0.293 HD
ENDBRANCH  17  20
ENDBRANCH   1  12
BRANCH   6  22
ATOM     22  O   UNL     1      -8.337  55.936  14.274  1.00  0.00    -0.507 OA
ATOM     23  H   UNL     1      -8.322  56.842  14.717  1.00  0.00     0.293 HD
ENDBRANCH   6  22
BRANCH   8  24
ATOM     24  O   UNL     1     -10.058  51.639  13.000  1.00  0.00    -0.508 OA
ATOM     25  H   UNL     1      -9.338  51.548  12.291  1.00  0.00     0.293 HD
ENDBRANCH   8  24
TORSDOF 5
ENDMDL
MODEL 4
REMARK VINA RESULT:    -6.748      1.483      7.298
REMARK INTER + INTRA:          -8.222
REMARK INTER:                  -7.923
REMARK INTRA:                  -0.299
REMARK UNBOUND:                -0.291
REMARK SMILES O=c1cc(-c2ccc(O)c(O)c2)oc2cc(O)cc(O)c12
REMARK SMILES IDX 4 1 3 2 2 3 1 4 21 5 19 6 18 7 16 8 15 9 14 10 13 11 5 12
REMARK SMILES IDX 6 13 7 14 8 15 12 16 10 17 9 18 11 20 20 22 17 24
REMARK H PARENT 9 19 11 21 20 23 17 25
REMARK Flexibility Score: inf
ROOT
ATOM      1  C   UNL     1     -13.402  55.076  18.077  1.00  0.00     0.138 A 
ATOM      2  C   UNL     1     -12.733  53.986  17.503  1.00  0.00     0.100 A 
ATOM      3  C   UNL     1     -11.697  54.212  16.596  1.00  0.00     0.197 A 
ATOM      4  O   UNL     1     -11.080  53.215  16.141  1.00  0.00    -0.289 OA
ATOM      5  C   UNL     1     -11.355  55.537  16.234  1.00  0.00     0.107 A 
ATOM      6  C   UNL     1     -10.339  55.888  15.293  1.00  0.00     0.134 A 
ATOM      7  C   UNL     1     -10.024  57.237  15.091  1.00  0.00     0.093 A 
ATOM      8  C   UNL     1     -10.725  58.250  15.750  1.00  0.00     0.123 A 
ATOM      9  C   UNL     1     -11.750  57.919  16.632  1.00  0.00     0.094 A 
ATOM     10  C   UNL     1     -12.067  56.582  16.883  1.00  0.00     0.146 A 
ATOM     11  O   UNL     1     -13.040  56.311  17.746  1.00  0.00    -0.456 OA
ENDROOT
BRANCH   1  12
ATOM     12  C   UNL     1     -14.513  54.894  19.046  1.00  0.00     0.021 A 
ATOM     13  C   UNL     1     -15.432  53.848  18.856  1.00  0.00     0.016 A 
ATOM     14  C   UNL     1     -16.490  53.659  19.747  1.00  0.00     0.051 A 
ATOM     15  C   UNL     1     -16.654  54.520  20.840  1.00  0.00     0.157 A 
ATOM     16  C   UNL     1     -14.691  55.765  20.140  1.00  0.00     0.062 A 
ATOM     17  C   UNL     1     -15.755  55.576  21.035  1.00  0.00     0.158 A 
BRANCH  15  18
ATOM     18  O   UNL     1     -17.708  54.335  21.733  1.00  0.00    -0.504 OA
ATOM     19  H   UNL     1     -17.543  54.161  22.718  1.00  0.00     0.293 HD
ENDBRANCH  15  18
BRANCH  17  20
ATOM     20  O   UNL     1     -15.928  56.437  22.116  1.00  0.00    -0.504 OA
ATOM     21  H   UNL     1     -15.355  56.366  22.949  1.00  0.00     0.293 HD
ENDBRANCH  17  20
ENDBRANCH   1  12
BRANCH   6  22
ATOM     22  O   UNL     1      -9.632  54.961  14.521  1.00  0.00    -0.507 OA
ATOM     23  H   UNL     1      -8.697  54.639  14.713  1.00  0.00     0.293 HD
ENDBRANCH   6  22
BRANCH   8  24
ATOM     24  O   UNL     1     -10.413  59.590  15.530  1.00  0.00    -0.508 OA
ATOM     25  H   UNL     1      -9.458  59.894  15.380  1.00  0.00     0.293 HD
ENDBRANCH   8  24
TORSDOF 5
ENDMDL
MODEL 5
REMARK VINA RESULT:    -6.713      1.785      7.524
REMARK INTER + INTRA:          -8.182
REMARK INTER:                  -7.864
REMARK INTRA:                  -0.318
REMARK UNBOUND:                -0.291
REMARK SMILES O=c1cc(-c2ccc(O)c(O)c2)oc2cc(O)cc(O)c12
REMARK SMILES IDX 4 1 3 2 2 3 1 4 21 5 19 6 18 7 16 8 15 9 14 10 13 11 5 12
REMARK SMILES IDX 6 13 7 14 8 15 12 16 10 17 9 18 11 20 20 22 17 24
REMARK H PARENT 9 19 11 21 20 23 17 25
REMARK Flexibility Score: inf
ROOT
ATOM      1  C   UNL     1     -12.518  54.955  17.762  1.00  0.00     0.138 A 
ATOM      2  C   UNL     1     -12.240  53.773  17.060  1.00  0.00     0.100 A 
ATOM      3  C   UNL     1     -11.236  53.766  16.091  1.00  0.00     0.197 A 
ATOM      4  O   UNL     1     -10.973  52.676  15.518  1.00  0.00    -0.289 OA
ATOM      5  C   UNL     1     -10.532  54.958  15.797  1.00  0.00     0.107 A 
ATOM      6  C   UNL     1      -9.510  55.078  14.806  1.00  0.00     0.134 A 
ATOM      7  C   UNL     1      -8.815  56.286  14.676  1.00  0.00     0.093 A 
ATOM      8  C   UNL     1      -9.142  57.396  15.460  1.00  0.00     0.123 A 
ATOM      9  C   UNL     1     -10.169  57.303  16.395  1.00  0.00     0.094 A 
ATOM     10  C   UNL     1     -10.859  56.102  16.574  1.00  0.00     0.146 A 
ATOM     11  O   UNL     1     -11.820  56.053  17.491  1.00  0.00    -0.456 OA
ENDROOT
BRANCH   1  12
ATOM     12  C   UNL     1     -13.577  55.021  18.801  1.00  0.00     0.021 A 
ATOM     13  C   UNL     1     -14.336  53.874  19.088  1.00  0.00     0.016 A 
ATOM     14  C   UNL     1     -15.342  53.911  20.056  1.00  0.00     0.051 A 
ATOM     15  C   UNL     1     -15.615  55.099  20.745  1.00  0.00     0.157 A 
ATOM     16  C   UNL     1     -13.865  56.217  19.488  1.00  0.00     0.062 A 
ATOM     17  C   UNL     1     -14.877  56.254  20.459  1.00  0.00     0.158 A 
BRANCH  15  18
ATOM     18  O   UNL     1     -16.618  55.141  21.712  1.00  0.00    -0.504 OA
ATOM     19  H   UNL     1     -16.549  55.746  22.522  1.00  0.00     0.293 HD
ENDBRANCH  15  18
BRANCH  17  20
ATOM     20  O   UNL     1     -15.159  57.438  21.139  1.00  0.00    -0.504 OA
ATOM     21  H   UNL     1     -14.482  57.869  21.757  1.00  0.00     0.293 HD
ENDBRANCH  17  20
ENDBRANCH   1  12
BRANCH   6  22
ATOM     22  O   UNL     1      -9.159  54.058  13.916  1.00  0.00    -0.507 OA
ATOM     23  H   UNL     1      -8.963  53.104  14.175  1.00  0.00     0.293 HD
ENDBRANCH   6  22
BRANCH   8  24
ATOM     24  O   UNL     1      -8.454  58.598  15.311  1.00  0.00    -0.508 OA
ATOM     25  H   UNL     1      -7.558  58.642  14.838  1.00  0.00     0.293 HD
ENDBRANCH   8  24
TORSDOF 5
ENDMDL
MODEL 6
REMARK VINA RESULT:    -6.570     12.556     15.013
REMARK INTER + INTRA:          -8.014
REMARK INTER:                  -7.737
REMARK INTRA:                  -0.276
REMARK UNBOUND:                -0.291
REMARK SMILES O=c1cc(-c2ccc(O)c(O)c2)oc2cc(O)cc(O)c12
REMARK SMILES IDX 4 1 3 2 2 3 1 4 21 5 19 6 18 7 16 8 15 9 14 10 13 11 5 12
REMARK SMILES IDX 6 13 7 14 8 15 12 16 10 17 9 18 11 20 20 22 17 24
REMARK H PARENT 9 19 11 21 20 23 17 25
REMARK Flexibility Score: inf
ROOT
ATOM      1  C   UNL     1      -1.412  48.626  16.839  1.00  0.00     0.138 A 
ATOM      2  C   UNL     1      -0.305  48.315  17.642  1.00  0.00     0.100 A 
ATOM      3  C   UNL     1       0.164  49.253  18.563  1.00  0.00     0.197 A 
ATOM      4  O   UNL     1       1.124  48.923  19.307  1.00  0.00    -0.289 OA
ATOM      5  C   UNL     1      -0.456  50.522  18.655  1.00  0.00     0.107 A 
ATOM      6  C   UNL     1      -0.044  51.569  19.534  1.00  0.00     0.134 A 
ATOM      7  C   UNL     1      -0.799  52.746  19.606  1.00  0.00     0.093 A 
ATOM      8  C   UNL     1      -1.917  52.938  18.791  1.00  0.00     0.123 A 
ATOM      9  C   UNL     1      -2.298  51.943  17.895  1.00  0.00     0.094 A 
ATOM     10  C   UNL     1      -1.588  50.743  17.823  1.00  0.00     0.146 A 
ATOM     11  O   UNL     1      -1.997  49.812  16.967  1.00  0.00    -0.456 OA
ENDROOT
BRANCH   1  12
ATOM     12  C   UNL     1      -1.951  47.669  15.840  1.00  0.00     0.021 A 
ATOM     13  C   UNL     1      -2.255  48.120  14.545  1.00  0.00     0.016 A 
ATOM     14  C   UNL     1      -2.770  47.243  13.588  1.00  0.00     0.051 A 
ATOM     15  C   UNL     1      -3.001  45.900  13.913  1.00  0.00     0.157 A 
ATOM     16  C   UNL     1      -2.198  46.320  16.165  1.00  0.00     0.062 A 
ATOM     17  C   UNL     1      -2.717  45.439  15.204  1.00  0.00     0.158 A 
BRANCH  15  18
ATOM     18  O   UNL     1      -3.513  45.021  12.961  1.00  0.00    -0.504 OA
ATOM     19  H   UNL     1      -2.962  44.251  12.599  1.00  0.00     0.293 HD
ENDBRANCH  15  18
BRANCH  17  20
ATOM     20  O   UNL     1      -2.959  44.105  15.528  1.00  0.00    -0.504 OA
ATOM     21  H   UNL     1      -3.821  43.643  15.264  1.00  0.00     0.293 HD
ENDBRANCH  17  20
ENDBRANCH   1  12
BRANCH   6  22
ATOM     22  O   UNL     1       1.102  51.515  20.333  1.00  0.00    -0.507 OA
ATOM     23  H   UNL     1       1.116  51.620  21.336  1.00  0.00     0.293 HD
ENDBRANCH   6  22
BRANCH   8  24
ATOM     24  O   UNL     1      -2.652  54.119  18.860  1.00  0.00    -0.508 OA
ATOM     25  H   UNL     1      -2.411  54.857  19.512  1.00  0.00     0.293 HD
ENDBRANCH   8  24
TORSDOF 5
ENDMDL
MODEL 7
REMARK VINA RESULT:    -6.537      3.543      6.960
REMARK INTER + INTRA:          -7.975
REMARK INTER:                  -7.675
REMARK INTRA:                  -0.300
REMARK UNBOUND:                -0.291
REMARK SMILES O=c1cc(-c2ccc(O)c(O)c2)oc2cc(O)cc(O)c12
REMARK SMILES IDX 4 1 3 2 2 3 1 4 21 5 19 6 18 7 16 8 15 9 14 10 13 11 5 12
REMARK SMILES IDX 6 13 7 14 8 15 12 16 10 17 9 18 11 20 20 22 17 24
REMARK H PARENT 9 19 11 21 20 23 17 25
REMARK Flexibility Score: inf
ROOT
ATOM      1  C   UNL     1     -12.221  56.526  18.052  1.00  0.00     0.138 A 
ATOM      2  C   UNL     1     -13.312  57.351  17.747  1.00  0.00     0.100 A 
ATOM      3  C   UNL     1     -13.250  58.195  16.637  1.00  0.00     0.197 A 
ATOM      4  O   UNL     1     -14.266  58.882  16.357  1.00  0.00    -0.289 OA
ATOM      5  C   UNL     1     -12.074  58.237  15.850  1.00  0.00     0.107 A 
ATOM      6  C   UNL     1     -11.884  59.082  14.714  1.00  0.00     0.134 A 
ATOM      7  C   UNL     1     -10.714  58.964  13.954  1.00  0.00     0.093 A 
ATOM      8  C   UNL     1      -9.702  58.073  14.322  1.00  0.00     0.123 A 
ATOM      9  C   UNL     1      -9.857  57.280  15.455  1.00  0.00     0.094 A 
ATOM     10  C   UNL     1     -11.027  57.349  16.214  1.00  0.00     0.146 A 
ATOM     11  O   UNL     1     -11.141  56.560  17.278  1.00  0.00    -0.456 OA
ENDROOT
BRANCH   1  12
ATOM     12  C   UNL     1     -12.230  55.611  19.223  1.00  0.00     0.021 A 
ATOM     13  C   UNL     1     -13.426  54.970  19.588  1.00  0.00     0.016 A 
ATOM     14  C   UNL     1     -13.464  54.111  20.689  1.00  0.00     0.051 A 
ATOM     15  C   UNL     1     -12.310  53.886  21.449  1.00  0.00     0.157 A 
ATOM     16  C   UNL     1     -11.076  55.392  20.000  1.00  0.00     0.062 A 
ATOM     17  C   UNL     1     -11.115  54.530  21.106  1.00  0.00     0.158 A 
BRANCH  15  18
ATOM     18  O   UNL     1     -12.343  53.029  22.548  1.00  0.00    -0.504 OA
ATOM     19  H   UNL     1     -11.818  53.228  23.392  1.00  0.00     0.293 HD
ENDBRANCH  15  18
BRANCH  17  20
ATOM     20  O   UNL     1      -9.971  54.313  21.872  1.00  0.00    -0.504 OA
ATOM     21  H   UNL     1      -9.073  54.700  21.606  1.00  0.00     0.293 HD
ENDBRANCH  17  20
ENDBRANCH   1  12
BRANCH   6  22
ATOM     22  O   UNL     1     -12.794  60.063  14.306  1.00  0.00    -0.507 OA
ATOM     23  H   UNL     1     -13.418  60.566  14.917  1.00  0.00     0.293 HD
ENDBRANCH   6  22
BRANCH   8  24
ATOM     24  O   UNL     1      -8.535  57.974  13.567  1.00  0.00    -0.508 OA
ATOM     25  H   UNL     1      -7.647  57.732  13.993  1.00  0.00     0.293 HD
ENDBRANCH   8  24
TORSDOF 5
ENDMDL
MODEL 8
REMARK VINA RESULT:    -6.523      2.604      3.298
REMARK INTER + INTRA:          -7.959
REMARK INTER:                  -7.692
REMARK INTRA:                  -0.266
REMARK UNBOUND:                -0.291
REMARK SMILES O=c1cc(-c2ccc(O)c(O)c2)oc2cc(O)cc(O)c12
REMARK SMILES IDX 4 1 3 2 2 3 1 4 21 5 19 6 18 7 16 8 15 9 14 10 13 11 5 12
REMARK SMILES IDX 6 13 7 14 8 15 12 16 10 17 9 18 11 20 20 22 17 24
REMARK H PARENT 9 19 11 21 20 23 17 25
REMARK Flexibility Score: inf
ROOT
ATOM      1  C   UNL     1     -12.154  55.337  17.568  1.00  0.00     0.138 A 
ATOM      2  C   UNL     1     -11.960  54.935  18.897  1.00  0.00     0.100 A 
ATOM      3  C   UNL     1     -12.905  55.279  19.866  1.00  0.00     0.197 A 
ATOM      4  O   UNL     1     -12.731  54.856  21.038  1.00  0.00    -0.289 OA
ATOM      5  C   UNL     1     -14.030  56.059  19.507  1.00  0.00     0.107 A 
ATOM      6  C   UNL     1     -15.040  56.498  20.416  1.00  0.00     0.134 A 
ATOM      7  C   UNL     1     -16.159  57.182  19.926  1.00  0.00     0.093 A 
ATOM      8  C   UNL     1     -16.277  57.495  18.569  1.00  0.00     0.123 A 
ATOM      9  C   UNL     1     -15.273  57.115  17.683  1.00  0.00     0.094 A 
ATOM     10  C   UNL     1     -14.161  56.401  18.134  1.00  0.00     0.146 A 
ATOM     11  O   UNL     1     -13.235  56.042  17.250  1.00  0.00    -0.456 OA
ENDROOT
BRANCH   1  12
ATOM     12  C   UNL     1     -11.181  55.003  16.496  1.00  0.00     0.021 A 
ATOM     13  C   UNL     1     -10.269  55.980  16.063  1.00  0.00     0.016 A 
ATOM     14  C   UNL     1      -9.348  55.694  15.052  1.00  0.00     0.051 A 
ATOM     15  C   UNL     1      -9.330  54.430  14.450  1.00  0.00     0.157 A 
ATOM     16  C   UNL     1     -11.167  53.737  15.878  1.00  0.00     0.062 A 
ATOM     17  C   UNL     1     -10.243  53.451  14.861  1.00  0.00     0.158 A 
BRANCH  15  18
ATOM     18  O   UNL     1      -8.412  54.140  13.442  1.00  0.00    -0.504 OA
ATOM     19  H   UNL     1      -8.573  54.423  12.482  1.00  0.00     0.293 HD
ENDBRANCH  15  18
BRANCH  17  20
ATOM     20  O   UNL     1     -10.230  52.198  14.252  1.00  0.00    -0.504 OA
ATOM     21  H   UNL     1     -10.259  52.097  13.244  1.00  0.00     0.293 HD
ENDBRANCH  17  20
ENDBRANCH   1  12
BRANCH   6  22
ATOM     22  O   UNL     1     -14.983  56.310  21.801  1.00  0.00    -0.507 OA
ATOM     23  H   UNL     1     -14.511  56.919  22.450  1.00  0.00     0.293 HD
ENDBRANCH   6  22
BRANCH   8  24
ATOM     24  O   UNL     1     -17.387  58.189  18.094  1.00  0.00    -0.508 OA
ATOM     25  H   UNL     1     -18.310  58.050  18.490  1.00  0.00     0.293 HD
ENDBRANCH   8  24
TORSDOF 5
ENDMDL
