MODEL 1
REMARK VINA RESULT:    -5.217      0.000      0.000
REMARK INTER + INTRA:          -6.398
REMARK INTER:                  -6.132
REMARK INTRA:                  -0.266
REMARK UNBOUND:                -0.266
REMARK SMILES O=c1cc(-c2ccc(O)c(O)c2)oc2cc(O)cc(O)c12
REMARK SMILES IDX 4 1 3 2 2 3 1 4 21 5 19 6 18 7 16 8 15 9 14 10 13 11 5 12
REMARK SMILES IDX 6 13 7 14 8 15 12 16 10 17 9 18 11 20 20 22 17 24
REMARK H PARENT 9 19 11 21 20 23 17 25
REMARK Flexibility Score: inf
ROOT
ATOM      1  C   UNL     1      23.546   7.791  -6.517  1.00  0.00     0.138 A 
ATOM      2  C   UNL     1      24.323   7.826  -5.351  1.00  0.00     0.100 A 
ATOM      3  C   UNL     1      24.755   6.630  -4.775  1.00  0.00     0.197 A 
ATOM      4  O   UNL     1      25.399   6.690  -3.696  1.00  0.00    -0.289 OA
ATOM      5  C   UNL     1      24.434   5.397  -5.390  1.00  0.00     0.107 A 
ATOM      6  C   UNL     1      24.854   4.118  -4.914  1.00  0.00     0.134 A 
ATOM      7  C   UNL     1      24.377   2.959  -5.538  1.00  0.00     0.093 A 
ATOM      8  C   UNL     1      23.543   3.033  -6.658  1.00  0.00     0.123 A 
ATOM      9  C   UNL     1      23.170   4.278  -7.161  1.00  0.00     0.094 A 
ATOM     10  C   UNL     1      23.601   5.451  -6.540  1.00  0.00     0.146 A 
ATOM     11  O   UNL     1      23.211   6.618  -7.043  1.00  0.00    -0.456 OA
ENDROOT
BRANCH   1  12
ATOM     12  C   UNL     1      23.060   9.033  -7.173  1.00  0.00     0.021 A 
ATOM     13  C   UNL     1      23.620   9.500  -8.377  1.00  0.00     0.016 A 
ATOM     14  C   UNL     1      23.137  10.666  -8.977  1.00  0.00     0.051 A 
ATOM     15  C   UNL     1      22.085  11.380  -8.391  1.00  0.00     0.157 A 
ATOM     16  C   UNL     1      21.995   9.749  -6.597  1.00  0.00     0.062 A 
ATOM     17  C   UNL     1      21.510  10.917  -7.196  1.00  0.00     0.158 A 
BRANCH  15  18
ATOM     18  O   UNL     1      21.607  12.544  -8.992  1.00  0.00    -0.504 OA
ATOM     19  H   UNL     1      22.236  13.259  -9.337  1.00  0.00     0.293 HD
ENDBRANCH  15  18
BRANCH  17  20
ATOM     20  O   UNL     1      20.459  11.603  -6.589  1.00  0.00    -0.504 OA
ATOM     21  H   UNL     1      20.154  11.394  -5.645  1.00  0.00     0.293 HD
ENDBRANCH  17  20
ENDBRANCH   1  12
BRANCH   6  22
ATOM     22  O   UNL     1      25.752   3.933  -3.859  1.00  0.00    -0.507 OA
ATOM     23  H   UNL     1      26.675   3.536  -3.951  1.00  0.00     0.293 HD
ENDBRANCH   6  22
BRANCH   8  24
ATOM     24  O   UNL     1      23.086   1.875  -7.281  1.00  0.00    -0.508 OA
ATOM     25  H   UNL     1      23.193   0.963  -6.850  1.00  0.00     0.293 HD
ENDBRANCH   8  24
TORSDOF 5
ENDMDL
MODEL 2
REMARK VINA RESULT:    -5.032      1.023      2.665
REMARK INTER + INTRA:          -6.180
REMARK INTER:                  -5.916
REMARK INTRA:                  -0.264
REMARK UNBOUND:                -0.266
REMARK SMILES O=c1cc(-c2ccc(O)c(O)c2)oc2cc(O)cc(O)c12
REMARK SMILES IDX 4 1 3 2 2 3 1 4 21 5 19 6 18 7 16 8 15 9 14 10 13 11 5 12
REMARK SMILES IDX 6 13 7 14 8 15 12 16 10 17 9 18 11 20 20 22 17 24
REMARK H PARENT 9 19 11 21 20 23 17 25
REMARK Flexibility Score: inf
ROOT
ATOM      1  C   UNL     1      23.022   7.422  -7.520  1.00  0.00     0.138 A 
ATOM      2  C   UNL     1      22.414   6.401  -8.265  1.00  0.00     0.100 A 
ATOM      3  C   UNL     1      22.634   5.068  -7.914  1.00  0.00     0.197 A 
ATOM      4  O   UNL     1      22.126   4.172  -8.637  1.00  0.00    -0.289 OA
ATOM      5  C   UNL     1      23.440   4.759  -6.793  1.00  0.00     0.107 A 
ATOM      6  C   UNL     1      23.700   3.439  -6.318  1.00  0.00     0.134 A 
ATOM      7  C   UNL     1      24.608   3.248  -5.270  1.00  0.00     0.093 A 
ATOM      8  C   UNL     1      25.219   4.336  -4.638  1.00  0.00     0.123 A 
ATOM      9  C   UNL     1      24.930   5.631  -5.060  1.00  0.00     0.094 A 
ATOM     10  C   UNL     1      24.056   5.852  -6.125  1.00  0.00     0.146 A 
ATOM     11  O   UNL     1      23.819   7.103  -6.506  1.00  0.00    -0.456 OA
ENDROOT
BRANCH   1  12
ATOM     12  C   UNL     1      22.822   8.857  -7.848  1.00  0.00     0.021 A 
ATOM     13  C   UNL     1      23.596   9.506  -8.827  1.00  0.00     0.016 A 
ATOM     14  C   UNL     1      23.379  10.855  -9.122  1.00  0.00     0.051 A 
ATOM     15  C   UNL     1      22.384  11.575  -8.451  1.00  0.00     0.157 A 
ATOM     16  C   UNL     1      21.814   9.584  -7.188  1.00  0.00     0.062 A 
ATOM     17  C   UNL     1      21.596  10.934  -7.481  1.00  0.00     0.158 A 
BRANCH  15  18
ATOM     18  O   UNL     1      22.172  12.921  -8.747  1.00  0.00    -0.504 OA
ATOM     19  H   UNL     1      21.239  13.311  -8.805  1.00  0.00     0.293 HD
ENDBRANCH  15  18
BRANCH  17  20
ATOM     20  O   UNL     1      20.593  11.622  -6.798  1.00  0.00    -0.504 OA
ATOM     21  H   UNL     1      20.283  11.343  -5.875  1.00  0.00     0.293 HD
ENDBRANCH  17  20
ENDBRANCH   1  12
BRANCH   6  22
ATOM     22  O   UNL     1      23.079   2.291  -6.821  1.00  0.00    -0.507 OA
ATOM     23  H   UNL     1      23.500   1.648  -7.475  1.00  0.00     0.293 HD
ENDBRANCH   6  22
BRANCH   8  24
ATOM     24  O   UNL     1      26.109   4.138  -3.586  1.00  0.00    -0.508 OA
ATOM     25  H   UNL     1      25.792   3.831  -2.673  1.00  0.00     0.293 HD
ENDBRANCH   8  24
TORSDOF 5
ENDMDL
MODEL 3
REMARK VINA RESULT:    -4.564      1.637      7.185
REMARK INTER + INTRA:          -5.631
REMARK INTER:                  -5.358
REMARK INTRA:                  -0.273
REMARK UNBOUND:                -0.266
REMARK SMILES O=c1cc(-c2ccc(O)c(O)c2)oc2cc(O)cc(O)c12
REMARK SMILES IDX 4 1 3 2 2 3 1 4 21 5 19 6 18 7 16 8 15 9 14 10 13 11 5 12
REMARK SMILES IDX 6 13 7 14 8 15 12 16 10 17 9 18 11 20 20 22 17 24
REMARK H PARENT 9 19 11 21 20 23 17 25
REMARK Flexibility Score: inf
ROOT
ATOM      1  C   UNL     1      23.866   7.138  -6.148  1.00  0.00     0.138 A 
ATOM      2  C   UNL     1      22.536   7.509  -5.912  1.00  0.00     0.100 A 
ATOM      3  C   UNL     1      22.064   8.729  -6.400  1.00  0.00     0.197 A 
ATOM      4  O   UNL     1      20.883   9.064  -6.121  1.00  0.00    -0.289 OA
ATOM      5  C   UNL     1      22.921   9.564  -7.155  1.00  0.00     0.107 A 
ATOM      6  C   UNL     1      22.537  10.809  -7.736  1.00  0.00     0.134 A 
ATOM      7  C   UNL     1      23.504  11.605  -8.363  1.00  0.00     0.093 A 
ATOM      8  C   UNL     1      24.828  11.172  -8.483  1.00  0.00     0.123 A 
ATOM      9  C   UNL     1      25.200   9.934  -7.965  1.00  0.00     0.094 A 
ATOM     10  C   UNL     1      24.267   9.133  -7.304  1.00  0.00     0.146 A 
ATOM     11  O   UNL     1      24.666   7.965  -6.812  1.00  0.00    -0.456 OA
ENDROOT
BRANCH   1  12
ATOM     12  C   UNL     1      24.421   5.851  -5.653  1.00  0.00     0.021 A 
ATOM     13  C   UNL     1      25.621   5.797  -4.920  1.00  0.00     0.016 A 
ATOM     14  C   UNL     1      26.114   4.573  -4.459  1.00  0.00     0.051 A 
ATOM     15  C   UNL     1      25.416   3.387  -4.713  1.00  0.00     0.157 A 
ATOM     16  C   UNL     1      23.718   4.656  -5.893  1.00  0.00     0.062 A 
ATOM     17  C   UNL     1      24.210   3.430  -5.432  1.00  0.00     0.158 A 
BRANCH  15  18
ATOM     18  O   UNL     1      25.912   2.169  -4.253  1.00  0.00    -0.504 OA
ATOM     19  H   UNL     1      26.484   1.573  -4.839  1.00  0.00     0.293 HD
ENDBRANCH  15  18
BRANCH  17  20
ATOM     20  O   UNL     1      23.488   2.268  -5.700  1.00  0.00    -0.504 OA
ATOM     21  H   UNL     1      23.844   1.542  -6.311  1.00  0.00     0.293 HD
ENDBRANCH  17  20
ENDBRANCH   1  12
BRANCH   6  22
ATOM     22  O   UNL     1      21.226  11.296  -7.749  1.00  0.00    -0.507 OA
ATOM     23  H   UNL     1      20.548  11.106  -8.472  1.00  0.00     0.293 HD
ENDBRANCH   6  22
BRANCH   8  24
ATOM     24  O   UNL     1      25.779  11.964  -9.122  1.00  0.00    -0.508 OA
ATOM     25  H   UNL     1      26.047  12.871  -8.756  1.00  0.00     0.293 HD
ENDBRANCH   8  24
TORSDOF 5
ENDMDL
MODEL 4
REMARK VINA RESULT:    -4.349     21.072     22.719
REMARK INTER + INTRA:          -5.378
REMARK INTER:                  -5.060
REMARK INTRA:                  -0.318
REMARK UNBOUND:                -0.266
REMARK SMILES O=c1cc(-c2ccc(O)c(O)c2)oc2cc(O)cc(O)c12
REMARK SMILES IDX 4 1 3 2 2 3 1 4 21 5 19 6 18 7 16 8 15 9 14 10 13 11 5 12
REMARK SMILES IDX 6 13 7 14 8 15 12 16 10 17 9 18 11 20 20 22 17 24
REMARK H PARENT 9 19 11 21 20 23 17 25
REMARK Flexibility Score: inf
ROOT
ATOM      1  C   UNL     1       6.974  20.117   2.036  1.00  0.00     0.138 A 
ATOM      2  C   UNL     1       7.014  21.250   2.861  1.00  0.00     0.100 A 
ATOM      3  C   UNL     1       7.066  21.091   4.247  1.00  0.00     0.197 A 
ATOM      4  O   UNL     1       7.038  22.124   4.964  1.00  0.00    -0.289 OA
ATOM      5  C   UNL     1       7.111  19.792   4.805  1.00  0.00     0.107 A 
ATOM      6  C   UNL     1       7.206  19.510   6.201  1.00  0.00     0.134 A 
ATOM      7  C   UNL     1       7.125  18.184   6.644  1.00  0.00     0.093 A 
ATOM      8  C   UNL     1       7.013  17.126   5.738  1.00  0.00     0.123 A 
ATOM      9  C   UNL     1       6.973  17.388   4.371  1.00  0.00     0.094 A 
ATOM     10  C   UNL     1       7.017  18.701   3.899  1.00  0.00     0.146 A 
ATOM     11  O   UNL     1       6.962  18.908   2.588  1.00  0.00    -0.456 OA
ENDROOT
BRANCH   1  12
ATOM     12  C   UNL     1       6.920  20.227   0.555  1.00  0.00     0.021 A 
ATOM     13  C   UNL     1       6.922  21.477  -0.093  1.00  0.00     0.016 A 
ATOM     14  C   UNL     1       6.880  21.550  -1.488  1.00  0.00     0.051 A 
ATOM     15  C   UNL     1       6.843  20.382  -2.258  1.00  0.00     0.157 A 
ATOM     16  C   UNL     1       6.896  19.058  -0.226  1.00  0.00     0.062 A 
ATOM     17  C   UNL     1       6.853  19.129  -1.623  1.00  0.00     0.158 A 
BRANCH  15  18
ATOM     18  O   UNL     1       6.799  20.460  -3.649  1.00  0.00    -0.504 OA
ATOM     19  H   UNL     1       6.653  21.341  -4.127  1.00  0.00     0.293 HD
ENDBRANCH  15  18
BRANCH  17  20
ATOM     20  O   UNL     1       6.821  17.947  -2.360  1.00  0.00    -0.504 OA
ATOM     21  H   UNL     1       7.432  17.790  -3.154  1.00  0.00     0.293 HD
ENDBRANCH  17  20
ENDBRANCH   1  12
BRANCH   6  22
ATOM     22  O   UNL     1       7.404  20.484   7.184  1.00  0.00    -0.507 OA
ATOM     23  H   UNL     1       7.298  21.478   7.039  1.00  0.00     0.293 HD
ENDBRANCH   6  22
BRANCH   8  24
ATOM     24  O   UNL     1       6.949  15.810   6.188  1.00  0.00    -0.508 OA
ATOM     25  H   UNL     1       6.157  15.470   6.724  1.00  0.00     0.293 HD
ENDBRANCH   8  24
TORSDOF 5
ENDMDL
MODEL 5
REMARK VINA RESULT:    -4.318      1.515      3.059
REMARK INTER + INTRA:          -5.341
REMARK INTER:                  -5.033
REMARK INTRA:                  -0.309
REMARK UNBOUND:                -0.266
REMARK SMILES O=c1cc(-c2ccc(O)c(O)c2)oc2cc(O)cc(O)c12
REMARK SMILES IDX 4 1 3 2 2 3 1 4 21 5 19 6 18 7 16 8 15 9 14 10 13 11 5 12
REMARK SMILES IDX 6 13 7 14 8 15 12 16 10 17 9 18 11 20 20 22 17 24
REMARK H PARENT 9 19 11 21 20 23 17 25
REMARK Flexibility Score: inf
ROOT
ATOM      1  C   UNL     1      23.059   7.976  -7.702  1.00  0.00     0.138 A 
ATOM      2  C   UNL     1      22.421   6.963  -8.430  1.00  0.00     0.100 A 
ATOM      3  C   UNL     1      22.552   5.634  -8.023  1.00  0.00     0.197 A 
ATOM      4  O   UNL     1      22.020   4.740  -8.731  1.00  0.00    -0.289 OA
ATOM      5  C   UNL     1      23.300   5.325  -6.862  1.00  0.00     0.107 A 
ATOM      6  C   UNL     1      23.468   4.011  -6.330  1.00  0.00     0.134 A 
ATOM      7  C   UNL     1      24.326   3.812  -5.242  1.00  0.00     0.093 A 
ATOM      8  C   UNL     1      24.976   4.887  -4.629  1.00  0.00     0.123 A 
ATOM      9  C   UNL     1      24.776   6.179  -5.108  1.00  0.00     0.094 A 
ATOM     10  C   UNL     1      23.953   6.407  -6.213  1.00  0.00     0.146 A 
ATOM     11  O   UNL     1      23.801   7.653  -6.647  1.00  0.00    -0.456 OA
ENDROOT
BRANCH   1  12
ATOM     12  C   UNL     1      22.952   9.406  -8.089  1.00  0.00     0.021 A 
ATOM     13  C   UNL     1      21.824   9.905  -8.767  1.00  0.00     0.016 A 
ATOM     14  C   UNL     1      21.746  11.258  -9.111  1.00  0.00     0.051 A 
ATOM     15  C   UNL     1      22.786  12.134  -8.779  1.00  0.00     0.157 A 
ATOM     16  C   UNL     1      23.987  10.296  -7.747  1.00  0.00     0.062 A 
ATOM     17  C   UNL     1      23.911  11.650  -8.091  1.00  0.00     0.158 A 
BRANCH  15  18
ATOM     18  O   UNL     1      22.705  13.482  -9.125  1.00  0.00    -0.504 OA
ATOM     19  H   UNL     1      23.466  13.955  -9.598  1.00  0.00     0.293 HD
ENDBRANCH  15  18
BRANCH  17  20
ATOM     20  O   UNL     1      24.962  12.497  -7.742  1.00  0.00    -0.504 OA
ATOM     21  H   UNL     1      25.896  12.377  -8.116  1.00  0.00     0.293 HD
ENDBRANCH  17  20
ENDBRANCH   1  12
BRANCH   6  22
ATOM     22  O   UNL     1      22.801   2.881  -6.812  1.00  0.00    -0.507 OA
ATOM     23  H   UNL     1      22.727   2.002  -6.321  1.00  0.00     0.293 HD
ENDBRANCH   6  22
BRANCH   8  24
ATOM     24  O   UNL     1      25.815   4.681  -3.537  1.00  0.00    -0.508 OA
ATOM     25  H   UNL     1      25.961   5.399  -2.836  1.00  0.00     0.293 HD
ENDBRANCH   8  24
TORSDOF 5
ENDMDL
MODEL 6
REMARK VINA RESULT:    -4.290     22.603     23.849
REMARK INTER + INTRA:          -5.309
REMARK INTER:                  -4.998
REMARK INTRA:                  -0.311
REMARK UNBOUND:                -0.266
REMARK SMILES O=c1cc(-c2ccc(O)c(O)c2)oc2cc(O)cc(O)c12
REMARK SMILES IDX 4 1 3 2 2 3 1 4 21 5 19 6 18 7 16 8 15 9 14 10 13 11 5 12
REMARK SMILES IDX 6 13 7 14 8 15 12 16 10 17 9 18 11 20 20 22 17 24
REMARK H PARENT 9 19 11 21 20 23 17 25
REMARK Flexibility Score: inf
ROOT
ATOM      1  C   UNL     1       7.096  17.053   6.021  1.00  0.00     0.138 A 
ATOM      2  C   UNL     1       6.321  17.749   5.083  1.00  0.00     0.100 A 
ATOM      3  C   UNL     1       6.639  19.072   4.772  1.00  0.00     0.197 A 
ATOM      4  O   UNL     1       5.888  19.690   3.973  1.00  0.00    -0.289 OA
ATOM      5  C   UNL     1       7.757  19.688   5.380  1.00  0.00     0.107 A 
ATOM      6  C   UNL     1       8.199  21.018   5.109  1.00  0.00     0.134 A 
ATOM      7  C   UNL     1       9.250  21.562   5.858  1.00  0.00     0.093 A 
ATOM      8  C   UNL     1       9.914  20.804   6.827  1.00  0.00     0.123 A 
ATOM      9  C   UNL     1       9.524  19.487   7.061  1.00  0.00     0.094 A 
ATOM     10  C   UNL     1       8.458  18.928   6.355  1.00  0.00     0.146 A 
ATOM     11  O   UNL     1       8.108  17.673   6.619  1.00  0.00    -0.456 OA
ENDROOT
BRANCH   1  12
ATOM     12  C   UNL     1       6.804  15.643   6.389  1.00  0.00     0.021 A 
ATOM     13  C   UNL     1       6.128  14.776   5.510  1.00  0.00     0.016 A 
ATOM     14  C   UNL     1       5.876  13.452   5.879  1.00  0.00     0.051 A 
ATOM     15  C   UNL     1       6.298  12.969   7.123  1.00  0.00     0.157 A 
ATOM     16  C   UNL     1       7.238  15.148   7.632  1.00  0.00     0.062 A 
ATOM     17  C   UNL     1       6.985  13.823   8.003  1.00  0.00     0.158 A 
BRANCH  15  18
ATOM     18  O   UNL     1       6.043  11.649   7.487  1.00  0.00    -0.504 OA
ATOM     19  H   UNL     1       6.332  10.872   6.904  1.00  0.00     0.293 HD
ENDBRANCH  15  18
BRANCH  17  20
ATOM     20  O   UNL     1       7.423  13.373   9.248  1.00  0.00    -0.504 OA
ATOM     21  H   UNL     1       8.173  12.699   9.343  1.00  0.00     0.293 HD
ENDBRANCH  17  20
ENDBRANCH   1  12
BRANCH   6  22
ATOM     22  O   UNL     1       7.663  21.831   4.106  1.00  0.00    -0.507 OA
ATOM     23  H   UNL     1       6.807  21.641   3.607  1.00  0.00     0.293 HD
ENDBRANCH   6  22
BRANCH   8  24
ATOM     24  O   UNL     1      10.967  21.349   7.556  1.00  0.00    -0.508 OA
ATOM     25  H   UNL     1      11.705  21.880   7.107  1.00  0.00     0.293 HD
ENDBRANCH   8  24
TORSDOF 5
ENDMDL
MODEL 7
REMARK VINA RESULT:    -4.234      2.426      3.602
REMARK INTER + INTRA:          -5.243
REMARK INTER:                  -4.950
REMARK INTRA:                  -0.292
REMARK UNBOUND:                -0.266
REMARK SMILES O=c1cc(-c2ccc(O)c(O)c2)oc2cc(O)cc(O)c12
REMARK SMILES IDX 4 1 3 2 2 3 1 4 21 5 19 6 18 7 16 8 15 9 14 10 13 11 5 12
REMARK SMILES IDX 6 13 7 14 8 15 12 16 10 17 9 18 11 20 20 22 17 24
REMARK H PARENT 9 19 11 21 20 23 17 25
REMARK Flexibility Score: inf
ROOT
ATOM      1  C   UNL     1      24.652   8.744  -6.637  1.00  0.00     0.138 A 
ATOM      2  C   UNL     1      23.707   8.201  -7.519  1.00  0.00     0.100 A 
ATOM      3  C   UNL     1      23.379   6.847  -7.429  1.00  0.00     0.197 A 
ATOM      4  O   UNL     1      22.574   6.374  -8.273  1.00  0.00    -0.289 OA
ATOM      5  C   UNL     1      23.977   6.043  -6.430  1.00  0.00     0.107 A 
ATOM      6  C   UNL     1      23.689   4.661  -6.219  1.00  0.00     0.134 A 
ATOM      7  C   UNL     1      24.428   3.939  -5.275  1.00  0.00     0.093 A 
ATOM      8  C   UNL     1      25.405   4.562  -4.493  1.00  0.00     0.123 A 
ATOM      9  C   UNL     1      25.656   5.922  -4.655  1.00  0.00     0.094 A 
ATOM     10  C   UNL     1      24.959   6.663  -5.611  1.00  0.00     0.146 A 
ATOM     11  O   UNL     1      25.240   7.955  -5.744  1.00  0.00    -0.456 OA
ENDROOT
BRANCH   1  12
ATOM     12  C   UNL     1      25.037  10.178  -6.687  1.00  0.00     0.021 A 
ATOM     13  C   UNL     1      25.755  10.787  -5.641  1.00  0.00     0.016 A 
ATOM     14  C   UNL     1      26.113  12.135  -5.719  1.00  0.00     0.051 A 
ATOM     15  C   UNL     1      25.768  12.896  -6.842  1.00  0.00     0.157 A 
ATOM     16  C   UNL     1      24.706  10.945  -7.819  1.00  0.00     0.062 A 
ATOM     17  C   UNL     1      25.062  12.296  -7.898  1.00  0.00     0.158 A 
BRANCH  15  18
ATOM     18  O   UNL     1      26.125  14.241  -6.915  1.00  0.00    -0.504 OA
ATOM     19  H   UNL     1      26.534  14.726  -6.125  1.00  0.00     0.293 HD
ENDBRANCH  15  18
BRANCH  17  20
ATOM     20  O   UNL     1      24.706  13.024  -9.033  1.00  0.00    -0.504 OA
ATOM     21  H   UNL     1      23.862  13.583  -9.070  1.00  0.00     0.293 HD
ENDBRANCH  17  20
ENDBRANCH   1  12
BRANCH   6  22
ATOM     22  O   UNL     1      22.677   3.963  -6.885  1.00  0.00    -0.507 OA
ATOM     23  H   UNL     1      22.570   2.959  -6.879  1.00  0.00     0.293 HD
ENDBRANCH   6  22
BRANCH   8  24
ATOM     24  O   UNL     1      26.125   3.838  -3.546  1.00  0.00    -0.508 OA
ATOM     25  H   UNL     1      25.714   3.054  -3.052  1.00  0.00     0.293 HD
ENDBRANCH   8  24
TORSDOF 5
ENDMDL
MODEL 8
REMARK VINA RESULT:    -4.150      2.230      3.451
REMARK INTER + INTRA:          -5.144
REMARK INTER:                  -4.849
REMARK INTRA:                  -0.295
REMARK UNBOUND:                -0.266
REMARK SMILES O=c1cc(-c2ccc(O)c(O)c2)oc2cc(O)cc(O)c12
REMARK SMILES IDX 4 1 3 2 2 3 1 4 21 5 19 6 18 7 16 8 15 9 14 10 13 11 5 12
REMARK SMILES IDX 6 13 7 14 8 15 12 16 10 17 9 18 11 20 20 22 17 24
REMARK H PARENT 9 19 11 21 20 23 17 25
REMARK Flexibility Score: inf
ROOT
ATOM      1  C   UNL     1      23.732   9.528  -7.534  1.00  0.00     0.138 A 
ATOM      2  C   UNL     1      22.357   9.281  -7.421  1.00  0.00     0.100 A 
ATOM      3  C   UNL     1      21.914   8.014  -7.037  1.00  0.00     0.197 A 
ATOM      4  O   UNL     1      20.674   7.803  -7.004  1.00  0.00    -0.289 OA
ATOM      5  C   UNL     1      22.855   7.001  -6.735  1.00  0.00     0.107 A 
ATOM      6  C   UNL     1      22.520   5.685  -6.295  1.00  0.00     0.134 A 
ATOM      7  C   UNL     1      23.533   4.732  -6.138  1.00  0.00     0.093 A 
ATOM      8  C   UNL     1      24.875   5.063  -6.347  1.00  0.00     0.123 A 
ATOM      9  C   UNL     1      25.216   6.359  -6.725  1.00  0.00     0.094 A 
ATOM     10  C   UNL     1      24.226   7.323  -6.923  1.00  0.00     0.146 A 
ATOM     11  O   UNL     1      24.593   8.544  -7.298  1.00  0.00    -0.456 OA
ENDROOT
BRANCH   1  12
ATOM     12  C   UNL     1      24.258  10.858  -7.937  1.00  0.00     0.021 A 
ATOM     13  C   UNL     1      25.638  11.133  -7.951  1.00  0.00     0.016 A 
ATOM     14  C   UNL     1      26.106  12.389  -8.344  1.00  0.00     0.051 A 
ATOM     15  C   UNL     1      25.207  13.389  -8.735  1.00  0.00     0.157 A 
ATOM     16  C   UNL     1      23.362  11.863  -8.344  1.00  0.00     0.062 A 
ATOM     17  C   UNL     1      23.828  13.122  -8.737  1.00  0.00     0.158 A 
BRANCH  15  18
ATOM     18  O   UNL     1      25.678  14.642  -9.125  1.00  0.00    -0.504 OA
ATOM     19  H   UNL     1      25.088  15.465  -9.089  1.00  0.00     0.293 HD
ENDBRANCH  15  18
BRANCH  17  20
ATOM     20  O   UNL     1      22.907  14.094  -9.125  1.00  0.00    -0.504 OA
ATOM     21  H   UNL     1      22.068  14.284  -8.590  1.00  0.00     0.293 HD
ENDBRANCH  17  20
ENDBRANCH   1  12
BRANCH   6  22
ATOM     22  O   UNL     1      21.223   5.274  -5.976  1.00  0.00    -0.507 OA
ATOM     23  H   UNL     1      20.674   5.640  -5.211  1.00  0.00     0.293 HD
ENDBRANCH   6  22
BRANCH   8  24
ATOM     24  O   UNL     1      25.877   4.111  -6.174  1.00  0.00    -0.508 OA
ATOM     25  H   UNL     1      26.185   3.826  -5.251  1.00  0.00     0.293 HD
ENDBRANCH   8  24
TORSDOF 5
ENDMDL
MODEL 9
REMARK VINA RESULT:    -4.021     22.306     24.098
REMARK INTER + INTRA:          -4.992
REMARK INTER:                  -4.724
REMARK INTRA:                  -0.268
REMARK UNBOUND:                -0.266
REMARK SMILES O=c1cc(-c2ccc(O)c(O)c2)oc2cc(O)cc(O)c12
REMARK SMILES IDX 4 1 3 2 2 3 1 4 21 5 19 6 18 7 16 8 15 9 14 10 13 11 5 12
REMARK SMILES IDX 6 13 7 14 8 15 12 16 10 17 9 18 11 20 20 22 17 24
REMARK H PARENT 9 19 11 21 20 23 17 25
REMARK Flexibility Score: inf
ROOT
ATOM      1  C   UNL     1       6.783  16.354   6.661  1.00  0.00     0.138 A 
ATOM      2  C   UNL     1       6.241  16.284   5.371  1.00  0.00     0.100 A 
ATOM      3  C   UNL     1       6.426  17.348   4.486  1.00  0.00     0.197 A 
ATOM      4  O   UNL     1       5.875  17.284   3.357  1.00  0.00    -0.289 OA
ATOM      5  C   UNL     1       7.185  18.473   4.888  1.00  0.00     0.107 A 
ATOM      6  C   UNL     1       7.473  19.597   4.058  1.00  0.00     0.134 A 
ATOM      7  C   UNL     1       8.136  20.704   4.601  1.00  0.00     0.093 A 
ATOM      8  C   UNL     1       8.575  20.703   5.928  1.00  0.00     0.123 A 
ATOM      9  C   UNL     1       8.345  19.588   6.731  1.00  0.00     0.094 A 
ATOM     10  C   UNL     1       7.657  18.482   6.228  1.00  0.00     0.146 A 
ATOM     11  O   UNL     1       7.445  17.445   7.032  1.00  0.00    -0.456 OA
ENDROOT
BRANCH   1  12
ATOM     12  C   UNL     1       6.619  15.250   7.642  1.00  0.00     0.021 A 
ATOM     13  C   UNL     1       6.027  15.463   8.901  1.00  0.00     0.016 A 
ATOM     14  C   UNL     1       5.876  14.404   9.800  1.00  0.00     0.051 A 
ATOM     15  C   UNL     1       6.305  13.116   9.457  1.00  0.00     0.157 A 
ATOM     16  C   UNL     1       7.035  13.951   7.299  1.00  0.00     0.062 A 
ATOM     17  C   UNL     1       6.885  12.890   8.198  1.00  0.00     0.158 A 
BRANCH  15  18
ATOM     18  O   UNL     1       6.154  12.064  10.357  1.00  0.00    -0.504 OA
ATOM     19  H   UNL     1       6.373  11.109  10.099  1.00  0.00     0.293 HD
ENDBRANCH  15  18
BRANCH  17  20
ATOM     20  O   UNL     1       7.320  11.619   7.823  1.00  0.00    -0.504 OA
ATOM     21  H   UNL     1       6.858  10.776   8.144  1.00  0.00     0.293 HD
ENDBRANCH  17  20
ENDBRANCH   1  12
BRANCH   6  22
ATOM     22  O   UNL     1       7.156  19.667   2.698  1.00  0.00    -0.507 OA
ATOM     23  H   UNL     1       6.617  20.405   2.269  1.00  0.00     0.293 HD
ENDBRANCH   6  22
BRANCH   8  24
ATOM     24  O   UNL     1       9.247  21.802   6.455  1.00  0.00    -0.508 OA
ATOM     25  H   UNL     1      10.186  22.043   6.158  1.00  0.00     0.293 HD
ENDBRANCH   8  24
TORSDOF 5
ENDMDL
