MODEL 1
REMARK VINA RESULT:    -1.053      0.000      0.000
REMARK INTER + INTRA:          -4.887
REMARK INTER:                  -2.039
REMARK INTRA:                  -2.848
REMARK UNBOUND:                -2.848
REMARK SMILES CCCCCCCCCCCCCCCCCC(=O)[O-]
REMARK SMILES IDX 10 1 11 2 12 3 13 4 14 5 15 6 16 7 17 8 18 9 19 10 20 11
REMARK SMILES IDX 9 12 8 13 7 14 6 15 5 16 4 17 3 18 2 19 1 20
REMARK H PARENT
REMARK Flexibility Score: inf
ROOT
ATOM      1  C   UNL     1     -12.890 -22.122  84.350  1.00  0.00     0.000 C 
ENDROOT
BRANCH   1   2
ATOM      2  C   UNL     1     -14.127 -22.472  85.193  1.00  0.00     0.000 C 
BRANCH   2   3
ATOM      3  C   UNL     1     -13.884 -23.671  86.125  1.00  0.00     0.000 C 
BRANCH   3   4
ATOM      4  C   UNL     1     -14.935 -24.781  85.943  1.00  0.00     0.000 C 
BRANCH   4   5
ATOM      5  C   UNL     1     -15.858 -24.539  84.735  1.00  0.00     0.000 C 
BRANCH   5   6
ATOM      6  C   UNL     1     -17.319 -24.985  84.931  1.00  0.00     0.000 C 
BRANCH   6   7
ATOM      7  C   UNL     1     -18.333 -23.868  84.630  1.00  0.00     0.006 C 
BRANCH   7   8
ATOM      8  C   UNL     1     -17.898 -22.519  85.218  1.00  0.00     0.053 C 
BRANCH   8   9
ATOM      9  C   UNL     1     -19.019 -21.525  85.209  1.00  0.00     0.041 C 
ATOM     10  O   UNL     1     -20.085 -21.775  84.586  1.00  0.00    -0.550 OA
ATOM     11  O   UNL     1     -18.872 -20.306  85.859  1.00  0.00    -0.550 OA
ENDBRANCH   8   9
ENDBRANCH   7   8
ENDBRANCH   6   7
ENDBRANCH   5   6
ENDBRANCH   4   5
ENDBRANCH   3   4
ENDBRANCH   2   3
ENDBRANCH   1   2
BRANCH   1  12
ATOM     12  C   UNL     1     -13.167 -21.013  83.317  1.00  0.00     0.000 C 
BRANCH  12  13
ATOM     13  C   UNL     1     -13.423 -21.509  81.880  1.00  0.00    -0.000 C 
BRANCH  13  14
ATOM     14  C   UNL     1     -14.853 -21.275  81.351  1.00  0.00    -0.000 C 
BRANCH  14  15
ATOM     15  C   UNL     1     -15.944 -22.114  82.040  1.00  0.00    -0.000 C 
BRANCH  15  16
ATOM     16  C   UNL     1     -16.813 -22.896  81.043  1.00  0.00    -0.000 C 
BRANCH  16  17
ATOM     17  C   UNL     1     -15.982 -23.953  80.303  1.00  0.00    -0.000 C 
BRANCH  17  18
ATOM     18  C   UNL     1     -15.338 -24.981  81.251  1.00  0.00    -0.000 C 
BRANCH  18  19
ATOM     19  C   UNL     1     -13.813 -25.129  81.104  1.00  0.00    -0.003 C 
ATOM     20  C   UNL     1     -13.093 -25.258  82.445  1.00  0.00     0.004 C 
ENDBRANCH  18  19
ENDBRANCH  17  18
ENDBRANCH  16  17
ENDBRANCH  15  16
ENDBRANCH  14  15
ENDBRANCH  13  14
ENDBRANCH  12  13
ENDBRANCH   1  12
TORSDOF 16
ENDMDL
MODEL 2
REMARK VINA RESULT:    -0.993      1.406      3.923
REMARK INTER + INTRA:          -4.769
REMARK INTER:                  -1.719
REMARK INTRA:                  -3.050
REMARK UNBOUND:                -2.848
REMARK SMILES CCCCCCCCCCCCCCCCCC(=O)[O-]
REMARK SMILES IDX 10 1 11 2 12 3 13 4 14 5 15 6 16 7 17 8 18 9 19 10 20 11
REMARK SMILES IDX 9 12 8 13 7 14 6 15 5 16 4 17 3 18 2 19 1 20
REMARK H PARENT
REMARK Flexibility Score: inf
ROOT
ATOM      1  C   UNL     1     -13.313 -22.603  81.765  1.00  0.00     0.000 C 
ENDROOT
BRANCH   1   2
ATOM      2  C   UNL     1     -13.543 -24.110  81.977  1.00  0.00     0.000 C 
BRANCH   2   3
ATOM      3  C   UNL     1     -15.036 -24.476  82.015  1.00  0.00     0.000 C 
BRANCH   3   4
ATOM      4  C   UNL     1     -15.785 -24.026  80.748  1.00  0.00     0.000 C 
BRANCH   4   5
ATOM      5  C   UNL     1     -17.219 -23.546  81.039  1.00  0.00     0.000 C 
BRANCH   5   6
ATOM      6  C   UNL     1     -17.318 -22.187  81.756  1.00  0.00     0.000 C 
BRANCH   6   7
ATOM      7  C   UNL     1     -17.885 -22.302  83.181  1.00  0.00     0.006 C 
BRANCH   7   8
ATOM      8  C   UNL     1     -19.415 -22.192  83.206  1.00  0.00     0.053 C 
BRANCH   8   9
ATOM      9  C   UNL     1     -20.016 -23.066  84.264  1.00  0.00     0.041 C 
ATOM     10  O   UNL     1     -19.761 -22.858  85.479  1.00  0.00    -0.550 OA
ATOM     11  O   UNL     1     -20.830 -24.133  83.904  1.00  0.00    -0.550 OA
ENDBRANCH   8   9
ENDBRANCH   7   8
ENDBRANCH   6   7
ENDBRANCH   5   6
ENDBRANCH   4   5
ENDBRANCH   3   4
ENDBRANCH   2   3
ENDBRANCH   1   2
BRANCH   1  12
ATOM     12  C   UNL     1     -13.849 -21.749  82.930  1.00  0.00     0.000 C 
BRANCH  12  13
ATOM     13  C   UNL     1     -13.038 -21.846  84.238  1.00  0.00    -0.000 C 
BRANCH  13  14
ATOM     14  C   UNL     1     -13.664 -22.734  85.332  1.00  0.00    -0.000 C 
BRANCH  14  15
ATOM     15  C   UNL     1     -15.127 -22.402  85.679  1.00  0.00    -0.000 C 
BRANCH  15  16
ATOM     16  C   UNL     1     -15.977 -23.655  85.940  1.00  0.00    -0.000 C 
BRANCH  16  17
ATOM     17  C   UNL     1     -15.167 -24.932  85.673  1.00  0.00    -0.000 C 
BRANCH  17  18
ATOM     18  C   UNL     1     -16.021 -26.073  85.090  1.00  0.00    -0.000 C 
BRANCH  18  19
ATOM     19  C   UNL     1     -17.486 -25.701  84.802  1.00  0.00    -0.003 C 
ATOM     20  C   UNL     1     -17.988 -26.240  83.464  1.00  0.00     0.004 C 
ENDBRANCH  18  19
ENDBRANCH  17  18
ENDBRANCH  16  17
ENDBRANCH  15  16
ENDBRANCH  14  15
ENDBRANCH  13  14
ENDBRANCH  12  13
ENDBRANCH   1  12
TORSDOF 16
ENDMDL
MODEL 3
REMARK VINA RESULT:    -0.973      2.441      5.157
REMARK INTER + INTRA:          -4.732
REMARK INTER:                  -1.634
REMARK INTRA:                  -3.098
REMARK UNBOUND:                -2.848
REMARK SMILES CCCCCCCCCCCCCCCCCC(=O)[O-]
REMARK SMILES IDX 10 1 11 2 12 3 13 4 14 5 15 6 16 7 17 8 18 9 19 10 20 11
REMARK SMILES IDX 9 12 8 13 7 14 6 15 5 16 4 17 3 18 2 19 1 20
REMARK H PARENT
REMARK Flexibility Score: inf
ROOT
ATOM      1  C   UNL     1     -16.995 -22.332  82.450  1.00  0.00     0.000 C 
ENDROOT
BRANCH   1   2
ATOM      2  C   UNL     1     -16.862 -21.507  81.159  1.00  0.00     0.000 C 
BRANCH   2   3
ATOM      3  C   UNL     1     -15.507 -20.788  81.057  1.00  0.00     0.000 C 
BRANCH   3   4
ATOM      4  C   UNL     1     -14.383 -21.719  80.569  1.00  0.00     0.000 C 
BRANCH   4   5
ATOM      5  C   UNL     1     -13.297 -21.958  81.634  1.00  0.00     0.000 C 
BRANCH   5   6
ATOM      6  C   UNL     1     -13.189 -20.863  82.711  1.00  0.00     0.000 C 
BRANCH   6   7
ATOM      7  C   UNL     1     -13.185 -21.429  84.142  1.00  0.00     0.006 C 
BRANCH   7   8
ATOM      8  C   UNL     1     -13.620 -22.899  84.184  1.00  0.00     0.053 C 
BRANCH   8   9
ATOM      9  C   UNL     1     -14.634 -23.145  85.259  1.00  0.00     0.041 C 
ATOM     10  O   UNL     1     -15.142 -22.179  85.886  1.00  0.00    -0.550 OA
ATOM     11  O   UNL     1     -14.993 -24.446  85.592  1.00  0.00    -0.550 OA
ENDBRANCH   8   9
ENDBRANCH   7   8
ENDBRANCH   6   7
ENDBRANCH   5   6
ENDBRANCH   4   5
ENDBRANCH   3   4
ENDBRANCH   2   3
ENDBRANCH   1   2
BRANCH   1  12
ATOM     12  C   UNL     1     -17.254 -23.826  82.179  1.00  0.00     0.000 C 
BRANCH  12  13
ATOM     13  C   UNL     1     -15.991 -24.709  82.123  1.00  0.00    -0.000 C 
BRANCH  13  14
ATOM     14  C   UNL     1     -15.840 -25.555  80.843  1.00  0.00    -0.000 C 
BRANCH  14  15
ATOM     15  C   UNL     1     -16.165 -24.815  79.533  1.00  0.00    -0.000 C 
BRANCH  15  16
ATOM     16  C   UNL     1     -14.973 -24.760  78.566  1.00  0.00    -0.000 C 
BRANCH  16  17
ATOM     17  C   UNL     1     -15.197 -23.700  77.478  1.00  0.00    -0.000 C 
BRANCH  17  18
ATOM     18  C   UNL     1     -16.474 -22.871  77.703  1.00  0.00    -0.000 C 
BRANCH  18  19
ATOM     19  C   UNL     1     -16.413 -21.431  77.165  1.00  0.00    -0.003 C 
ATOM     20  C   UNL     1     -17.577 -20.563  77.641  1.00  0.00     0.004 C 
ENDBRANCH  18  19
ENDBRANCH  17  18
ENDBRANCH  16  17
ENDBRANCH  15  16
ENDBRANCH  14  15
ENDBRANCH  13  14
ENDBRANCH  12  13
ENDBRANCH   1  12
TORSDOF 16
ENDMDL
MODEL 4
REMARK VINA RESULT:    -0.970      1.465      3.457
REMARK INTER + INTRA:          -4.725
REMARK INTER:                  -1.885
REMARK INTRA:                  -2.840
REMARK UNBOUND:                -2.848
REMARK SMILES CCCCCCCCCCCCCCCCCC(=O)[O-]
REMARK SMILES IDX 10 1 11 2 12 3 13 4 14 5 15 6 16 7 17 8 18 9 19 10 20 11
REMARK SMILES IDX 9 12 8 13 7 14 6 15 5 16 4 17 3 18 2 19 1 20
REMARK H PARENT
REMARK Flexibility Score: inf
ROOT
ATOM      1  C   UNL     1     -16.628 -23.391  81.520  1.00  0.00     0.000 C 
ENDROOT
BRANCH   1   2
ATOM      2  C   UNL     1     -16.984 -22.869  82.922  1.00  0.00     0.000 C 
BRANCH   2   3
ATOM      3  C   UNL     1     -17.525 -23.975  83.842  1.00  0.00     0.000 C 
BRANCH   3   4
ATOM      4  C   UNL     1     -17.540 -23.554  85.322  1.00  0.00     0.000 C 
BRANCH   4   5
ATOM      5  C   UNL     1     -18.880 -23.856  86.017  1.00  0.00     0.000 C 
BRANCH   5   6
ATOM      6  C   UNL     1     -20.112 -23.843  85.093  1.00  0.00     0.000 C 
BRANCH   6   7
ATOM      7  C   UNL     1     -20.842 -22.489  85.088  1.00  0.00     0.006 C 
BRANCH   7   8
ATOM      8  C   UNL     1     -20.550 -21.679  83.818  1.00  0.00     0.053 C 
BRANCH   8   9
ATOM      9  C   UNL     1     -19.584 -20.565  84.082  1.00  0.00     0.041 C 
ATOM     10  O   UNL     1     -19.182 -20.338  85.253  1.00  0.00    -0.550 OA
ATOM     11  O   UNL     1     -19.156 -19.754  83.038  1.00  0.00    -0.550 OA
ENDBRANCH   8   9
ENDBRANCH   7   8
ENDBRANCH   6   7
ENDBRANCH   5   6
ENDBRANCH   4   5
ENDBRANCH   3   4
ENDBRANCH   2   3
ENDBRANCH   1   2
BRANCH   1  12
ATOM     12  C   UNL     1     -15.414 -22.669  80.905  1.00  0.00     0.000 C 
BRANCH  12  13
ATOM     13  C   UNL     1     -14.054 -23.356  81.146  1.00  0.00    -0.000 C 
BRANCH  13  14
ATOM     14  C   UNL     1     -12.977 -22.465  81.797  1.00  0.00    -0.000 C 
BRANCH  14  15
ATOM     15  C   UNL     1     -13.522 -21.330  82.683  1.00  0.00    -0.000 C 
BRANCH  15  16
ATOM     16  C   UNL     1     -13.064 -21.441  84.144  1.00  0.00    -0.000 C 
BRANCH  16  17
ATOM     17  C   UNL     1     -14.089 -22.217  84.983  1.00  0.00    -0.000 C 
BRANCH  17  18
ATOM     18  C   UNL     1     -13.563 -23.584  85.458  1.00  0.00    -0.000 C 
BRANCH  18  19
ATOM     19  C   UNL     1     -14.030 -24.784  84.616  1.00  0.00    -0.003 C 
ATOM     20  C   UNL     1     -12.876 -25.537  83.956  1.00  0.00     0.004 C 
ENDBRANCH  18  19
ENDBRANCH  17  18
ENDBRANCH  16  17
ENDBRANCH  15  16
ENDBRANCH  14  15
ENDBRANCH  13  14
ENDBRANCH  12  13
ENDBRANCH   1  12
TORSDOF 16
ENDMDL
MODEL 5
REMARK VINA RESULT:    -0.968      8.108      9.708
REMARK INTER + INTRA:          -4.722
REMARK INTER:                  -1.533
REMARK INTRA:                  -3.189
REMARK UNBOUND:                -2.848
REMARK SMILES CCCCCCCCCCCCCCCCCC(=O)[O-]
REMARK SMILES IDX 10 1 11 2 12 3 13 4 14 5 15 6 16 7 17 8 18 9 19 10 20 11
REMARK SMILES IDX 9 12 8 13 7 14 6 15 5 16 4 17 3 18 2 19 1 20
REMARK H PARENT
REMARK Flexibility Score: inf
ROOT
ATOM      1  C   UNL     1     -13.815 -14.284  82.454  1.00  0.00     0.000 C 
ENDROOT
BRANCH   1   2
ATOM      2  C   UNL     1     -13.655 -14.650  83.940  1.00  0.00     0.000 C 
BRANCH   2   3
ATOM      3  C   UNL     1     -13.081 -13.492  84.773  1.00  0.00     0.000 C 
BRANCH   3   4
ATOM      4  C   UNL     1     -14.126 -12.872  85.717  1.00  0.00     0.000 C 
BRANCH   4   5
ATOM      5  C   UNL     1     -15.439 -13.676  85.769  1.00  0.00     0.000 C 
BRANCH   5   6
ATOM      6  C   UNL     1     -16.715 -12.859  85.497  1.00  0.00     0.000 C 
BRANCH   6   7
ATOM      7  C   UNL     1     -17.657 -13.536  84.487  1.00  0.00     0.006 C 
BRANCH   7   8
ATOM      8  C   UNL     1     -17.231 -14.976  84.175  1.00  0.00     0.053 C 
BRANCH   8   9
ATOM      9  C   UNL     1     -18.377 -15.932  84.301  1.00  0.00     0.041 C 
ATOM     10  O   UNL     1     -19.118 -15.903  85.318  1.00  0.00    -0.550 OA
ATOM     11  O   UNL     1     -18.605 -16.880  83.310  1.00  0.00    -0.550 OA
ENDBRANCH   8   9
ENDBRANCH   7   8
ENDBRANCH   6   7
ENDBRANCH   5   6
ENDBRANCH   4   5
ENDBRANCH   3   4
ENDBRANCH   2   3
ENDBRANCH   1   2
BRANCH   1  12
ATOM     12  C   UNL     1     -13.038 -13.011  82.068  1.00  0.00     0.000 C 
BRANCH  12  13
ATOM     13  C   UNL     1     -13.906 -11.853  81.537  1.00  0.00    -0.000 C 
BRANCH  13  14
ATOM     14  C   UNL     1     -15.289 -11.712  82.202  1.00  0.00    -0.000 C 
BRANCH  14  15
ATOM     15  C   UNL     1     -16.488 -11.956  81.267  1.00  0.00    -0.000 C 
BRANCH  15  16
ATOM     16  C   UNL     1     -16.064 -12.383  79.854  1.00  0.00    -0.000 C 
BRANCH  16  17
ATOM     17  C   UNL     1     -16.455 -13.842  79.581  1.00  0.00    -0.000 C 
BRANCH  17  18
ATOM     18  C   UNL     1     -17.289 -14.462  80.718  1.00  0.00    -0.000 C 
BRANCH  18  19
ATOM     19  C   UNL     1     -18.754 -14.761  80.356  1.00  0.00    -0.003 C 
ATOM     20  C   UNL     1     -19.751 -14.119  81.320  1.00  0.00     0.004 C 
ENDBRANCH  18  19
ENDBRANCH  17  18
ENDBRANCH  16  17
ENDBRANCH  15  16
ENDBRANCH  14  15
ENDBRANCH  13  14
ENDBRANCH  12  13
ENDBRANCH   1  12
TORSDOF 16
ENDMDL
MODEL 6
REMARK VINA RESULT:    -0.962      2.296      5.216
REMARK INTER + INTRA:          -4.711
REMARK INTER:                  -1.680
REMARK INTRA:                  -3.030
REMARK UNBOUND:                -2.848
REMARK SMILES CCCCCCCCCCCCCCCCCC(=O)[O-]
REMARK SMILES IDX 10 1 11 2 12 3 13 4 14 5 15 6 16 7 17 8 18 9 19 10 20 11
REMARK SMILES IDX 9 12 8 13 7 14 6 15 5 16 4 17 3 18 2 19 1 20
REMARK H PARENT
REMARK Flexibility Score: inf
ROOT
ATOM      1  C   UNL     1     -17.594 -22.308  82.809  1.00  0.00     0.000 C 
ENDROOT
BRANCH   1   2
ATOM      2  C   UNL     1     -17.287 -21.659  81.448  1.00  0.00     0.000 C 
BRANCH   2   3
ATOM      3  C   UNL     1     -15.785 -21.399  81.246  1.00  0.00     0.000 C 
BRANCH   3   4
ATOM      4  C   UNL     1     -15.284 -21.880  79.873  1.00  0.00     0.000 C 
BRANCH   4   5
ATOM      5  C   UNL     1     -15.826 -23.269  79.490  1.00  0.00     0.000 C 
BRANCH   5   6
ATOM      6  C   UNL     1     -16.619 -23.319  78.171  1.00  0.00     0.000 C 
BRANCH   6   7
ATOM      7  C   UNL     1     -18.100 -23.679  78.375  1.00  0.00     0.006 C 
BRANCH   7   8
ATOM      8  C   UNL     1     -18.294 -24.724  79.482  1.00  0.00     0.053 C 
BRANCH   8   9
ATOM      9  C   UNL     1     -19.508 -24.433  80.310  1.00  0.00     0.041 C 
ATOM     10  O   UNL     1     -20.200 -23.406  80.084  1.00  0.00    -0.550 OA
ATOM     11  O   UNL     1     -19.854 -25.279  81.357  1.00  0.00    -0.550 OA
ENDBRANCH   8   9
ENDBRANCH   7   8
ENDBRANCH   6   7
ENDBRANCH   5   6
ENDBRANCH   4   5
ENDBRANCH   3   4
ENDBRANCH   2   3
ENDBRANCH   1   2
BRANCH   1  12
ATOM     12  C   UNL     1     -17.002 -23.724  82.941  1.00  0.00     0.000 C 
BRANCH  12  13
ATOM     13  C   UNL     1     -16.444 -24.070  84.336  1.00  0.00    -0.000 C 
BRANCH  13  14
ATOM     14  C   UNL     1     -16.732 -23.027  85.435  1.00  0.00    -0.000 C 
BRANCH  14  15
ATOM     15  C   UNL     1     -15.483 -22.358  86.037  1.00  0.00    -0.000 C 
BRANCH  15  16
ATOM     16  C   UNL     1     -14.173 -22.887  85.434  1.00  0.00    -0.000 C 
BRANCH  16  17
ATOM     17  C   UNL     1     -13.558 -21.859  84.473  1.00  0.00    -0.000 C 
BRANCH  17  18
ATOM     18  C   UNL     1     -12.980 -22.502  83.199  1.00  0.00    -0.000 C 
BRANCH  18  19
ATOM     19  C   UNL     1     -12.875 -24.036  83.238  1.00  0.00    -0.003 C 
ATOM     20  C   UNL     1     -13.513 -24.711  82.025  1.00  0.00     0.004 C 
ENDBRANCH  18  19
ENDBRANCH  17  18
ENDBRANCH  16  17
ENDBRANCH  15  16
ENDBRANCH  14  15
ENDBRANCH  13  14
ENDBRANCH  12  13
ENDBRANCH   1  12
TORSDOF 16
ENDMDL
MODEL 7
REMARK VINA RESULT:    -0.879      7.524      9.961
REMARK INTER + INTRA:          -4.549
REMARK INTER:                  -1.309
REMARK INTRA:                  -3.240
REMARK UNBOUND:                -2.848
REMARK SMILES CCCCCCCCCCCCCCCCCC(=O)[O-]
REMARK SMILES IDX 10 1 11 2 12 3 13 4 14 5 15 6 16 7 17 8 18 9 19 10 20 11
REMARK SMILES IDX 9 12 8 13 7 14 6 15 5 16 4 17 3 18 2 19 1 20
REMARK H PARENT
REMARK Flexibility Score: inf
ROOT
ATOM      1  C   UNL     1     -18.388 -15.080  85.458  1.00  0.00     0.000 C 
ENDROOT
BRANCH   1   2
ATOM      2  C   UNL     1     -18.562 -16.573  85.789  1.00  0.00     0.000 C 
BRANCH   2   3
ATOM      3  C   UNL     1     -19.345 -17.328  84.703  1.00  0.00     0.000 C 
BRANCH   3   4
ATOM      4  C   UNL     1     -20.007 -16.379  83.688  1.00  0.00     0.000 C 
BRANCH   4   5
ATOM      5  C   UNL     1     -19.655 -16.722  82.229  1.00  0.00     0.000 C 
BRANCH   5   6
ATOM      6  C   UNL     1     -18.506 -17.732  82.056  1.00  0.00     0.000 C 
BRANCH   6   7
ATOM      7  C   UNL     1     -17.927 -17.743  80.630  1.00  0.00     0.006 C 
BRANCH   7   8
ATOM      8  C   UNL     1     -17.867 -16.337  80.019  1.00  0.00     0.053 C 
BRANCH   8   9
ATOM      9  C   UNL     1     -16.513 -16.038  79.451  1.00  0.00     0.041 C 
ATOM     10  O   UNL     1     -15.496 -16.058  80.192  1.00  0.00    -0.550 OA
ATOM     11  O   UNL     1     -16.381 -15.702  78.109  1.00  0.00    -0.550 OA
ENDBRANCH   8   9
ENDBRANCH   7   8
ENDBRANCH   6   7
ENDBRANCH   5   6
ENDBRANCH   4   5
ENDBRANCH   3   4
ENDBRANCH   2   3
ENDBRANCH   1   2
BRANCH   1  12
ATOM     12  C   UNL     1     -16.974 -14.560  85.780  1.00  0.00     0.000 C 
BRANCH  12  13
ATOM     13  C   UNL     1     -16.108 -14.218  84.551  1.00  0.00    -0.000 C 
BRANCH  13  14
ATOM     14  C   UNL     1     -16.715 -14.617  83.191  1.00  0.00    -0.000 C 
BRANCH  14  15
ATOM     15  C   UNL     1     -17.009 -13.441  82.242  1.00  0.00    -0.000 C 
BRANCH  15  16
ATOM     16  C   UNL     1     -18.513 -13.217  82.018  1.00  0.00    -0.000 C 
BRANCH  16  17
ATOM     17  C   UNL     1     -19.099 -12.306  83.106  1.00  0.00    -0.000 C 
BRANCH  17  18
ATOM     18  C   UNL     1     -18.149 -11.162  83.506  1.00  0.00    -0.000 C 
BRANCH  18  19
ATOM     19  C   UNL     1     -17.955 -10.983  85.022  1.00  0.00    -0.003 C 
ATOM     20  C   UNL     1     -19.140 -11.491  85.841  1.00  0.00     0.004 C 
ENDBRANCH  18  19
ENDBRANCH  17  18
ENDBRANCH  16  17
ENDBRANCH  15  16
ENDBRANCH  14  15
ENDBRANCH  13  14
ENDBRANCH  12  13
ENDBRANCH   1  12
TORSDOF 16
ENDMDL
MODEL 8
REMARK VINA RESULT:    -0.870      2.503      4.519
REMARK INTER + INTRA:          -4.531
REMARK INTER:                  -1.649
REMARK INTRA:                  -2.883
REMARK UNBOUND:                -2.848
REMARK SMILES CCCCCCCCCCCCCCCCCC(=O)[O-]
REMARK SMILES IDX 10 1 11 2 12 3 13 4 14 5 15 6 16 7 17 8 18 9 19 10 20 11
REMARK SMILES IDX 9 12 8 13 7 14 6 15 5 16 4 17 3 18 2 19 1 20
REMARK H PARENT
REMARK Flexibility Score: inf
ROOT
ATOM      1  C   UNL     1     -14.603 -25.999  83.213  1.00  0.00     0.000 C 
ENDROOT
BRANCH   1   2
ATOM      2  C   UNL     1     -15.768 -25.911  82.212  1.00  0.00     0.000 C 
BRANCH   2   3
ATOM      3  C   UNL     1     -17.123 -25.700  82.905  1.00  0.00     0.000 C 
BRANCH   3   4
ATOM      4  C   UNL     1     -17.848 -24.436  82.408  1.00  0.00     0.000 C 
BRANCH   4   5
ATOM      5  C   UNL     1     -18.108 -23.414  83.529  1.00  0.00     0.000 C 
BRANCH   5   6
ATOM      6  C   UNL     1     -18.318 -21.964  83.054  1.00  0.00     0.000 C 
BRANCH   6   7
ATOM      7  C   UNL     1     -17.863 -21.737  81.603  1.00  0.00     0.006 C 
BRANCH   7   8
ATOM      8  C   UNL     1     -18.398 -20.419  81.028  1.00  0.00     0.053 C 
BRANCH   8   9
ATOM      9  C   UNL     1     -17.309 -19.402  80.870  1.00  0.00     0.041 C 
ATOM     10  O   UNL     1     -17.593 -18.179  80.774  1.00  0.00    -0.550 OA
ATOM     11  O   UNL     1     -15.983 -19.810  80.792  1.00  0.00    -0.550 OA
ENDBRANCH   8   9
ENDBRANCH   7   8
ENDBRANCH   6   7
ENDBRANCH   5   6
ENDBRANCH   4   5
ENDBRANCH   3   4
ENDBRANCH   2   3
ENDBRANCH   1   2
BRANCH   1  12
ATOM     12  C   UNL     1     -15.078 -26.209  84.663  1.00  0.00     0.000 C 
BRANCH  12  13
ATOM     13  C   UNL     1     -14.623 -25.126  85.662  1.00  0.00    -0.000 C 
BRANCH  13  14
ATOM     14  C   UNL     1     -15.526 -23.879  85.733  1.00  0.00    -0.000 C 
BRANCH  14  15
ATOM     15  C   UNL     1     -14.776 -22.536  85.783  1.00  0.00    -0.000 C 
BRANCH  15  16
ATOM     16  C   UNL     1     -13.817 -22.344  84.598  1.00  0.00    -0.000 C 
BRANCH  16  17
ATOM     17  C   UNL     1     -14.586 -22.321  83.269  1.00  0.00    -0.000 C 
BRANCH  17  18
ATOM     18  C   UNL     1     -13.676 -22.063  82.054  1.00  0.00    -0.000 C 
BRANCH  18  19
ATOM     19  C   UNL     1     -13.653 -23.195  81.012  1.00  0.00    -0.003 C 
ATOM     20  C   UNL     1     -14.779 -23.086  79.986  1.00  0.00     0.004 C 
ENDBRANCH  18  19
ENDBRANCH  17  18
ENDBRANCH  16  17
ENDBRANCH  15  16
ENDBRANCH  14  15
ENDBRANCH  13  14
ENDBRANCH  12  13
ENDBRANCH   1  12
TORSDOF 16
ENDMDL
MODEL 9
REMARK VINA RESULT:    -0.841      7.919     10.652
REMARK INTER + INTRA:          -4.475
REMARK INTER:                  -1.228
REMARK INTRA:                  -3.247
REMARK UNBOUND:                -2.848
REMARK SMILES CCCCCCCCCCCCCCCCCC(=O)[O-]
REMARK SMILES IDX 10 1 11 2 12 3 13 4 14 5 15 6 16 7 17 8 18 9 19 10 20 11
REMARK SMILES IDX 9 12 8 13 7 14 6 15 5 16 4 17 3 18 2 19 1 20
REMARK H PARENT
REMARK Flexibility Score: inf
ROOT
ATOM      1  C   UNL     1     -18.894 -17.086  84.705  1.00  0.00     0.000 C 
ENDROOT
BRANCH   1   2
ATOM      2  C   UNL     1     -20.191 -16.871  83.907  1.00  0.00     0.000 C 
BRANCH   2   3
ATOM      3  C   UNL     1     -19.924 -16.446  82.453  1.00  0.00     0.000 C 
BRANCH   3   4
ATOM      4  C   UNL     1     -18.484 -15.943  82.243  1.00  0.00     0.000 C 
BRANCH   4   5
ATOM      5  C   UNL     1     -18.408 -14.423  82.013  1.00  0.00     0.000 C 
BRANCH   5   6
ATOM      6  C   UNL     1     -17.452 -13.667  82.954  1.00  0.00     0.000 C 
BRANCH   6   7
ATOM      7  C   UNL     1     -16.423 -14.590  83.630  1.00  0.00     0.006 C 
BRANCH   7   8
ATOM      8  C   UNL     1     -15.980 -14.058  84.999  1.00  0.00     0.053 C 
BRANCH   8   9
ATOM      9  C   UNL     1     -14.509 -13.777  85.034  1.00  0.00     0.041 C 
ATOM     10  O   UNL     1     -14.072 -12.757  85.630  1.00  0.00    -0.550 OA
ATOM     11  O   UNL     1     -13.624 -14.622  84.376  1.00  0.00    -0.550 OA
ENDBRANCH   8   9
ENDBRANCH   7   8
ENDBRANCH   6   7
ENDBRANCH   5   6
ENDBRANCH   4   5
ENDBRANCH   3   4
ENDBRANCH   2   3
ENDBRANCH   1   2
BRANCH   1  12
ATOM     12  C   UNL     1     -18.817 -16.203  85.965  1.00  0.00     0.000 C 
BRANCH  12  13
ATOM     13  C   UNL     1     -19.950 -15.167  86.108  1.00  0.00    -0.000 C 
BRANCH  13  14
ATOM     14  C   UNL     1     -19.494 -13.695  86.113  1.00  0.00    -0.000 C 
BRANCH  14  15
ATOM     15  C   UNL     1     -20.457 -12.714  85.419  1.00  0.00    -0.000 C 
BRANCH  15  16
ATOM     16  C   UNL     1     -21.020 -13.265  84.100  1.00  0.00    -0.000 C 
BRANCH  16  17
ATOM     17  C   UNL     1     -22.548 -13.400  84.170  1.00  0.00    -0.000 C 
BRANCH  17  18
ATOM     18  C   UNL     1     -23.083 -14.593  83.358  1.00  0.00    -0.000 C 
BRANCH  18  19
ATOM     19  C   UNL     1     -24.044 -15.518  84.125  1.00  0.00    -0.003 C 
ATOM     20  C   UNL     1     -23.492 -15.968  85.476  1.00  0.00     0.004 C 
ENDBRANCH  18  19
ENDBRANCH  17  18
ENDBRANCH  16  17
ENDBRANCH  15  16
ENDBRANCH  14  15
ENDBRANCH  13  14
ENDBRANCH  12  13
ENDBRANCH   1  12
TORSDOF 16
ENDMDL
