MODEL 1
REMARK VINA RESULT:    -3.768      0.000      0.000
REMARK INTER + INTRA:         -13.075
REMARK INTER:                  -8.613
REMARK INTRA:                  -4.461
REMARK UNBOUND:                -4.461
REMARK SMILES CCCCCCCCCCCCCCCCCCCCCCCC(=O)[O-]
REMARK SMILES IDX 13 1 14 2 15 3 16 4 17 5 18 6 19 7 20 8 21 9 22 10 23 11
REMARK SMILES IDX 24 12 25 13 26 14 12 15 11 16 10 17 9 18 8 19 7 20 6 21 5 22
REMARK SMILES IDX 4 23 3 24 2 25 1 26
REMARK H PARENT
REMARK Flexibility Score: inf
ROOT
ATOM      1  C   UNL     1      -9.210   8.485 -17.562  1.00  0.00     0.000 C 
ENDROOT
BRANCH   1   2
ATOM      2  C   UNL     1      -8.594   7.676 -18.712  1.00  0.00     0.000 C 
BRANCH   2   3
ATOM      3  C   UNL     1      -7.069   7.578 -18.556  1.00  0.00     0.000 C 
BRANCH   3   4
ATOM      4  C   UNL     1      -6.316   8.108 -19.785  1.00  0.00     0.000 C 
BRANCH   4   5
ATOM      5  C   UNL     1      -6.068   9.625 -19.716  1.00  0.00     0.000 C 
BRANCH   5   6
ATOM      6  C   UNL     1      -5.746  10.103 -18.292  1.00  0.00     0.000 C 
BRANCH   6   7
ATOM      7  C   UNL     1      -6.338  11.492 -17.991  1.00  0.00     0.000 C 
BRANCH   7   8
ATOM      8  C   UNL     1      -7.025  11.551 -16.616  1.00  0.00     0.000 C 
BRANCH   8   9
ATOM      9  C   UNL     1      -6.709  10.319 -15.751  1.00  0.00     0.000 C 
BRANCH   9  10
ATOM     10  C   UNL     1      -6.131  10.693 -14.377  1.00  0.00     0.006 C 
BRANCH  10  11
ATOM     11  C   UNL     1      -4.894   9.864 -14.006  1.00  0.00     0.053 C 
BRANCH  11  12
ATOM     12  C   UNL     1      -3.821  10.036 -15.035  1.00  0.00     0.041 C 
ATOM     13  O   UNL     1      -3.372   9.035 -15.655  1.00  0.00    -0.550 OA
ATOM     14  O   UNL     1      -3.350  11.305 -15.344  1.00  0.00    -0.550 OA
ENDBRANCH  11  12
ENDBRANCH  10  11
ENDBRANCH   9  10
ENDBRANCH   8   9
ENDBRANCH   7   8
ENDBRANCH   6   7
ENDBRANCH   5   6
ENDBRANCH   4   5
ENDBRANCH   3   4
ENDBRANCH   2   3
ENDBRANCH   1   2
BRANCH   1  15
ATOM     15  C   UNL     1      -9.924   9.762 -18.042  1.00  0.00     0.000 C 
BRANCH  15  16
ATOM     16  C   UNL     1      -9.790  10.055 -19.551  1.00  0.00     0.000 C 
BRANCH  16  17
ATOM     17  C   UNL     1     -11.069   9.832 -20.381  1.00  0.00     0.000 C 
BRANCH  17  18
ATOM     18  C   UNL     1     -12.284   9.323 -19.585  1.00  0.00    -0.000 C 
BRANCH  18  19
ATOM     19  C   UNL     1     -12.811   7.975 -20.104  1.00  0.00    -0.000 C 
BRANCH  19  20
ATOM     20  C   UNL     1     -12.014   6.771 -19.570  1.00  0.00    -0.000 C 
BRANCH  20  21
ATOM     21  C   UNL     1     -11.923   5.564 -20.525  1.00  0.00    -0.000 C 
BRANCH  21  22
ATOM     22  C   UNL     1     -10.529   4.923 -20.643  1.00  0.00    -0.000 C 
BRANCH  22  23
ATOM     23  C   UNL     1      -9.742   5.429 -21.867  1.00  0.00    -0.000 C 
BRANCH  23  24
ATOM     24  C   UNL     1     -10.647   6.154 -22.886  1.00  0.00    -0.000 C 
BRANCH  24  25
ATOM     25  C   UNL     1     -10.180   7.578 -23.229  1.00  0.00    -0.003 C 
ATOM     26  C   UNL     1      -8.864   7.958 -22.555  1.00  0.00     0.004 C 
ENDBRANCH  24  25
ENDBRANCH  23  24
ENDBRANCH  22  23
ENDBRANCH  21  22
ENDBRANCH  20  21
ENDBRANCH  19  20
ENDBRANCH  18  19
ENDBRANCH  17  18
ENDBRANCH  16  17
ENDBRANCH  15  16
ENDBRANCH   1  15
TORSDOF 22
ENDMDL
MODEL 2
REMARK VINA RESULT:    -3.741      1.434      3.194
REMARK INTER + INTRA:         -13.014
REMARK INTER:                  -8.716
REMARK INTRA:                  -4.297
REMARK UNBOUND:                -4.461
REMARK SMILES CCCCCCCCCCCCCCCCCCCCCCCC(=O)[O-]
REMARK SMILES IDX 13 1 14 2 15 3 16 4 17 5 18 6 19 7 20 8 21 9 22 10 23 11
REMARK SMILES IDX 24 12 25 13 26 14 12 15 11 16 10 17 9 18 8 19 7 20 6 21 5 22
REMARK SMILES IDX 4 23 3 24 2 25 1 26
REMARK H PARENT
REMARK Flexibility Score: inf
ROOT
ATOM      1  C   UNL     1      -8.462   6.393 -19.872  1.00  0.00     0.000 C 
ENDROOT
BRANCH   1   2
ATOM      2  C   UNL     1      -7.350   6.937 -18.962  1.00  0.00     0.000 C 
BRANCH   2   3
ATOM      3  C   UNL     1      -7.857   8.125 -18.131  1.00  0.00     0.000 C 
BRANCH   3   4
ATOM      4  C   UNL     1      -6.848   9.282 -18.081  1.00  0.00     0.000 C 
BRANCH   4   5
ATOM      5  C   UNL     1      -7.499  10.614 -17.668  1.00  0.00     0.000 C 
BRANCH   5   6
ATOM      6  C   UNL     1      -8.682  10.417 -16.708  1.00  0.00     0.000 C 
BRANCH   6   7
ATOM      7  C   UNL     1      -8.262  10.521 -15.231  1.00  0.00     0.000 C 
BRANCH   7   8
ATOM      8  C   UNL     1      -7.022  11.409 -15.034  1.00  0.00     0.000 C 
BRANCH   8   9
ATOM      9  C   UNL     1      -6.005  10.785 -14.062  1.00  0.00     0.000 C 
BRANCH   9  10
ATOM     10  C   UNL     1      -4.882  10.028 -14.788  1.00  0.00     0.006 C 
BRANCH  10  11
ATOM     11  C   UNL     1      -4.232  10.856 -15.904  1.00  0.00     0.053 C 
BRANCH  11  12
ATOM     12  C   UNL     1      -3.141  10.076 -16.569  1.00  0.00     0.041 C 
ATOM     13  O   UNL     1      -1.943  10.453 -16.469  1.00  0.00    -0.550 OA
ATOM     14  O   UNL     1      -3.441   8.908 -17.256  1.00  0.00    -0.550 OA
ENDBRANCH  11  12
ENDBRANCH  10  11
ENDBRANCH   9  10
ENDBRANCH   8   9
ENDBRANCH   7   8
ENDBRANCH   6   7
ENDBRANCH   5   6
ENDBRANCH   4   5
ENDBRANCH   3   4
ENDBRANCH   2   3
ENDBRANCH   1   2
BRANCH   1  15
ATOM     15  C   UNL     1      -8.190   6.648 -21.367  1.00  0.00     0.000 C 
BRANCH  15  16
ATOM     16  C   UNL     1      -6.951   7.517 -21.665  1.00  0.00     0.000 C 
BRANCH  16  17
ATOM     17  C   UNL     1      -7.243   9.005 -21.945  1.00  0.00     0.000 C 
BRANCH  17  18
ATOM     18  C   UNL     1      -8.736   9.372 -22.028  1.00  0.00    -0.000 C 
BRANCH  18  19
ATOM     19  C   UNL     1      -9.178  10.318 -20.900  1.00  0.00    -0.000 C 
BRANCH  19  20
ATOM     20  C   UNL     1     -10.681  10.219 -20.586  1.00  0.00    -0.000 C 
BRANCH  20  21
ATOM     21  C   UNL     1     -11.042   9.397 -19.332  1.00  0.00    -0.000 C 
BRANCH  21  22
ATOM     22  C   UNL     1     -12.303   8.524 -19.460  1.00  0.00    -0.000 C 
BRANCH  22  23
ATOM     23  C   UNL     1     -12.018   7.028 -19.232  1.00  0.00    -0.000 C 
BRANCH  23  24
ATOM     24  C   UNL     1     -12.153   6.202 -20.529  1.00  0.00    -0.000 C 
BRANCH  24  25
ATOM     25  C   UNL     1     -12.566   7.033 -21.755  1.00  0.00    -0.003 C 
ATOM     26  C   UNL     1     -11.520   7.025 -22.866  1.00  0.00     0.004 C 
ENDBRANCH  24  25
ENDBRANCH  23  24
ENDBRANCH  22  23
ENDBRANCH  21  22
ENDBRANCH  20  21
ENDBRANCH  19  20
ENDBRANCH  18  19
ENDBRANCH  17  18
ENDBRANCH  16  17
ENDBRANCH  15  16
ENDBRANCH   1  15
TORSDOF 22
ENDMDL
MODEL 3
REMARK VINA RESULT:    -3.731      1.887      3.529
REMARK INTER + INTRA:         -12.991
REMARK INTER:                  -8.802
REMARK INTRA:                  -4.188
REMARK UNBOUND:                -4.461
REMARK SMILES CCCCCCCCCCCCCCCCCCCCCCCC(=O)[O-]
REMARK SMILES IDX 13 1 14 2 15 3 16 4 17 5 18 6 19 7 20 8 21 9 22 10 23 11
REMARK SMILES IDX 24 12 25 13 26 14 12 15 11 16 10 17 9 18 8 19 7 20 6 21 5 22
REMARK SMILES IDX 4 23 3 24 2 25 1 26
REMARK H PARENT
REMARK Flexibility Score: inf
ROOT
ATOM      1  C   UNL     1     -11.092   9.234 -18.870  1.00  0.00     0.000 C 
ENDROOT
BRANCH   1   2
ATOM      2  C   UNL     1      -9.734   8.586 -18.563  1.00  0.00     0.000 C 
BRANCH   2   3
ATOM      3  C   UNL     1      -9.831   7.055 -18.636  1.00  0.00     0.000 C 
BRANCH   3   4
ATOM      4  C   UNL     1      -8.672   6.428 -19.426  1.00  0.00     0.000 C 
BRANCH   4   5
ATOM      5  C   UNL     1      -7.296   6.928 -18.950  1.00  0.00     0.000 C 
BRANCH   5   6
ATOM      6  C   UNL     1      -6.566   7.748 -20.025  1.00  0.00     0.000 C 
BRANCH   6   7
ATOM      7  C   UNL     1      -5.710   8.876 -19.422  1.00  0.00     0.000 C 
BRANCH   7   8
ATOM      8  C   UNL     1      -5.117   8.496 -18.054  1.00  0.00     0.000 C 
BRANCH   8   9
ATOM      9  C   UNL     1      -5.500   9.500 -16.953  1.00  0.00     0.000 C 
BRANCH   9  10
ATOM     10  C   UNL     1      -6.744  10.327 -17.313  1.00  0.00     0.006 C 
BRANCH  10  11
ATOM     11  C   UNL     1      -6.928  11.550 -16.405  1.00  0.00     0.053 C 
BRANCH  11  12
ATOM     12  C   UNL     1      -7.072  11.126 -14.977  1.00  0.00     0.041 C 
ATOM     13  O   UNL     1      -6.253  11.531 -14.110  1.00  0.00    -0.550 OA
ATOM     14  O   UNL     1      -8.140  10.325 -14.595  1.00  0.00    -0.550 OA
ENDBRANCH  11  12
ENDBRANCH  10  11
ENDBRANCH   9  10
ENDBRANCH   8   9
ENDBRANCH   7   8
ENDBRANCH   6   7
ENDBRANCH   5   6
ENDBRANCH   4   5
ENDBRANCH   3   4
ENDBRANCH   2   3
ENDBRANCH   1   2
BRANCH   1  15
ATOM     15  C   UNL     1     -12.169   8.208 -19.268  1.00  0.00     0.000 C 
BRANCH  15  16
ATOM     16  C   UNL     1     -12.951   8.548 -20.553  1.00  0.00     0.000 C 
BRANCH  16  17
ATOM     17  C   UNL     1     -13.149   7.375 -21.534  1.00  0.00     0.000 C 
BRANCH  17  18
ATOM     18  C   UNL     1     -12.393   6.086 -21.169  1.00  0.00    -0.000 C 
BRANCH  18  19
ATOM     19  C   UNL     1     -11.151   5.859 -22.046  1.00  0.00    -0.000 C 
BRANCH  19  20
ATOM     20  C   UNL     1     -11.275   6.493 -23.442  1.00  0.00    -0.000 C 
BRANCH  20  21
ATOM     21  C   UNL     1     -10.268   7.620 -23.748  1.00  0.00    -0.000 C 
BRANCH  21  22
ATOM     22  C   UNL     1      -9.485   8.149 -22.533  1.00  0.00    -0.000 C 
BRANCH  22  23
ATOM     23  C   UNL     1      -9.799   9.623 -22.217  1.00  0.00    -0.000 C 
BRANCH  23  24
ATOM     24  C   UNL     1      -8.550  10.400 -21.749  1.00  0.00    -0.000 C 
BRANCH  24  25
ATOM     25  C   UNL     1      -7.337  10.247 -22.680  1.00  0.00    -0.003 C 
ATOM     26  C   UNL     1      -7.306  11.282 -23.802  1.00  0.00     0.004 C 
ENDBRANCH  24  25
ENDBRANCH  23  24
ENDBRANCH  22  23
ENDBRANCH  21  22
ENDBRANCH  20  21
ENDBRANCH  19  20
ENDBRANCH  18  19
ENDBRANCH  17  18
ENDBRANCH  16  17
ENDBRANCH  15  16
ENDBRANCH   1  15
TORSDOF 22
ENDMDL
MODEL 4
REMARK VINA RESULT:    -3.703      1.928      3.676
REMARK INTER + INTRA:         -12.928
REMARK INTER:                  -8.278
REMARK INTRA:                  -4.650
REMARK UNBOUND:                -4.461
REMARK SMILES CCCCCCCCCCCCCCCCCCCCCCCC(=O)[O-]
REMARK SMILES IDX 13 1 14 2 15 3 16 4 17 5 18 6 19 7 20 8 21 9 22 10 23 11
REMARK SMILES IDX 24 12 25 13 26 14 12 15 11 16 10 17 9 18 8 19 7 20 6 21 5 22
REMARK SMILES IDX 4 23 3 24 2 25 1 26
REMARK H PARENT
REMARK Flexibility Score: inf
ROOT
ATOM      1  C   UNL     1     -12.740   8.878 -20.049  1.00  0.00     0.000 C 
ENDROOT
BRANCH   1   2
ATOM      2  C   UNL     1     -11.588   9.396 -19.175  1.00  0.00     0.000 C 
BRANCH   2   3
ATOM      3  C   UNL     1     -10.497   8.327 -19.019  1.00  0.00     0.000 C 
BRANCH   3   4
ATOM      4  C   UNL     1      -9.825   8.367 -17.638  1.00  0.00     0.000 C 
BRANCH   4   5
ATOM      5  C   UNL     1      -8.298   8.530 -17.730  1.00  0.00     0.000 C 
BRANCH   5   6
ATOM      6  C   UNL     1      -7.888   9.831 -18.438  1.00  0.00     0.000 C 
BRANCH   6   7
ATOM      7  C   UNL     1      -6.367   9.927 -18.655  1.00  0.00     0.000 C 
BRANCH   7   8
ATOM      8  C   UNL     1      -5.614   8.717 -18.077  1.00  0.00     0.000 C 
BRANCH   8   9
ATOM      9  C   UNL     1      -4.678   9.109 -16.921  1.00  0.00     0.000 C 
BRANCH   9  10
ATOM     10  C   UNL     1      -4.988  10.504 -16.356  1.00  0.00     0.006 C 
BRANCH  10  11
ATOM     11  C   UNL     1      -5.733  10.450 -15.015  1.00  0.00     0.053 C 
BRANCH  11  12
ATOM     12  C   UNL     1      -7.063  11.128 -15.127  1.00  0.00     0.041 C 
ATOM     13  O   UNL     1      -7.144  12.289 -15.607  1.00  0.00    -0.550 OA
ATOM     14  O   UNL     1      -8.218  10.457 -14.747  1.00  0.00    -0.550 OA
ENDBRANCH  11  12
ENDBRANCH  10  11
ENDBRANCH   9  10
ENDBRANCH   8   9
ENDBRANCH   7   8
ENDBRANCH   6   7
ENDBRANCH   5   6
ENDBRANCH   4   5
ENDBRANCH   3   4
ENDBRANCH   2   3
ENDBRANCH   1   2
BRANCH   1  15
ATOM     15  C   UNL     1     -12.642   7.369 -20.336  1.00  0.00     0.000 C 
BRANCH  15  16
ATOM     16  C   UNL     1     -12.439   7.000 -21.820  1.00  0.00     0.000 C 
BRANCH  16  17
ATOM     17  C   UNL     1     -11.447   5.848 -22.083  1.00  0.00     0.000 C 
BRANCH  17  18
ATOM     18  C   UNL     1     -10.994   5.080 -20.829  1.00  0.00    -0.000 C 
BRANCH  18  19
ATOM     19  C   UNL     1      -9.498   4.727 -20.858  1.00  0.00    -0.000 C 
BRANCH  19  20
ATOM     20  C   UNL     1      -8.780   5.036 -19.532  1.00  0.00    -0.000 C 
BRANCH  20  21
ATOM     21  C   UNL     1      -7.448   5.800 -19.664  1.00  0.00    -0.000 C 
BRANCH  21  22
ATOM     22  C   UNL     1      -7.025   6.140 -21.104  1.00  0.00    -0.000 C 
BRANCH  22  23
ATOM     23  C   UNL     1      -7.085   7.650 -21.402  1.00  0.00    -0.000 C 
BRANCH  23  24
ATOM     24  C   UNL     1      -8.461   8.084 -21.951  1.00  0.00    -0.000 C 
BRANCH  24  25
ATOM     25  C   UNL     1      -8.618   9.606 -22.102  1.00  0.00    -0.003 C 
ATOM     26  C   UNL     1     -10.037  10.031 -22.470  1.00  0.00     0.004 C 
ENDBRANCH  24  25
ENDBRANCH  23  24
ENDBRANCH  22  23
ENDBRANCH  21  22
ENDBRANCH  20  21
ENDBRANCH  19  20
ENDBRANCH  18  19
ENDBRANCH  17  18
ENDBRANCH  16  17
ENDBRANCH  15  16
ENDBRANCH   1  15
TORSDOF 22
ENDMDL
MODEL 5
REMARK VINA RESULT:    -3.671      1.068      2.317
REMARK INTER + INTRA:         -12.854
REMARK INTER:                  -8.436
REMARK INTRA:                  -4.418
REMARK UNBOUND:                -4.461
REMARK SMILES CCCCCCCCCCCCCCCCCCCCCCCC(=O)[O-]
REMARK SMILES IDX 13 1 14 2 15 3 16 4 17 5 18 6 19 7 20 8 21 9 22 10 23 11
REMARK SMILES IDX 24 12 25 13 26 14 12 15 11 16 10 17 9 18 8 19 7 20 6 21 5 22
REMARK SMILES IDX 4 23 3 24 2 25 1 26
REMARK H PARENT
REMARK Flexibility Score: inf
ROOT
ATOM      1  C   UNL     1      -9.900   7.389 -18.469  1.00  0.00     0.000 C 
ENDROOT
BRANCH   1   2
ATOM      2  C   UNL     1      -8.728   6.743 -19.222  1.00  0.00     0.000 C 
BRANCH   2   3
ATOM      3  C   UNL     1      -7.386   7.299 -18.723  1.00  0.00     0.000 C 
BRANCH   3   4
ATOM      4  C   UNL     1      -6.479   7.770 -19.870  1.00  0.00     0.000 C 
BRANCH   4   5
ATOM      5  C   UNL     1      -5.640   9.002 -19.492  1.00  0.00     0.000 C 
BRANCH   5   6
ATOM      6  C   UNL     1      -6.035   9.584 -18.125  1.00  0.00     0.000 C 
BRANCH   6   7
ATOM      7  C   UNL     1      -6.467  11.059 -18.218  1.00  0.00     0.000 C 
BRANCH   7   8
ATOM      8  C   UNL     1      -6.629  11.711 -16.835  1.00  0.00     0.000 C 
BRANCH   8   9
ATOM      9  C   UNL     1      -7.242  10.748 -15.803  1.00  0.00     0.000 C 
BRANCH   9  10
ATOM     10  C   UNL     1      -6.399  10.638 -14.523  1.00  0.00     0.006 C 
BRANCH  10  11
ATOM     11  C   UNL     1      -4.960  11.137 -14.715  1.00  0.00     0.053 C 
BRANCH  11  12
ATOM     12  C   UNL     1      -3.989  10.007 -14.567  1.00  0.00     0.041 C 
ATOM     13  O   UNL     1      -4.222   8.897 -15.115  1.00  0.00    -0.550 OA
ATOM     14  O   UNL     1      -2.805  10.196 -13.867  1.00  0.00    -0.550 OA
ENDBRANCH  11  12
ENDBRANCH  10  11
ENDBRANCH   9  10
ENDBRANCH   8   9
ENDBRANCH   7   8
ENDBRANCH   6   7
ENDBRANCH   5   6
ENDBRANCH   4   5
ENDBRANCH   3   4
ENDBRANCH   2   3
ENDBRANCH   1   2
BRANCH   1  15
ATOM     15  C   UNL     1      -9.508   8.699 -17.760  1.00  0.00     0.000 C 
BRANCH  15  16
ATOM     16  C   UNL     1     -10.167   9.972 -18.332  1.00  0.00     0.000 C 
BRANCH  16  17
ATOM     17  C   UNL     1     -10.436   9.949 -19.849  1.00  0.00     0.000 C 
BRANCH  17  18
ATOM     18  C   UNL     1      -9.290  10.488 -20.724  1.00  0.00    -0.000 C 
BRANCH  18  19
ATOM     19  C   UNL     1      -8.859   9.494 -21.815  1.00  0.00    -0.000 C 
BRANCH  19  20
ATOM     20  C   UNL     1      -9.734   9.571 -23.079  1.00  0.00    -0.000 C 
BRANCH  20  21
ATOM     21  C   UNL     1     -10.034   8.219 -23.758  1.00  0.00    -0.000 C 
BRANCH  21  22
ATOM     22  C   UNL     1      -9.226   7.022 -23.225  1.00  0.00    -0.000 C 
BRANCH  22  23
ATOM     23  C   UNL     1     -10.113   5.952 -22.562  1.00  0.00    -0.000 C 
BRANCH  23  24
ATOM     24  C   UNL     1     -11.611   6.325 -22.602  1.00  0.00    -0.000 C 
BRANCH  24  25
ATOM     25  C   UNL     1     -12.202   6.671 -21.226  1.00  0.00    -0.003 C 
ATOM     26  C   UNL     1     -13.172   7.848 -21.267  1.00  0.00     0.004 C 
ENDBRANCH  24  25
ENDBRANCH  23  24
ENDBRANCH  22  23
ENDBRANCH  21  22
ENDBRANCH  20  21
ENDBRANCH  19  20
ENDBRANCH  18  19
ENDBRANCH  17  18
ENDBRANCH  16  17
ENDBRANCH  15  16
ENDBRANCH   1  15
TORSDOF 22
ENDMDL
MODEL 6
REMARK VINA RESULT:    -3.658      2.190      4.053
REMARK INTER + INTRA:         -12.825
REMARK INTER:                  -8.586
REMARK INTRA:                  -4.239
REMARK UNBOUND:                -4.461
REMARK SMILES CCCCCCCCCCCCCCCCCCCCCCCC(=O)[O-]
REMARK SMILES IDX 13 1 14 2 15 3 16 4 17 5 18 6 19 7 20 8 21 9 22 10 23 11
REMARK SMILES IDX 24 12 25 13 26 14 12 15 11 16 10 17 9 18 8 19 7 20 6 21 5 22
REMARK SMILES IDX 4 23 3 24 2 25 1 26
REMARK H PARENT
REMARK Flexibility Score: inf
ROOT
ATOM      1  C   UNL     1      -9.722   8.358 -18.109  1.00  0.00     0.000 C 
ENDROOT
BRANCH   1   2
ATOM      2  C   UNL     1      -8.444   9.011 -17.562  1.00  0.00     0.000 C 
BRANCH   2   3
ATOM      3  C   UNL     1      -8.753  10.381 -16.942  1.00  0.00     0.000 C 
BRANCH   3   4
ATOM      4  C   UNL     1      -8.419  10.438 -15.443  1.00  0.00     0.000 C 
BRANCH   4   5
ATOM      5  C   UNL     1      -7.188  11.311 -15.146  1.00  0.00     0.000 C 
BRANCH   5   6
ATOM      6  C   UNL     1      -5.989  10.486 -14.652  1.00  0.00     0.000 C 
BRANCH   6   7
ATOM      7  C   UNL     1      -4.794  10.550 -15.620  1.00  0.00     0.000 C 
BRANCH   7   8
ATOM      8  C   UNL     1      -4.322   9.154 -16.063  1.00  0.00     0.000 C 
BRANCH   8   9
ATOM      9  C   UNL     1      -4.866   8.767 -17.449  1.00  0.00     0.000 C 
BRANCH   9  10
ATOM     10  C   UNL     1      -4.507   9.795 -18.534  1.00  0.00     0.006 C 
BRANCH  10  11
ATOM     11  C   UNL     1      -5.571   9.892 -19.636  1.00  0.00     0.053 C 
BRANCH  11  12
ATOM     12  C   UNL     1      -4.926   9.917 -20.986  1.00  0.00     0.041 C 
ATOM     13  O   UNL     1      -4.141   8.994 -21.330  1.00  0.00    -0.550 OA
ATOM     14  O   UNL     1      -5.230  10.933 -21.883  1.00  0.00    -0.550 OA
ENDBRANCH  11  12
ENDBRANCH  10  11
ENDBRANCH   9  10
ENDBRANCH   8   9
ENDBRANCH   7   8
ENDBRANCH   6   7
ENDBRANCH   5   6
ENDBRANCH   4   5
ENDBRANCH   3   4
ENDBRANCH   2   3
ENDBRANCH   1   2
BRANCH   1  15
ATOM     15  C   UNL     1     -10.696   9.375 -18.731  1.00  0.00     0.000 C 
BRANCH  15  16
ATOM     16  C   UNL     1     -12.019   8.777 -19.251  1.00  0.00     0.000 C 
BRANCH  16  17
ATOM     17  C   UNL     1     -12.024   7.246 -19.428  1.00  0.00     0.000 C 
BRANCH  17  18
ATOM     18  C   UNL     1     -12.271   6.756 -20.866  1.00  0.00    -0.000 C 
BRANCH  18  19
ATOM     19  C   UNL     1     -12.124   7.877 -21.908  1.00  0.00    -0.000 C 
BRANCH  19  20
ATOM     20  C   UNL     1     -10.777   7.837 -22.651  1.00  0.00    -0.000 C 
BRANCH  20  21
ATOM     21  C   UNL     1      -9.829   9.019 -22.365  1.00  0.00    -0.000 C 
BRANCH  21  22
ATOM     22  C   UNL     1      -8.541   8.659 -21.605  1.00  0.00    -0.000 C 
BRANCH  22  23
ATOM     23  C   UNL     1      -8.346   7.140 -21.447  1.00  0.00    -0.000 C 
BRANCH  23  24
ATOM     24  C   UNL     1      -7.199   6.795 -20.473  1.00  0.00    -0.000 C 
BRANCH  24  25
ATOM     25  C   UNL     1      -7.551   5.689 -19.464  1.00  0.00    -0.003 C 
ATOM     26  C   UNL     1      -8.945   5.105 -19.677  1.00  0.00     0.004 C 
ENDBRANCH  24  25
ENDBRANCH  23  24
ENDBRANCH  22  23
ENDBRANCH  21  22
ENDBRANCH  20  21
ENDBRANCH  19  20
ENDBRANCH  18  19
ENDBRANCH  17  18
ENDBRANCH  16  17
ENDBRANCH  15  16
ENDBRANCH   1  15
TORSDOF 22
ENDMDL
MODEL 7
REMARK VINA RESULT:    -3.625      1.982      4.788
REMARK INTER + INTRA:         -12.747
REMARK INTER:                  -8.370
REMARK INTRA:                  -4.378
REMARK UNBOUND:                -4.461
REMARK SMILES CCCCCCCCCCCCCCCCCCCCCCCC(=O)[O-]
REMARK SMILES IDX 13 1 14 2 15 3 16 4 17 5 18 6 19 7 20 8 21 9 22 10 23 11
REMARK SMILES IDX 24 12 25 13 26 14 12 15 11 16 10 17 9 18 8 19 7 20 6 21 5 22
REMARK SMILES IDX 4 23 3 24 2 25 1 26
REMARK H PARENT
REMARK Flexibility Score: inf
ROOT
ATOM      1  C   UNL     1     -11.458   8.027 -22.570  1.00  0.00     0.000 C 
ENDROOT
BRANCH   1   2
ATOM      2  C   UNL     1     -12.737   7.636 -21.815  1.00  0.00     0.000 C 
BRANCH   2   3
ATOM      3  C   UNL     1     -12.770   8.287 -20.424  1.00  0.00     0.000 C 
BRANCH   3   4
ATOM      4  C   UNL     1     -12.152   7.392 -19.339  1.00  0.00     0.000 C 
BRANCH   4   5
ATOM      5  C   UNL     1     -10.797   7.923 -18.838  1.00  0.00     0.000 C 
BRANCH   5   6
ATOM      6  C   UNL     1     -10.801   9.447 -18.639  1.00  0.00     0.000 C 
BRANCH   6   7
ATOM      7  C   UNL     1      -9.441   9.978 -18.152  1.00  0.00     0.000 C 
BRANCH   7   8
ATOM      8  C   UNL     1      -8.439   8.848 -17.863  1.00  0.00     0.000 C 
BRANCH   8   9
ATOM      9  C   UNL     1      -6.982   9.288 -18.089  1.00  0.00     0.000 C 
BRANCH   9  10
ATOM     10  C   UNL     1      -6.718  10.726 -17.615  1.00  0.00     0.006 C 
BRANCH  10  11
ATOM     11  C   UNL     1      -6.108  10.785 -16.208  1.00  0.00     0.053 C 
BRANCH  11  12
ATOM     12  C   UNL     1      -7.070  11.409 -15.246  1.00  0.00     0.041 C 
ATOM     13  O   UNL     1      -6.858  12.567 -14.798  1.00  0.00    -0.550 OA
ATOM     14  O   UNL     1      -8.227  10.731 -14.882  1.00  0.00    -0.550 OA
ENDBRANCH  11  12
ENDBRANCH  10  11
ENDBRANCH   9  10
ENDBRANCH   8   9
ENDBRANCH   7   8
ENDBRANCH   6   7
ENDBRANCH   5   6
ENDBRANCH   4   5
ENDBRANCH   3   4
ENDBRANCH   2   3
ENDBRANCH   1   2
BRANCH   1  15
ATOM     15  C   UNL     1     -10.507   6.837 -22.793  1.00  0.00     0.000 C 
BRANCH  15  16
ATOM     16  C   UNL     1     -11.062   5.467 -22.352  1.00  0.00     0.000 C 
BRANCH  16  17
ATOM     17  C   UNL     1     -10.050   4.543 -21.646  1.00  0.00     0.000 C 
BRANCH  17  18
ATOM     18  C   UNL     1      -9.567   5.035 -20.270  1.00  0.00    -0.000 C 
BRANCH  18  19
ATOM     19  C   UNL     1      -8.067   4.784 -20.044  1.00  0.00    -0.000 C 
BRANCH  19  20
ATOM     20  C   UNL     1      -7.230   6.075 -20.069  1.00  0.00    -0.000 C 
BRANCH  20  21
ATOM     21  C   UNL     1      -7.032   6.707 -21.462  1.00  0.00    -0.000 C 
BRANCH  21  22
ATOM     22  C   UNL     1      -6.170   7.982 -21.489  1.00  0.00    -0.000 C 
BRANCH  22  23
ATOM     23  C   UNL     1      -6.868   9.159 -22.195  1.00  0.00    -0.000 C 
BRANCH  23  24
ATOM     24  C   UNL     1      -8.271   9.440 -21.616  1.00  0.00    -0.000 C 
BRANCH  24  25
ATOM     25  C   UNL     1      -8.640  10.933 -21.576  1.00  0.00    -0.003 C 
ATOM     26  C   UNL     1      -7.508  11.817 -21.061  1.00  0.00     0.004 C 
ENDBRANCH  24  25
ENDBRANCH  23  24
ENDBRANCH  22  23
ENDBRANCH  21  22
ENDBRANCH  20  21
ENDBRANCH  19  20
ENDBRANCH  18  19
ENDBRANCH  17  18
ENDBRANCH  16  17
ENDBRANCH  15  16
ENDBRANCH   1  15
TORSDOF 22
ENDMDL
MODEL 8
REMARK VINA RESULT:    -3.586      1.209      2.608
REMARK INTER + INTRA:         -12.659
REMARK INTER:                  -8.163
REMARK INTRA:                  -4.497
REMARK UNBOUND:                -4.461
REMARK SMILES CCCCCCCCCCCCCCCCCCCCCCCC(=O)[O-]
REMARK SMILES IDX 13 1 14 2 15 3 16 4 17 5 18 6 19 7 20 8 21 9 22 10 23 11
REMARK SMILES IDX 24 12 25 13 26 14 12 15 11 16 10 17 9 18 8 19 7 20 6 21 5 22
REMARK SMILES IDX 4 23 3 24 2 25 1 26
REMARK H PARENT
REMARK Flexibility Score: inf
ROOT
ATOM      1  C   UNL     1      -9.725   8.603 -18.509  1.00  0.00     0.000 C 
ENDROOT
BRANCH   1   2
ATOM      2  C   UNL     1      -8.558   9.073 -17.630  1.00  0.00     0.000 C 
BRANCH   2   3
ATOM      3  C   UNL     1      -7.224   8.514 -18.148  1.00  0.00     0.000 C 
BRANCH   3   4
ATOM      4  C   UNL     1      -6.329   9.601 -18.763  1.00  0.00     0.000 C 
BRANCH   4   5
ATOM      5  C   UNL     1      -6.791  11.022 -18.396  1.00  0.00     0.000 C 
BRANCH   5   6
ATOM      6  C   UNL     1      -5.642  11.893 -17.863  1.00  0.00     0.000 C 
BRANCH   6   7
ATOM      7  C   UNL     1      -5.921  12.430 -16.448  1.00  0.00     0.000 C 
BRANCH   7   8
ATOM      8  C   UNL     1      -7.278  11.958 -15.897  1.00  0.00     0.000 C 
BRANCH   8   9
ATOM      9  C   UNL     1      -7.123  10.908 -14.784  1.00  0.00     0.000 C 
BRANCH   9  10
ATOM     10  C   UNL     1      -5.804  11.058 -14.009  1.00  0.00     0.006 C 
BRANCH  10  11
ATOM     11  C   UNL     1      -5.066   9.725 -13.828  1.00  0.00     0.053 C 
BRANCH  11  12
ATOM     12  C   UNL     1      -4.050   9.537 -14.911  1.00  0.00     0.041 C 
ATOM     13  O   UNL     1      -2.900  10.037 -14.794  1.00  0.00    -0.550 OA
ATOM     14  O   UNL     1      -4.358   8.769 -16.027  1.00  0.00    -0.550 OA
ENDBRANCH  11  12
ENDBRANCH  10  11
ENDBRANCH   9  10
ENDBRANCH   8   9
ENDBRANCH   7   8
ENDBRANCH   6   7
ENDBRANCH   5   6
ENDBRANCH   4   5
ENDBRANCH   3   4
ENDBRANCH   2   3
ENDBRANCH   1   2
BRANCH   1  15
ATOM     15  C   UNL     1     -10.459   9.767 -19.201  1.00  0.00     0.000 C 
BRANCH  15  16
ATOM     16  C   UNL     1      -9.764  10.317 -20.464  1.00  0.00     0.000 C 
BRANCH  16  17
ATOM     17  C   UNL     1     -10.266   9.733 -21.799  1.00  0.00     0.000 C 
BRANCH  17  18
ATOM     18  C   UNL     1      -9.228   8.908 -22.581  1.00  0.00    -0.000 C 
BRANCH  18  19
ATOM     19  C   UNL     1      -7.815   9.016 -21.986  1.00  0.00    -0.000 C 
BRANCH  19  20
ATOM     20  C   UNL     1      -7.119   7.651 -21.836  1.00  0.00    -0.000 C 
BRANCH  20  21
ATOM     21  C   UNL     1      -8.062   6.433 -21.761  1.00  0.00    -0.000 C 
BRANCH  21  22
ATOM     22  C   UNL     1      -8.140   5.746 -20.386  1.00  0.00    -0.000 C 
BRANCH  22  23
ATOM     23  C   UNL     1      -9.575   5.340 -20.003  1.00  0.00    -0.000 C 
BRANCH  23  24
ATOM     24  C   UNL     1     -10.618   5.841 -21.024  1.00  0.00    -0.000 C 
BRANCH  24  25
ATOM     25  C   UNL     1     -11.950   6.275 -20.391  1.00  0.00    -0.003 C 
ATOM     26  C   UNL     1     -12.788   7.167 -21.303  1.00  0.00     0.004 C 
ENDBRANCH  24  25
ENDBRANCH  23  24
ENDBRANCH  22  23
ENDBRANCH  21  22
ENDBRANCH  20  21
ENDBRANCH  19  20
ENDBRANCH  18  19
ENDBRANCH  17  18
ENDBRANCH  16  17
ENDBRANCH  15  16
ENDBRANCH   1  15
TORSDOF 22
ENDMDL
MODEL 9
REMARK VINA RESULT:    -3.561      2.190      5.184
REMARK INTER + INTRA:         -12.601
REMARK INTER:                  -7.375
REMARK INTRA:                  -5.226
REMARK UNBOUND:                -4.461
REMARK SMILES CCCCCCCCCCCCCCCCCCCCCCCC(=O)[O-]
REMARK SMILES IDX 13 1 14 2 15 3 16 4 17 5 18 6 19 7 20 8 21 9 22 10 23 11
REMARK SMILES IDX 24 12 25 13 26 14 12 15 11 16 10 17 9 18 8 19 7 20 6 21 5 22
REMARK SMILES IDX 4 23 3 24 2 25 1 26
REMARK H PARENT
REMARK Flexibility Score: inf
ROOT
ATOM      1  C   UNL     1     -11.100   5.578 -21.609  1.00  0.00     0.000 C 
ENDROOT
BRANCH   1   2
ATOM      2  C   UNL     1     -12.368   5.854 -20.788  1.00  0.00     0.000 C 
BRANCH   2   3
ATOM      3  C   UNL     1     -12.765   7.335 -20.876  1.00  0.00     0.000 C 
BRANCH   3   4
ATOM      4  C   UNL     1     -12.467   8.103 -19.579  1.00  0.00     0.000 C 
BRANCH   4   5
ATOM      5  C   UNL     1     -11.519   9.294 -19.804  1.00  0.00     0.000 C 
BRANCH   5   6
ATOM      6  C   UNL     1     -10.092   9.009 -19.312  1.00  0.00     0.000 C 
BRANCH   6   7
ATOM      7  C   UNL     1     -10.009   7.733 -18.456  1.00  0.00     0.000 C 
BRANCH   7   8
ATOM      8  C   UNL     1      -9.055   6.685 -19.054  1.00  0.00     0.000 C 
BRANCH   8   9
ATOM      9  C   UNL     1      -7.792   7.323 -19.658  1.00  0.00     0.000 C 
BRANCH   9  10
ATOM     10  C   UNL     1      -6.697   7.574 -18.609  1.00  0.00     0.006 C 
BRANCH  10  11
ATOM     11  C   UNL     1      -5.932   8.882 -18.850  1.00  0.00     0.053 C 
BRANCH  11  12
ATOM     12  C   UNL     1      -6.655  10.035 -18.227  1.00  0.00     0.041 C 
ATOM     13  O   UNL     1      -7.117   9.936 -17.060  1.00  0.00    -0.550 OA
ATOM     14  O   UNL     1      -6.776  11.234 -18.917  1.00  0.00    -0.550 OA
ENDBRANCH  11  12
ENDBRANCH  10  11
ENDBRANCH   9  10
ENDBRANCH   8   9
ENDBRANCH   7   8
ENDBRANCH   6   7
ENDBRANCH   5   6
ENDBRANCH   4   5
ENDBRANCH   3   4
ENDBRANCH   2   3
ENDBRANCH   1   2
BRANCH   1  15
ATOM     15  C   UNL     1     -10.963   6.507 -22.830  1.00  0.00     0.000 C 
BRANCH  15  16
ATOM     16  C   UNL     1      -9.772   7.486 -22.774  1.00  0.00     0.000 C 
BRANCH  16  17
ATOM     17  C   UNL     1     -10.085   8.930 -23.214  1.00  0.00     0.000 C 
BRANCH  17  18
ATOM     18  C   UNL     1      -8.854   9.822 -23.450  1.00  0.00    -0.000 C 
BRANCH  18  19
ATOM     19  C   UNL     1      -8.053  10.079 -22.162  1.00  0.00    -0.000 C 
BRANCH  19  20
ATOM     20  C   UNL     1      -6.545   9.821 -22.329  1.00  0.00    -0.000 C 
BRANCH  20  21
ATOM     21  C   UNL     1      -6.173   8.685 -23.303  1.00  0.00    -0.000 C 
BRANCH  21  22
ATOM     22  C   UNL     1      -5.585   7.423 -22.647  1.00  0.00    -0.000 C 
BRANCH  22  23
ATOM     23  C   UNL     1      -6.308   6.134 -23.079  1.00  0.00    -0.000 C 
BRANCH  23  24
ATOM     24  C   UNL     1      -6.362   5.085 -21.948  1.00  0.00    -0.000 C 
BRANCH  24  25
ATOM     25  C   UNL     1      -7.632   4.218 -21.963  1.00  0.00    -0.003 C 
ATOM     26  C   UNL     1      -8.218   4.036 -23.361  1.00  0.00     0.004 C 
ENDBRANCH  24  25
ENDBRANCH  23  24
ENDBRANCH  22  23
ENDBRANCH  21  22
ENDBRANCH  20  21
ENDBRANCH  19  20
ENDBRANCH  18  19
ENDBRANCH  17  18
ENDBRANCH  16  17
ENDBRANCH  15  16
ENDBRANCH   1  15
TORSDOF 22
ENDMDL
