MODEL 1
REMARK VINA RESULT:    -6.142      0.000      0.000
REMARK INTER + INTRA:          -6.321
REMARK INTER:                  -6.321
REMARK INTRA:                   0.000
REMARK UNBOUND:                 0.000
REMARK SMILES O=c1ccc2ccc(O)cc2o1
REMARK SMILES IDX 6 1 7 2 8 3 10 4 11 5 5 6 4 7 3 8 2 9 1 10 12 11 9 12
REMARK H PARENT 9 13
REMARK Flexibility Score: inf
ROOT
ATOM      1  C   UNL     1     -38.487  -8.751 -13.758  1.00  0.00     0.016 A 
ATOM      2  C   UNL     1     -39.884  -8.790 -13.823  1.00  0.00     0.047 A 
ATOM      3  C   UNL     1     -40.634  -7.622 -13.643  1.00  0.00     0.119 A 
ATOM      4  C   UNL     1     -39.982  -6.404 -13.396  1.00  0.00     0.094 A 
ATOM      5  C   UNL     1     -38.586  -6.354 -13.329  1.00  0.00     0.142 A 
ATOM      6  C   UNL     1     -37.833  -7.536 -13.512  1.00  0.00     0.018 A 
ATOM      7  C   UNL     1     -36.438  -7.456 -13.439  1.00  0.00     0.019 A 
ATOM      8  C   UNL     1     -35.836  -6.223 -13.192  1.00  0.00     0.094 A 
ATOM      9  C   UNL     1     -36.646  -5.094 -13.022  1.00  0.00     0.336 A 
ATOM     10  O   UNL     1     -36.121  -3.972 -12.798  1.00  0.00    -0.246 OA
ATOM     11  O   UNL     1     -37.970  -5.198 -13.095  1.00  0.00    -0.423 OA
ENDROOT
BRANCH   3  12
ATOM     12  O   UNL     1     -42.024  -7.680 -13.710  1.00  0.00    -0.508 OA
ATOM     13  H   UNL     1     -42.554  -8.345 -13.160  1.00  0.00     0.293 HD
ENDBRANCH   3  12
TORSDOF 1
ENDMDL
MODEL 2
REMARK VINA RESULT:    -5.994      6.728      8.753
REMARK INTER + INTRA:          -6.169
REMARK INTER:                  -6.169
REMARK INTRA:                   0.000
REMARK UNBOUND:                 0.000
REMARK SMILES O=c1ccc2ccc(O)cc2o1
REMARK SMILES IDX 6 1 7 2 8 3 10 4 11 5 5 6 4 7 3 8 2 9 1 10 12 11 9 12
REMARK H PARENT 9 13
REMARK Flexibility Score: inf
ROOT
ATOM      1  C   UNL     1     -31.226  -2.711 -18.116  1.00  0.00     0.016 A 
ATOM      2  C   UNL     1     -31.381  -2.090 -19.360  1.00  0.00     0.047 A 
ATOM      3  C   UNL     1     -32.523  -2.328 -20.133  1.00  0.00     0.119 A 
ATOM      4  C   UNL     1     -33.520  -3.195 -19.659  1.00  0.00     0.094 A 
ATOM      5  C   UNL     1     -33.374  -3.822 -18.417  1.00  0.00     0.142 A 
ATOM      6  C   UNL     1     -32.219  -3.578 -17.640  1.00  0.00     0.018 A 
ATOM      7  C   UNL     1     -32.101  -4.219 -16.403  1.00  0.00     0.019 A 
ATOM      8  C   UNL     1     -33.118  -5.073 -15.975  1.00  0.00     0.094 A 
ATOM      9  C   UNL     1     -34.233  -5.265 -16.798  1.00  0.00     0.336 A 
ATOM     10  O   UNL     1     -35.161  -6.032 -16.429  1.00  0.00    -0.246 OA
ATOM     11  O   UNL     1     -34.321  -4.644 -17.971  1.00  0.00    -0.423 OA
ENDROOT
BRANCH   3  12
ATOM     12  O   UNL     1     -32.660  -1.699 -21.368  1.00  0.00    -0.508 OA
ATOM     13  H   UNL     1     -32.314  -0.760 -21.527  1.00  0.00     0.293 HD
ENDBRANCH   3  12
TORSDOF 1
ENDMDL
MODEL 3
REMARK VINA RESULT:    -5.798      1.195      1.591
REMARK INTER + INTRA:          -5.968
REMARK INTER:                  -5.968
REMARK INTRA:                   0.000
REMARK UNBOUND:                 0.000
REMARK SMILES O=c1ccc2ccc(O)cc2o1
REMARK SMILES IDX 6 1 7 2 8 3 10 4 11 5 5 6 4 7 3 8 2 9 1 10 12 11 9 12
REMARK H PARENT 9 13
REMARK Flexibility Score: inf
ROOT
ATOM      1  C   UNL     1     -36.745  -7.998 -13.764  1.00  0.00     0.016 A 
ATOM      2  C   UNL     1     -37.865  -8.756 -14.120  1.00  0.00     0.047 A 
ATOM      3  C   UNL     1     -39.138  -8.174 -14.136  1.00  0.00     0.119 A 
ATOM      4  C   UNL     1     -39.293  -6.822 -13.793  1.00  0.00     0.094 A 
ATOM      5  C   UNL     1     -38.178  -6.056 -13.435  1.00  0.00     0.142 A 
ATOM      6  C   UNL     1     -36.896  -6.648 -13.421  1.00  0.00     0.018 A 
ATOM      7  C   UNL     1     -35.800  -5.857 -13.058  1.00  0.00     0.019 A 
ATOM      8  C   UNL     1     -36.004  -4.518 -12.725  1.00  0.00     0.094 A 
ATOM      9  C   UNL     1     -37.303  -4.000 -12.762  1.00  0.00     0.336 A 
ATOM     10  O   UNL     1     -37.507  -2.794 -12.465  1.00  0.00    -0.246 OA
ATOM     11  O   UNL     1     -38.328  -4.774 -13.109  1.00  0.00    -0.423 OA
ENDROOT
BRANCH   3  12
ATOM     12  O   UNL     1     -40.242  -8.945 -14.493  1.00  0.00    -0.508 OA
ATOM     13  H   UNL     1     -41.064  -8.530 -14.915  1.00  0.00     0.293 HD
ENDBRANCH   3  12
TORSDOF 1
ENDMDL
MODEL 4
REMARK VINA RESULT:    -5.654      1.292      4.147
REMARK INTER + INTRA:          -5.820
REMARK INTER:                  -5.820
REMARK INTRA:                   0.000
REMARK UNBOUND:                 0.000
REMARK SMILES O=c1ccc2ccc(O)cc2o1
REMARK SMILES IDX 6 1 7 2 8 3 10 4 11 5 5 6 4 7 3 8 2 9 1 10 12 11 9 12
REMARK H PARENT 9 13
REMARK Flexibility Score: inf
ROOT
ATOM      1  C   UNL     1     -35.907  -6.224 -13.568  1.00  0.00     0.016 A 
ATOM      2  C   UNL     1     -35.964  -4.838 -13.389  1.00  0.00     0.047 A 
ATOM      3  C   UNL     1     -37.191  -4.201 -13.173  1.00  0.00     0.119 A 
ATOM      4  C   UNL     1     -38.373  -4.956 -13.136  1.00  0.00     0.094 A 
ATOM      5  C   UNL     1     -38.328  -6.343 -13.315  1.00  0.00     0.142 A 
ATOM      6  C   UNL     1     -37.086  -6.981 -13.532  1.00  0.00     0.018 A 
ATOM      7  C   UNL     1     -37.071  -8.369 -13.708  1.00  0.00     0.019 A 
ATOM      8  C   UNL     1     -38.272  -9.076 -13.663  1.00  0.00     0.094 A 
ATOM      9  C   UNL     1     -39.464  -8.377 -13.444  1.00  0.00     0.336 A 
ATOM     10  O   UNL     1     -40.558  -8.998 -13.400  1.00  0.00    -0.246 OA
ATOM     11  O   UNL     1     -39.450  -7.057 -13.280  1.00  0.00    -0.423 OA
ENDROOT
BRANCH   3  12
ATOM     12  O   UNL     1     -37.228  -2.820 -12.997  1.00  0.00    -0.508 OA
ATOM     13  H   UNL     1     -36.853  -2.382 -12.164  1.00  0.00     0.293 HD
ENDBRANCH   3  12
TORSDOF 1
ENDMDL
MODEL 5
REMARK VINA RESULT:    -5.554      1.912      3.068
REMARK INTER + INTRA:          -5.717
REMARK INTER:                  -5.717
REMARK INTRA:                   0.000
REMARK UNBOUND:                 0.000
REMARK SMILES O=c1ccc2ccc(O)cc2o1
REMARK SMILES IDX 6 1 7 2 8 3 10 4 11 5 5 6 4 7 3 8 2 9 1 10 12 11 9 12
REMARK H PARENT 9 13
REMARK Flexibility Score: inf
ROOT
ATOM      1  C   UNL     1     -39.834  -8.013 -13.368  1.00  0.00     0.016 A 
ATOM      2  C   UNL     1     -38.896  -8.758 -14.091  1.00  0.00     0.047 A 
ATOM      3  C   UNL     1     -37.668  -8.192 -14.451  1.00  0.00     0.119 A 
ATOM      4  C   UNL     1     -37.375  -6.869 -14.088  1.00  0.00     0.094 A 
ATOM      5  C   UNL     1     -38.306  -6.115 -13.366  1.00  0.00     0.142 A 
ATOM      6  C   UNL     1     -39.544  -6.691 -13.003  1.00  0.00     0.018 A 
ATOM      7  C   UNL     1     -40.456  -5.913 -12.281  1.00  0.00     0.019 A 
ATOM      8  C   UNL     1     -40.118  -4.603 -11.943  1.00  0.00     0.094 A 
ATOM      9  C   UNL     1     -38.873  -4.099 -12.335  1.00  0.00     0.336 A 
ATOM     10  O   UNL     1     -38.551  -2.919 -12.038  1.00  0.00    -0.246 OA
ATOM     11  O   UNL     1     -38.025  -4.860 -13.022  1.00  0.00    -0.423 OA
ENDROOT
BRANCH   3  12
ATOM     12  O   UNL     1     -36.747  -8.949 -15.171  1.00  0.00    -0.508 OA
ATOM     13  H   UNL     1     -35.751  -8.872 -15.003  1.00  0.00     0.293 HD
ENDBRANCH   3  12
TORSDOF 1
ENDMDL
MODEL 6
REMARK VINA RESULT:    -5.550      2.013      2.279
REMARK INTER + INTRA:          -5.712
REMARK INTER:                  -5.712
REMARK INTRA:                   0.000
REMARK UNBOUND:                 0.000
REMARK SMILES O=c1ccc2ccc(O)cc2o1
REMARK SMILES IDX 6 1 7 2 8 3 10 4 11 5 5 6 4 7 3 8 2 9 1 10 12 11 9 12
REMARK H PARENT 9 13
REMARK Flexibility Score: inf
ROOT
ATOM      1  C   UNL     1     -36.759  -7.846 -13.655  1.00  0.00     0.016 A 
ATOM      2  C   UNL     1     -37.718  -8.573 -14.367  1.00  0.00     0.047 A 
ATOM      3  C   UNL     1     -38.557  -7.931 -15.284  1.00  0.00     0.119 A 
ATOM      4  C   UNL     1     -38.437  -6.548 -15.492  1.00  0.00     0.094 A 
ATOM      5  C   UNL     1     -37.481  -5.812 -14.785  1.00  0.00     0.142 A 
ATOM      6  C   UNL     1     -36.636  -6.465 -13.860  1.00  0.00     0.018 A 
ATOM      7  C   UNL     1     -35.690  -5.702 -13.167  1.00  0.00     0.019 A 
ATOM      8  C   UNL     1     -35.609  -4.331 -13.408  1.00  0.00     0.094 A 
ATOM      9  C   UNL     1     -36.478  -3.752 -14.339  1.00  0.00     0.336 A 
ATOM     10  O   UNL     1     -36.420  -2.516 -14.570  1.00  0.00    -0.246 OA
ATOM     11  O   UNL     1     -37.370  -4.500 -14.984  1.00  0.00    -0.423 OA
ENDROOT
BRANCH   3  12
ATOM     12  O   UNL     1     -39.506  -8.672 -15.984  1.00  0.00    -0.508 OA
ATOM     13  H   UNL     1     -39.803  -9.588 -15.667  1.00  0.00     0.293 HD
ENDBRANCH   3  12
TORSDOF 1
ENDMDL
MODEL 7
REMARK VINA RESULT:    -5.386      2.022      3.833
REMARK INTER + INTRA:          -5.544
REMARK INTER:                  -5.544
REMARK INTRA:                   0.000
REMARK UNBOUND:                 0.000
REMARK SMILES O=c1ccc2ccc(O)cc2o1
REMARK SMILES IDX 6 1 7 2 8 3 10 4 11 5 5 6 4 7 3 8 2 9 1 10 12 11 9 12
REMARK H PARENT 9 13
REMARK Flexibility Score: inf
ROOT
ATOM      1  C   UNL     1     -40.462  -5.907 -12.277  1.00  0.00     0.016 A 
ATOM      2  C   UNL     1     -40.136  -4.593 -11.925  1.00  0.00     0.047 A 
ATOM      3  C   UNL     1     -38.904  -4.045 -12.298  1.00  0.00     0.119 A 
ATOM      4  C   UNL     1     -37.987  -4.817 -13.029  1.00  0.00     0.094 A 
ATOM      5  C   UNL     1     -38.303  -6.132 -13.384  1.00  0.00     0.142 A 
ATOM      6  C   UNL     1     -39.549  -6.681 -13.006  1.00  0.00     0.018 A 
ATOM      7  C   UNL     1     -39.837  -7.999 -13.376  1.00  0.00     0.019 A 
ATOM      8  C   UNL     1     -38.894  -8.727 -14.102  1.00  0.00     0.094 A 
ATOM      9  C   UNL     1     -37.681  -8.118 -14.442  1.00  0.00     0.336 A 
ATOM     10  O   UNL     1     -36.818  -8.758 -15.097  1.00  0.00    -0.246 OA
ATOM     11  O   UNL     1     -37.432  -6.863 -14.077  1.00  0.00    -0.423 OA
ENDROOT
BRANCH   3  12
ATOM     12  O   UNL     1     -38.597  -2.734 -11.939  1.00  0.00    -0.508 OA
ATOM     13  H   UNL     1     -37.696  -2.324 -12.149  1.00  0.00     0.293 HD
ENDBRANCH   3  12
TORSDOF 1
ENDMDL
MODEL 8
REMARK VINA RESULT:    -5.377      2.619      3.088
REMARK INTER + INTRA:          -5.534
REMARK INTER:                  -5.534
REMARK INTRA:                   0.000
REMARK UNBOUND:                 0.000
REMARK SMILES O=c1ccc2ccc(O)cc2o1
REMARK SMILES IDX 6 1 7 2 8 3 10 4 11 5 5 6 4 7 3 8 2 9 1 10 12 11 9 12
REMARK H PARENT 9 13
REMARK Flexibility Score: inf
ROOT
ATOM      1  C   UNL     1     -37.979  -6.072 -13.381  1.00  0.00     0.016 A 
ATOM      2  C   UNL     1     -38.971  -7.038 -13.583  1.00  0.00     0.047 A 
ATOM      3  C   UNL     1     -38.931  -7.871 -14.707  1.00  0.00     0.119 A 
ATOM      4  C   UNL     1     -37.890  -7.738 -15.639  1.00  0.00     0.094 A 
ATOM      5  C   UNL     1     -36.893  -6.775 -15.446  1.00  0.00     0.142 A 
ATOM      6  C   UNL     1     -36.938  -5.937 -14.310  1.00  0.00     0.018 A 
ATOM      7  C   UNL     1     -35.928  -4.983 -14.144  1.00  0.00     0.019 A 
ATOM      8  C   UNL     1     -34.914  -4.889 -15.097  1.00  0.00     0.094 A 
ATOM      9  C   UNL     1     -34.934  -5.754 -16.197  1.00  0.00     0.336 A 
ATOM     10  O   UNL     1     -34.027  -5.684 -17.067  1.00  0.00    -0.246 OA
ATOM     11  O   UNL     1     -35.907  -6.651 -16.331  1.00  0.00    -0.423 OA
ENDROOT
BRANCH   3  12
ATOM     12  O   UNL     1     -39.928  -8.826 -14.891  1.00  0.00    -0.508 OA
ATOM     13  H   UNL     1     -39.709  -9.812 -14.971  1.00  0.00     0.293 HD
ENDBRANCH   3  12
TORSDOF 1
ENDMDL
MODEL 9
REMARK VINA RESULT:    -5.272      1.425      2.269
REMARK INTER + INTRA:          -5.426
REMARK INTER:                  -5.426
REMARK INTRA:                   0.000
REMARK UNBOUND:                 0.000
REMARK SMILES O=c1ccc2ccc(O)cc2o1
REMARK SMILES IDX 6 1 7 2 8 3 10 4 11 5 5 6 4 7 3 8 2 9 1 10 12 11 9 12
REMARK H PARENT 9 13
REMARK Flexibility Score: inf
ROOT
ATOM      1  C   UNL     1     -39.964  -5.748 -12.634  1.00  0.00     0.016 A 
ATOM      2  C   UNL     1     -40.500  -6.985 -13.006  1.00  0.00     0.047 A 
ATOM      3  C   UNL     1     -39.733  -7.897 -13.739  1.00  0.00     0.119 A 
ATOM      4  C   UNL     1     -38.419  -7.570 -14.106  1.00  0.00     0.094 A 
ATOM      5  C   UNL     1     -37.874  -6.335 -13.740  1.00  0.00     0.142 A 
ATOM      6  C   UNL     1     -38.652  -5.418 -12.999  1.00  0.00     0.018 A 
ATOM      7  C   UNL     1     -38.081  -4.190 -12.647  1.00  0.00     0.019 A 
ATOM      8  C   UNL     1     -36.770  -3.910 -13.034  1.00  0.00     0.094 A 
ATOM      9  C   UNL     1     -36.060  -4.867 -13.767  1.00  0.00     0.336 A 
ATOM     10  O   UNL     1     -34.876  -4.633 -14.125  1.00  0.00    -0.246 OA
ATOM     11  O   UNL     1     -36.627  -6.027 -14.088  1.00  0.00    -0.423 OA
ENDROOT
BRANCH   3  12
ATOM     12  O   UNL     1     -40.284  -9.125 -14.100  1.00  0.00    -0.508 OA
ATOM     13  H   UNL     1     -40.999  -9.196 -14.814  1.00  0.00     0.293 HD
ENDBRANCH   3  12
TORSDOF 1
ENDMDL
