MODEL 1
REMARK VINA RESULT:    -5.068      0.000      0.000
REMARK INTER + INTRA:         -10.185
REMARK INTER:                  -9.216
REMARK INTRA:                  -0.969
REMARK UNBOUND:                -0.969
REMARK SMILES CCCCCCCCCCCCCCCC(=O)[O-]
REMARK SMILES IDX 9 1 10 2 11 3 12 4 13 5 14 6 15 7 16 8 17 9 18 10 8 11 7 12
REMARK SMILES IDX 6 13 5 14 4 15 3 16 2 17 1 18
REMARK H PARENT
REMARK Flexibility Score: inf
ROOT
ATOM      1  C   UNL     1      -3.640  13.037 -16.557  1.00  0.00     0.000 C 
ENDROOT
BRANCH   1   2
ATOM      2  C   UNL     1      -3.055  12.889 -15.144  1.00  0.00     0.000 C 
BRANCH   2   3
ATOM      3  C   UNL     1      -3.976  12.038 -14.257  1.00  0.00     0.000 C 
BRANCH   3   4
ATOM      4  C   UNL     1      -4.075  10.574 -14.726  1.00  0.00     0.000 C 
BRANCH   4   5
ATOM      5  C   UNL     1      -3.803   9.523 -13.635  1.00  0.00     0.000 C 
BRANCH   5   6
ATOM      6  C   UNL     1      -5.080   8.831 -13.136  1.00  0.00     0.006 C 
BRANCH   6   7
ATOM      7  C   UNL     1      -5.136   7.376 -13.609  1.00  0.00     0.053 C 
BRANCH   7   8
ATOM      8  C   UNL     1      -6.523   7.020 -14.042  1.00  0.00     0.041 C 
ATOM      9  O   UNL     1      -7.379   7.923 -14.233  1.00  0.00    -0.550 OA
ATOM     10  O   UNL     1      -6.857   5.693 -14.282  1.00  0.00    -0.550 OA
ENDBRANCH   7   8
ENDBRANCH   6   7
ENDBRANCH   5   6
ENDBRANCH   4   5
ENDBRANCH   3   4
ENDBRANCH   2   3
ENDBRANCH   1   2
BRANCH   1  11
ATOM     11  C   UNL     1      -2.592  13.474 -17.598  1.00  0.00     0.000 C 
BRANCH  11  12
ATOM     12  C   UNL     1      -2.466  12.550 -18.823  1.00  0.00    -0.000 C 
BRANCH  12  13
ATOM     13  C   UNL     1      -2.765  11.077 -18.497  1.00  0.00    -0.000 C 
BRANCH  13  14
ATOM     14  C   UNL     1      -3.702  10.425 -19.528  1.00  0.00    -0.000 C 
BRANCH  14  15
ATOM     15  C   UNL     1      -4.782  11.396 -20.037  1.00  0.00    -0.000 C 
BRANCH  15  16
ATOM     16  C   UNL     1      -5.829  10.708 -20.933  1.00  0.00    -0.000 C 
BRANCH  16  17
ATOM     17  C   UNL     1      -7.262  10.706 -20.370  1.00  0.00    -0.003 C 
ATOM     18  C   UNL     1      -8.152   9.637 -21.004  1.00  0.00     0.004 C 
ENDBRANCH  16  17
ENDBRANCH  15  16
ENDBRANCH  14  15
ENDBRANCH  13  14
ENDBRANCH  12  13
ENDBRANCH  11  12
ENDBRANCH   1  11
TORSDOF 14
ENDMDL
MODEL 2
REMARK VINA RESULT:    -4.889      1.023      1.342
REMARK INTER + INTRA:          -9.858
REMARK INTER:                  -8.539
REMARK INTRA:                  -1.319
REMARK UNBOUND:                -0.969
REMARK SMILES CCCCCCCCCCCCCCCC(=O)[O-]
REMARK SMILES IDX 9 1 10 2 11 3 12 4 13 5 14 6 15 7 16 8 17 9 18 10 8 11 7 12
REMARK SMILES IDX 6 13 5 14 4 15 3 16 2 17 1 18
REMARK H PARENT
REMARK Flexibility Score: inf
ROOT
ATOM      1  C   UNL     1      -2.982  13.700 -16.800  1.00  0.00     0.000 C 
ENDROOT
BRANCH   1   2
ATOM      2  C   UNL     1      -2.200  13.588 -15.482  1.00  0.00     0.000 C 
BRANCH   2   3
ATOM      3  C   UNL     1      -2.836  12.541 -14.556  1.00  0.00     0.000 C 
BRANCH   3   4
ATOM      4  C   UNL     1      -4.121  11.925 -15.139  1.00  0.00     0.000 C 
BRANCH   4   5
ATOM      5  C   UNL     1      -4.105  10.391 -15.271  1.00  0.00     0.000 C 
BRANCH   5   6
ATOM      6  C   UNL     1      -4.086   9.673 -13.913  1.00  0.00     0.006 C 
BRANCH   6   7
ATOM      7  C   UNL     1      -5.414   8.956 -13.653  1.00  0.00     0.053 C 
BRANCH   7   8
ATOM      8  C   UNL     1      -5.201   7.479 -13.553  1.00  0.00     0.041 C 
ATOM      9  O   UNL     1      -6.139   6.684 -13.826  1.00  0.00    -0.550 OA
ATOM     10  O   UNL     1      -3.952   6.978 -13.206  1.00  0.00    -0.550 OA
ENDBRANCH   7   8
ENDBRANCH   6   7
ENDBRANCH   5   6
ENDBRANCH   4   5
ENDBRANCH   3   4
ENDBRANCH   2   3
ENDBRANCH   1   2
BRANCH   1  11
ATOM     11  C   UNL     1      -2.069  13.726 -18.040  1.00  0.00     0.000 C 
BRANCH  11  12
ATOM     12  C   UNL     1      -2.514  12.812 -19.196  1.00  0.00    -0.000 C 
BRANCH  12  13
ATOM     13  C   UNL     1      -2.576  11.328 -18.797  1.00  0.00    -0.000 C 
BRANCH  13  14
ATOM     14  C   UNL     1      -3.973  10.721 -19.011  1.00  0.00    -0.000 C 
BRANCH  14  15
ATOM     15  C   UNL     1      -4.857  11.588 -19.923  1.00  0.00    -0.000 C 
BRANCH  15  16
ATOM     16  C   UNL     1      -5.792  10.754 -20.819  1.00  0.00    -0.000 C 
BRANCH  16  17
ATOM     17  C   UNL     1      -7.260  10.710 -20.362  1.00  0.00    -0.003 C 
ATOM     18  C   UNL     1      -8.063   9.596 -21.034  1.00  0.00     0.004 C 
ENDBRANCH  16  17
ENDBRANCH  15  16
ENDBRANCH  14  15
ENDBRANCH  13  14
ENDBRANCH  12  13
ENDBRANCH  11  12
ENDBRANCH   1  11
TORSDOF 14
ENDMDL
MODEL 3
REMARK VINA RESULT:    -4.594      2.505      6.280
REMARK INTER + INTRA:          -9.322
REMARK INTER:                  -8.616
REMARK INTRA:                  -0.706
REMARK UNBOUND:                -0.969
REMARK SMILES CCCCCCCCCCCCCCCC(=O)[O-]
REMARK SMILES IDX 9 1 10 2 11 3 12 4 13 5 14 6 15 7 16 8 17 9 18 10 8 11 7 12
REMARK SMILES IDX 6 13 5 14 4 15 3 16 2 17 1 18
REMARK H PARENT
REMARK Flexibility Score: inf
ROOT
ATOM      1  C   UNL     1      -2.953  12.684 -17.454  1.00  0.00     0.000 C 
ENDROOT
BRANCH   1   2
ATOM      2  C   UNL     1      -3.517  11.264 -17.610  1.00  0.00     0.000 C 
BRANCH   2   3
ATOM      3  C   UNL     1      -2.771  10.496 -18.712  1.00  0.00     0.000 C 
BRANCH   3   4
ATOM      4  C   UNL     1      -3.579  10.386 -20.019  1.00  0.00     0.000 C 
BRANCH   4   5
ATOM      5  C   UNL     1      -4.888  11.198 -20.043  1.00  0.00     0.000 C 
BRANCH   5   6
ATOM      6  C   UNL     1      -5.953  10.591 -20.969  1.00  0.00     0.006 C 
BRANCH   6   7
ATOM      7  C   UNL     1      -7.353  10.747 -20.370  1.00  0.00     0.053 C 
BRANCH   7   8
ATOM      8  C   UNL     1      -8.285   9.726 -20.943  1.00  0.00     0.041 C 
ATOM      9  O   UNL     1      -8.752   9.875 -22.103  1.00  0.00    -0.550 OA
ATOM     10  O   UNL     1      -8.598   8.585 -20.215  1.00  0.00    -0.550 OA
ENDBRANCH   7   8
ENDBRANCH   6   7
ENDBRANCH   5   6
ENDBRANCH   4   5
ENDBRANCH   3   4
ENDBRANCH   2   3
ENDBRANCH   1   2
BRANCH   1  11
ATOM     11  C   UNL     1      -3.055  13.216 -16.013  1.00  0.00     0.000 C 
BRANCH  11  12
ATOM     12  C   UNL     1      -4.217  12.638 -15.185  1.00  0.00    -0.000 C 
BRANCH  12  13
ATOM     13  C   UNL     1      -3.747  11.669 -14.087  1.00  0.00    -0.000 C 
BRANCH  13  14
ATOM     14  C   UNL     1      -4.172  10.217 -14.363  1.00  0.00    -0.000 C 
BRANCH  14  15
ATOM     15  C   UNL     1      -3.671   9.243 -13.282  1.00  0.00    -0.000 C 
BRANCH  15  16
ATOM     16  C   UNL     1      -4.319   7.850 -13.386  1.00  0.00    -0.000 C 
BRANCH  16  17
ATOM     17  C   UNL     1      -5.699   7.826 -14.066  1.00  0.00    -0.003 C 
ATOM     18  C   UNL     1      -6.616   6.731 -13.521  1.00  0.00     0.004 C 
ENDBRANCH  16  17
ENDBRANCH  15  16
ENDBRANCH  14  15
ENDBRANCH  13  14
ENDBRANCH  12  13
ENDBRANCH  11  12
ENDBRANCH   1  11
TORSDOF 14
ENDMDL
MODEL 4
REMARK VINA RESULT:    -4.540      2.758      6.128
REMARK INTER + INTRA:          -9.224
REMARK INTER:                  -7.783
REMARK INTRA:                  -1.441
REMARK UNBOUND:                -0.969
REMARK SMILES CCCCCCCCCCCCCCCC(=O)[O-]
REMARK SMILES IDX 9 1 10 2 11 3 12 4 13 5 14 6 15 7 16 8 17 9 18 10 8 11 7 12
REMARK SMILES IDX 6 13 5 14 4 15 3 16 2 17 1 18
REMARK H PARENT
REMARK Flexibility Score: inf
ROOT
ATOM      1  C   UNL     1      -4.070  13.355 -16.325  1.00  0.00     0.000 C 
ENDROOT
BRANCH   1   2
ATOM      2  C   UNL     1      -2.550  13.336 -16.548  1.00  0.00     0.000 C 
BRANCH   2   3
ATOM      3  C   UNL     1      -2.193  13.888 -17.936  1.00  0.00     0.000 C 
BRANCH   3   4
ATOM      4  C   UNL     1      -2.680  12.985 -19.085  1.00  0.00     0.000 C 
BRANCH   4   5
ATOM      5  C   UNL     1      -2.450  11.478 -18.868  1.00  0.00     0.000 C 
BRANCH   5   6
ATOM      6  C   UNL     1      -3.750  10.661 -18.900  1.00  0.00     0.006 C 
BRANCH   6   7
ATOM      7  C   UNL     1      -4.928  11.524 -19.364  1.00  0.00     0.053 C 
BRANCH   7   8
ATOM      8  C   UNL     1      -5.561  10.933 -20.584  1.00  0.00     0.041 C 
ATOM      9  O   UNL     1      -4.843  10.470 -21.510  1.00  0.00    -0.550 OA
ATOM     10  O   UNL     1      -6.944  10.847 -20.677  1.00  0.00    -0.550 OA
ENDBRANCH   7   8
ENDBRANCH   6   7
ENDBRANCH   5   6
ENDBRANCH   4   5
ENDBRANCH   3   4
ENDBRANCH   2   3
ENDBRANCH   1   2
BRANCH   1  11
ATOM     11  C   UNL     1      -4.513  12.485 -15.134  1.00  0.00     0.000 C 
BRANCH  11  12
ATOM     12  C   UNL     1      -4.043  11.020 -15.186  1.00  0.00    -0.000 C 
BRANCH  12  13
ATOM     13  C   UNL     1      -3.094  10.654 -14.032  1.00  0.00    -0.000 C 
BRANCH  13  14
ATOM     14  C   UNL     1      -3.547   9.394 -13.276  1.00  0.00    -0.000 C 
BRANCH  14  15
ATOM     15  C   UNL     1      -4.835   8.789 -13.861  1.00  0.00    -0.000 C 
BRANCH  15  16
ATOM     16  C   UNL     1      -5.019   7.305 -13.493  1.00  0.00    -0.000 C 
BRANCH  16  17
ATOM     17  C   UNL     1      -6.413   6.729 -13.799  1.00  0.00    -0.003 C 
ATOM     18  C   UNL     1      -7.438   7.805 -14.161  1.00  0.00     0.004 C 
ENDBRANCH  16  17
ENDBRANCH  15  16
ENDBRANCH  14  15
ENDBRANCH  13  14
ENDBRANCH  12  13
ENDBRANCH  11  12
ENDBRANCH   1  11
TORSDOF 14
ENDMDL
MODEL 5
REMARK VINA RESULT:    -4.240      5.737      8.663
REMARK INTER + INTRA:          -8.679
REMARK INTER:                  -7.376
REMARK INTRA:                  -1.303
REMARK UNBOUND:                -0.969
REMARK SMILES CCCCCCCCCCCCCCCC(=O)[O-]
REMARK SMILES IDX 9 1 10 2 11 3 12 4 13 5 14 6 15 7 16 8 17 9 18 10 8 11 7 12
REMARK SMILES IDX 6 13 5 14 4 15 3 16 2 17 1 18
REMARK H PARENT
REMARK Flexibility Score: inf
ROOT
ATOM      1  C   UNL     1      -1.752  14.095 -16.590  1.00  0.00     0.000 C 
ENDROOT
BRANCH   1   2
ATOM      2  C   UNL     1      -1.670  14.339 -18.104  1.00  0.00     0.000 C 
BRANCH   2   3
ATOM      3  C   UNL     1      -0.942  15.657 -18.408  1.00  0.00     0.000 C 
BRANCH   3   4
ATOM      4  C   UNL     1       0.553  15.459 -18.720  1.00  0.00     0.000 C 
BRANCH   4   5
ATOM      5  C   UNL     1       1.373  16.759 -18.822  1.00  0.00     0.000 C 
BRANCH   5   6
ATOM      6  C   UNL     1       0.962  17.635 -20.015  1.00  0.00     0.006 C 
BRANCH   6   7
ATOM      7  C   UNL     1       1.007  19.120 -19.645  1.00  0.00     0.053 C 
BRANCH   7   8
ATOM      8  C   UNL     1       0.057  19.410 -18.525  1.00  0.00     0.041 C 
ATOM      9  O   UNL     1      -1.168  19.149 -18.651  1.00  0.00    -0.550 OA
ATOM     10  O   UNL     1       0.534  19.922 -17.325  1.00  0.00    -0.550 OA
ENDBRANCH   7   8
ENDBRANCH   6   7
ENDBRANCH   5   6
ENDBRANCH   4   5
ENDBRANCH   3   4
ENDBRANCH   2   3
ENDBRANCH   1   2
BRANCH   1  11
ATOM     11  C   UNL     1      -3.094  13.482 -16.152  1.00  0.00     0.000 C 
BRANCH  11  12
ATOM     12  C   UNL     1      -3.016  12.539 -14.937  1.00  0.00    -0.000 C 
BRANCH  12  13
ATOM     13  C   UNL     1      -3.598  11.145 -15.222  1.00  0.00    -0.000 C 
BRANCH  13  14
ATOM     14  C   UNL     1      -4.033  10.978 -16.688  1.00  0.00    -0.000 C 
BRANCH  14  15
ATOM     15  C   UNL     1      -2.972  10.256 -17.537  1.00  0.00    -0.000 C 
BRANCH  15  16
ATOM     16  C   UNL     1      -2.846  10.836 -18.958  1.00  0.00    -0.000 C 
BRANCH  16  17
ATOM     17  C   UNL     1      -4.038  11.695 -19.416  1.00  0.00    -0.003 C 
ATOM     18  C   UNL     1      -4.993  10.946 -20.347  1.00  0.00     0.004 C 
ENDBRANCH  16  17
ENDBRANCH  15  16
ENDBRANCH  14  15
ENDBRANCH  13  14
ENDBRANCH  12  13
ENDBRANCH  11  12
ENDBRANCH   1  11
TORSDOF 14
ENDMDL
MODEL 6
REMARK VINA RESULT:    -4.143      4.494      7.082
REMARK INTER + INTRA:          -8.502
REMARK INTER:                  -7.347
REMARK INTRA:                  -1.155
REMARK UNBOUND:                -0.969
REMARK SMILES CCCCCCCCCCCCCCCC(=O)[O-]
REMARK SMILES IDX 9 1 10 2 11 3 12 4 13 5 14 6 15 7 16 8 17 9 18 10 8 11 7 12
REMARK SMILES IDX 6 13 5 14 4 15 3 16 2 17 1 18
REMARK H PARENT
REMARK Flexibility Score: inf
ROOT
ATOM      1  C   UNL     1      -1.942  14.332 -18.080  1.00  0.00     0.000 C 
ENDROOT
BRANCH   1   2
ATOM      2  C   UNL     1      -1.903  13.266 -19.186  1.00  0.00     0.000 C 
BRANCH   2   3
ATOM      3  C   UNL     1      -3.149  12.369 -19.127  1.00  0.00     0.000 C 
BRANCH   3   4
ATOM      4  C   UNL     1      -2.885  11.022 -18.430  1.00  0.00     0.000 C 
BRANCH   4   5
ATOM      5  C   UNL     1      -3.544  10.865 -17.047  1.00  0.00     0.000 C 
BRANCH   5   6
ATOM      6  C   UNL     1      -4.413  12.069 -16.657  1.00  0.00     0.006 C 
BRANCH   6   7
ATOM      7  C   UNL     1      -4.343  12.331 -15.150  1.00  0.00     0.053 C 
BRANCH   7   8
ATOM      8  C   UNL     1      -2.921  12.479 -14.710  1.00  0.00     0.041 C 
ATOM      9  O   UNL     1      -2.249  13.483 -15.064  1.00  0.00    -0.550 OA
ATOM     10  O   UNL     1      -2.352  11.532 -13.868  1.00  0.00    -0.550 OA
ENDBRANCH   7   8
ENDBRANCH   6   7
ENDBRANCH   5   6
ENDBRANCH   4   5
ENDBRANCH   3   4
ENDBRANCH   2   3
ENDBRANCH   1   2
BRANCH   1  11
ATOM     11  C   UNL     1      -1.029  15.536 -18.374  1.00  0.00     0.000 C 
BRANCH  11  12
ATOM     12  C   UNL     1       0.410  15.178 -18.789  1.00  0.00    -0.000 C 
BRANCH  12  13
ATOM     13  C   UNL     1       1.380  16.366 -18.675  1.00  0.00    -0.000 C 
BRANCH  13  14
ATOM     14  C   UNL     1       1.906  16.829 -20.044  1.00  0.00    -0.000 C 
BRANCH  14  15
ATOM     15  C   UNL     1       1.228  18.124 -20.526  1.00  0.00    -0.000 C 
BRANCH  15  16
ATOM     16  C   UNL     1       0.970  19.125 -19.384  1.00  0.00    -0.000 C 
BRANCH  16  17
ATOM     17  C   UNL     1      -0.443  19.736 -19.365  1.00  0.00    -0.003 C 
ATOM     18  C   UNL     1      -1.286  19.254 -18.183  1.00  0.00     0.004 C 
ENDBRANCH  16  17
ENDBRANCH  15  16
ENDBRANCH  14  15
ENDBRANCH  13  14
ENDBRANCH  12  13
ENDBRANCH  11  12
ENDBRANCH   1  11
TORSDOF 14
ENDMDL
MODEL 7
REMARK VINA RESULT:    -4.134      5.563      8.917
REMARK INTER + INTRA:          -8.486
REMARK INTER:                  -7.744
REMARK INTRA:                  -0.741
REMARK UNBOUND:                -0.969
REMARK SMILES CCCCCCCCCCCCCCCC(=O)[O-]
REMARK SMILES IDX 9 1 10 2 11 3 12 4 13 5 14 6 15 7 16 8 17 9 18 10 8 11 7 12
REMARK SMILES IDX 6 13 5 14 4 15 3 16 2 17 1 18
REMARK H PARENT
REMARK Flexibility Score: inf
ROOT
ATOM      1  C   UNL     1      -3.167  11.167 -18.670  1.00  0.00     0.000 C 
ENDROOT
BRANCH   1   2
ATOM      2  C   UNL     1      -3.258  12.633 -19.120  1.00  0.00     0.000 C 
BRANCH   2   3
ATOM      3  C   UNL     1      -1.871  13.294 -19.116  1.00  0.00     0.000 C 
BRANCH   3   4
ATOM      4  C   UNL     1      -1.813  14.561 -18.242  1.00  0.00     0.000 C 
BRANCH   4   5
ATOM      5  C   UNL     1      -0.495  15.352 -18.332  1.00  0.00     0.000 C 
BRANCH   5   6
ATOM      6  C   UNL     1      -0.706  16.831 -18.687  1.00  0.00     0.006 C 
BRANCH   6   7
ATOM      7  C   UNL     1       0.543  17.419 -19.349  1.00  0.00     0.053 C 
BRANCH   7   8
ATOM      8  C   UNL     1       0.538  18.912 -19.244  1.00  0.00     0.041 C 
ATOM      9  O   UNL     1       0.333  19.618 -20.266  1.00  0.00    -0.550 OA
ATOM     10  O   UNL     1       0.710  19.522 -18.007  1.00  0.00    -0.550 OA
ENDBRANCH   7   8
ENDBRANCH   6   7
ENDBRANCH   5   6
ENDBRANCH   4   5
ENDBRANCH   3   4
ENDBRANCH   2   3
ENDBRANCH   1   2
BRANCH   1  11
ATOM     11  C   UNL     1      -3.434  10.984 -17.164  1.00  0.00     0.000 C 
BRANCH  11  12
ATOM     12  C   UNL     1      -4.117  12.178 -16.473  1.00  0.00    -0.000 C 
BRANCH  12  13
ATOM     13  C   UNL     1      -4.113  12.064 -14.939  1.00  0.00    -0.000 C 
BRANCH  13  14
ATOM     14  C   UNL     1      -3.553  10.716 -14.452  1.00  0.00    -0.000 C 
BRANCH  14  15
ATOM     15  C   UNL     1      -4.638   9.821 -13.828  1.00  0.00    -0.000 C 
BRANCH  15  16
ATOM     16  C   UNL     1      -4.094   8.455 -13.369  1.00  0.00    -0.000 C 
BRANCH  16  17
ATOM     17  C   UNL     1      -5.083   7.284 -13.507  1.00  0.00    -0.003 C 
ATOM     18  C   UNL     1      -6.496   7.734 -13.881  1.00  0.00     0.004 C 
ENDBRANCH  16  17
ENDBRANCH  15  16
ENDBRANCH  14  15
ENDBRANCH  13  14
ENDBRANCH  12  13
ENDBRANCH  11  12
ENDBRANCH   1  11
TORSDOF 14
ENDMDL
MODEL 8
REMARK VINA RESULT:    -4.051      5.880      9.182
REMARK INTER + INTRA:          -8.334
REMARK INTER:                  -7.120
REMARK INTRA:                  -1.214
REMARK UNBOUND:                -0.969
REMARK SMILES CCCCCCCCCCCCCCCC(=O)[O-]
REMARK SMILES IDX 9 1 10 2 11 3 12 4 13 5 14 6 15 7 16 8 17 9 18 10 8 11 7 12
REMARK SMILES IDX 6 13 5 14 4 15 3 16 2 17 1 18
REMARK H PARENT
REMARK Flexibility Score: inf
ROOT
ATOM      1  C   UNL     1      -1.618  14.570 -17.975  1.00  0.00     0.000 C 
ENDROOT
BRANCH   1   2
ATOM      2  C   UNL     1      -0.775  15.773 -18.428  1.00  0.00     0.000 C 
BRANCH   2   3
ATOM      3  C   UNL     1       0.666  15.345 -18.743  1.00  0.00     0.000 C 
BRANCH   3   4
ATOM      4  C   UNL     1       1.593  16.536 -19.045  1.00  0.00     0.000 C 
BRANCH   4   5
ATOM      5  C   UNL     1       1.169  17.402 -20.246  1.00  0.00     0.000 C 
BRANCH   5   6
ATOM      6  C   UNL     1       1.034  18.891 -19.894  1.00  0.00     0.006 C 
BRANCH   6   7
ATOM      7  C   UNL     1       1.020  19.096 -18.376  1.00  0.00     0.053 C 
BRANCH   7   8
ATOM      8  C   UNL     1      -0.342  19.512 -17.917  1.00  0.00     0.041 C 
ATOM      9  O   UNL     1      -1.352  19.269 -18.628  1.00  0.00    -0.550 OA
ATOM     10  O   UNL     1      -0.501  20.124 -16.680  1.00  0.00    -0.550 OA
ENDBRANCH   7   8
ENDBRANCH   6   7
ENDBRANCH   5   6
ENDBRANCH   4   5
ENDBRANCH   3   4
ENDBRANCH   2   3
ENDBRANCH   1   2
BRANCH   1  11
ATOM     11  C   UNL     1      -1.782  13.505 -19.074  1.00  0.00     0.000 C 
BRANCH  11  12
ATOM     12  C   UNL     1      -3.068  12.664 -18.980  1.00  0.00    -0.000 C 
BRANCH  12  13
ATOM     13  C   UNL     1      -2.808  11.155 -19.125  1.00  0.00    -0.000 C 
BRANCH  13  14
ATOM     14  C   UNL     1      -3.127  10.377 -17.837  1.00  0.00    -0.000 C 
BRANCH  14  15
ATOM     15  C   UNL     1      -3.887  11.232 -16.808  1.00  0.00    -0.000 C 
BRANCH  15  16
ATOM     16  C   UNL     1      -3.733  10.711 -15.366  1.00  0.00    -0.000 C 
BRANCH  16  17
ATOM     17  C   UNL     1      -2.959  11.644 -14.418  1.00  0.00    -0.003 C 
ATOM     18  C   UNL     1      -2.747  13.043 -14.998  1.00  0.00     0.004 C 
ENDBRANCH  16  17
ENDBRANCH  15  16
ENDBRANCH  14  15
ENDBRANCH  13  14
ENDBRANCH  12  13
ENDBRANCH  11  12
ENDBRANCH   1  11
TORSDOF 14
ENDMDL
MODEL 9
REMARK VINA RESULT:    -3.925      3.319      5.789
REMARK INTER + INTRA:          -8.106
REMARK INTER:                  -7.234
REMARK INTRA:                  -0.872
REMARK UNBOUND:                -0.969
REMARK SMILES CCCCCCCCCCCCCCCC(=O)[O-]
REMARK SMILES IDX 9 1 10 2 11 3 12 4 13 5 14 6 15 7 16 8 17 9 18 10 8 11 7 12
REMARK SMILES IDX 6 13 5 14 4 15 3 16 2 17 1 18
REMARK H PARENT
REMARK Flexibility Score: inf
ROOT
ATOM      1  C   UNL     1      -3.025  12.698 -18.982  1.00  0.00     0.000 C 
ENDROOT
BRANCH   1   2
ATOM      2  C   UNL     1      -2.910  11.181 -18.766  1.00  0.00     0.000 C 
BRANCH   2   3
ATOM      3  C   UNL     1      -3.475  10.778 -17.396  1.00  0.00     0.000 C 
BRANCH   3   4
ATOM      4  C   UNL     1      -3.473  11.937 -16.382  1.00  0.00     0.000 C 
BRANCH   4   5
ATOM      5  C   UNL     1      -3.832  11.538 -14.939  1.00  0.00     0.000 C 
BRANCH   5   6
ATOM      6  C   UNL     1      -4.354  10.098 -14.826  1.00  0.00     0.006 C 
BRANCH   6   7
ATOM      7  C   UNL     1      -3.984   9.484 -13.473  1.00  0.00     0.053 C 
BRANCH   7   8
ATOM      8  C   UNL     1      -4.287   8.020 -13.461  1.00  0.00     0.041 C 
ATOM      9  O   UNL     1      -3.411   7.194 -13.091  1.00  0.00    -0.550 OA
ATOM     10  O   UNL     1      -5.554   7.569 -13.812  1.00  0.00    -0.550 OA
ENDBRANCH   7   8
ENDBRANCH   6   7
ENDBRANCH   5   6
ENDBRANCH   4   5
ENDBRANCH   3   4
ENDBRANCH   2   3
ENDBRANCH   1   2
BRANCH   1  11
ATOM     11  C   UNL     1      -1.658  13.387 -19.142  1.00  0.00     0.000 C 
BRANCH  11  12
ATOM     12  C   UNL     1      -1.632  14.880 -18.764  1.00  0.00    -0.000 C 
BRANCH  12  13
ATOM     13  C   UNL     1      -0.380  15.272 -17.961  1.00  0.00    -0.000 C 
BRANCH  13  14
ATOM     14  C   UNL     1       0.812  15.627 -18.867  1.00  0.00    -0.000 C 
BRANCH  14  15
ATOM     15  C   UNL     1       1.196  17.114 -18.776  1.00  0.00    -0.000 C 
BRANCH  15  16
ATOM     16  C   UNL     1       0.591  17.959 -19.914  1.00  0.00    -0.000 C 
BRANCH  16  17
ATOM     17  C   UNL     1      -0.120  19.245 -19.458  1.00  0.00    -0.003 C 
ATOM     18  C   UNL     1      -0.977  19.044 -18.207  1.00  0.00     0.004 C 
ENDBRANCH  16  17
ENDBRANCH  15  16
ENDBRANCH  14  15
ENDBRANCH  13  14
ENDBRANCH  12  13
ENDBRANCH  11  12
ENDBRANCH   1  11
TORSDOF 14
ENDMDL
