MODEL 1
REMARK VINA RESULT:    -6.768      0.000      0.000
REMARK INTER + INTRA:          -8.370
REMARK INTER:                  -8.153
REMARK INTRA:                  -0.216
REMARK UNBOUND:                -0.216
REMARK SMILES O=c1c(O)c(-c2ccc(O)c(O)c2)oc2cc(O)cc(O)c12
REMARK SMILES IDX 5 1 3 2 2 3 1 4 22 5 20 6 19 7 17 8 16 9 15 10 14 11 6 12
REMARK SMILES IDX 7 13 8 14 9 15 13 16 11 17 10 18 12 20 4 22 21 24 18 26
REMARK H PARENT 10 19 12 21 4 23 21 25 18 27
REMARK Flexibility Score: inf
ROOT
ATOM      1  C   UNL     1      -1.669  21.852  49.631  1.00  0.00     0.180 A 
ATOM      2  C   UNL     1      -1.351  22.170  48.299  1.00  0.00     0.208 A 
ATOM      3  C   UNL     1      -1.115  21.128  47.388  1.00  0.00     0.238 A 
ATOM      4  O   UNL     1      -0.777  21.419  46.211  1.00  0.00    -0.285 OA
ATOM      5  C   UNL     1      -1.215  19.782  47.816  1.00  0.00     0.111 A 
ATOM      6  C   UNL     1      -1.035  18.647  46.969  1.00  0.00     0.134 A 
ATOM      7  C   UNL     1      -1.028  17.363  47.528  1.00  0.00     0.093 A 
ATOM      8  C   UNL     1      -1.259  17.169  48.889  1.00  0.00     0.123 A 
ATOM      9  C   UNL     1      -1.496  18.268  49.715  1.00  0.00     0.094 A 
ATOM     10  C   UNL     1      -1.473  19.563  49.195  1.00  0.00     0.146 A 
ATOM     11  O   UNL     1      -1.691  20.581  50.017  1.00  0.00    -0.452 OA
ENDROOT
BRANCH   1  12
ATOM     12  C   UNL     1      -1.957  22.895  50.642  1.00  0.00     0.025 A 
ATOM     13  C   UNL     1      -1.098  23.044  51.744  1.00  0.00     0.016 A 
ATOM     14  C   UNL     1      -1.362  24.007  52.721  1.00  0.00     0.051 A 
ATOM     15  C   UNL     1      -2.491  24.824  52.622  1.00  0.00     0.157 A 
ATOM     16  C   UNL     1      -3.104  23.704  50.555  1.00  0.00     0.062 A 
ATOM     17  C   UNL     1      -3.371  24.670  51.537  1.00  0.00     0.158 A 
BRANCH  15  18
ATOM     18  O   UNL     1      -2.727  25.779  53.611  1.00  0.00    -0.504 OA
ATOM     19  H   UNL     1      -3.148  25.541  54.500  1.00  0.00     0.293 HD
ENDBRANCH  15  18
BRANCH  17  20
ATOM     20  O   UNL     1      -4.507  25.473  51.439  1.00  0.00    -0.504 OA
ATOM     21  H   UNL     1      -5.425  25.076  51.275  1.00  0.00     0.293 HD
ENDBRANCH  17  20
ENDBRANCH   1  12
BRANCH   2  22
ATOM     22  O   UNL     1      -1.236  23.506  47.903  1.00  0.00    -0.502 OA
ATOM     23  H   UNL     1      -0.362  23.905  47.584  1.00  0.00     0.293 HD
ENDBRANCH   2  22
BRANCH   6  24
ATOM     24  O   UNL     1      -0.888  18.725  45.581  1.00  0.00    -0.507 OA
ATOM     25  H   UNL     1      -0.041  19.005  45.108  1.00  0.00     0.293 HD
ENDBRANCH   6  24
BRANCH   8  26
ATOM     26  O   UNL     1      -1.262  15.875  49.407  1.00  0.00    -0.508 OA
ATOM     27  H   UNL     1      -0.534  15.555  50.035  1.00  0.00     0.293 HD
ENDBRANCH   8  26
TORSDOF 6
ENDMDL
MODEL 2
REMARK VINA RESULT:    -6.588      4.144      7.893
REMARK INTER + INTRA:          -8.153
REMARK INTER:                  -7.830
REMARK INTRA:                  -0.322
REMARK UNBOUND:                -0.216
REMARK SMILES O=c1c(O)c(-c2ccc(O)c(O)c2)oc2cc(O)cc(O)c12
REMARK SMILES IDX 5 1 3 2 2 3 1 4 22 5 20 6 19 7 17 8 16 9 15 10 14 11 6 12
REMARK SMILES IDX 7 13 8 14 9 15 13 16 11 17 10 18 12 20 4 22 21 24 18 26
REMARK H PARENT 10 19 12 21 4 23 21 25 18 27
REMARK Flexibility Score: inf
ROOT
ATOM      1  C   UNL     1       1.613  17.870  47.250  1.00  0.00     0.180 A 
ATOM      2  C   UNL     1       0.714  16.950  46.682  1.00  0.00     0.208 A 
ATOM      3  C   UNL     1      -0.661  17.106  46.919  1.00  0.00     0.238 A 
ATOM      4  O   UNL     1      -1.456  16.248  46.454  1.00  0.00    -0.285 OA
ATOM      5  C   UNL     1      -1.122  18.189  47.706  1.00  0.00     0.111 A 
ATOM      6  C   UNL     1      -2.495  18.467  47.977  1.00  0.00     0.134 A 
ATOM      7  C   UNL     1      -2.828  19.488  48.875  1.00  0.00     0.093 A 
ATOM      8  C   UNL     1      -1.844  20.282  49.460  1.00  0.00     0.123 A 
ATOM      9  C   UNL     1      -0.501  20.058  49.155  1.00  0.00     0.094 A 
ATOM     10  C   UNL     1      -0.134  19.024  48.292  1.00  0.00     0.146 A 
ATOM     11  O   UNL     1       1.154  18.837  48.036  1.00  0.00    -0.452 OA
ENDROOT
BRANCH   1  12
ATOM     12  C   UNL     1       3.074  17.785  47.024  1.00  0.00     0.025 A 
ATOM     13  C   UNL     1       3.634  18.406  45.896  1.00  0.00     0.016 A 
ATOM     14  C   UNL     1       5.008  18.321  45.651  1.00  0.00     0.051 A 
ATOM     15  C   UNL     1       5.838  17.605  46.518  1.00  0.00     0.157 A 
ATOM     16  C   UNL     1       3.907  17.048  47.884  1.00  0.00     0.062 A 
ATOM     17  C   UNL     1       5.286  16.960  47.639  1.00  0.00     0.158 A 
BRANCH  15  18
ATOM     18  O   UNL     1       7.205  17.540  46.251  1.00  0.00    -0.504 OA
ATOM     19  H   UNL     1       7.573  17.603  45.309  1.00  0.00     0.293 HD
ENDBRANCH  15  18
BRANCH  17  20
ATOM     20  O   UNL     1       6.105  16.232  48.500  1.00  0.00    -0.504 OA
ATOM     21  H   UNL     1       5.774  15.398  48.970  1.00  0.00     0.293 HD
ENDBRANCH  17  20
ENDBRANCH   1  12
BRANCH   2  22
ATOM     22  O   UNL     1       1.192  15.875  45.927  1.00  0.00    -0.502 OA
ATOM     23  H   UNL     1       2.168  15.779  45.674  1.00  0.00     0.293 HD
ENDBRANCH   2  22
BRANCH   6  24
ATOM     24  O   UNL     1      -3.562  17.793  47.375  1.00  0.00    -0.507 OA
ATOM     25  H   UNL     1      -3.949  16.921  47.704  1.00  0.00     0.293 HD
ENDBRANCH   6  24
BRANCH   8  26
ATOM     26  O   UNL     1      -2.213  21.301  50.337  1.00  0.00    -0.508 OA
ATOM     27  H   UNL     1      -1.649  22.135  50.448  1.00  0.00     0.293 HD
ENDBRANCH   8  26
TORSDOF 6
ENDMDL
MODEL 3
REMARK VINA RESULT:    -6.531      4.250      7.743
REMARK INTER + INTRA:          -8.083
REMARK INTER:                  -7.807
REMARK INTRA:                  -0.276
REMARK UNBOUND:                -0.216
REMARK SMILES O=c1c(O)c(-c2ccc(O)c(O)c2)oc2cc(O)cc(O)c12
REMARK SMILES IDX 5 1 3 2 2 3 1 4 22 5 20 6 19 7 17 8 16 9 15 10 14 11 6 12
REMARK SMILES IDX 7 13 8 14 9 15 13 16 11 17 10 18 12 20 4 22 21 24 18 26
REMARK H PARENT 10 19 12 21 4 23 21 25 18 27
REMARK Flexibility Score: inf
ROOT
ATOM      1  C   UNL     1       2.046  18.330  47.346  1.00  0.00     0.180 A 
ATOM      2  C   UNL     1       1.822  19.613  46.814  1.00  0.00     0.208 A 
ATOM      3  C   UNL     1       0.549  20.190  46.944  1.00  0.00     0.238 A 
ATOM      4  O   UNL     1       0.339  21.314  46.419  1.00  0.00    -0.285 OA
ATOM      5  C   UNL     1      -0.479  19.488  47.619  1.00  0.00     0.111 A 
ATOM      6  C   UNL     1      -1.794  19.993  47.844  1.00  0.00     0.134 A 
ATOM      7  C   UNL     1      -2.768  19.159  48.407  1.00  0.00     0.093 A 
ATOM      8  C   UNL     1      -2.458  17.862  48.812  1.00  0.00     0.123 A 
ATOM      9  C   UNL     1      -1.159  17.378  48.652  1.00  0.00     0.094 A 
ATOM     10  C   UNL     1      -0.175  18.173  48.060  1.00  0.00     0.146 A 
ATOM     11  O   UNL     1       1.044  17.670  47.916  1.00  0.00    -0.452 OA
ENDROOT
BRANCH   1  12
ATOM     12  C   UNL     1       3.368  17.667  47.271  1.00  0.00     0.025 A 
ATOM     13  C   UNL     1       4.212  17.682  48.393  1.00  0.00     0.016 A 
ATOM     14  C   UNL     1       5.472  17.081  48.338  1.00  0.00     0.051 A 
ATOM     15  C   UNL     1       5.914  16.471  47.160  1.00  0.00     0.157 A 
ATOM     16  C   UNL     1       3.822  17.072  46.081  1.00  0.00     0.062 A 
ATOM     17  C   UNL     1       5.088  16.470  46.023  1.00  0.00     0.158 A 
BRANCH  15  18
ATOM     18  O   UNL     1       7.176  15.876  47.136  1.00  0.00    -0.504 OA
ATOM     19  H   UNL     1       7.809  15.990  46.354  1.00  0.00     0.293 HD
ENDBRANCH  15  18
BRANCH  17  20
ATOM     20  O   UNL     1       5.528  15.876  44.841  1.00  0.00    -0.504 OA
ATOM     21  H   UNL     1       5.573  14.869  44.738  1.00  0.00     0.293 HD
ENDBRANCH  17  20
ENDBRANCH   1  12
BRANCH   2  22
ATOM     22  O   UNL     1       2.844  20.280  46.133  1.00  0.00    -0.502 OA
ATOM     23  H   UNL     1       2.981  21.281  46.204  1.00  0.00     0.293 HD
ENDBRANCH   2  22
BRANCH   6  24
ATOM     24  O   UNL     1      -2.185  21.305  47.560  1.00  0.00    -0.507 OA
ATOM     25  H   UNL     1      -2.699  21.586  46.738  1.00  0.00     0.293 HD
ENDBRANCH   6  24
BRANCH   8  26
ATOM     26  O   UNL     1      -3.448  17.065  49.384  1.00  0.00    -0.508 OA
ATOM     27  H   UNL     1      -3.246  16.445  50.159  1.00  0.00     0.293 HD
ENDBRANCH   8  26
TORSDOF 6
ENDMDL
MODEL 4
REMARK VINA RESULT:    -6.507      6.259      9.426
REMARK INTER + INTRA:          -8.055
REMARK INTER:                  -8.031
REMARK INTRA:                  -0.024
REMARK UNBOUND:                -0.216
REMARK SMILES O=c1c(O)c(-c2ccc(O)c(O)c2)oc2cc(O)cc(O)c12
REMARK SMILES IDX 5 1 3 2 2 3 1 4 22 5 20 6 19 7 17 8 16 9 15 10 14 11 6 12
REMARK SMILES IDX 7 13 8 14 9 15 13 16 11 17 10 18 12 20 4 22 21 24 18 26
REMARK H PARENT 10 19 12 21 4 23 21 25 18 27
REMARK Flexibility Score: inf
ROOT
ATOM      1  C   UNL     1       3.403  16.837  46.055  1.00  0.00     0.180 A 
ATOM      2  C   UNL     1       4.010  16.771  47.322  1.00  0.00     0.208 A 
ATOM      3  C   UNL     1       5.408  16.851  47.412  1.00  0.00     0.238 A 
ATOM      4  O   UNL     1       5.949  16.736  48.542  1.00  0.00    -0.285 OA
ATOM      5  C   UNL     1       6.182  17.014  46.237  1.00  0.00     0.111 A 
ATOM      6  C   UNL     1       7.602  17.147  46.214  1.00  0.00     0.134 A 
ATOM      7  C   UNL     1       8.274  17.171  44.985  1.00  0.00     0.093 A 
ATOM      8  C   UNL     1       7.574  17.132  43.781  1.00  0.00     0.123 A 
ATOM      9  C   UNL     1       6.180  17.063  43.792  1.00  0.00     0.094 A 
ATOM     10  C   UNL     1       5.484  17.001  45.001  1.00  0.00     0.146 A 
ATOM     11  O   UNL     1       4.160  16.924  44.967  1.00  0.00    -0.452 OA
ENDROOT
BRANCH   1  12
ATOM     12  C   UNL     1       1.933  16.785  45.883  1.00  0.00     0.025 A 
ATOM     13  C   UNL     1       1.381  15.925  44.920  1.00  0.00     0.016 A 
ATOM     14  C   UNL     1      -0.001  15.875  44.725  1.00  0.00     0.051 A 
ATOM     15  C   UNL     1      -0.851  16.692  45.477  1.00  0.00     0.157 A 
ATOM     16  C   UNL     1       1.079  17.622  46.623  1.00  0.00     0.062 A 
ATOM     17  C   UNL     1      -0.310  17.574  46.427  1.00  0.00     0.158 A 
BRANCH  15  18
ATOM     18  O   UNL     1      -2.228  16.618  45.263  1.00  0.00    -0.504 OA
ATOM     19  H   UNL     1      -2.898  16.888  45.972  1.00  0.00     0.293 HD
ENDBRANCH  15  18
BRANCH  17  20
ATOM     20  O   UNL     1      -1.151  18.402  47.170  1.00  0.00    -0.504 OA
ATOM     21  H   UNL     1      -2.012  18.056  47.577  1.00  0.00     0.293 HD
ENDBRANCH  17  20
ENDBRANCH   1  12
BRANCH   2  22
ATOM     22  O   UNL     1       3.229  16.588  48.467  1.00  0.00    -0.502 OA
ATOM     23  H   UNL     1       3.165  17.286  49.198  1.00  0.00     0.293 HD
ENDBRANCH   2  22
BRANCH   6  24
ATOM     24  O   UNL     1       8.393  17.285  47.359  1.00  0.00    -0.507 OA
ATOM     25  H   UNL     1       9.350  16.976  47.437  1.00  0.00     0.293 HD
ENDBRANCH   6  24
BRANCH   8  26
ATOM     26  O   UNL     1       8.274  17.175  42.577  1.00  0.00    -0.508 OA
ATOM     27  H   UNL     1       9.194  16.761  42.485  1.00  0.00     0.293 HD
ENDBRANCH   8  26
TORSDOF 6
ENDMDL
MODEL 5
REMARK VINA RESULT:    -6.448      1.543      6.747
REMARK INTER + INTRA:          -7.983
REMARK INTER:                  -7.680
REMARK INTRA:                  -0.303
REMARK UNBOUND:                -0.216
REMARK SMILES O=c1c(O)c(-c2ccc(O)c(O)c2)oc2cc(O)cc(O)c12
REMARK SMILES IDX 5 1 3 2 2 3 1 4 22 5 20 6 19 7 17 8 16 9 15 10 14 11 6 12
REMARK SMILES IDX 7 13 8 14 9 15 13 16 11 17 10 18 12 20 4 22 21 24 18 26
REMARK H PARENT 10 19 12 21 4 23 21 25 18 27
REMARK Flexibility Score: inf
ROOT
ATOM      1  C   UNL     1      -1.750  21.479  48.943  1.00  0.00     0.180 A 
ATOM      2  C   UNL     1      -1.550  22.439  47.935  1.00  0.00     0.208 A 
ATOM      3  C   UNL     1      -1.601  23.801  48.272  1.00  0.00     0.238 A 
ATOM      4  O   UNL     1      -1.476  24.655  47.357  1.00  0.00    -0.285 OA
ATOM      5  C   UNL     1      -1.835  24.187  49.614  1.00  0.00     0.111 A 
ATOM      6  C   UNL     1      -1.868  25.537  50.076  1.00  0.00     0.134 A 
ATOM      7  C   UNL     1      -2.238  25.806  51.399  1.00  0.00     0.093 A 
ATOM      8  C   UNL     1      -2.512  24.773  52.294  1.00  0.00     0.123 A 
ATOM      9  C   UNL     1      -2.424  23.446  51.869  1.00  0.00     0.094 A 
ATOM     10  C   UNL     1      -2.094  23.148  50.546  1.00  0.00     0.146 A 
ATOM     11  O   UNL     1      -2.032  21.874  50.180  1.00  0.00    -0.452 OA
ENDROOT
BRANCH   1  12
ATOM     12  C   UNL     1      -1.685  20.026  48.670  1.00  0.00     0.025 A 
ATOM     13  C   UNL     1      -2.876  19.287  48.580  1.00  0.00     0.016 A 
ATOM     14  C   UNL     1      -2.839  17.910  48.343  1.00  0.00     0.051 A 
ATOM     15  C   UNL     1      -1.615  17.249  48.209  1.00  0.00     0.157 A 
ATOM     16  C   UNL     1      -0.455  19.356  48.555  1.00  0.00     0.062 A 
ATOM     17  C   UNL     1      -0.415  17.973  48.320  1.00  0.00     0.158 A 
BRANCH  15  18
ATOM     18  O   UNL     1      -1.608  15.875  47.970  1.00  0.00    -0.504 OA
ATOM     19  H   UNL     1      -1.139  15.224  48.588  1.00  0.00     0.293 HD
ENDBRANCH  15  18
BRANCH  17  20
ATOM     20  O   UNL     1       0.810  17.318  48.201  1.00  0.00    -0.504 OA
ATOM     21  H   UNL     1       0.874  16.307  48.214  1.00  0.00     0.293 HD
ENDBRANCH  17  20
ENDBRANCH   1  12
BRANCH   2  22
ATOM     22  O   UNL     1      -1.342  22.037  46.613  1.00  0.00    -0.502 OA
ATOM     23  H   UNL     1      -1.133  21.078  46.363  1.00  0.00     0.293 HD
ENDBRANCH   2  22
BRANCH   6  24
ATOM     24  O   UNL     1      -1.523  26.640  49.288  1.00  0.00    -0.507 OA
ATOM     25  H   UNL     1      -2.102  27.456  49.158  1.00  0.00     0.293 HD
ENDBRANCH   6  24
BRANCH   8  26
ATOM     26  O   UNL     1      -2.861  25.077  53.609  1.00  0.00    -0.508 OA
ATOM     27  H   UNL     1      -3.819  25.278  53.869  1.00  0.00     0.293 HD
ENDBRANCH   8  26
TORSDOF 6
ENDMDL
MODEL 6
REMARK VINA RESULT:    -6.238      2.032      2.386
REMARK INTER + INTRA:          -7.731
REMARK INTER:                  -7.455
REMARK INTRA:                  -0.277
REMARK UNBOUND:                -0.216
REMARK SMILES O=c1c(O)c(-c2ccc(O)c(O)c2)oc2cc(O)cc(O)c12
REMARK SMILES IDX 5 1 3 2 2 3 1 4 22 5 20 6 19 7 17 8 16 9 15 10 14 11 6 12
REMARK SMILES IDX 7 13 8 14 9 15 13 16 11 17 10 18 12 20 4 22 21 24 18 26
REMARK H PARENT 10 19 12 21 4 23 21 25 18 27
REMARK Flexibility Score: inf
ROOT
ATOM      1  C   UNL     1      -1.096  22.805  50.160  1.00  0.00     0.180 A 
ATOM      2  C   UNL     1       0.267  22.523  49.955  1.00  0.00     0.208 A 
ATOM      3  C   UNL     1       0.625  21.338  49.295  1.00  0.00     0.238 A 
ATOM      4  O   UNL     1       1.847  21.065  49.163  1.00  0.00    -0.285 OA
ATOM      5  C   UNL     1      -0.382  20.456  48.833  1.00  0.00     0.111 A 
ATOM      6  C   UNL     1      -0.134  19.247  48.117  1.00  0.00     0.134 A 
ATOM      7  C   UNL     1      -1.200  18.387  47.824  1.00  0.00     0.093 A 
ATOM      8  C   UNL     1      -2.510  18.722  48.163  1.00  0.00     0.123 A 
ATOM      9  C   UNL     1      -2.770  19.931  48.810  1.00  0.00     0.094 A 
ATOM     10  C   UNL     1      -1.724  20.792  49.148  1.00  0.00     0.146 A 
ATOM     11  O   UNL     1      -2.014  21.926  49.773  1.00  0.00    -0.452 OA
ENDROOT
BRANCH   1  12
ATOM     12  C   UNL     1      -1.551  24.046  50.825  1.00  0.00     0.025 A 
ATOM     13  C   UNL     1      -1.527  25.258  50.115  1.00  0.00     0.016 A 
ATOM     14  C   UNL     1      -1.933  26.446  50.729  1.00  0.00     0.051 A 
ATOM     15  C   UNL     1      -2.354  26.445  52.062  1.00  0.00     0.157 A 
ATOM     16  C   UNL     1      -1.955  24.051  52.172  1.00  0.00     0.062 A 
ATOM     17  C   UNL     1      -2.361  25.243  52.791  1.00  0.00     0.158 A 
BRANCH  15  18
ATOM     18  O   UNL     1      -2.756  27.645  52.648  1.00  0.00    -0.504 OA
ATOM     19  H   UNL     1      -2.110  28.408  52.810  1.00  0.00     0.293 HD
ENDBRANCH  15  18
BRANCH  17  20
ATOM     20  O   UNL     1      -2.766  25.237  54.125  1.00  0.00    -0.504 OA
ATOM     21  H   UNL     1      -2.733  24.394  54.686  1.00  0.00     0.293 HD
ENDBRANCH  17  20
ENDBRANCH   1  12
BRANCH   2  22
ATOM     22  O   UNL     1       1.245  23.397  50.438  1.00  0.00    -0.502 OA
ATOM     23  H   UNL     1       1.016  24.261  50.914  1.00  0.00     0.293 HD
ENDBRANCH   2  22
BRANCH   6  24
ATOM     24  O   UNL     1       1.126  18.860  47.650  1.00  0.00    -0.507 OA
ATOM     25  H   UNL     1       1.397  18.841  46.678  1.00  0.00     0.293 HD
ENDBRANCH   6  24
BRANCH   8  26
ATOM     26  O   UNL     1      -3.548  17.850  47.841  1.00  0.00    -0.508 OA
ATOM     27  H   UNL     1      -4.441  17.892  48.317  1.00  0.00     0.293 HD
ENDBRANCH   8  26
TORSDOF 6
ENDMDL
MODEL 7
REMARK VINA RESULT:    -6.227      9.691     12.087
REMARK INTER + INTRA:          -7.718
REMARK INTER:                  -7.581
REMARK INTRA:                  -0.137
REMARK UNBOUND:                -0.216
REMARK SMILES O=c1c(O)c(-c2ccc(O)c(O)c2)oc2cc(O)cc(O)c12
REMARK SMILES IDX 5 1 3 2 2 3 1 4 22 5 20 6 19 7 17 8 16 9 15 10 14 11 6 12
REMARK SMILES IDX 7 13 8 14 9 15 13 16 11 17 10 18 12 20 4 22 21 24 18 26
REMARK H PARENT 10 19 12 21 4 23 21 25 18 27
REMARK Flexibility Score: inf
ROOT
ATOM      1  C   UNL     1       3.356  23.502  39.572  1.00  0.00     0.180 A 
ATOM      2  C   UNL     1       4.018  22.444  38.925  1.00  0.00     0.208 A 
ATOM      3  C   UNL     1       4.847  21.597  39.677  1.00  0.00     0.238 A 
ATOM      4  O   UNL     1       5.480  20.686  39.082  1.00  0.00    -0.285 OA
ATOM      5  C   UNL     1       4.990  21.806  41.070  1.00  0.00     0.111 A 
ATOM      6  C   UNL     1       5.771  20.986  41.937  1.00  0.00     0.134 A 
ATOM      7  C   UNL     1       5.945  21.363  43.274  1.00  0.00     0.093 A 
ATOM      8  C   UNL     1       5.315  22.494  43.791  1.00  0.00     0.123 A 
ATOM      9  C   UNL     1       4.500  23.271  42.967  1.00  0.00     0.094 A 
ATOM     10  C   UNL     1       4.336  22.941  41.620  1.00  0.00     0.146 A 
ATOM     11  O   UNL     1       3.561  23.712  40.868  1.00  0.00    -0.452 OA
ENDROOT
BRANCH   1  12
ATOM     12  C   UNL     1       2.446  24.421  38.851  1.00  0.00     0.025 A 
ATOM     13  C   UNL     1       1.078  24.425  39.166  1.00  0.00     0.016 A 
ATOM     14  C   UNL     1       0.197  25.269  38.483  1.00  0.00     0.051 A 
ATOM     15  C   UNL     1       0.666  26.108  37.468  1.00  0.00     0.157 A 
ATOM     16  C   UNL     1       2.913  25.250  37.815  1.00  0.00     0.062 A 
ATOM     17  C   UNL     1       2.030  26.097  37.128  1.00  0.00     0.158 A 
BRANCH  15  18
ATOM     18  O   UNL     1      -0.235  26.941  36.806  1.00  0.00    -0.504 OA
ATOM     19  H   UNL     1      -0.770  26.628  36.005  1.00  0.00     0.293 HD
ENDBRANCH  15  18
BRANCH  17  20
ATOM     20  O   UNL     1       2.501  26.921  36.107  1.00  0.00    -0.504 OA
ATOM     21  H   UNL     1       1.947  27.113  35.281  1.00  0.00     0.293 HD
ENDBRANCH  17  20
ENDBRANCH   1  12
BRANCH   2  22
ATOM     22  O   UNL     1       3.880  22.269  37.545  1.00  0.00    -0.502 OA
ATOM     23  H   UNL     1       3.719  21.362  37.125  1.00  0.00     0.293 HD
ENDBRANCH   2  22
BRANCH   6  24
ATOM     24  O   UNL     1       6.370  19.784  41.545  1.00  0.00    -0.507 OA
ATOM     25  H   UNL     1       5.908  19.058  41.017  1.00  0.00     0.293 HD
ENDBRANCH   6  24
BRANCH   8  26
ATOM     26  O   UNL     1       5.498  22.831  45.131  1.00  0.00    -0.508 OA
ATOM     27  H   UNL     1       5.228  22.201  45.877  1.00  0.00     0.293 HD
ENDBRANCH   8  26
TORSDOF 6
ENDMDL
MODEL 8
REMARK VINA RESULT:    -6.142      1.752      7.385
REMARK INTER + INTRA:          -7.616
REMARK INTER:                  -7.313
REMARK INTRA:                  -0.303
REMARK UNBOUND:                -0.216
REMARK SMILES O=c1c(O)c(-c2ccc(O)c(O)c2)oc2cc(O)cc(O)c12
REMARK SMILES IDX 5 1 3 2 2 3 1 4 22 5 20 6 19 7 17 8 16 9 15 10 14 11 6 12
REMARK SMILES IDX 7 13 8 14 9 15 13 16 11 17 10 18 12 20 4 22 21 24 18 26
REMARK H PARENT 10 19 12 21 4 23 21 25 18 27
REMARK Flexibility Score: inf
ROOT
ATOM      1  C   UNL     1      -1.464  22.300  50.122  1.00  0.00     0.180 A 
ATOM      2  C   UNL     1      -0.755  22.260  51.336  1.00  0.00     0.208 A 
ATOM      3  C   UNL     1      -0.764  23.391  52.167  1.00  0.00     0.238 A 
ATOM      4  O   UNL     1      -0.083  23.368  53.225  1.00  0.00    -0.285 OA
ATOM      5  C   UNL     1      -1.495  24.541  51.785  1.00  0.00     0.111 A 
ATOM      6  C   UNL     1      -1.607  25.728  52.569  1.00  0.00     0.134 A 
ATOM      7  C   UNL     1      -2.247  26.852  52.033  1.00  0.00     0.093 A 
ATOM      8  C   UNL     1      -2.835  26.812  50.770  1.00  0.00     0.123 A 
ATOM      9  C   UNL     1      -2.785  25.637  50.019  1.00  0.00     0.094 A 
ATOM     10  C   UNL     1      -2.121  24.511  50.511  1.00  0.00     0.146 A 
ATOM     11  O   UNL     1      -2.086  23.417  49.761  1.00  0.00    -0.452 OA
ENDROOT
BRANCH   1  12
ATOM     12  C   UNL     1      -1.523  21.139  49.206  1.00  0.00     0.025 A 
ATOM     13  C   UNL     1      -2.611  20.254  49.281  1.00  0.00     0.016 A 
ATOM     14  C   UNL     1      -2.676  19.140  48.441  1.00  0.00     0.051 A 
ATOM     15  C   UNL     1      -1.652  18.884  47.524  1.00  0.00     0.157 A 
ATOM     16  C   UNL     1      -0.483  20.869  48.298  1.00  0.00     0.062 A 
ATOM     17  C   UNL     1      -0.547  19.749  47.454  1.00  0.00     0.158 A 
BRANCH  15  18
ATOM     18  O   UNL     1      -1.746  17.766  46.696  1.00  0.00    -0.504 OA
ATOM     19  H   UNL     1      -2.085  16.873  47.033  1.00  0.00     0.293 HD
ENDBRANCH  15  18
BRANCH  17  20
ATOM     20  O   UNL     1       0.485  19.492  46.553  1.00  0.00    -0.504 OA
ATOM     21  H   UNL     1       0.375  18.828  45.795  1.00  0.00     0.293 HD
ENDBRANCH  17  20
ENDBRANCH   1  12
BRANCH   2  22
ATOM     22  O   UNL     1      -0.022  21.122  51.684  1.00  0.00    -0.502 OA
ATOM     23  H   UNL     1      -0.035  20.275  51.127  1.00  0.00     0.293 HD
ENDBRANCH   2  22
BRANCH   6  24
ATOM     24  O   UNL     1      -1.133  25.846  53.879  1.00  0.00    -0.507 OA
ATOM     25  H   UNL     1      -1.036  26.718  54.379  1.00  0.00     0.293 HD
ENDBRANCH   6  24
BRANCH   8  26
ATOM     26  O   UNL     1      -3.479  27.945  50.275  1.00  0.00    -0.508 OA
ATOM     27  H   UNL     1      -3.983  27.925  49.396  1.00  0.00     0.293 HD
ENDBRANCH   8  26
TORSDOF 6
ENDMDL
