MODEL 1
REMARK VINA RESULT:    -7.105      0.000      0.000
REMARK INTER + INTRA:         -11.769
REMARK INTER:                 -10.220
REMARK INTRA:                  -1.549
REMARK UNBOUND:                -1.549
REMARK SMILES O=c1c(O[C@H]2O[C@@H](CO)[C@H](O)[C@@H](O)[C@@H]2O)c(-c2ccc(O)cc2)oc2cc(O)cc(O)c12
REMARK SMILES IDX 4 1 3 2 16 3 24 4 2 5 25 6 1 7 32 8 26 9 30 10 27 11 29 12
REMARK SMILES IDX 17 13 18 14 19 15 20 16 23 17 22 18 21 19 31 21 28 23 5 25
REMARK SMILES IDX 14 26 6 27 12 28 7 29 10 30 15 31 13 33 8 35 9 36 11 38
REMARK H PARENT 21 20 31 22 28 24 15 32 13 34 9 37 11 39
REMARK Flexibility Score: inf
ROOT
ATOM      1  O   UNL     1     -37.755   4.885  82.016  1.00  0.00    -0.454 OA
ENDROOT
BRANCH   1   2
ATOM      2  C   UNL     1     -38.541   4.566  80.900  1.00  0.00     0.214 A 
ATOM      3  C   UNL     1     -38.034   4.641  79.586  1.00  0.00     0.180 A 
ATOM      4  O   UNL     1     -38.782   4.223  78.571  1.00  0.00    -0.452 OA
ATOM      5  C   UNL     1     -39.862   4.149  81.095  1.00  0.00     0.239 A 
ATOM      6  C   UNL     1     -40.030   3.791  78.712  1.00  0.00     0.146 A 
ATOM      7  O   UNL     1     -40.295   4.070  82.274  1.00  0.00    -0.285 OA
ATOM      8  C   UNL     1     -40.657   3.779  79.985  1.00  0.00     0.111 A 
ATOM      9  C   UNL     1     -40.714   3.346  77.578  1.00  0.00     0.094 A 
ATOM     10  C   UNL     1     -42.019   3.359  80.068  1.00  0.00     0.134 A 
ATOM     11  C   UNL     1     -42.025   2.880  77.682  1.00  0.00     0.123 A 
ATOM     12  C   UNL     1     -42.667   2.887  78.920  1.00  0.00     0.093 A 
BRANCH   3  13
ATOM     13  C   UNL     1     -36.686   5.171  79.285  1.00  0.00     0.021 A 
ATOM     14  C   UNL     1     -35.560   4.353  79.466  1.00  0.00     0.016 A 
ATOM     15  C   UNL     1     -34.279   4.845  79.203  1.00  0.00     0.047 A 
ATOM     16  C   UNL     1     -34.109   6.159  78.744  1.00  0.00     0.115 A 
ATOM     17  C   UNL     1     -36.511   6.478  78.796  1.00  0.00     0.016 A 
ATOM     18  C   UNL     1     -35.228   6.970  78.539  1.00  0.00     0.047 A 
BRANCH  16  19
ATOM     19  O   UNL     1     -32.837   6.663  78.487  1.00  0.00    -0.508 OA
ATOM     20  H   UNL     1     -32.335   6.428  77.638  1.00  0.00     0.293 HD
ENDBRANCH  16  19
ENDBRANCH   3  13
BRANCH  10  21
ATOM     21  O   UNL     1     -42.783   3.411  81.238  1.00  0.00    -0.507 OA
ATOM     22  H   UNL     1     -43.468   2.722  81.508  1.00  0.00     0.293 HD
ENDBRANCH  10  21
BRANCH  11  23
ATOM     23  O   UNL     1     -42.705   2.417  76.558  1.00  0.00    -0.508 OA
ATOM     24  H   UNL     1     -42.930   1.436  76.440  1.00  0.00     0.293 HD
ENDBRANCH  11  23
ENDBRANCH   1   2
BRANCH   1  25
ATOM     25  C   UNL     1     -37.494   6.227  82.432  1.00  0.00     0.339 C 
ATOM     26  C   UNL     1     -37.389   6.273  83.985  1.00  0.00     0.214 C 
ATOM     27  O   UNL     1     -38.529   7.050  81.916  1.00  0.00    -0.332 OA
ATOM     28  C   UNL     1     -38.651   6.905  84.613  1.00  0.00     0.180 C 
ATOM     29  C   UNL     1     -38.476   8.340  82.492  1.00  0.00     0.179 C 
ATOM     30  C   UNL     1     -38.990   8.273  83.954  1.00  0.00     0.177 C 
BRANCH  26  31
ATOM     31  O   UNL     1     -36.248   7.007  84.352  1.00  0.00    -0.384 OA
ATOM     32  H   UNL     1     -35.849   7.360  83.514  1.00  0.00     0.211 HD
ENDBRANCH  26  31
BRANCH  28  33
ATOM     33  O   UNL     1     -39.724   6.015  84.448  1.00  0.00    -0.387 OA
ATOM     34  H   UNL     1     -39.678   5.675  83.515  1.00  0.00     0.211 HD
ENDBRANCH  28  33
BRANCH  29  35
ATOM     35  C   UNL     1     -39.303   9.313  81.639  1.00  0.00     0.191 C 
BRANCH  35  36
ATOM     36  O   UNL     1     -40.119  10.124  82.443  1.00  0.00    -0.394 OA
ATOM     37  H   UNL     1     -40.312  10.946  81.920  1.00  0.00     0.210 HD
ENDBRANCH  35  36
ENDBRANCH  29  35
BRANCH  30  38
ATOM     38  O   UNL     1     -38.478   9.343  84.711  1.00  0.00    -0.387 OA
ATOM     39  H   UNL     1     -38.784   9.228  85.647  1.00  0.00     0.211 HD
ENDBRANCH  30  38
ENDBRANCH   1  25
TORSDOF 11
ENDMDL
MODEL 2
REMARK VINA RESULT:    -7.019      1.970      6.054
REMARK INTER + INTRA:         -11.646
REMARK INTER:                 -10.428
REMARK INTRA:                  -1.218
REMARK UNBOUND:                -1.549
REMARK SMILES O=c1c(O[C@H]2O[C@@H](CO)[C@H](O)[C@@H](O)[C@@H]2O)c(-c2ccc(O)cc2)oc2cc(O)cc(O)c12
REMARK SMILES IDX 4 1 3 2 16 3 24 4 2 5 25 6 1 7 32 8 26 9 30 10 27 11 29 12
REMARK SMILES IDX 17 13 18 14 19 15 20 16 23 17 22 18 21 19 31 21 28 23 5 25
REMARK SMILES IDX 14 26 6 27 12 28 7 29 10 30 15 31 13 33 8 35 9 36 11 38
REMARK H PARENT 21 20 31 22 28 24 15 32 13 34 9 37 11 39
REMARK Flexibility Score: inf
ROOT
ATOM      1  O   UNL     1     -37.601   3.139  80.731  1.00  0.00    -0.454 OA
ENDROOT
BRANCH   1   2
ATOM      2  C   UNL     1     -37.162   4.148  79.862  1.00  0.00     0.214 A 
ATOM      3  C   UNL     1     -38.015   4.726  78.899  1.00  0.00     0.180 A 
ATOM      4  O   UNL     1     -37.585   5.753  78.176  1.00  0.00    -0.452 OA
ATOM      5  C   UNL     1     -35.843   4.604  79.962  1.00  0.00     0.239 A 
ATOM      6  C   UNL     1     -36.352   6.240  78.258  1.00  0.00     0.146 A 
ATOM      7  O   UNL     1     -35.098   4.092  80.837  1.00  0.00    -0.285 OA
ATOM      8  C   UNL     1     -35.393   5.653  79.126  1.00  0.00     0.111 A 
ATOM      9  C   UNL     1     -36.017   7.344  77.471  1.00  0.00     0.094 A 
ATOM     10  C   UNL     1     -34.067   6.181  79.129  1.00  0.00     0.134 A 
ATOM     11  C   UNL     1     -34.733   7.889  77.529  1.00  0.00     0.123 A 
ATOM     12  C   UNL     1     -33.771   7.310  78.355  1.00  0.00     0.093 A 
BRANCH   3  13
ATOM     13  C   UNL     1     -39.388   4.230  78.657  1.00  0.00     0.021 A 
ATOM     14  C   UNL     1     -39.578   2.953  78.106  1.00  0.00     0.016 A 
ATOM     15  C   UNL     1     -40.869   2.477  77.855  1.00  0.00     0.047 A 
ATOM     16  C   UNL     1     -41.984   3.269  78.162  1.00  0.00     0.115 A 
ATOM     17  C   UNL     1     -40.511   5.006  78.991  1.00  0.00     0.016 A 
ATOM     18  C   UNL     1     -41.800   4.531  78.733  1.00  0.00     0.047 A 
BRANCH  16  19
ATOM     19  O   UNL     1     -43.273   2.809  77.908  1.00  0.00    -0.508 OA
ATOM     20  H   UNL     1     -43.504   2.328  77.046  1.00  0.00     0.293 HD
ENDBRANCH  16  19
ENDBRANCH   3  13
BRANCH  10  21
ATOM     21  O   UNL     1     -33.007   5.623  79.849  1.00  0.00    -0.507 OA
ATOM     22  H   UNL     1     -32.209   6.138  80.190  1.00  0.00     0.293 HD
ENDBRANCH  10  21
BRANCH  11  23
ATOM     23  O   UNL     1     -34.400   9.002  76.761  1.00  0.00    -0.508 OA
ATOM     24  H   UNL     1     -35.027   9.794  76.673  1.00  0.00     0.293 HD
ENDBRANCH  11  23
ENDBRANCH   1   2
BRANCH   1  25
ATOM     25  C   UNL     1     -37.865   3.361  82.118  1.00  0.00     0.339 C 
ATOM     26  C   UNL     1     -38.668   2.154  82.687  1.00  0.00     0.214 C 
ATOM     27  O   UNL     1     -38.553   4.597  82.236  1.00  0.00    -0.332 OA
ATOM     28  C   UNL     1     -40.151   2.522  82.908  1.00  0.00     0.180 C 
ATOM     29  C   UNL     1     -39.067   4.760  83.543  1.00  0.00     0.179 C 
ATOM     30  C   UNL     1     -40.296   3.833  83.733  1.00  0.00     0.177 C 
BRANCH  26  31
ATOM     31  O   UNL     1     -38.088   1.741  83.899  1.00  0.00    -0.384 OA
ATOM     32  H   UNL     1     -37.223   1.308  83.674  1.00  0.00     0.211 HD
ENDBRANCH  26  31
BRANCH  28  33
ATOM     33  O   UNL     1     -40.763   2.677  81.654  1.00  0.00    -0.387 OA
ATOM     34  H   UNL     1     -41.393   3.442  81.730  1.00  0.00     0.211 HD
ENDBRANCH  28  33
BRANCH  29  35
ATOM     35  C   UNL     1     -39.423   6.237  83.769  1.00  0.00     0.191 C 
BRANCH  35  36
ATOM     36  O   UNL     1     -39.303   6.585  85.124  1.00  0.00    -0.394 OA
ATOM     37  H   UNL     1     -40.116   6.246  85.581  1.00  0.00     0.210 HD
ENDBRANCH  35  36
ENDBRANCH  29  35
BRANCH  30  38
ATOM     38  O   UNL     1     -40.503   3.555  85.098  1.00  0.00    -0.387 OA
ATOM     39  H   UNL     1     -39.982   4.214  85.625  1.00  0.00     0.211 HD
ENDBRANCH  30  38
ENDBRANCH   1  25
TORSDOF 11
ENDMDL
MODEL 3
REMARK VINA RESULT:    -6.883      1.993      2.727
REMARK INTER + INTRA:         -11.449
REMARK INTER:                 -10.400
REMARK INTRA:                  -1.049
REMARK UNBOUND:                -1.549
REMARK SMILES O=c1c(O[C@H]2O[C@@H](CO)[C@H](O)[C@@H](O)[C@@H]2O)c(-c2ccc(O)cc2)oc2cc(O)cc(O)c12
REMARK SMILES IDX 4 1 3 2 16 3 24 4 2 5 25 6 1 7 32 8 26 9 30 10 27 11 29 12
REMARK SMILES IDX 17 13 18 14 19 15 20 16 23 17 22 18 21 19 31 21 28 23 5 25
REMARK SMILES IDX 14 26 6 27 12 28 7 29 10 30 15 31 13 33 8 35 9 36 11 38
REMARK H PARENT 21 20 31 22 28 24 15 32 13 34 9 37 11 39
REMARK Flexibility Score: inf
ROOT
ATOM      1  O   UNL     1     -38.255   5.284  81.818  1.00  0.00    -0.454 OA
ENDROOT
BRANCH   1   2
ATOM      2  C   UNL     1     -39.000   4.829  80.721  1.00  0.00     0.214 A 
ATOM      3  C   UNL     1     -38.477   4.833  79.412  1.00  0.00     0.180 A 
ATOM      4  O   UNL     1     -39.179   4.291  78.424  1.00  0.00    -0.452 OA
ATOM      5  C   UNL     1     -40.295   4.343  80.933  1.00  0.00     0.239 A 
ATOM      6  C   UNL     1     -40.399   3.790  78.584  1.00  0.00     0.146 A 
ATOM      7  O   UNL     1     -40.743   4.328  82.109  1.00  0.00    -0.285 OA
ATOM      8  C   UNL     1     -41.046   3.837  79.846  1.00  0.00     0.111 A 
ATOM      9  C   UNL     1     -41.033   3.216  77.479  1.00  0.00     0.094 A 
ATOM     10  C   UNL     1     -42.380   3.337  79.945  1.00  0.00     0.134 A 
ATOM     11  C   UNL     1     -42.314   2.675  77.604  1.00  0.00     0.123 A 
ATOM     12  C   UNL     1     -42.976   2.737  78.830  1.00  0.00     0.093 A 
BRANCH   3  13
ATOM     13  C   UNL     1     -37.161   5.426  79.086  1.00  0.00     0.021 A 
ATOM     14  C   UNL     1     -36.025   4.603  79.019  1.00  0.00     0.016 A 
ATOM     15  C   UNL     1     -34.772   5.150  78.730  1.00  0.00     0.047 A 
ATOM     16  C   UNL     1     -34.641   6.525  78.493  1.00  0.00     0.115 A 
ATOM     17  C   UNL     1     -37.027   6.799  78.818  1.00  0.00     0.016 A 
ATOM     18  C   UNL     1     -35.772   7.345  78.535  1.00  0.00     0.047 A 
BRANCH  16  19
ATOM     19  O   UNL     1     -33.396   7.082  78.213  1.00  0.00    -0.508 OA
ATOM     20  H   UNL     1     -32.617   6.990  78.856  1.00  0.00     0.293 HD
ENDBRANCH  16  19
ENDBRANCH   3  13
BRANCH  10  21
ATOM     21  O   UNL     1     -43.165   3.430  81.098  1.00  0.00    -0.507 OA
ATOM     22  H   UNL     1     -44.161   3.269  81.130  1.00  0.00     0.293 HD
ENDBRANCH  10  21
BRANCH  11  23
ATOM     23  O   UNL     1     -42.944   2.083  76.511  1.00  0.00    -0.508 OA
ATOM     24  H   UNL     1     -43.612   1.330  76.628  1.00  0.00     0.293 HD
ENDBRANCH  11  23
ENDBRANCH   1   2
BRANCH   1  25
ATOM     25  C   UNL     1     -37.046   4.661  82.256  1.00  0.00     0.339 C 
ATOM     26  C   UNL     1     -37.302   3.935  83.610  1.00  0.00     0.214 C 
ATOM     27  O   UNL     1     -36.046   5.665  82.339  1.00  0.00    -0.332 OA
ATOM     28  C   UNL     1     -36.681   4.715  84.789  1.00  0.00     0.180 C 
ATOM     29  C   UNL     1     -34.898   5.174  83.001  1.00  0.00     0.179 C 
ATOM     30  C   UNL     1     -35.189   5.061  84.521  1.00  0.00     0.177 C 
BRANCH  26  31
ATOM     31  O   UNL     1     -36.761   2.639  83.552  1.00  0.00    -0.384 OA
ATOM     32  H   UNL     1     -36.694   2.396  82.591  1.00  0.00     0.211 HD
ENDBRANCH  26  31
BRANCH  28  33
ATOM     33  O   UNL     1     -37.419   5.895  84.980  1.00  0.00    -0.387 OA
ATOM     34  H   UNL     1     -37.398   6.392  84.119  1.00  0.00     0.211 HD
ENDBRANCH  28  33
BRANCH  29  35
ATOM     35  C   UNL     1     -33.709   6.102  82.714  1.00  0.00     0.191 C 
BRANCH  35  36
ATOM     36  O   UNL     1     -34.089   7.172  81.888  1.00  0.00    -0.394 OA
ATOM     37  H   UNL     1     -34.500   7.857  82.477  1.00  0.00     0.210 HD
ENDBRANCH  35  36
ENDBRANCH  29  35
BRANCH  30  38
ATOM     38  O   UNL     1     -34.332   4.120  85.123  1.00  0.00    -0.387 OA
ATOM     39  H   UNL     1     -33.403   4.457  85.041  1.00  0.00     0.211 HD
ENDBRANCH  30  38
ENDBRANCH   1  25
TORSDOF 11
ENDMDL
MODEL 4
REMARK VINA RESULT:    -6.830      1.729      3.026
REMARK INTER + INTRA:         -11.373
REMARK INTER:                 -10.189
REMARK INTRA:                  -1.184
REMARK UNBOUND:                -1.549
REMARK SMILES O=c1c(O[C@H]2O[C@@H](CO)[C@H](O)[C@@H](O)[C@@H]2O)c(-c2ccc(O)cc2)oc2cc(O)cc(O)c12
REMARK SMILES IDX 4 1 3 2 16 3 24 4 2 5 25 6 1 7 32 8 26 9 30 10 27 11 29 12
REMARK SMILES IDX 17 13 18 14 19 15 20 16 23 17 22 18 21 19 31 21 28 23 5 25
REMARK SMILES IDX 14 26 6 27 12 28 7 29 10 30 15 31 13 33 8 35 9 36 11 38
REMARK H PARENT 21 20 31 22 28 24 15 32 13 34 9 37 11 39
REMARK Flexibility Score: inf
ROOT
ATOM      1  O   UNL     1     -38.381   5.831  81.561  1.00  0.00    -0.454 OA
ENDROOT
BRANCH   1   2
ATOM      2  C   UNL     1     -39.106   5.181  80.553  1.00  0.00     0.214 A 
ATOM      3  C   UNL     1     -38.611   5.058  79.239  1.00  0.00     0.180 A 
ATOM      4  O   UNL     1     -39.284   4.338  78.349  1.00  0.00    -0.452 OA
ATOM      5  C   UNL     1     -40.352   4.624  80.863  1.00  0.00     0.239 A 
ATOM      6  C   UNL     1     -40.454   3.766  78.607  1.00  0.00     0.146 A 
ATOM      7  O   UNL     1     -40.774   4.725  82.044  1.00  0.00    -0.285 OA
ATOM      8  C   UNL     1     -41.079   3.923  79.872  1.00  0.00     0.111 A 
ATOM      9  C   UNL     1     -41.060   3.004  77.604  1.00  0.00     0.094 A 
ATOM     10  C   UNL     1     -42.364   3.335  80.073  1.00  0.00     0.134 A 
ATOM     11  C   UNL     1     -42.288   2.383  77.834  1.00  0.00     0.123 A 
ATOM     12  C   UNL     1     -42.929   2.549  79.061  1.00  0.00     0.093 A 
BRANCH   3  13
ATOM     13  C   UNL     1     -37.355   5.708  78.801  1.00  0.00     0.021 A 
ATOM     14  C   UNL     1     -36.165   4.965  78.763  1.00  0.00     0.016 A 
ATOM     15  C   UNL     1     -34.967   5.568  78.370  1.00  0.00     0.047 A 
ATOM     16  C   UNL     1     -34.947   6.919  77.997  1.00  0.00     0.115 A 
ATOM     17  C   UNL     1     -37.334   7.054  78.398  1.00  0.00     0.016 A 
ATOM     18  C   UNL     1     -36.134   7.657  78.010  1.00  0.00     0.047 A 
BRANCH  16  19
ATOM     19  O   UNL     1     -33.759   7.533  77.612  1.00  0.00    -0.508 OA
ATOM     20  H   UNL     1     -33.663   8.542  77.600  1.00  0.00     0.293 HD
ENDBRANCH  16  19
ENDBRANCH   3  13
BRANCH  10  21
ATOM     21  O   UNL     1     -43.132   3.512  81.227  1.00  0.00    -0.507 OA
ATOM     22  H   UNL     1     -43.030   4.281  81.873  1.00  0.00     0.293 HD
ENDBRANCH  10  21
BRANCH  11  23
ATOM     23  O   UNL     1     -42.887   1.607  76.845  1.00  0.00    -0.508 OA
ATOM     24  H   UNL     1     -43.385   2.027  76.069  1.00  0.00     0.293 HD
ENDBRANCH  11  23
ENDBRANCH   1   2
BRANCH   1  25
ATOM     25  C   UNL     1     -37.609   5.137  82.542  1.00  0.00     0.339 C 
ATOM     26  C   UNL     1     -37.536   5.995  83.840  1.00  0.00     0.214 C 
ATOM     27  O   UNL     1     -36.335   4.864  81.978  1.00  0.00    -0.332 OA
ATOM     28  C   UNL     1     -36.145   6.647  84.003  1.00  0.00     0.180 C 
ATOM     29  C   UNL     1     -35.437   4.407  82.969  1.00  0.00     0.179 C 
ATOM     30  C   UNL     1     -35.005   5.598  83.864  1.00  0.00     0.177 C 
BRANCH  26  31
ATOM     31  O   UNL     1     -37.820   5.181  84.950  1.00  0.00    -0.384 OA
ATOM     32  H   UNL     1     -38.800   5.230  85.103  1.00  0.00     0.211 HD
ENDBRANCH  26  31
BRANCH  28  33
ATOM     33  O   UNL     1     -36.003   7.642  83.021  1.00  0.00    -0.387 OA
ATOM     34  H   UNL     1     -35.747   7.183  82.178  1.00  0.00     0.211 HD
ENDBRANCH  28  33
BRANCH  29  35
ATOM     35  C   UNL     1     -34.234   3.732  82.294  1.00  0.00     0.191 C 
BRANCH  35  36
ATOM     36  O   UNL     1     -33.395   3.125  83.243  1.00  0.00    -0.394 OA
ATOM     37  H   UNL     1     -32.509   3.566  83.167  1.00  0.00     0.210 HD
ENDBRANCH  35  36
ENDBRANCH  29  35
BRANCH  30  38
ATOM     38  O   UNL     1     -34.574   5.145  85.125  1.00  0.00    -0.387 OA
ATOM     39  H   UNL     1     -33.672   5.520  85.292  1.00  0.00     0.211 HD
ENDBRANCH  30  38
ENDBRANCH   1  25
TORSDOF 11
ENDMDL
MODEL 5
REMARK VINA RESULT:    -6.679      2.731      6.780
REMARK INTER + INTRA:         -11.156
REMARK INTER:                  -9.928
REMARK INTRA:                  -1.229
REMARK UNBOUND:                -1.549
REMARK SMILES O=c1c(O[C@H]2O[C@@H](CO)[C@H](O)[C@@H](O)[C@@H]2O)c(-c2ccc(O)cc2)oc2cc(O)cc(O)c12
REMARK SMILES IDX 4 1 3 2 16 3 24 4 2 5 25 6 1 7 32 8 26 9 30 10 27 11 29 12
REMARK SMILES IDX 17 13 18 14 19 15 20 16 23 17 22 18 21 19 31 21 28 23 5 25
REMARK SMILES IDX 14 26 6 27 12 28 7 29 10 30 15 31 13 33 8 35 9 36 11 38
REMARK H PARENT 21 20 31 22 28 24 15 32 13 34 9 37 11 39
REMARK Flexibility Score: inf
ROOT
ATOM      1  O   UNL     1     -38.568   4.692  78.358  1.00  0.00    -0.454 OA
ENDROOT
BRANCH   1   2
ATOM      2  C   UNL     1     -37.683   5.496  79.090  1.00  0.00     0.214 A 
ATOM      3  C   UNL     1     -37.679   6.901  78.968  1.00  0.00     0.180 A 
ATOM      4  O   UNL     1     -36.899   7.625  79.762  1.00  0.00    -0.452 OA
ATOM      5  C   UNL     1     -36.787   4.889  79.976  1.00  0.00     0.239 A 
ATOM      6  C   UNL     1     -36.055   7.094  80.639  1.00  0.00     0.146 A 
ATOM      7  O   UNL     1     -36.814   3.636  80.088  1.00  0.00    -0.285 OA
ATOM      8  C   UNL     1     -35.917   5.686  80.757  1.00  0.00     0.111 A 
ATOM      9  C   UNL     1     -35.304   7.952  81.446  1.00  0.00     0.094 A 
ATOM     10  C   UNL     1     -34.953   5.172  81.676  1.00  0.00     0.134 A 
ATOM     11  C   UNL     1     -34.408   7.436  82.384  1.00  0.00     0.123 A 
ATOM     12  C   UNL     1     -34.240   6.056  82.495  1.00  0.00     0.093 A 
BRANCH   3  13
ATOM     13  C   UNL     1     -38.518   7.613  77.979  1.00  0.00     0.021 A 
ATOM     14  C   UNL     1     -39.577   8.422  78.420  1.00  0.00     0.016 A 
ATOM     15  C   UNL     1     -40.390   9.087  77.498  1.00  0.00     0.047 A 
ATOM     16  C   UNL     1     -40.145   8.962  76.123  1.00  0.00     0.115 A 
ATOM     17  C   UNL     1     -38.259   7.515  76.600  1.00  0.00     0.016 A 
ATOM     18  C   UNL     1     -39.077   8.177  75.679  1.00  0.00     0.047 A 
BRANCH  16  19
ATOM     19  O   UNL     1     -40.953   9.613  75.195  1.00  0.00    -0.508 OA
ATOM     20  H   UNL     1     -41.580   9.100  74.586  1.00  0.00     0.293 HD
ENDBRANCH  16  19
ENDBRANCH   3  13
BRANCH  10  21
ATOM     21  O   UNL     1     -34.640   3.815  81.802  1.00  0.00    -0.507 OA
ATOM     22  H   UNL     1     -35.099   3.070  81.300  1.00  0.00     0.293 HD
ENDBRANCH  10  21
BRANCH  11  23
ATOM     23  O   UNL     1     -33.671   8.287  83.205  1.00  0.00    -0.508 OA
ATOM     24  H   UNL     1     -34.024   9.197  83.479  1.00  0.00     0.293 HD
ENDBRANCH  11  23
ENDBRANCH   1   2
BRANCH   1  25
ATOM     25  C   UNL     1     -39.982   4.694  78.566  1.00  0.00     0.339 C 
ATOM     26  C   UNL     1     -40.281   5.027  80.058  1.00  0.00     0.214 C 
ATOM     27  O   UNL     1     -40.482   3.428  78.164  1.00  0.00    -0.332 OA
ATOM     28  C   UNL     1     -40.721   3.768  80.836  1.00  0.00     0.180 C 
ATOM     29  C   UNL     1     -41.826   3.268  78.573  1.00  0.00     0.179 C 
ATOM     30  C   UNL     1     -41.872   3.020  80.104  1.00  0.00     0.177 C 
BRANCH  26  31
ATOM     31  O   UNL     1     -41.285   6.009  80.122  1.00  0.00    -0.384 OA
ATOM     32  H   UNL     1     -40.935   6.747  80.687  1.00  0.00     0.211 HD
ENDBRANCH  26  31
BRANCH  28  33
ATOM     33  O   UNL     1     -39.611   2.919  80.974  1.00  0.00    -0.387 OA
ATOM     34  H   UNL     1     -39.935   1.991  80.829  1.00  0.00     0.211 HD
ENDBRANCH  28  33
BRANCH  29  35
ATOM     35  C   UNL     1     -42.463   2.114  77.787  1.00  0.00     0.191 C 
BRANCH  35  36
ATOM     36  O   UNL     1     -42.798   2.513  76.483  1.00  0.00    -0.394 OA
ATOM     37  H   UNL     1     -43.503   1.892  76.164  1.00  0.00     0.210 HD
ENDBRANCH  35  36
ENDBRANCH  29  35
BRANCH  30  38
ATOM     38  O   UNL     1     -43.128   3.380  80.629  1.00  0.00    -0.387 OA
ATOM     39  H   UNL     1     -42.983   4.091  81.305  1.00  0.00     0.211 HD
ENDBRANCH  30  38
ENDBRANCH   1  25
TORSDOF 11
ENDMDL
MODEL 6
REMARK VINA RESULT:    -6.568      2.421      6.255
REMARK INTER + INTRA:         -10.996
REMARK INTER:                  -9.751
REMARK INTRA:                  -1.245
REMARK UNBOUND:                -1.549
REMARK SMILES O=c1c(O[C@H]2O[C@@H](CO)[C@H](O)[C@@H](O)[C@@H]2O)c(-c2ccc(O)cc2)oc2cc(O)cc(O)c12
REMARK SMILES IDX 4 1 3 2 16 3 24 4 2 5 25 6 1 7 32 8 26 9 30 10 27 11 29 12
REMARK SMILES IDX 17 13 18 14 19 15 20 16 23 17 22 18 21 19 31 21 28 23 5 25
REMARK SMILES IDX 14 26 6 27 12 28 7 29 10 30 15 31 13 33 8 35 9 36 11 38
REMARK H PARENT 21 20 31 22 28 24 15 32 13 34 9 37 11 39
REMARK Flexibility Score: inf
ROOT
ATOM      1  O   UNL     1     -36.926   4.467  81.530  1.00  0.00    -0.454 OA
ENDROOT
BRANCH   1   2
ATOM      2  C   UNL     1     -36.427   5.315  80.531  1.00  0.00     0.214 A 
ATOM      3  C   UNL     1     -36.994   5.363  79.242  1.00  0.00     0.180 A 
ATOM      4  O   UNL     1     -36.557   6.261  78.366  1.00  0.00    -0.452 OA
ATOM      5  C   UNL     1     -35.342   6.147  80.827  1.00  0.00     0.239 A 
ATOM      6  C   UNL     1     -35.551   7.092  78.613  1.00  0.00     0.146 A 
ATOM      7  O   UNL     1     -34.856   6.107  81.987  1.00  0.00    -0.285 OA
ATOM      8  C   UNL     1     -34.852   7.043  79.848  1.00  0.00     0.111 A 
ATOM      9  C   UNL     1     -35.194   8.018  77.629  1.00  0.00     0.094 A 
ATOM     10  C   UNL     1     -33.741   7.921  80.035  1.00  0.00     0.134 A 
ATOM     11  C   UNL     1     -34.145   8.912  77.849  1.00  0.00     0.123 A 
ATOM     12  C   UNL     1     -33.430   8.860  79.044  1.00  0.00     0.093 A 
BRANCH   3  13
ATOM     13  C   UNL     1     -38.072   4.443  78.815  1.00  0.00     0.021 A 
ATOM     14  C   UNL     1     -39.320   4.963  78.436  1.00  0.00     0.016 A 
ATOM     15  C   UNL     1     -40.354   4.106  78.048  1.00  0.00     0.047 A 
ATOM     16  C   UNL     1     -40.148   2.719  78.022  1.00  0.00     0.115 A 
ATOM     17  C   UNL     1     -37.863   3.054  78.758  1.00  0.00     0.016 A 
ATOM     18  C   UNL     1     -38.900   2.199  78.375  1.00  0.00     0.047 A 
BRANCH  16  19
ATOM     19  O   UNL     1     -41.173   1.856  77.645  1.00  0.00    -0.508 OA
ATOM     20  H   UNL     1     -40.979   0.955  77.224  1.00  0.00     0.293 HD
ENDBRANCH  16  19
ENDBRANCH   3  13
BRANCH  10  21
ATOM     21  O   UNL     1     -32.903   7.892  81.153  1.00  0.00    -0.507 OA
ATOM     22  H   UNL     1     -32.542   7.052  81.580  1.00  0.00     0.293 HD
ENDBRANCH  10  21
BRANCH  11  23
ATOM     23  O   UNL     1     -33.798   9.850  76.879  1.00  0.00    -0.508 OA
ATOM     24  H   UNL     1     -32.842  10.168  76.767  1.00  0.00     0.293 HD
ENDBRANCH  11  23
ENDBRANCH   1   2
BRANCH   1  25
ATOM     25  C   UNL     1     -38.083   4.774  82.310  1.00  0.00     0.339 C 
ATOM     26  C   UNL     1     -37.750   4.581  83.820  1.00  0.00     0.214 C 
ATOM     27  O   UNL     1     -39.143   3.943  81.860  1.00  0.00    -0.332 OA
ATOM     28  C   UNL     1     -38.392   3.291  84.375  1.00  0.00     0.180 C 
ATOM     29  C   UNL     1     -40.242   4.010  82.747  1.00  0.00     0.179 C 
ATOM     30  C   UNL     1     -39.910   3.221  84.040  1.00  0.00     0.177 C 
BRANCH  26  31
ATOM     31  O   UNL     1     -38.208   5.697  84.541  1.00  0.00    -0.384 OA
ATOM     32  H   UNL     1     -38.011   6.500  83.991  1.00  0.00     0.211 HD
ENDBRANCH  26  31
BRANCH  28  33
ATOM     33  O   UNL     1     -37.727   2.188  83.816  1.00  0.00    -0.387 OA
ATOM     34  H   UNL     1     -37.676   1.491  84.524  1.00  0.00     0.211 HD
ENDBRANCH  28  33
BRANCH  29  35
ATOM     35  C   UNL     1     -41.494   3.462  82.047  1.00  0.00     0.191 C 
BRANCH  35  36
ATOM     36  O   UNL     1     -42.230   2.630  82.906  1.00  0.00    -0.394 OA
ATOM     37  H   UNL     1     -43.177   2.680  82.613  1.00  0.00     0.210 HD
ENDBRANCH  35  36
ENDBRANCH  29  35
BRANCH  30  38
ATOM     38  O   UNL     1     -40.690   3.680  85.118  1.00  0.00    -0.387 OA
ATOM     39  H   UNL     1     -40.843   2.915  85.730  1.00  0.00     0.211 HD
ENDBRANCH  30  38
ENDBRANCH   1  25
TORSDOF 11
ENDMDL
MODEL 7
REMARK VINA RESULT:    -6.340      2.795      7.073
REMARK INTER + INTRA:         -10.669
REMARK INTER:                  -9.713
REMARK INTRA:                  -0.955
REMARK UNBOUND:                -1.549
REMARK SMILES O=c1c(O[C@H]2O[C@@H](CO)[C@H](O)[C@@H](O)[C@@H]2O)c(-c2ccc(O)cc2)oc2cc(O)cc(O)c12
REMARK SMILES IDX 4 1 3 2 16 3 24 4 2 5 25 6 1 7 32 8 26 9 30 10 27 11 29 12
REMARK SMILES IDX 17 13 18 14 19 15 20 16 23 17 22 18 21 19 31 21 28 23 5 25
REMARK SMILES IDX 14 26 6 27 12 28 7 29 10 30 15 31 13 33 8 35 9 36 11 38
REMARK H PARENT 21 20 31 22 28 24 15 32 13 34 9 37 11 39
REMARK Flexibility Score: inf
ROOT
ATOM      1  O   UNL     1     -38.402   5.214  77.911  1.00  0.00    -0.454 OA
ENDROOT
BRANCH   1   2
ATOM      2  C   UNL     1     -37.389   6.144  78.184  1.00  0.00     0.214 A 
ATOM      3  C   UNL     1     -37.607   7.534  78.086  1.00  0.00     0.180 A 
ATOM      4  O   UNL     1     -36.651   8.375  78.461  1.00  0.00    -0.452 OA
ATOM      5  C   UNL     1     -36.129   5.681  78.578  1.00  0.00     0.239 A 
ATOM      6  C   UNL     1     -35.450   7.981  78.870  1.00  0.00     0.146 A 
ATOM      7  O   UNL     1     -35.953   4.439  78.678  1.00  0.00    -0.285 OA
ATOM      8  C   UNL     1     -35.107   6.604  78.902  1.00  0.00     0.111 A 
ATOM      9  C   UNL     1     -34.530   8.953  79.271  1.00  0.00     0.094 A 
ATOM     10  C   UNL     1     -33.783   6.243  79.295  1.00  0.00     0.134 A 
ATOM     11  C   UNL     1     -33.258   8.583  79.711  1.00  0.00     0.123 A 
ATOM     12  C   UNL     1     -32.894   7.237  79.723  1.00  0.00     0.093 A 
BRANCH   3  13
ATOM     13  C   UNL     1     -38.874   8.103  77.576  1.00  0.00     0.021 A 
ATOM     14  C   UNL     1     -39.941   8.328  78.460  1.00  0.00     0.016 A 
ATOM     15  C   UNL     1     -41.150   8.849  77.991  1.00  0.00     0.047 A 
ATOM     16  C   UNL     1     -41.303   9.163  76.633  1.00  0.00     0.115 A 
ATOM     17  C   UNL     1     -39.024   8.448  76.221  1.00  0.00     0.016 A 
ATOM     18  C   UNL     1     -40.236   8.963  75.753  1.00  0.00     0.047 A 
BRANCH  16  19
ATOM     19  O   UNL     1     -42.506   9.673  76.153  1.00  0.00    -0.508 OA
ATOM     20  H   UNL     1     -43.379   9.173  76.272  1.00  0.00     0.293 HD
ENDBRANCH  16  19
ENDBRANCH   3  13
BRANCH  10  21
ATOM     21  O   UNL     1     -33.286   4.937  79.258  1.00  0.00    -0.507 OA
ATOM     22  H   UNL     1     -33.606   4.218  78.625  1.00  0.00     0.293 HD
ENDBRANCH  10  21
BRANCH  11  23
ATOM     23  O   UNL     1     -32.344   9.546  80.130  1.00  0.00    -0.508 OA
ATOM     24  H   UNL     1     -32.037  10.290  79.514  1.00  0.00     0.293 HD
ENDBRANCH  11  23
ENDBRANCH   1   2
BRANCH   1  25
ATOM     25  C   UNL     1     -38.807   4.204  78.838  1.00  0.00     0.339 C 
ATOM     26  C   UNL     1     -40.084   3.494  78.298  1.00  0.00     0.214 C 
ATOM     27  O   UNL     1     -39.003   4.826  80.099  1.00  0.00    -0.332 OA
ATOM     28  C   UNL     1     -41.342   3.938  79.074  1.00  0.00     0.180 C 
ATOM     29  C   UNL     1     -39.643   3.943  80.998  1.00  0.00     0.179 C 
ATOM     30  C   UNL     1     -41.139   3.808  80.611  1.00  0.00     0.177 C 
BRANCH  26  31
ATOM     31  O   UNL     1     -39.919   2.102  78.402  1.00  0.00    -0.384 OA
ATOM     32  H   UNL     1     -40.230   1.839  79.308  1.00  0.00     0.211 HD
ENDBRANCH  26  31
BRANCH  28  33
ATOM     33  O   UNL     1     -41.623   5.273  78.740  1.00  0.00    -0.387 OA
ATOM     34  H   UNL     1     -40.981   5.535  78.028  1.00  0.00     0.211 HD
ENDBRANCH  28  33
BRANCH  29  35
ATOM     35  C   UNL     1     -39.467   4.461  82.432  1.00  0.00     0.191 C 
BRANCH  35  36
ATOM     36  O   UNL     1     -40.639   4.278  83.184  1.00  0.00    -0.394 OA
ATOM     37  H   UNL     1     -41.402   4.443  82.572  1.00  0.00     0.210 HD
ENDBRANCH  35  36
ENDBRANCH  29  35
BRANCH  30  38
ATOM     38  O   UNL     1     -41.672   2.598  81.094  1.00  0.00    -0.387 OA
ATOM     39  H   UNL     1     -41.265   1.857  80.575  1.00  0.00     0.211 HD
ENDBRANCH  30  38
ENDBRANCH   1  25
TORSDOF 11
ENDMDL
MODEL 8
REMARK VINA RESULT:    -6.241     10.949     14.525
REMARK INTER + INTRA:         -10.526
REMARK INTER:                  -9.545
REMARK INTRA:                  -0.981
REMARK UNBOUND:                -1.549
REMARK SMILES O=c1c(O[C@H]2O[C@@H](CO)[C@H](O)[C@@H](O)[C@@H]2O)c(-c2ccc(O)cc2)oc2cc(O)cc(O)c12
REMARK SMILES IDX 4 1 3 2 16 3 24 4 2 5 25 6 1 7 32 8 26 9 30 10 27 11 29 12
REMARK SMILES IDX 17 13 18 14 19 15 20 16 23 17 22 18 21 19 31 21 28 23 5 25
REMARK SMILES IDX 14 26 6 27 12 28 7 29 10 30 15 31 13 33 8 35 9 36 11 38
REMARK H PARENT 21 20 31 22 28 24 15 32 13 34 9 37 11 39
REMARK Flexibility Score: inf
ROOT
ATOM      1  O   UNL     1     -48.455   3.919  70.551  1.00  0.00    -0.454 OA
ENDROOT
BRANCH   1   2
ATOM      2  C   UNL     1     -48.350   2.651  69.962  1.00  0.00     0.214 A 
ATOM      3  C   UNL     1     -47.942   1.519  70.697  1.00  0.00     0.180 A 
ATOM      4  O   UNL     1     -47.965   0.322  70.123  1.00  0.00    -0.452 OA
ATOM      5  C   UNL     1     -48.672   2.501  68.609  1.00  0.00     0.239 A 
ATOM      6  C   UNL     1     -48.293   0.128  68.850  1.00  0.00     0.146 A 
ATOM      7  O   UNL     1     -49.052   3.517  67.969  1.00  0.00    -0.285 OA
ATOM      8  C   UNL     1     -48.617   1.223  68.006  1.00  0.00     0.111 A 
ATOM      9  C   UNL     1     -48.313  -1.180  68.359  1.00  0.00     0.094 A 
ATOM     10  C   UNL     1     -48.905   0.960  66.633  1.00  0.00     0.134 A 
ATOM     11  C   UNL     1     -48.656  -1.429  67.029  1.00  0.00     0.123 A 
ATOM     12  C   UNL     1     -48.950  -0.364  66.178  1.00  0.00     0.093 A 
BRANCH   3  13
ATOM     13  C   UNL     1     -47.483   1.609  72.101  1.00  0.00     0.021 A 
ATOM     14  C   UNL     1     -48.422   1.787  73.129  1.00  0.00     0.016 A 
ATOM     15  C   UNL     1     -48.003   1.891  74.458  1.00  0.00     0.047 A 
ATOM     16  C   UNL     1     -46.640   1.806  74.777  1.00  0.00     0.115 A 
ATOM     17  C   UNL     1     -46.121   1.494  72.429  1.00  0.00     0.016 A 
ATOM     18  C   UNL     1     -45.703   1.605  73.759  1.00  0.00     0.047 A 
BRANCH  16  19
ATOM     19  O   UNL     1     -46.210   1.918  76.096  1.00  0.00    -0.508 OA
ATOM     20  H   UNL     1     -46.857   2.122  76.849  1.00  0.00     0.293 HD
ENDBRANCH  16  19
ENDBRANCH   3  13
BRANCH  10  21
ATOM     21  O   UNL     1     -49.125   1.956  65.677  1.00  0.00    -0.507 OA
ATOM     22  H   UNL     1     -49.004   2.944  65.838  1.00  0.00     0.293 HD
ENDBRANCH  10  21
BRANCH  11  23
ATOM     23  O   UNL     1     -48.696  -2.732  66.539  1.00  0.00    -0.508 OA
ATOM     24  H   UNL     1     -48.876  -2.926  65.560  1.00  0.00     0.293 HD
ENDBRANCH  11  23
ENDBRANCH   1   2
BRANCH   1  25
ATOM     25  C   UNL     1     -47.347   4.810  70.692  1.00  0.00     0.339 C 
ATOM     26  C   UNL     1     -46.997   4.961  72.202  1.00  0.00     0.214 C 
ATOM     27  O   UNL     1     -47.697   6.039  70.073  1.00  0.00    -0.332 OA
ATOM     28  C   UNL     1     -47.462   6.327  72.751  1.00  0.00     0.180 C 
ATOM     29  C   UNL     1     -46.756   7.045  70.390  1.00  0.00     0.179 C 
ATOM     30  C   UNL     1     -46.962   7.499  71.859  1.00  0.00     0.177 C 
BRANCH  26  31
ATOM     31  O   UNL     1     -45.610   4.819  72.374  1.00  0.00    -0.384 OA
ATOM     32  H   UNL     1     -45.358   3.938  71.989  1.00  0.00     0.211 HD
ENDBRANCH  26  31
BRANCH  28  33
ATOM     33  O   UNL     1     -48.866   6.331  72.804  1.00  0.00    -0.387 OA
ATOM     34  H   UNL     1     -49.159   7.267  72.643  1.00  0.00     0.211 HD
ENDBRANCH  28  33
BRANCH  29  35
ATOM     35  C   UNL     1     -46.905   8.212  69.403  1.00  0.00     0.191 C 
BRANCH  35  36
ATOM     36  O   UNL     1     -46.132   8.002  68.250  1.00  0.00    -0.394 OA
ATOM     37  H   UNL     1     -46.170   8.842  67.722  1.00  0.00     0.210 HD
ENDBRANCH  35  36
ENDBRANCH  29  35
BRANCH  30  38
ATOM     38  O   UNL     1     -45.781   8.064  72.376  1.00  0.00    -0.387 OA
ATOM     39  H   UNL     1     -45.855   8.072  73.365  1.00  0.00     0.211 HD
ENDBRANCH  30  38
ENDBRANCH   1  25
TORSDOF 11
ENDMDL
MODEL 9
REMARK VINA RESULT:    -6.111      2.945      6.508
REMARK INTER + INTRA:         -10.339
REMARK INTER:                  -8.833
REMARK INTRA:                  -1.506
REMARK UNBOUND:                -1.549
REMARK SMILES O=c1c(O[C@H]2O[C@@H](CO)[C@H](O)[C@@H](O)[C@@H]2O)c(-c2ccc(O)cc2)oc2cc(O)cc(O)c12
REMARK SMILES IDX 4 1 3 2 16 3 24 4 2 5 25 6 1 7 32 8 26 9 30 10 27 11 29 12
REMARK SMILES IDX 17 13 18 14 19 15 20 16 23 17 22 18 21 19 31 21 28 23 5 25
REMARK SMILES IDX 14 26 6 27 12 28 7 29 10 30 15 31 13 33 8 35 9 36 11 38
REMARK H PARENT 21 20 31 22 28 24 15 32 13 34 9 37 11 39
REMARK Flexibility Score: inf
ROOT
ATOM      1  O   UNL     1     -40.836   6.591  79.854  1.00  0.00    -0.454 OA
ENDROOT
BRANCH   1   2
ATOM      2  C   UNL     1     -40.082   5.709  80.641  1.00  0.00     0.214 A 
ATOM      3  C   UNL     1     -40.083   4.318  80.410  1.00  0.00     0.180 A 
ATOM      4  O   UNL     1     -39.268   3.538  81.111  1.00  0.00    -0.452 OA
ATOM      5  C   UNL     1     -39.296   6.225  81.677  1.00  0.00     0.239 A 
ATOM      6  C   UNL     1     -38.482   3.987  82.082  1.00  0.00     0.146 A 
ATOM      7  O   UNL     1     -39.291   7.470  81.860  1.00  0.00    -0.285 OA
ATOM      8  C   UNL     1     -38.493   5.357  82.454  1.00  0.00     0.111 A 
ATOM      9  C   UNL     1     -37.642   3.080  82.733  1.00  0.00     0.094 A 
ATOM     10  C   UNL     1     -37.670   5.772  83.544  1.00  0.00     0.134 A 
ATOM     11  C   UNL     1     -36.798   3.510  83.758  1.00  0.00     0.123 A 
ATOM     12  C   UNL     1     -36.814   4.847  84.154  1.00  0.00     0.093 A 
BRANCH   3  13
ATOM     13  C   UNL     1     -40.965   3.682  79.407  1.00  0.00     0.021 A 
ATOM     14  C   UNL     1     -40.437   3.290  78.167  1.00  0.00     0.016 A 
ATOM     15  C   UNL     1     -41.261   2.703  77.201  1.00  0.00     0.047 A 
ATOM     16  C   UNL     1     -42.620   2.490  77.470  1.00  0.00     0.115 A 
ATOM     17  C   UNL     1     -42.322   3.438  79.681  1.00  0.00     0.016 A 
ATOM     18  C   UNL     1     -43.145   2.856  78.712  1.00  0.00     0.047 A 
BRANCH  16  19
ATOM     19  O   UNL     1     -43.451   1.915  76.513  1.00  0.00    -0.508 OA
ATOM     20  H   UNL     1     -43.076   1.451  75.694  1.00  0.00     0.293 HD
ENDBRANCH  16  19
ENDBRANCH   3  13
BRANCH  10  21
ATOM     21  O   UNL     1     -37.677   7.063  84.079  1.00  0.00    -0.507 OA
ATOM     22  H   UNL     1     -36.881   7.512  84.508  1.00  0.00     0.293 HD
ENDBRANCH  10  21
BRANCH  11  23
ATOM     23  O   UNL     1     -35.944   2.614  84.397  1.00  0.00    -0.508 OA
ATOM     24  H   UNL     1     -36.298   1.882  85.000  1.00  0.00     0.293 HD
ENDBRANCH  11  23
ENDBRANCH   1   2
BRANCH   1  25
ATOM     25  C   UNL     1     -40.512   6.901  78.497  1.00  0.00     0.339 C 
ATOM     26  C   UNL     1     -38.964   6.882  78.321  1.00  0.00     0.214 C 
ATOM     27  O   UNL     1     -41.095   8.158  78.188  1.00  0.00    -0.332 OA
ATOM     28  C   UNL     1     -38.396   8.313  78.208  1.00  0.00     0.180 C 
ATOM     29  C   UNL     1     -40.610   8.644  76.952  1.00  0.00     0.179 C 
ATOM     30  C   UNL     1     -39.152   9.143  77.132  1.00  0.00     0.177 C 
BRANCH  26  31
ATOM     31  O   UNL     1     -38.637   6.141  77.172  1.00  0.00    -0.384 OA
ATOM     32  H   UNL     1     -37.651   6.189  77.067  1.00  0.00     0.211 HD
ENDBRANCH  26  31
BRANCH  28  33
ATOM     33  O   UNL     1     -38.510   8.937  79.461  1.00  0.00    -0.387 OA
ATOM     34  H   UNL     1     -38.242   9.886  79.339  1.00  0.00     0.211 HD
ENDBRANCH  28  33
BRANCH  29  35
ATOM     35  C   UNL     1     -41.537   9.757  76.443  1.00  0.00     0.191 C 
BRANCH  35  36
ATOM     36  O   UNL     1     -41.268  10.066  75.100  1.00  0.00    -0.394 OA
ATOM     37  H   UNL     1     -40.994  11.020  75.075  1.00  0.00     0.210 HD
ENDBRANCH  35  36
ENDBRANCH  29  35
BRANCH  30  38
ATOM     38  O   UNL     1     -38.466   9.128  75.903  1.00  0.00    -0.387 OA
ATOM     39  H   UNL     1     -38.179  10.056  75.703  1.00  0.00     0.211 HD
ENDBRANCH  30  38
ENDBRANCH   1  25
TORSDOF 11
ENDMDL
