MODEL 1
REMARK VINA RESULT:    -5.978      0.000      0.000
REMARK INTER + INTRA:          -7.405
REMARK INTER:                  -7.201
REMARK INTRA:                  -0.204
REMARK UNBOUND:                -0.204
REMARK SMILES O=c1c(O)c(-c2ccc(O)c(O)c2)oc2cc(O)cc(O)c12
REMARK SMILES IDX 5 1 3 2 2 3 1 4 22 5 20 6 19 7 17 8 16 9 15 10 14 11 6 12
REMARK SMILES IDX 7 13 8 14 9 15 13 16 11 17 10 18 12 20 4 22 21 24 18 26
REMARK H PARENT 10 19 12 21 4 23 21 25 18 27
REMARK Flexibility Score: inf
ROOT
ATOM      1  C   UNL     1     -11.127  -8.439  -5.875  1.00  0.00     0.180 A 
ATOM      2  C   UNL     1      -9.868  -8.946  -5.500  1.00  0.00     0.208 A 
ATOM      3  C   UNL     1      -9.686 -10.337  -5.445  1.00  0.00     0.238 A 
ATOM      4  O   UNL     1      -8.561 -10.803  -5.121  1.00  0.00    -0.285 OA
ATOM      5  C   UNL     1     -10.766 -11.193  -5.745  1.00  0.00     0.111 A 
ATOM      6  C   UNL     1     -10.667 -12.605  -5.708  1.00  0.00     0.134 A 
ATOM      7  C   UNL     1     -11.790 -13.389  -6.011  1.00  0.00     0.093 A 
ATOM      8  C   UNL     1     -13.009 -12.789  -6.347  1.00  0.00     0.123 A 
ATOM      9  C   UNL     1     -13.110 -11.397  -6.385  1.00  0.00     0.094 A 
ATOM     10  C   UNL     1     -12.002 -10.598  -6.088  1.00  0.00     0.146 A 
ATOM     11  O   UNL     1     -12.126  -9.277  -6.136  1.00  0.00    -0.452 OA
ENDROOT
BRANCH   1  12
ATOM     12  C   UNL     1     -11.392  -6.986  -5.975  1.00  0.00     0.025 A 
ATOM     13  C   UNL     1     -12.344  -6.397  -5.128  1.00  0.00     0.016 A 
ATOM     14  C   UNL     1     -12.625  -5.032  -5.218  1.00  0.00     0.051 A 
ATOM     15  C   UNL     1     -11.970  -4.237  -6.168  1.00  0.00     0.157 A 
ATOM     16  C   UNL     1     -10.752  -6.188  -6.941  1.00  0.00     0.062 A 
ATOM     17  C   UNL     1     -11.032  -4.820  -7.037  1.00  0.00     0.158 A 
BRANCH  15  18
ATOM     18  O   UNL     1     -12.251  -2.874  -6.255  1.00  0.00    -0.504 OA
ATOM     19  H   UNL     1     -12.957  -2.440  -5.673  1.00  0.00     0.293 HD
ENDBRANCH  15  18
BRANCH  17  20
ATOM     20  O   UNL     1     -10.374  -4.060  -8.002  1.00  0.00    -0.504 OA
ATOM     21  H   UNL     1     -10.048  -3.119  -7.816  1.00  0.00     0.293 HD
ENDBRANCH  17  20
ENDBRANCH   1  12
BRANCH   2  22
ATOM     22  O   UNL     1      -8.830  -8.075  -5.160  1.00  0.00    -0.502 OA
ATOM     23  H   UNL     1      -8.029  -7.925  -5.763  1.00  0.00     0.293 HD
ENDBRANCH   2  22
BRANCH   6  24
ATOM     24  O   UNL     1      -9.466 -13.233  -5.375  1.00  0.00    -0.507 OA
ATOM     25  H   UNL     1      -8.817 -12.827  -4.711  1.00  0.00     0.293 HD
ENDBRANCH   6  24
BRANCH   8  26
ATOM     26  O   UNL     1     -14.124 -13.567  -6.647  1.00  0.00    -0.508 OA
ATOM     27  H   UNL     1     -14.076 -14.329  -7.313  1.00  0.00     0.293 HD
ENDBRANCH   8  26
TORSDOF 6
ENDMDL
MODEL 2
REMARK VINA RESULT:    -5.850      1.642      7.037
REMARK INTER + INTRA:          -7.251
REMARK INTER:                  -7.139
REMARK INTRA:                  -0.112
REMARK UNBOUND:                -0.204
REMARK SMILES O=c1c(O)c(-c2ccc(O)c(O)c2)oc2cc(O)cc(O)c12
REMARK SMILES IDX 5 1 3 2 2 3 1 4 22 5 20 6 19 7 17 8 16 9 15 10 14 11 6 12
REMARK SMILES IDX 7 13 8 14 9 15 13 16 11 17 10 18 12 20 4 22 21 24 18 26
REMARK H PARENT 10 19 12 21 4 23 21 25 18 27
REMARK Flexibility Score: inf
ROOT
ATOM      1  C   UNL     1     -11.786  -7.963  -5.976  1.00  0.00     0.180 A 
ATOM      2  C   UNL     1     -12.421  -6.989  -5.182  1.00  0.00     0.208 A 
ATOM      3  C   UNL     1     -12.416  -5.653  -5.616  1.00  0.00     0.238 A 
ATOM      4  O   UNL     1     -12.991  -4.773  -4.920  1.00  0.00    -0.285 OA
ATOM      5  C   UNL     1     -11.763  -5.313  -6.819  1.00  0.00     0.111 A 
ATOM      6  C   UNL     1     -11.709  -3.992  -7.323  1.00  0.00     0.134 A 
ATOM      7  C   UNL     1     -11.031  -3.733  -8.524  1.00  0.00     0.093 A 
ATOM      8  C   UNL     1     -10.406  -4.769  -9.227  1.00  0.00     0.123 A 
ATOM      9  C   UNL     1     -10.458  -6.073  -8.734  1.00  0.00     0.094 A 
ATOM     10  C   UNL     1     -11.130  -6.352  -7.540  1.00  0.00     0.146 A 
ATOM     11  O   UNL     1     -11.167  -7.604  -7.096  1.00  0.00    -0.452 OA
ENDROOT
BRANCH   1  12
ATOM     12  C   UNL     1     -11.764  -9.394  -5.596  1.00  0.00     0.025 A 
ATOM     13  C   UNL     1     -12.976 -10.085  -5.437  1.00  0.00     0.016 A 
ATOM     14  C   UNL     1     -12.979 -11.430  -5.059  1.00  0.00     0.051 A 
ATOM     15  C   UNL     1     -11.773 -12.100  -4.817  1.00  0.00     0.157 A 
ATOM     16  C   UNL     1     -10.556 -10.065  -5.333  1.00  0.00     0.062 A 
ATOM     17  C   UNL     1     -10.555 -11.411  -4.951  1.00  0.00     0.158 A 
BRANCH  15  18
ATOM     18  O   UNL     1     -11.779 -13.443  -4.443  1.00  0.00    -0.504 OA
ATOM     19  H   UNL     1     -11.850 -13.722  -3.471  1.00  0.00     0.293 HD
ENDBRANCH  15  18
BRANCH  17  20
ATOM     20  O   UNL     1      -9.339 -12.045  -4.704  1.00  0.00    -0.504 OA
ATOM     21  H   UNL     1      -8.778 -12.444  -5.448  1.00  0.00     0.293 HD
ENDBRANCH  17  20
ENDBRANCH   1  12
BRANCH   2  22
ATOM     22  O   UNL     1     -13.018  -7.344  -3.970  1.00  0.00    -0.502 OA
ATOM     23  H   UNL     1     -13.769  -8.022  -3.915  1.00  0.00     0.293 HD
ENDBRANCH   2  22
BRANCH   6  24
ATOM     24  O   UNL     1     -12.321  -2.937  -6.644  1.00  0.00    -0.507 OA
ATOM     25  H   UNL     1     -12.909  -3.094  -5.834  1.00  0.00     0.293 HD
ENDBRANCH   6  24
BRANCH   8  26
ATOM     26  O   UNL     1      -9.732  -4.512 -10.419  1.00  0.00    -0.508 OA
ATOM     27  H   UNL     1      -8.872  -3.975 -10.436  1.00  0.00     0.293 HD
ENDBRANCH   8  26
TORSDOF 6
ENDMDL
MODEL 3
REMARK VINA RESULT:    -5.804      1.166      1.779
REMARK INTER + INTRA:          -7.195
REMARK INTER:                  -6.871
REMARK INTRA:                  -0.323
REMARK UNBOUND:                -0.204
REMARK SMILES O=c1c(O)c(-c2ccc(O)c(O)c2)oc2cc(O)cc(O)c12
REMARK SMILES IDX 5 1 3 2 2 3 1 4 22 5 20 6 19 7 17 8 16 9 15 10 14 11 6 12
REMARK SMILES IDX 7 13 8 14 9 15 13 16 11 17 10 18 12 20 4 22 21 24 18 26
REMARK H PARENT 10 19 12 21 4 23 21 25 18 27
REMARK Flexibility Score: inf
ROOT
ATOM      1  C   UNL     1     -10.826  -7.859  -6.343  1.00  0.00     0.180 A 
ATOM      2  C   UNL     1      -9.583  -8.281  -5.834  1.00  0.00     0.208 A 
ATOM      3  C   UNL     1      -9.475  -9.573  -5.295  1.00  0.00     0.238 A 
ATOM      4  O   UNL     1      -8.365  -9.967  -4.846  1.00  0.00    -0.285 OA
ATOM      5  C   UNL     1     -10.610 -10.409  -5.255  1.00  0.00     0.111 A 
ATOM      6  C   UNL     1     -10.586 -11.721  -4.725  1.00  0.00     0.134 A 
ATOM      7  C   UNL     1     -11.762 -12.488  -4.713  1.00  0.00     0.093 A 
ATOM      8  C   UNL     1     -12.958 -11.966  -5.219  1.00  0.00     0.123 A 
ATOM      9  C   UNL     1     -12.985 -10.673  -5.743  1.00  0.00     0.094 A 
ATOM     10  C   UNL     1     -11.824  -9.894  -5.766  1.00  0.00     0.146 A 
ATOM     11  O   UNL     1     -11.878  -8.668  -6.275  1.00  0.00    -0.452 OA
ENDROOT
BRANCH   1  12
ATOM     12  C   UNL     1     -11.015  -6.519  -6.945  1.00  0.00     0.025 A 
ATOM     13  C   UNL     1     -10.729  -6.326  -8.306  1.00  0.00     0.016 A 
ATOM     14  C   UNL     1     -10.880  -5.066  -8.890  1.00  0.00     0.051 A 
ATOM     15  C   UNL     1     -11.304  -3.976  -8.119  1.00  0.00     0.157 A 
ATOM     16  C   UNL     1     -11.420  -5.418  -6.170  1.00  0.00     0.062 A 
ATOM     17  C   UNL     1     -11.570  -4.153  -6.750  1.00  0.00     0.158 A 
BRANCH  15  18
ATOM     18  O   UNL     1     -11.456  -2.720  -8.704  1.00  0.00    -0.504 OA
ATOM     19  H   UNL     1     -10.954  -1.910  -8.360  1.00  0.00     0.293 HD
ENDBRANCH  15  18
BRANCH  17  20
ATOM     20  O   UNL     1     -11.980  -3.086  -5.953  1.00  0.00    -0.504 OA
ATOM     21  H   UNL     1     -11.318  -2.460  -5.509  1.00  0.00     0.293 HD
ENDBRANCH  17  20
ENDBRANCH   1  12
BRANCH   2  22
ATOM     22  O   UNL     1      -8.486  -7.416  -5.841  1.00  0.00    -0.502 OA
ATOM     23  H   UNL     1      -7.563  -7.709  -5.543  1.00  0.00     0.293 HD
ENDBRANCH   2  22
BRANCH   6  24
ATOM     24  O   UNL     1      -9.410 -12.268  -4.212  1.00  0.00    -0.507 OA
ATOM     25  H   UNL     1      -8.777 -12.808  -4.790  1.00  0.00     0.293 HD
ENDBRANCH   6  24
BRANCH   8  26
ATOM     26  O   UNL     1     -14.125 -12.726  -5.206  1.00  0.00    -0.508 OA
ATOM     27  H   UNL     1     -14.600 -12.984  -6.064  1.00  0.00     0.293 HD
ENDBRANCH   8  26
TORSDOF 6
ENDMDL
MODEL 4
REMARK VINA RESULT:    -5.388      1.533      2.929
REMARK INTER + INTRA:          -6.695
REMARK INTER:                  -6.583
REMARK INTRA:                  -0.111
REMARK UNBOUND:                -0.204
REMARK SMILES O=c1c(O)c(-c2ccc(O)c(O)c2)oc2cc(O)cc(O)c12
REMARK SMILES IDX 5 1 3 2 2 3 1 4 22 5 20 6 19 7 17 8 16 9 15 10 14 11 6 12
REMARK SMILES IDX 7 13 8 14 9 15 13 16 11 17 10 18 12 20 4 22 21 24 18 26
REMARK H PARENT 10 19 12 21 4 23 21 25 18 27
REMARK Flexibility Score: inf
ROOT
ATOM      1  C   UNL     1     -11.765  -8.658  -5.817  1.00  0.00     0.180 A 
ATOM      2  C   UNL     1     -12.925  -9.062  -5.128  1.00  0.00     0.208 A 
ATOM      3  C   UNL     1     -13.097 -10.424  -4.832  1.00  0.00     0.238 A 
ATOM      4  O   UNL     1     -14.125 -10.798  -4.206  1.00  0.00    -0.285 OA
ATOM      5  C   UNL     1     -12.121 -11.356  -5.245  1.00  0.00     0.111 A 
ATOM      6  C   UNL     1     -12.222 -12.745  -4.990  1.00  0.00     0.134 A 
ATOM      7  C   UNL     1     -11.213 -13.609  -5.442  1.00  0.00     0.093 A 
ATOM      8  C   UNL     1     -10.109 -13.111  -6.144  1.00  0.00     0.123 A 
ATOM      9  C   UNL     1     -10.007 -11.742  -6.397  1.00  0.00     0.094 A 
ATOM     10  C   UNL     1     -11.000 -10.864  -5.953  1.00  0.00     0.146 A 
ATOM     11  O   UNL     1     -10.874  -9.566  -6.204  1.00  0.00    -0.452 OA
ENDROOT
BRANCH   1  12
ATOM     12  C   UNL     1     -11.503  -7.239  -6.148  1.00  0.00     0.025 A 
ATOM     13  C   UNL     1     -11.251  -6.876  -7.481  1.00  0.00     0.016 A 
ATOM     14  C   UNL     1     -10.980  -5.546  -7.814  1.00  0.00     0.051 A 
ATOM     15  C   UNL     1     -10.942  -4.562  -6.818  1.00  0.00     0.157 A 
ATOM     16  C   UNL     1     -11.443  -6.251  -5.149  1.00  0.00     0.062 A 
ATOM     17  C   UNL     1     -11.170  -4.918  -5.478  1.00  0.00     0.158 A 
BRANCH  15  18
ATOM     18  O   UNL     1     -10.675  -3.236  -7.153  1.00  0.00    -0.504 OA
ATOM     19  H   UNL     1     -11.229  -2.740  -7.841  1.00  0.00     0.293 HD
ENDBRANCH  15  18
BRANCH  17  20
ATOM     20  O   UNL     1     -11.125  -3.965  -4.462  1.00  0.00    -0.504 OA
ATOM     21  H   UNL     1     -11.946  -3.708  -3.927  1.00  0.00     0.293 HD
ENDBRANCH  17  20
ENDBRANCH   1  12
BRANCH   2  22
ATOM     22  O   UNL     1     -13.898  -8.126  -4.773  1.00  0.00    -0.502 OA
ATOM     23  H   UNL     1     -14.821  -8.397  -4.452  1.00  0.00     0.293 HD
ENDBRANCH   2  22
BRANCH   6  24
ATOM     24  O   UNL     1     -13.310 -13.271  -4.293  1.00  0.00    -0.507 OA
ATOM     25  H   UNL     1     -14.110 -13.666  -4.773  1.00  0.00     0.293 HD
ENDBRANCH   6  24
BRANCH   8  26
ATOM     26  O   UNL     1      -9.109 -13.969  -6.594  1.00  0.00    -0.508 OA
ATOM     27  H   UNL     1      -8.680 -13.851  -7.505  1.00  0.00     0.293 HD
ENDBRANCH   8  26
TORSDOF 6
ENDMDL
MODEL 5
REMARK VINA RESULT:    -5.367      4.888      6.076
REMARK INTER + INTRA:          -6.669
REMARK INTER:                  -7.021
REMARK INTRA:                   0.353
REMARK UNBOUND:                -0.204
REMARK SMILES O=c1c(O)c(-c2ccc(O)c(O)c2)oc2cc(O)cc(O)c12
REMARK SMILES IDX 5 1 3 2 2 3 1 4 22 5 20 6 19 7 17 8 16 9 15 10 14 11 6 12
REMARK SMILES IDX 7 13 8 14 9 15 13 16 11 17 10 18 12 20 4 22 21 24 18 26
REMARK H PARENT 10 19 12 21 4 23 21 25 18 27
REMARK Flexibility Score: inf
ROOT
ATOM      1  C   UNL     1      -9.368 -12.243  -5.953  1.00  0.00     0.180 A 
ATOM      2  C   UNL     1     -10.120 -12.884  -6.957  1.00  0.00     0.208 A 
ATOM      3  C   UNL     1     -11.431 -13.291  -6.665  1.00  0.00     0.238 A 
ATOM      4  O   UNL     1     -12.119 -13.855  -7.558  1.00  0.00    -0.285 OA
ATOM      5  C   UNL     1     -11.959 -13.071  -5.376  1.00  0.00     0.111 A 
ATOM      6  C   UNL     1     -13.268 -13.455  -5.000  1.00  0.00     0.134 A 
ATOM      7  C   UNL     1     -13.718 -13.209  -3.693  1.00  0.00     0.093 A 
ATOM      8  C   UNL     1     -12.882 -12.589  -2.758  1.00  0.00     0.123 A 
ATOM      9  C   UNL     1     -11.590 -12.208  -3.125  1.00  0.00     0.094 A 
ATOM     10  C   UNL     1     -11.125 -12.443  -4.422  1.00  0.00     0.146 A 
ATOM     11  O   UNL     1      -9.893 -12.066  -4.745  1.00  0.00    -0.452 OA
ENDROOT
BRANCH   1  12
ATOM     12  C   UNL     1      -7.985 -11.767  -6.190  1.00  0.00     0.025 A 
ATOM     13  C   UNL     1      -7.482 -10.702  -5.427  1.00  0.00     0.016 A 
ATOM     14  C   UNL     1      -6.188 -10.223  -5.647  1.00  0.00     0.051 A 
ATOM     15  C   UNL     1      -5.383 -10.792  -6.644  1.00  0.00     0.157 A 
ATOM     16  C   UNL     1      -7.182 -12.322  -7.203  1.00  0.00     0.062 A 
ATOM     17  C   UNL     1      -5.887 -11.843  -7.428  1.00  0.00     0.158 A 
BRANCH  15  18
ATOM     18  O   UNL     1      -4.092 -10.314  -6.859  1.00  0.00    -0.504 OA
ATOM     19  H   UNL     1      -3.277 -10.832  -6.555  1.00  0.00     0.293 HD
ENDBRANCH  15  18
BRANCH  17  20
ATOM     20  O   UNL     1      -5.117 -12.420  -8.437  1.00  0.00    -0.504 OA
ATOM     21  H   UNL     1      -4.312 -13.001  -8.235  1.00  0.00     0.293 HD
ENDBRANCH  17  20
ENDBRANCH   1  12
BRANCH   2  22
ATOM     22  O   UNL     1      -9.556 -13.133  -8.210  1.00  0.00    -0.502 OA
ATOM     23  H   UNL     1      -8.570 -12.995  -8.399  1.00  0.00     0.293 HD
ENDBRANCH   2  22
BRANCH   6  24
ATOM     24  O   UNL     1     -14.125 -14.076  -5.910  1.00  0.00    -0.507 OA
ATOM     25  H   UNL     1     -15.123 -13.903  -5.907  1.00  0.00     0.293 HD
ENDBRANCH   6  24
BRANCH   8  26
ATOM     26  O   UNL     1     -13.326 -12.346  -1.460  1.00  0.00    -0.508 OA
ATOM     27  H   UNL     1     -13.137 -11.467  -0.991  1.00  0.00     0.293 HD
ENDBRANCH   8  26
TORSDOF 6
ENDMDL
MODEL 6
REMARK VINA RESULT:    -5.306      1.819      3.497
REMARK INTER + INTRA:          -6.596
REMARK INTER:                  -6.328
REMARK INTRA:                  -0.268
REMARK UNBOUND:                -0.204
REMARK SMILES O=c1c(O)c(-c2ccc(O)c(O)c2)oc2cc(O)cc(O)c12
REMARK SMILES IDX 5 1 3 2 2 3 1 4 22 5 20 6 19 7 17 8 16 9 15 10 14 11 6 12
REMARK SMILES IDX 7 13 8 14 9 15 13 16 11 17 10 18 12 20 4 22 21 24 18 26
REMARK H PARENT 10 19 12 21 4 23 21 25 18 27
REMARK Flexibility Score: inf
ROOT
ATOM      1  C   UNL     1     -10.281  -7.675  -5.688  1.00  0.00     0.180 A 
ATOM      2  C   UNL     1     -11.216  -8.726  -5.644  1.00  0.00     0.208 A 
ATOM      3  C   UNL     1     -10.748 -10.046  -5.552  1.00  0.00     0.238 A 
ATOM      4  O   UNL     1     -11.575 -10.996  -5.500  1.00  0.00    -0.285 OA
ATOM      5  C   UNL     1      -9.359 -10.293  -5.527  1.00  0.00     0.111 A 
ATOM      6  C   UNL     1      -8.807 -11.594  -5.440  1.00  0.00     0.134 A 
ATOM      7  C   UNL     1      -7.413 -11.757  -5.430  1.00  0.00     0.093 A 
ATOM      8  C   UNL     1      -6.564 -10.647  -5.506  1.00  0.00     0.123 A 
ATOM      9  C   UNL     1      -7.106  -9.364  -5.591  1.00  0.00     0.094 A 
ATOM     10  C   UNL     1      -8.492  -9.179  -5.601  1.00  0.00     0.146 A 
ATOM     11  O   UNL     1      -8.979  -7.946  -5.678  1.00  0.00    -0.452 OA
ENDROOT
BRANCH   1  12
ATOM     12  C   UNL     1     -10.696  -6.255  -5.766  1.00  0.00     0.025 A 
ATOM     13  C   UNL     1     -11.204  -5.621  -4.622  1.00  0.00     0.016 A 
ATOM     14  C   UNL     1     -11.622  -4.288  -4.677  1.00  0.00     0.051 A 
ATOM     15  C   UNL     1     -11.553  -3.575  -5.881  1.00  0.00     0.157 A 
ATOM     16  C   UNL     1     -10.647  -5.542  -6.977  1.00  0.00     0.062 A 
ATOM     17  C   UNL     1     -11.067  -4.209  -7.038  1.00  0.00     0.158 A 
BRANCH  15  18
ATOM     18  O   UNL     1     -11.968  -2.246  -5.933  1.00  0.00    -0.504 OA
ATOM     19  H   UNL     1     -11.309  -1.481  -5.849  1.00  0.00     0.293 HD
ENDBRANCH  15  18
BRANCH  17  20
ATOM     20  O   UNL     1     -10.999  -3.531  -8.254  1.00  0.00    -0.504 OA
ATOM     21  H   UNL     1     -10.555  -2.625  -8.342  1.00  0.00     0.293 HD
ENDBRANCH  17  20
ENDBRANCH   1  12
BRANCH   2  22
ATOM     22  O   UNL     1     -12.585  -8.457  -5.719  1.00  0.00    -0.502 OA
ATOM     23  H   UNL     1     -13.266  -8.950  -5.154  1.00  0.00     0.293 HD
ENDBRANCH   2  22
BRANCH   6  24
ATOM     24  O   UNL     1      -9.626 -12.720  -5.364  1.00  0.00    -0.507 OA
ATOM     25  H   UNL     1     -10.635 -12.643  -5.317  1.00  0.00     0.293 HD
ENDBRANCH   6  24
BRANCH   8  26
ATOM     26  O   UNL     1      -5.181 -10.809  -5.497  1.00  0.00    -0.508 OA
ATOM     27  H   UNL     1      -4.642 -10.812  -6.356  1.00  0.00     0.293 HD
ENDBRANCH   8  26
TORSDOF 6
ENDMDL
MODEL 7
REMARK VINA RESULT:    -5.132      4.103      6.594
REMARK INTER + INTRA:          -6.386
REMARK INTER:                  -6.064
REMARK INTRA:                  -0.322
REMARK UNBOUND:                -0.204
REMARK SMILES O=c1c(O)c(-c2ccc(O)c(O)c2)oc2cc(O)cc(O)c12
REMARK SMILES IDX 5 1 3 2 2 3 1 4 22 5 20 6 19 7 17 8 16 9 15 10 14 11 6 12
REMARK SMILES IDX 7 13 8 14 9 15 13 16 11 17 10 18 12 20 4 22 21 24 18 26
REMARK H PARENT 10 19 12 21 4 23 21 25 18 27
REMARK Flexibility Score: inf
ROOT
ATOM      1  C   UNL     1      -9.406 -12.049  -6.099  1.00  0.00     0.180 A 
ATOM      2  C   UNL     1      -9.392 -13.000  -7.136  1.00  0.00     0.208 A 
ATOM      3  C   UNL     1      -8.181 -13.267  -7.796  1.00  0.00     0.238 A 
ATOM      4  O   UNL     1      -8.153 -14.125  -8.718  1.00  0.00    -0.285 OA
ATOM      5  C   UNL     1      -7.015 -12.566  -7.422  1.00  0.00     0.111 A 
ATOM      6  C   UNL     1      -5.758 -12.771  -8.039  1.00  0.00     0.134 A 
ATOM      7  C   UNL     1      -4.646 -12.027  -7.616  1.00  0.00     0.093 A 
ATOM      8  C   UNL     1      -4.769 -11.082  -6.592  1.00  0.00     0.123 A 
ATOM      9  C   UNL     1      -6.007 -10.877  -5.981  1.00  0.00     0.094 A 
ATOM     10  C   UNL     1      -7.126 -11.609  -6.386  1.00  0.00     0.146 A 
ATOM     11  O   UNL     1      -8.291 -11.396  -5.784  1.00  0.00    -0.452 OA
ENDROOT
BRANCH   1  12
ATOM     12  C   UNL     1     -10.638 -11.727  -5.344  1.00  0.00     0.025 A 
ATOM     13  C   UNL     1     -11.507 -10.736  -5.829  1.00  0.00     0.016 A 
ATOM     14  C   UNL     1     -12.665 -10.401  -5.122  1.00  0.00     0.051 A 
ATOM     15  C   UNL     1     -12.964 -11.041  -3.912  1.00  0.00     0.157 A 
ATOM     16  C   UNL     1     -10.933 -12.352  -4.119  1.00  0.00     0.062 A 
ATOM     17  C   UNL     1     -12.090 -12.018  -3.406  1.00  0.00     0.158 A 
BRANCH  15  18
ATOM     18  O   UNL     1     -14.121 -10.707  -3.210  1.00  0.00    -0.504 OA
ATOM     19  H   UNL     1     -14.852 -10.145  -3.630  1.00  0.00     0.293 HD
ENDBRANCH  15  18
BRANCH  17  20
ATOM     20  O   UNL     1     -12.352 -12.663  -2.199  1.00  0.00    -0.504 OA
ATOM     21  H   UNL     1     -12.092 -13.628  -2.036  1.00  0.00     0.293 HD
ENDBRANCH  17  20
ENDBRANCH   1  12
BRANCH   2  22
ATOM     22  O   UNL     1     -10.570 -13.645  -7.519  1.00  0.00    -0.502 OA
ATOM     23  H   UNL     1     -10.574 -14.578  -7.915  1.00  0.00     0.293 HD
ENDBRANCH   2  22
BRANCH   6  24
ATOM     24  O   UNL     1      -5.604 -13.706  -9.064  1.00  0.00    -0.507 OA
ATOM     25  H   UNL     1      -6.323 -13.857  -9.761  1.00  0.00     0.293 HD
ENDBRANCH   6  24
BRANCH   8  26
ATOM     26  O   UNL     1      -3.666 -10.342  -6.173  1.00  0.00    -0.508 OA
ATOM     27  H   UNL     1      -2.746 -10.760  -6.094  1.00  0.00     0.293 HD
ENDBRANCH   8  26
TORSDOF 6
ENDMDL
MODEL 8
REMARK VINA RESULT:    -4.824      7.204     10.407
REMARK INTER + INTRA:          -6.014
REMARK INTER:                  -5.886
REMARK INTRA:                  -0.129
REMARK UNBOUND:                -0.204
REMARK SMILES O=c1c(O)c(-c2ccc(O)c(O)c2)oc2cc(O)cc(O)c12
REMARK SMILES IDX 5 1 3 2 2 3 1 4 22 5 20 6 19 7 17 8 16 9 15 10 14 11 6 12
REMARK SMILES IDX 7 13 8 14 9 15 13 16 11 17 10 18 12 20 4 22 21 24 18 26
REMARK H PARENT 10 19 12 21 4 23 21 25 18 27
REMARK Flexibility Score: inf
ROOT
ATOM      1  C   UNL     1      -2.937 -12.459  -5.550  1.00  0.00     0.180 A 
ATOM      2  C   UNL     1      -3.250 -13.159  -6.731  1.00  0.00     0.208 A 
ATOM      3  C   UNL     1      -4.468 -12.891  -7.376  1.00  0.00     0.238 A 
ATOM      4  O   UNL     1      -4.755 -13.502  -8.440  1.00  0.00    -0.285 OA
ATOM      5  C   UNL     1      -5.356 -11.946  -6.821  1.00  0.00     0.111 A 
ATOM      6  C   UNL     1      -6.604 -11.622  -7.405  1.00  0.00     0.134 A 
ATOM      7  C   UNL     1      -7.437 -10.677  -6.786  1.00  0.00     0.093 A 
ATOM      8  C   UNL     1      -7.047 -10.054  -5.595  1.00  0.00     0.123 A 
ATOM      9  C   UNL     1      -5.817 -10.371  -5.016  1.00  0.00     0.094 A 
ATOM     10  C   UNL     1      -4.972 -11.308  -5.618  1.00  0.00     0.146 A 
ATOM     11  O   UNL     1      -3.806 -11.587  -5.047  1.00  0.00    -0.452 OA
ENDROOT
BRANCH   1  12
ATOM     12  C   UNL     1      -1.664 -12.673  -4.823  1.00  0.00     0.025 A 
ATOM     13  C   UNL     1      -0.447 -12.400  -5.467  1.00  0.00     0.016 A 
ATOM     14  C   UNL     1       0.766 -12.614  -4.807  1.00  0.00     0.051 A 
ATOM     15  C   UNL     1       0.781 -13.120  -3.501  1.00  0.00     0.157 A 
ATOM     16  C   UNL     1      -1.644 -13.200  -3.519  1.00  0.00     0.062 A 
ATOM     17  C   UNL     1      -0.431 -13.418  -2.856  1.00  0.00     0.158 A 
BRANCH  15  18
ATOM     18  O   UNL     1       1.993 -13.330  -2.844  1.00  0.00    -0.504 OA
ATOM     19  H   UNL     1       2.033 -13.766  -1.931  1.00  0.00     0.293 HD
ENDBRANCH  15  18
BRANCH  17  20
ATOM     20  O   UNL     1      -0.450 -13.936  -1.562  1.00  0.00    -0.504 OA
ATOM     21  H   UNL     1       0.184 -14.669  -1.266  1.00  0.00     0.293 HD
ENDBRANCH  17  20
ENDBRANCH   1  12
BRANCH   2  22
ATOM     22  O   UNL     1      -2.374 -14.125  -7.233  1.00  0.00    -0.502 OA
ATOM     23  H   UNL     1      -1.394 -14.154  -6.976  1.00  0.00     0.293 HD
ENDBRANCH   2  22
BRANCH   6  24
ATOM     24  O   UNL     1      -7.022 -12.226  -8.592  1.00  0.00    -0.507 OA
ATOM     25  H   UNL     1      -6.950 -11.754  -9.484  1.00  0.00     0.293 HD
ENDBRANCH   6  24
BRANCH   8  26
ATOM     26  O   UNL     1      -7.874  -9.117  -4.980  1.00  0.00    -0.508 OA
ATOM     27  H   UNL     1      -8.872  -9.094  -5.157  1.00  0.00     0.293 HD
ENDBRANCH   8  26
TORSDOF 6
ENDMDL
MODEL 9
REMARK VINA RESULT:    -4.758      4.896      5.934
REMARK INTER + INTRA:          -5.936
REMARK INTER:                  -5.862
REMARK INTRA:                  -0.074
REMARK UNBOUND:                -0.204
REMARK SMILES O=c1c(O)c(-c2ccc(O)c(O)c2)oc2cc(O)cc(O)c12
REMARK SMILES IDX 5 1 3 2 2 3 1 4 22 5 20 6 19 7 17 8 16 9 15 10 14 11 6 12
REMARK SMILES IDX 7 13 8 14 9 15 13 16 11 17 10 18 12 20 4 22 21 24 18 26
REMARK H PARENT 10 19 12 21 4 23 21 25 18 27
REMARK Flexibility Score: inf
ROOT
ATOM      1  C   UNL     1      -9.483 -12.380  -6.422  1.00  0.00     0.180 A 
ATOM      2  C   UNL     1     -10.057 -12.707  -5.179  1.00  0.00     0.208 A 
ATOM      3  C   UNL     1     -11.381 -13.174  -5.145  1.00  0.00     0.238 A 
ATOM      4  O   UNL     1     -11.903 -13.481  -4.039  1.00  0.00    -0.285 OA
ATOM      5  C   UNL     1     -12.111 -13.287  -6.347  1.00  0.00     0.111 A 
ATOM      6  C   UNL     1     -13.449 -13.745  -6.398  1.00  0.00     0.134 A 
ATOM      7  C   UNL     1     -14.111 -13.820  -7.633  1.00  0.00     0.093 A 
ATOM      8  C   UNL     1     -13.461 -13.445  -8.815  1.00  0.00     0.123 A 
ATOM      9  C   UNL     1     -12.141 -12.994  -8.767  1.00  0.00     0.094 A 
ATOM     10  C   UNL     1     -11.464 -12.914  -7.547  1.00  0.00     0.146 A 
ATOM     11  O   UNL     1     -10.207 -12.485  -7.533  1.00  0.00    -0.452 OA
ENDROOT
BRANCH   1  12
ATOM     12  C   UNL     1      -8.088 -11.899  -6.542  1.00  0.00     0.025 A 
ATOM     13  C   UNL     1      -7.700 -10.731  -5.867  1.00  0.00     0.016 A 
ATOM     14  C   UNL     1      -6.394 -10.248  -5.982  1.00  0.00     0.051 A 
ATOM     15  C   UNL     1      -5.461 -10.916  -6.786  1.00  0.00     0.157 A 
ATOM     16  C   UNL     1      -7.154 -12.555  -7.364  1.00  0.00     0.062 A 
ATOM     17  C   UNL     1      -5.846 -12.073  -7.485  1.00  0.00     0.158 A 
BRANCH  15  18
ATOM     18  O   UNL     1      -4.158 -10.432  -6.898  1.00  0.00    -0.504 OA
ATOM     19  H   UNL     1      -3.360 -11.056  -6.902  1.00  0.00     0.293 HD
ENDBRANCH  15  18
BRANCH  17  20
ATOM     20  O   UNL     1      -4.946 -12.752  -8.304  1.00  0.00    -0.504 OA
ATOM     21  H   UNL     1      -5.240 -13.230  -9.148  1.00  0.00     0.293 HD
ENDBRANCH  17  20
ENDBRANCH   1  12
BRANCH   2  22
ATOM     22  O   UNL     1      -9.329 -12.540  -3.999  1.00  0.00    -0.502 OA
ATOM     23  H   UNL     1      -9.520 -13.079  -3.162  1.00  0.00     0.293 HD
ENDBRANCH   2  22
BRANCH   6  24
ATOM     24  O   UNL     1     -14.125 -14.125  -5.238  1.00  0.00    -0.507 OA
ATOM     25  H   UNL     1     -13.723 -13.990  -4.318  1.00  0.00     0.293 HD
ENDBRANCH   6  24
BRANCH   8  26
ATOM     26  O   UNL     1     -14.118 -13.519 -10.041  1.00  0.00    -0.508 OA
ATOM     27  H   UNL     1     -14.158 -12.725 -10.669  1.00  0.00     0.293 HD
ENDBRANCH   8  26
TORSDOF 6
ENDMDL
