MODEL 1
REMARK VINA RESULT:    -5.284      0.000      0.000
REMARK INTER + INTRA:          -6.870
REMARK INTER:                  -6.520
REMARK INTRA:                  -0.350
REMARK UNBOUND:                -0.350
REMARK SMILES Oc1cc(O)c2cc(O)c(-c3cc(O)c(O)c(O)c3)[o+]c2c1
REMARK SMILES IDX 10 1 20 2 21 3 22 4 2 5 3 6 4 7 6 8 7 9 8 10 11 11 12 12
REMARK SMILES IDX 13 13 19 14 15 15 17 16 14 17 16 19 18 21 9 23 1 25 5 27
REMARK H PARENT 14 18 16 20 18 22 9 24 1 26 5 28
REMARK Flexibility Score: inf
ROOT
ATOM      1  C   UNL     1      23.416   1.083  28.189  1.00  0.00     0.402 A 
ATOM      2  O   UNL     1      22.403   1.407  28.989  1.00  0.00    -0.202 OA
ATOM      3  C   UNL     1      21.867   0.565  29.865  1.00  0.00     0.368 A 
ATOM      4  C   UNL     1      20.803   0.997  30.662  1.00  0.00     0.162 A 
ATOM      5  C   UNL     1      20.219   0.133  31.588  1.00  0.00     0.128 A 
ATOM      6  C   UNL     1      20.700  -1.175  31.720  1.00  0.00     0.093 A 
ATOM      7  C   UNL     1      21.764  -1.633  30.935  1.00  0.00     0.136 A 
ATOM      8  C   UNL     1      22.363  -0.756  29.993  1.00  0.00     0.125 A 
ATOM      9  C   UNL     1      23.442  -1.123  29.173  1.00  0.00     0.078 A 
ATOM     10  C   UNL     1      23.984  -0.202  28.271  1.00  0.00     0.223 A 
ENDROOT
BRANCH   1  11
ATOM     11  C   UNL     1      23.919   2.109  27.247  1.00  0.00     0.091 A 
ATOM     12  C   UNL     1      25.050   2.865  27.590  1.00  0.00     0.068 A 
ATOM     13  C   UNL     1      25.536   3.853  26.728  1.00  0.00     0.162 A 
ATOM     14  C   UNL     1      23.255   2.382  26.038  1.00  0.00     0.068 A 
ATOM     15  C   UNL     1      24.882   4.109  25.511  1.00  0.00     0.200 A 
ATOM     16  C   UNL     1      23.735   3.371  25.170  1.00  0.00     0.162 A 
BRANCH  13  17
ATOM     17  O   UNL     1      26.672   4.574  27.100  1.00  0.00    -0.504 OA
ATOM     18  H   UNL     1      27.049   4.537  28.039  1.00  0.00     0.293 HD
ENDBRANCH  13  17
BRANCH  15  19
ATOM     19  O   UNL     1      25.375   5.094  24.655  1.00  0.00    -0.502 OA
ATOM     20  H   UNL     1      24.764   5.694  24.114  1.00  0.00     0.293 HD
ENDBRANCH  15  19
BRANCH  16  21
ATOM     21  O   UNL     1      23.071   3.628  23.970  1.00  0.00    -0.504 OA
ATOM     22  H   UNL     1      23.480   4.214  23.252  1.00  0.00     0.293 HD
ENDBRANCH  16  21
ENDBRANCH   1  11
BRANCH  10  23
ATOM     23  O   UNL     1      25.086  -0.550  27.492  1.00  0.00    -0.500 OA
ATOM     24  H   UNL     1      25.830  -1.137  27.853  1.00  0.00     0.294 HD
ENDBRANCH  10  23
BRANCH   5  25
ATOM     25  O   UNL     1      19.159   0.582  32.372  1.00  0.00    -0.507 OA
ATOM     26  H   UNL     1      19.251   1.393  32.973  1.00  0.00     0.293 HD
ENDBRANCH   5  25
BRANCH   7  27
ATOM     27  O   UNL     1      22.184  -2.953  31.124  1.00  0.00    -0.507 OA
ATOM     28  H   UNL     1      22.042  -3.481  31.973  1.00  0.00     0.293 HD
ENDBRANCH   7  27
TORSDOF 7
ENDMDL
MODEL 2
REMARK VINA RESULT:    -5.219      7.874     11.150
REMARK INTER + INTRA:          -6.790
REMARK INTER:                  -6.429
REMARK INTRA:                  -0.361
REMARK UNBOUND:                -0.350
REMARK SMILES Oc1cc(O)c2cc(O)c(-c3cc(O)c(O)c(O)c3)[o+]c2c1
REMARK SMILES IDX 10 1 20 2 21 3 22 4 2 5 3 6 4 7 6 8 7 9 8 10 11 11 12 12
REMARK SMILES IDX 13 13 19 14 15 15 17 16 14 17 16 19 18 21 9 23 1 25 5 27
REMARK H PARENT 14 18 16 20 18 22 9 24 1 26 5 28
REMARK Flexibility Score: inf
ROOT
ATOM      1  C   UNL     1      16.944  -6.094  27.512  1.00  0.00     0.402 A 
ATOM      2  O   UNL     1      18.179  -5.602  27.556  1.00  0.00    -0.202 OA
ATOM      3  C   UNL     1      18.503  -4.501  28.226  1.00  0.00     0.368 A 
ATOM      4  C   UNL     1      19.829  -4.060  28.211  1.00  0.00     0.162 A 
ATOM      5  C   UNL     1      20.197  -2.905  28.903  1.00  0.00     0.128 A 
ATOM      6  C   UNL     1      19.232  -2.184  29.615  1.00  0.00     0.093 A 
ATOM      7  C   UNL     1      17.897  -2.604  29.647  1.00  0.00     0.136 A 
ATOM      8  C   UNL     1      17.520  -3.779  28.946  1.00  0.00     0.125 A 
ATOM      9  C   UNL     1      16.209  -4.283  28.932  1.00  0.00     0.078 A 
ATOM     10  C   UNL     1      15.913  -5.451  28.223  1.00  0.00     0.223 A 
ENDROOT
BRANCH   1  11
ATOM     11  C   UNL     1      16.708  -7.324  26.722  1.00  0.00     0.091 A 
ATOM     12  C   UNL     1      17.126  -8.563  27.232  1.00  0.00     0.068 A 
ATOM     13  C   UNL     1      16.934  -9.738  26.499  1.00  0.00     0.162 A 
ATOM     14  C   UNL     1      16.125  -7.273  25.445  1.00  0.00     0.068 A 
ATOM     15  C   UNL     1      16.331  -9.685  25.231  1.00  0.00     0.200 A 
ATOM     16  C   UNL     1      15.930  -8.445  24.702  1.00  0.00     0.162 A 
BRANCH  13  17
ATOM     17  O   UNL     1      17.350 -10.951  27.048  1.00  0.00    -0.504 OA
ATOM     18  H   UNL     1      16.768 -11.780  27.027  1.00  0.00     0.293 HD
ENDBRANCH  13  17
BRANCH  15  19
ATOM     19  O   UNL     1      16.140 -10.862  24.508  1.00  0.00    -0.502 OA
ATOM     20  H   UNL     1      15.356 -11.481  24.680  1.00  0.00     0.293 HD
ENDBRANCH  15  19
BRANCH  16  21
ATOM     21  O   UNL     1      15.345  -8.382  23.439  1.00  0.00    -0.504 OA
ATOM     22  H   UNL     1      14.625  -7.703  23.219  1.00  0.00     0.293 HD
ENDBRANCH  16  21
ENDBRANCH   1  11
BRANCH  10  23
ATOM     23  O   UNL     1      14.623  -5.978  28.250  1.00  0.00    -0.500 OA
ATOM     24  H   UNL     1      13.812  -5.396  28.424  1.00  0.00     0.294 HD
ENDBRANCH  10  23
BRANCH   5  25
ATOM     25  O   UNL     1      21.523  -2.482  28.875  1.00  0.00    -0.507 OA
ATOM     26  H   UNL     1      21.778  -1.558  28.545  1.00  0.00     0.293 HD
ENDBRANCH   5  25
BRANCH   7  27
ATOM     27  O   UNL     1      16.994  -1.827  30.378  1.00  0.00    -0.507 OA
ATOM     28  H   UNL     1      16.044  -2.098  30.583  1.00  0.00     0.293 HD
ENDBRANCH   7  27
TORSDOF 7
ENDMDL
MODEL 3
REMARK VINA RESULT:    -5.209      7.894     11.266
REMARK INTER + INTRA:          -6.778
REMARK INTER:                  -6.441
REMARK INTRA:                  -0.337
REMARK UNBOUND:                -0.350
REMARK SMILES Oc1cc(O)c2cc(O)c(-c3cc(O)c(O)c(O)c3)[o+]c2c1
REMARK SMILES IDX 10 1 20 2 21 3 22 4 2 5 3 6 4 7 6 8 7 9 8 10 11 11 12 12
REMARK SMILES IDX 13 13 19 14 15 15 17 16 14 17 16 19 18 21 9 23 1 25 5 27
REMARK H PARENT 14 18 16 20 18 22 9 24 1 26 5 28
REMARK Flexibility Score: inf
ROOT
ATOM      1  C   UNL     1      16.990  -6.129  27.500  1.00  0.00     0.402 A 
ATOM      2  O   UNL     1      18.221  -5.627  27.559  1.00  0.00    -0.202 OA
ATOM      3  C   UNL     1      18.524  -4.514  28.218  1.00  0.00     0.368 A 
ATOM      4  C   UNL     1      19.847  -4.063  28.220  1.00  0.00     0.162 A 
ATOM      5  C   UNL     1      20.194  -2.897  28.902  1.00  0.00     0.128 A 
ATOM      6  C   UNL     1      19.212  -2.172  29.587  1.00  0.00     0.093 A 
ATOM      7  C   UNL     1      17.879  -2.603  29.601  1.00  0.00     0.136 A 
ATOM      8  C   UNL     1      17.523  -3.790  28.911  1.00  0.00     0.125 A 
ATOM      9  C   UNL     1      16.216  -4.304  28.881  1.00  0.00     0.078 A 
ATOM     10  C   UNL     1      15.942  -5.484  28.183  1.00  0.00     0.223 A 
ENDROOT
BRANCH   1  11
ATOM     11  C   UNL     1      16.778  -7.372  26.723  1.00  0.00     0.091 A 
ATOM     12  C   UNL     1      16.169  -7.301  25.461  1.00  0.00     0.068 A 
ATOM     13  C   UNL     1      15.938  -8.460  24.714  1.00  0.00     0.162 A 
ATOM     14  C   UNL     1      17.121  -8.630  27.246  1.00  0.00     0.068 A 
ATOM     15  C   UNL     1      16.302  -9.714  25.231  1.00  0.00     0.200 A 
ATOM     16  C   UNL     1      16.892  -9.797  26.505  1.00  0.00     0.162 A 
BRANCH  13  17
ATOM     17  O   UNL     1      15.343  -8.345  23.456  1.00  0.00    -0.504 OA
ATOM     18  H   UNL     1      14.368  -8.098  23.342  1.00  0.00     0.293 HD
ENDBRANCH  13  17
BRANCH  15  19
ATOM     19  O   UNL     1      16.071 -10.866  24.478  1.00  0.00    -0.502 OA
ATOM     20  H   UNL     1      16.431 -10.978  23.538  1.00  0.00     0.293 HD
ENDBRANCH  15  19
BRANCH  16  21
ATOM     21  O   UNL     1      17.243 -11.039  27.032  1.00  0.00    -0.504 OA
ATOM     22  H   UNL     1      17.612 -11.780  26.447  1.00  0.00     0.293 HD
ENDBRANCH  16  21
ENDBRANCH   1  11
BRANCH  10  23
ATOM     23  O   UNL     1      14.655  -6.021  28.194  1.00  0.00    -0.500 OA
ATOM     24  H   UNL     1      14.378  -6.727  28.865  1.00  0.00     0.294 HD
ENDBRANCH  10  23
BRANCH   5  25
ATOM     25  O   UNL     1      21.517  -2.463  28.892  1.00  0.00    -0.507 OA
ATOM     26  H   UNL     1      22.273  -3.074  28.602  1.00  0.00     0.293 HD
ENDBRANCH   5  25
BRANCH   7  27
ATOM     27  O   UNL     1      16.957  -1.822  30.306  1.00  0.00    -0.507 OA
ATOM     28  H   UNL     1      16.189  -2.194  30.845  1.00  0.00     0.293 HD
ENDBRANCH   7  27
TORSDOF 7
ENDMDL
MODEL 4
REMARK VINA RESULT:    -4.963      8.089     10.572
REMARK INTER + INTRA:          -6.474
REMARK INTER:                  -6.142
REMARK INTRA:                  -0.332
REMARK UNBOUND:                -0.350
REMARK SMILES Oc1cc(O)c2cc(O)c(-c3cc(O)c(O)c(O)c3)[o+]c2c1
REMARK SMILES IDX 10 1 20 2 21 3 22 4 2 5 3 6 4 7 6 8 7 9 8 10 11 11 12 12
REMARK SMILES IDX 13 13 19 14 15 15 17 16 14 17 16 19 18 21 9 23 1 25 5 27
REMARK H PARENT 14 18 16 20 18 22 9 24 1 26 5 28
REMARK Flexibility Score: inf
ROOT
ATOM      1  C   UNL     1      17.641  -6.557  27.779  1.00  0.00     0.402 A 
ATOM      2  O   UNL     1      17.037  -6.628  26.595  1.00  0.00    -0.202 OA
ATOM      3  C   UNL     1      16.612  -7.766  26.059  1.00  0.00     0.368 A 
ATOM      4  C   UNL     1      15.990  -7.738  24.807  1.00  0.00     0.162 A 
ATOM      5  C   UNL     1      15.537  -8.919  24.218  1.00  0.00     0.128 A 
ATOM      6  C   UNL     1      15.708 -10.139  24.883  1.00  0.00     0.093 A 
ATOM      7  C   UNL     1      16.327 -10.194  26.137  1.00  0.00     0.136 A 
ATOM      8  C   UNL     1      16.788  -8.995  26.741  1.00  0.00     0.125 A 
ATOM      9  C   UNL     1      17.408  -8.952  28.000  1.00  0.00     0.078 A 
ATOM     10  C   UNL     1      17.830  -7.730  28.533  1.00  0.00     0.223 A 
ENDROOT
BRANCH   1  11
ATOM     11  C   UNL     1      18.078  -5.229  28.265  1.00  0.00     0.091 A 
ATOM     12  C   UNL     1      19.440  -4.893  28.228  1.00  0.00     0.068 A 
ATOM     13  C   UNL     1      19.882  -3.654  28.698  1.00  0.00     0.162 A 
ATOM     14  C   UNL     1      17.164  -4.315  28.816  1.00  0.00     0.068 A 
ATOM     15  C   UNL     1      18.963  -2.734  29.229  1.00  0.00     0.200 A 
ATOM     16  C   UNL     1      17.599  -3.070  29.291  1.00  0.00     0.162 A 
BRANCH  13  17
ATOM     17  O   UNL     1      21.244  -3.353  28.631  1.00  0.00    -0.504 OA
ATOM     18  H   UNL     1      21.956  -4.072  28.662  1.00  0.00     0.293 HD
ENDBRANCH  13  17
BRANCH  15  19
ATOM     19  O   UNL     1      19.412  -1.497  29.693  1.00  0.00    -0.502 OA
ATOM     20  H   UNL     1      20.385  -1.326  29.918  1.00  0.00     0.293 HD
ENDBRANCH  15  19
BRANCH  16  21
ATOM     21  O   UNL     1      16.682  -2.169  29.830  1.00  0.00    -0.504 OA
ATOM     22  H   UNL     1      15.683  -2.328  29.772  1.00  0.00     0.293 HD
ENDBRANCH  16  21
ENDBRANCH   1  11
BRANCH  10  23
ATOM     23  O   UNL     1      18.402  -7.682  29.804  1.00  0.00    -0.500 OA
ATOM     24  H   UNL     1      19.294  -8.118  30.005  1.00  0.00     0.294 HD
ENDBRANCH  10  23
BRANCH   5  25
ATOM     25  O   UNL     1      14.920  -8.871  22.971  1.00  0.00    -0.507 OA
ATOM     26  H   UNL     1      14.575  -9.709  22.517  1.00  0.00     0.293 HD
ENDBRANCH   5  25
BRANCH   7  27
ATOM     27  O   UNL     1      16.463 -11.451  26.734  1.00  0.00    -0.507 OA
ATOM     28  H   UNL     1      16.907 -11.614  27.626  1.00  0.00     0.293 HD
ENDBRANCH   7  27
TORSDOF 7
ENDMDL
MODEL 5
REMARK VINA RESULT:    -4.930      8.141     10.696
REMARK INTER + INTRA:          -6.433
REMARK INTER:                  -6.072
REMARK INTRA:                  -0.361
REMARK UNBOUND:                -0.350
REMARK SMILES Oc1cc(O)c2cc(O)c(-c3cc(O)c(O)c(O)c3)[o+]c2c1
REMARK SMILES IDX 10 1 20 2 21 3 22 4 2 5 3 6 4 7 6 8 7 9 8 10 11 11 12 12
REMARK SMILES IDX 13 13 19 14 15 15 17 16 14 17 16 19 18 21 9 23 1 25 5 27
REMARK H PARENT 14 18 16 20 18 22 9 24 1 26 5 28
REMARK Flexibility Score: inf
ROOT
ATOM      1  C   UNL     1      17.633  -6.636  27.803  1.00  0.00     0.402 A 
ATOM      2  O   UNL     1      17.041  -6.691  26.613  1.00  0.00    -0.202 OA
ATOM      3  C   UNL     1      16.586  -7.817  26.075  1.00  0.00     0.368 A 
ATOM      4  C   UNL     1      15.980  -7.775  24.817  1.00  0.00     0.162 A 
ATOM      5  C   UNL     1      15.496  -8.943  24.226  1.00  0.00     0.128 A 
ATOM      6  C   UNL     1      15.620 -10.165  24.897  1.00  0.00     0.093 A 
ATOM      7  C   UNL     1      16.223 -10.235  26.159  1.00  0.00     0.136 A 
ATOM      8  C   UNL     1      16.715  -9.049  26.763  1.00  0.00     0.125 A 
ATOM      9  C   UNL     1      17.322  -9.022  28.030  1.00  0.00     0.078 A 
ATOM     10  C   UNL     1      17.776  -7.812  28.564  1.00  0.00     0.223 A 
ENDROOT
BRANCH   1  11
ATOM     11  C   UNL     1      18.106  -5.320  28.290  1.00  0.00     0.091 A 
ATOM     12  C   UNL     1      17.175  -4.388  28.773  1.00  0.00     0.068 A 
ATOM     13  C   UNL     1      17.591  -3.130  29.221  1.00  0.00     0.162 A 
ATOM     14  C   UNL     1      19.463  -4.961  28.227  1.00  0.00     0.068 A 
ATOM     15  C   UNL     1      18.952  -2.783  29.176  1.00  0.00     0.200 A 
ATOM     16  C   UNL     1      19.889  -3.702  28.673  1.00  0.00     0.162 A 
BRANCH  13  17
ATOM     17  O   UNL     1      16.636  -2.237  29.707  1.00  0.00    -0.504 OA
ATOM     18  H   UNL     1      16.864  -1.523  30.388  1.00  0.00     0.293 HD
ENDBRANCH  13  17
BRANCH  15  19
ATOM     19  O   UNL     1      19.359  -1.527  29.628  1.00  0.00    -0.502 OA
ATOM     20  H   UNL     1      20.274  -1.370  30.034  1.00  0.00     0.293 HD
ENDBRANCH  15  19
BRANCH  16  21
ATOM     21  O   UNL     1      21.239  -3.360  28.611  1.00  0.00    -0.504 OA
ATOM     22  H   UNL     1      21.774  -3.155  29.447  1.00  0.00     0.293 HD
ENDBRANCH  16  21
ENDBRANCH   1  11
BRANCH  10  23
ATOM     23  O   UNL     1      18.334  -7.777  29.841  1.00  0.00    -0.500 OA
ATOM     24  H   UNL     1      19.118  -8.365  30.097  1.00  0.00     0.294 HD
ENDBRANCH  10  23
BRANCH   5  25
ATOM     25  O   UNL     1      14.896  -8.879  22.972  1.00  0.00    -0.507 OA
ATOM     26  H   UNL     1      15.293  -8.327  22.220  1.00  0.00     0.293 HD
ENDBRANCH   5  25
BRANCH   7  27
ATOM     27  O   UNL     1      16.312 -11.494  26.761  1.00  0.00    -0.507 OA
ATOM     28  H   UNL     1      16.211 -11.660  27.752  1.00  0.00     0.293 HD
ENDBRANCH   7  27
TORSDOF 7
ENDMDL
MODEL 6
REMARK VINA RESULT:    -4.929      1.398      2.600
REMARK INTER + INTRA:          -6.432
REMARK INTER:                  -6.058
REMARK INTRA:                  -0.374
REMARK UNBOUND:                -0.350
REMARK SMILES Oc1cc(O)c2cc(O)c(-c3cc(O)c(O)c(O)c3)[o+]c2c1
REMARK SMILES IDX 10 1 20 2 21 3 22 4 2 5 3 6 4 7 6 8 7 9 8 10 11 11 12 12
REMARK SMILES IDX 13 13 19 14 15 15 17 16 14 17 16 19 18 21 9 23 1 25 5 27
REMARK H PARENT 14 18 16 20 18 22 9 24 1 26 5 28
REMARK Flexibility Score: inf
ROOT
ATOM      1  C   UNL     1      22.305   1.478  28.517  1.00  0.00     0.402 A 
ATOM      2  O   UNL     1      22.169   0.154  28.509  1.00  0.00    -0.202 OA
ATOM      3  C   UNL     1      21.488  -0.516  29.431  1.00  0.00     0.368 A 
ATOM      4  C   UNL     1      21.404  -1.908  29.338  1.00  0.00     0.162 A 
ATOM      5  C   UNL     1      20.698  -2.638  30.294  1.00  0.00     0.128 A 
ATOM      6  C   UNL     1      20.070  -1.973  31.354  1.00  0.00     0.093 A 
ATOM      7  C   UNL     1      20.138  -0.580  31.470  1.00  0.00     0.136 A 
ATOM      8  C   UNL     1      20.854   0.166  30.498  1.00  0.00     0.125 A 
ATOM      9  C   UNL     1      20.966   1.566  30.527  1.00  0.00     0.078 A 
ATOM     10  C   UNL     1      21.684   2.234  29.529  1.00  0.00     0.223 A 
ENDROOT
BRANCH   1  11
ATOM     11  C   UNL     1      23.098   2.108  27.438  1.00  0.00     0.091 A 
ATOM     12  C   UNL     1      24.483   2.267  27.602  1.00  0.00     0.068 A 
ATOM     13  C   UNL     1      25.254   2.876  26.607  1.00  0.00     0.162 A 
ATOM     14  C   UNL     1      22.487   2.603  26.273  1.00  0.00     0.068 A 
ATOM     15  C   UNL     1      24.642   3.351  25.435  1.00  0.00     0.200 A 
ATOM     16  C   UNL     1      23.252   3.216  25.272  1.00  0.00     0.162 A 
BRANCH  13  17
ATOM     17  O   UNL     1      26.630   3.003  26.802  1.00  0.00    -0.504 OA
ATOM     18  H   UNL     1      27.182   3.694  26.309  1.00  0.00     0.293 HD
ENDBRANCH  13  17
BRANCH  15  19
ATOM     19  O   UNL     1      25.418   3.954  24.445  1.00  0.00    -0.502 OA
ATOM     20  H   UNL     1      25.535   4.959  24.388  1.00  0.00     0.293 HD
ENDBRANCH  15  19
BRANCH  16  21
ATOM     21  O   UNL     1      22.634   3.697  24.118  1.00  0.00    -0.504 OA
ATOM     22  H   UNL     1      23.151   3.837  23.258  1.00  0.00     0.293 HD
ENDBRANCH  16  21
ENDBRANCH   1  11
BRANCH  10  23
ATOM     23  O   UNL     1      21.753   3.626  29.530  1.00  0.00    -0.500 OA
ATOM     24  H   UNL     1      21.155   4.190  28.937  1.00  0.00     0.294 HD
ENDBRANCH  10  23
BRANCH   5  25
ATOM     25  O   UNL     1      20.626  -4.024  30.184  1.00  0.00    -0.507 OA
ATOM     26  H   UNL     1      20.128  -4.585  30.866  1.00  0.00     0.293 HD
ENDBRANCH   5  25
BRANCH   7  27
ATOM     27  O   UNL     1      19.488   0.009  32.559  1.00  0.00    -0.507 OA
ATOM     28  H   UNL     1      19.558  -0.320  33.511  1.00  0.00     0.293 HD
ENDBRANCH   7  27
TORSDOF 7
ENDMDL
MODEL 7
REMARK VINA RESULT:    -4.927      2.169      7.097
REMARK INTER + INTRA:          -6.429
REMARK INTER:                  -6.094
REMARK INTRA:                  -0.335
REMARK UNBOUND:                -0.350
REMARK SMILES Oc1cc(O)c2cc(O)c(-c3cc(O)c(O)c(O)c3)[o+]c2c1
REMARK SMILES IDX 10 1 20 2 21 3 22 4 2 5 3 6 4 7 6 8 7 9 8 10 11 11 12 12
REMARK SMILES IDX 13 13 19 14 15 15 17 16 14 17 16 19 18 21 9 23 1 25 5 27
REMARK H PARENT 14 18 16 20 18 22 9 24 1 26 5 28
REMARK Flexibility Score: inf
ROOT
ATOM      1  C   UNL     1      22.171   1.558  28.552  1.00  0.00     0.402 A 
ATOM      2  O   UNL     1      22.840   1.641  27.405  1.00  0.00    -0.202 OA
ATOM      3  C   UNL     1      22.765   2.686  26.589  1.00  0.00     0.368 A 
ATOM      4  C   UNL     1      23.506   2.680  25.404  1.00  0.00     0.162 A 
ATOM      5  C   UNL     1      23.443   3.763  24.527  1.00  0.00     0.128 A 
ATOM      6  C   UNL     1      22.633   4.862  24.834  1.00  0.00     0.093 A 
ATOM      7  C   UNL     1      21.882   4.894  26.015  1.00  0.00     0.136 A 
ATOM      8  C   UNL     1      21.944   3.795  26.911  1.00  0.00     0.125 A 
ATOM      9  C   UNL     1      21.237   3.745  28.123  1.00  0.00     0.078 A 
ATOM     10  C   UNL     1      21.353   2.629  28.958  1.00  0.00     0.223 A 
ENDROOT
BRANCH   1  11
ATOM     11  C   UNL     1      22.331   0.335  29.370  1.00  0.00     0.091 A 
ATOM     12  C   UNL     1      23.184   0.356  30.484  1.00  0.00     0.068 A 
ATOM     13  C   UNL     1      23.370  -0.790  31.263  1.00  0.00     0.162 A 
ATOM     14  C   UNL     1      21.691  -0.867  29.023  1.00  0.00     0.068 A 
ATOM     15  C   UNL     1      22.711  -1.984  30.925  1.00  0.00     0.200 A 
ATOM     16  C   UNL     1      21.872  -2.021  29.797  1.00  0.00     0.162 A 
BRANCH  13  17
ATOM     17  O   UNL     1      24.215  -0.723  32.371  1.00  0.00    -0.504 OA
ATOM     18  H   UNL     1      24.488   0.159  32.788  1.00  0.00     0.293 HD
ENDBRANCH  13  17
BRANCH  15  19
ATOM     19  O   UNL     1      22.899  -3.122  31.709  1.00  0.00    -0.502 OA
ATOM     20  H   UNL     1      23.042  -3.071  32.711  1.00  0.00     0.293 HD
ENDBRANCH  15  19
BRANCH  16  21
ATOM     21  O   UNL     1      21.226  -3.206  29.447  1.00  0.00    -0.504 OA
ATOM     22  H   UNL     1      20.336  -3.466  29.854  1.00  0.00     0.293 HD
ENDBRANCH  16  21
ENDBRANCH   1  11
BRANCH  10  23
ATOM     23  O   UNL     1      20.689   2.601  30.184  1.00  0.00    -0.500 OA
ATOM     24  H   UNL     1      20.146   1.798  30.478  1.00  0.00     0.294 HD
ENDBRANCH  10  23
BRANCH   5  25
ATOM     25  O   UNL     1      24.188   3.738  23.351  1.00  0.00    -0.507 OA
ATOM     26  H   UNL     1      23.760   3.529  22.456  1.00  0.00     0.293 HD
ENDBRANCH   5  25
BRANCH   7  27
ATOM     27  O   UNL     1      21.095   6.026  26.248  1.00  0.00    -0.507 OA
ATOM     28  H   UNL     1      20.086   6.025  26.269  1.00  0.00     0.293 HD
ENDBRANCH   7  27
TORSDOF 7
ENDMDL
MODEL 8
REMARK VINA RESULT:    -4.755      2.074      6.841
REMARK INTER + INTRA:          -6.217
REMARK INTER:                  -5.833
REMARK INTRA:                  -0.384
REMARK UNBOUND:                -0.350
REMARK SMILES Oc1cc(O)c2cc(O)c(-c3cc(O)c(O)c(O)c3)[o+]c2c1
REMARK SMILES IDX 10 1 20 2 21 3 22 4 2 5 3 6 4 7 6 8 7 9 8 10 11 11 12 12
REMARK SMILES IDX 13 13 19 14 15 15 17 16 14 17 16 19 18 21 9 23 1 25 5 27
REMARK H PARENT 14 18 16 20 18 22 9 24 1 26 5 28
REMARK Flexibility Score: inf
ROOT
ATOM      1  C   UNL     1      22.896   1.003  28.551  1.00  0.00     0.402 A 
ATOM      2  O   UNL     1      21.989   1.976  28.590  1.00  0.00    -0.202 OA
ATOM      3  C   UNL     1      22.070   3.079  27.855  1.00  0.00     0.368 A 
ATOM      4  C   UNL     1      21.068   4.047  27.967  1.00  0.00     0.162 A 
ATOM      5  C   UNL     1      21.129   5.217  27.210  1.00  0.00     0.128 A 
ATOM      6  C   UNL     1      22.200   5.424  26.333  1.00  0.00     0.093 A 
ATOM      7  C   UNL     1      23.217   4.470  26.202  1.00  0.00     0.136 A 
ATOM      8  C   UNL     1      23.157   3.278  26.969  1.00  0.00     0.125 A 
ATOM      9  C   UNL     1      24.124   2.262  26.894  1.00  0.00     0.078 A 
ATOM     10  C   UNL     1      23.994   1.111  27.678  1.00  0.00     0.223 A 
ENDROOT
BRANCH   1  11
ATOM     11  C   UNL     1      22.699  -0.174  29.427  1.00  0.00     0.091 A 
ATOM     12  C   UNL     1      21.935  -1.257  28.966  1.00  0.00     0.068 A 
ATOM     13  C   UNL     1      21.716  -2.373  29.779  1.00  0.00     0.162 A 
ATOM     14  C   UNL     1      23.213  -0.208  30.735  1.00  0.00     0.068 A 
ATOM     15  C   UNL     1      22.250  -2.413  31.078  1.00  0.00     0.200 A 
ATOM     16  C   UNL     1      22.997  -1.322  31.557  1.00  0.00     0.162 A 
BRANCH  13  17
ATOM     17  O   UNL     1      20.963  -3.436  29.278  1.00  0.00    -0.504 OA
ATOM     18  H   UNL     1      20.829  -4.294  29.799  1.00  0.00     0.293 HD
ENDBRANCH  13  17
BRANCH  15  19
ATOM     19  O   UNL     1      22.029  -3.532  31.882  1.00  0.00    -0.502 OA
ATOM     20  H   UNL     1      21.431  -3.501  32.699  1.00  0.00     0.293 HD
ENDBRANCH  15  19
BRANCH  16  21
ATOM     21  O   UNL     1      23.518  -1.347  32.850  1.00  0.00    -0.504 OA
ATOM     22  H   UNL     1      24.340  -0.812  33.103  1.00  0.00     0.293 HD
ENDBRANCH  16  21
ENDBRANCH   1  11
BRANCH  10  23
ATOM     23  O   UNL     1      24.927   0.080  27.566  1.00  0.00    -0.500 OA
ATOM     24  H   UNL     1      25.896   0.261  27.332  1.00  0.00     0.294 HD
ENDBRANCH  10  23
BRANCH   5  25
ATOM     25  O   UNL     1      20.121   6.169  27.336  1.00  0.00    -0.507 OA
ATOM     26  H   UNL     1      19.148   5.938  27.165  1.00  0.00     0.293 HD
ENDBRANCH   5  25
BRANCH   7  27
ATOM     27  O   UNL     1      24.254   4.753  25.308  1.00  0.00    -0.507 OA
ATOM     28  H   UNL     1      25.148   4.285  25.306  1.00  0.00     0.293 HD
ENDBRANCH   7  27
TORSDOF 7
ENDMDL
MODEL 9
REMARK VINA RESULT:    -4.740      2.046      6.614
REMARK INTER + INTRA:          -6.199
REMARK INTER:                  -5.825
REMARK INTRA:                  -0.374
REMARK UNBOUND:                -0.350
REMARK SMILES Oc1cc(O)c2cc(O)c(-c3cc(O)c(O)c(O)c3)[o+]c2c1
REMARK SMILES IDX 10 1 20 2 21 3 22 4 2 5 3 6 4 7 6 8 7 9 8 10 11 11 12 12
REMARK SMILES IDX 13 13 19 14 15 15 17 16 14 17 16 19 18 21 9 23 1 25 5 27
REMARK H PARENT 14 18 16 20 18 22 9 24 1 26 5 28
REMARK Flexibility Score: inf
ROOT
ATOM      1  C   UNL     1      22.908   1.030  28.492  1.00  0.00     0.402 A 
ATOM      2  O   UNL     1      22.004   2.007  28.506  1.00  0.00    -0.202 OA
ATOM      3  C   UNL     1      22.104   3.105  27.764  1.00  0.00     0.368 A 
ATOM      4  C   UNL     1      21.104   4.077  27.850  1.00  0.00     0.162 A 
ATOM      5  C   UNL     1      21.185   5.242  27.085  1.00  0.00     0.128 A 
ATOM      6  C   UNL     1      22.274   5.438  26.228  1.00  0.00     0.093 A 
ATOM      7  C   UNL     1      23.289   4.479  26.124  1.00  0.00     0.136 A 
ATOM      8  C   UNL     1      23.209   3.293  26.898  1.00  0.00     0.125 A 
ATOM      9  C   UNL     1      24.173   2.271  26.849  1.00  0.00     0.078 A 
ATOM     10  C   UNL     1      24.023   1.127  27.638  1.00  0.00     0.223 A 
ENDROOT
BRANCH   1  11
ATOM     11  C   UNL     1      22.688  -0.140  29.372  1.00  0.00     0.091 A 
ATOM     12  C   UNL     1      23.318  -0.188  30.626  1.00  0.00     0.068 A 
ATOM     13  C   UNL     1      23.143  -1.289  31.469  1.00  0.00     0.162 A 
ATOM     14  C   UNL     1      21.907  -1.232  28.957  1.00  0.00     0.068 A 
ATOM     15  C   UNL     1      22.344  -2.370  31.060  1.00  0.00     0.200 A 
ATOM     16  C   UNL     1      21.729  -2.340  29.796  1.00  0.00     0.162 A 
BRANCH  13  17
ATOM     17  O   UNL     1      23.775  -1.292  32.714  1.00  0.00    -0.504 OA
ATOM     18  H   UNL     1      24.585  -0.716  32.908  1.00  0.00     0.293 HD
ENDBRANCH  13  17
BRANCH  15  19
ATOM     19  O   UNL     1      22.173  -3.463  31.909  1.00  0.00    -0.502 OA
ATOM     20  H   UNL     1      22.952  -4.025  32.230  1.00  0.00     0.293 HD
ENDBRANCH  15  19
BRANCH  16  21
ATOM     21  O   UNL     1      20.946  -3.415  29.376  1.00  0.00    -0.504 OA
ATOM     22  H   UNL     1      19.960  -3.475  29.602  1.00  0.00     0.293 HD
ENDBRANCH  16  21
ENDBRANCH   1  11
BRANCH  10  23
ATOM     23  O   UNL     1      24.953   0.092  27.553  1.00  0.00    -0.500 OA
ATOM     24  H   UNL     1      24.851  -0.763  28.087  1.00  0.00     0.294 HD
ENDBRANCH  10  23
BRANCH   5  25
ATOM     25  O   UNL     1      20.179   6.199  27.185  1.00  0.00    -0.507 OA
ATOM     26  H   UNL     1      19.342   6.034  27.733  1.00  0.00     0.293 HD
ENDBRANCH   5  25
BRANCH   7  27
ATOM     27  O   UNL     1      24.345   4.750  25.248  1.00  0.00    -0.507 OA
ATOM     28  H   UNL     1      25.274   4.367  25.339  1.00  0.00     0.293 HD
ENDBRANCH   7  27
TORSDOF 7
ENDMDL
