MODEL 1
REMARK VINA RESULT:    -4.579      0.000      0.000
REMARK INTER + INTRA:         -13.390
REMARK INTER:                  -9.933
REMARK INTRA:                  -3.457
REMARK UNBOUND:                -3.457
REMARK SMILES CCCCCCCCCCCCCCCCCCCCCC(=O)[O-]
REMARK SMILES IDX 12 1 11 2 10 3 9 4 8 5 7 6 6 7 5 8 4 9 3 10 2 11 1 12 13 13
REMARK SMILES IDX 14 14 15 15 16 16 17 17 18 18 19 19 20 20 21 21 22 22 23 23
REMARK SMILES IDX 24 24
REMARK H PARENT
REMARK Flexibility Score: inf
ROOT
ATOM      1  C   UNL     1     129.743 138.911 137.263  1.00  0.00     0.000 C 
ENDROOT
BRANCH   1   2
ATOM      2  C   UNL     1     128.627 139.222 138.278  1.00  0.00     0.000 C 
BRANCH   2   3
ATOM      3  C   UNL     1     128.492 138.175 139.401  1.00  0.00     0.000 C 
BRANCH   3   4
ATOM      4  C   UNL     1     128.083 136.771 138.895  1.00  0.00    -0.000 C 
BRANCH   4   5
ATOM      5  C   UNL     1     129.108 135.668 139.229  1.00  0.00    -0.000 C 
BRANCH   5   6
ATOM      6  C   UNL     1     130.250 136.110 140.160  1.00  0.00    -0.000 C 
BRANCH   6   7
ATOM      7  C   UNL     1     131.569 136.357 139.406  1.00  0.00    -0.000 C 
BRANCH   7   8
ATOM      8  C   UNL     1     131.891 135.240 138.394  1.00  0.00    -0.000 C 
BRANCH   8   9
ATOM      9  C   UNL     1     132.728 134.083 138.970  1.00  0.00    -0.000 C 
BRANCH   9  10
ATOM     10  C   UNL     1     132.062 132.712 138.771  1.00  0.00    -0.000 C 
BRANCH  10  11
ATOM     11  C   UNL     1     131.255 132.307 140.010  1.00  0.00    -0.003 C 
ATOM     12  C   UNL     1     131.940 132.776 141.292  1.00  0.00     0.004 C 
ENDBRANCH  10  11
ENDBRANCH   9  10
ENDBRANCH   8   9
ENDBRANCH   7   8
ENDBRANCH   6   7
ENDBRANCH   5   6
ENDBRANCH   4   5
ENDBRANCH   3   4
ENDBRANCH   2   3
ENDBRANCH   1   2
BRANCH   1  13
ATOM     13  C   UNL     1     131.090 139.548 137.650  1.00  0.00     0.000 C 
BRANCH  13  14
ATOM     14  C   UNL     1     130.913 140.892 138.380  1.00  0.00     0.000 C 
BRANCH  14  15
ATOM     15  C   UNL     1     131.782 140.991 139.646  1.00  0.00     0.000 C 
BRANCH  15  16
ATOM     16  C   UNL     1     131.340 140.012 140.745  1.00  0.00     0.000 C 
BRANCH  16  17
ATOM     17  C   UNL     1     130.212 140.574 141.628  1.00  0.00     0.000 C 
BRANCH  17  18
ATOM     18  C   UNL     1     130.176 142.118 141.617  1.00  0.00     0.000 C 
BRANCH  18  19
ATOM     19  C   UNL     1     128.753 142.704 141.527  1.00  0.00     0.000 C 
BRANCH  19  20
ATOM     20  C   UNL     1     127.849 142.048 140.464  1.00  0.00     0.006 C 
BRANCH  20  21
ATOM     21  C   UNL     1     127.875 142.747 139.095  1.00  0.00     0.053 C 
BRANCH  21  22
ATOM     22  C   UNL     1     126.584 143.446 138.800  1.00  0.00     0.041 C 
ATOM     23  O   UNL     1     126.134 143.476 137.624  1.00  0.00    -0.550 OA
ATOM     24  O   UNL     1     125.864 144.039 139.829  1.00  0.00    -0.550 OA
ENDBRANCH  21  22
ENDBRANCH  20  21
ENDBRANCH  19  20
ENDBRANCH  18  19
ENDBRANCH  17  18
ENDBRANCH  16  17
ENDBRANCH  15  16
ENDBRANCH  14  15
ENDBRANCH  13  14
ENDBRANCH   1  13
TORSDOF 20
ENDMDL
MODEL 2
REMARK VINA RESULT:    -4.273      3.386      6.633
REMARK INTER + INTRA:         -12.727
REMARK INTER:                  -9.804
REMARK INTRA:                  -2.923
REMARK UNBOUND:                -3.457
REMARK SMILES CCCCCCCCCCCCCCCCCCCCCC(=O)[O-]
REMARK SMILES IDX 12 1 11 2 10 3 9 4 8 5 7 6 6 7 5 8 4 9 3 10 2 11 1 12 13 13
REMARK SMILES IDX 14 14 15 15 16 16 17 17 18 18 19 19 20 20 21 21 22 22 23 23
REMARK SMILES IDX 24 24
REMARK H PARENT
REMARK Flexibility Score: inf
ROOT
ATOM      1  C   UNL     1     126.615 142.815 137.530  1.00  0.00     0.000 C 
ENDROOT
BRANCH   1   2
ATOM      2  C   UNL     1     126.384 143.846 138.651  1.00  0.00     0.000 C 
BRANCH   2   3
ATOM      3  C   UNL     1     126.821 143.363 140.048  1.00  0.00     0.000 C 
BRANCH   3   4
ATOM      4  C   UNL     1     127.830 142.190 140.010  1.00  0.00    -0.000 C 
BRANCH   4   5
ATOM      5  C   UNL     1     128.968 142.318 141.043  1.00  0.00    -0.000 C 
BRANCH   5   6
ATOM      6  C   UNL     1     130.271 141.596 140.659  1.00  0.00    -0.000 C 
BRANCH   6   7
ATOM      7  C   UNL     1     130.532 141.608 139.142  1.00  0.00    -0.000 C 
BRANCH   7   8
ATOM      8  C   UNL     1     131.399 140.422 138.680  1.00  0.00    -0.000 C 
BRANCH   8   9
ATOM      9  C   UNL     1     131.979 139.573 139.828  1.00  0.00    -0.000 C 
BRANCH   9  10
ATOM     10  C   UNL     1     133.474 139.839 140.066  1.00  0.00    -0.000 C 
BRANCH  10  11
ATOM     11  C   UNL     1     133.732 140.270 141.515  1.00  0.00    -0.003 C 
ATOM     12  C   UNL     1     134.219 141.716 141.581  1.00  0.00     0.004 C 
ENDBRANCH  10  11
ENDBRANCH   9  10
ENDBRANCH   8   9
ENDBRANCH   7   8
ENDBRANCH   6   7
ENDBRANCH   5   6
ENDBRANCH   4   5
ENDBRANCH   3   4
ENDBRANCH   2   3
ENDBRANCH   1   2
BRANCH   1  13
ATOM     13  C   UNL     1     125.750 143.089 136.287  1.00  0.00     0.000 C 
BRANCH  13  14
ATOM     14  C   UNL     1     125.079 141.813 135.747  1.00  0.00     0.000 C 
BRANCH  14  15
ATOM     15  C   UNL     1     125.231 140.619 136.707  1.00  0.00     0.000 C 
BRANCH  15  16
ATOM     16  C   UNL     1     125.302 139.273 135.970  1.00  0.00     0.000 C 
BRANCH  16  17
ATOM     17  C   UNL     1     126.546 138.450 136.350  1.00  0.00     0.000 C 
BRANCH  17  18
ATOM     18  C   UNL     1     127.552 139.265 137.192  1.00  0.00     0.000 C 
BRANCH  18  19
ATOM     19  C   UNL     1     128.478 138.395 138.065  1.00  0.00     0.000 C 
BRANCH  19  20
ATOM     20  C   UNL     1     128.266 138.548 139.584  1.00  0.00     0.006 C 
BRANCH  20  21
ATOM     21  C   UNL     1     128.844 137.394 140.421  1.00  0.00     0.053 C 
BRANCH  21  22
ATOM     22  C   UNL     1     128.726 136.079 139.716  1.00  0.00     0.041 C 
ATOM     23  O   UNL     1     129.742 135.542 139.202  1.00  0.00    -0.550 OA
ATOM     24  O   UNL     1     127.498 135.433 139.651  1.00  0.00    -0.550 OA
ENDBRANCH  21  22
ENDBRANCH  20  21
ENDBRANCH  19  20
ENDBRANCH  18  19
ENDBRANCH  17  18
ENDBRANCH  16  17
ENDBRANCH  15  16
ENDBRANCH  14  15
ENDBRANCH  13  14
ENDBRANCH   1  13
TORSDOF 20
ENDMDL
MODEL 3
REMARK VINA RESULT:    -4.270      3.812      5.648
REMARK INTER + INTRA:         -12.719
REMARK INTER:                  -9.960
REMARK INTRA:                  -2.759
REMARK UNBOUND:                -3.457
REMARK SMILES CCCCCCCCCCCCCCCCCCCCCC(=O)[O-]
REMARK SMILES IDX 12 1 11 2 10 3 9 4 8 5 7 6 6 7 5 8 4 9 3 10 2 11 1 12 13 13
REMARK SMILES IDX 14 14 15 15 16 16 17 17 18 18 19 19 20 20 21 21 22 22 23 23
REMARK SMILES IDX 24 24
REMARK H PARENT
REMARK Flexibility Score: inf
ROOT
ATOM      1  C   UNL     1     125.758 143.111 136.326  1.00  0.00     0.000 C 
ENDROOT
BRANCH   1   2
ATOM      2  C   UNL     1     125.216 141.802 135.721  1.00  0.00     0.000 C 
BRANCH   2   3
ATOM      3  C   UNL     1     125.209 140.613 136.703  1.00  0.00     0.000 C 
BRANCH   3   4
ATOM      4  C   UNL     1     125.256 139.233 136.006  1.00  0.00    -0.000 C 
BRANCH   4   5
ATOM      5  C   UNL     1     126.576 138.468 136.234  1.00  0.00    -0.000 C 
BRANCH   5   6
ATOM      6  C   UNL     1     127.521 139.106 137.267  1.00  0.00    -0.000 C 
BRANCH   6   7
ATOM      7  C   UNL     1     128.014 138.099 138.322  1.00  0.00    -0.000 C 
BRANCH   7   8
ATOM      8  C   UNL     1     127.643 136.645 137.972  1.00  0.00    -0.000 C 
BRANCH   8   9
ATOM      9  C   UNL     1     126.876 135.900 139.081  1.00  0.00    -0.000 C 
BRANCH   9  10
ATOM     10  C   UNL     1     125.588 136.625 139.502  1.00  0.00    -0.000 C 
BRANCH  10  11
ATOM     11  C   UNL     1     125.446 136.651 141.029  1.00  0.00    -0.003 C 
ATOM     12  C   UNL     1     126.677 137.272 141.686  1.00  0.00     0.004 C 
ENDBRANCH  10  11
ENDBRANCH   9  10
ENDBRANCH   8   9
ENDBRANCH   7   8
ENDBRANCH   6   7
ENDBRANCH   5   6
ENDBRANCH   4   5
ENDBRANCH   3   4
ENDBRANCH   2   3
ENDBRANCH   1   2
BRANCH   1  13
ATOM     13  C   UNL     1     126.515 142.884 137.647  1.00  0.00     0.000 C 
BRANCH  13  14
ATOM     14  C   UNL     1     126.218 143.979 138.687  1.00  0.00     0.000 C 
BRANCH  14  15
ATOM     15  C   UNL     1     126.323 143.460 140.132  1.00  0.00     0.000 C 
BRANCH  15  16
ATOM     16  C   UNL     1     127.777 143.235 140.576  1.00  0.00     0.000 C 
BRANCH  16  17
ATOM     17  C   UNL     1     127.978 141.895 141.307  1.00  0.00     0.000 C 
BRANCH  17  18
ATOM     18  C   UNL     1     128.816 140.897 140.480  1.00  0.00     0.000 C 
BRANCH  18  19
ATOM     19  C   UNL     1     129.541 141.541 139.281  1.00  0.00     0.000 C 
BRANCH  19  20
ATOM     20  C   UNL     1     131.044 141.214 139.182  1.00  0.00     0.006 C 
BRANCH  20  21
ATOM     21  C   UNL     1     131.353 139.857 138.526  1.00  0.00     0.053 C 
BRANCH  21  22
ATOM     22  C   UNL     1     132.569 139.215 139.117  1.00  0.00     0.041 C 
ATOM     23  O   UNL     1     132.979 138.110 138.676  1.00  0.00    -0.550 OA
ATOM     24  O   UNL     1     133.265 139.851 140.136  1.00  0.00    -0.550 OA
ENDBRANCH  21  22
ENDBRANCH  20  21
ENDBRANCH  19  20
ENDBRANCH  18  19
ENDBRANCH  17  18
ENDBRANCH  16  17
ENDBRANCH  15  16
ENDBRANCH  14  15
ENDBRANCH  13  14
ENDBRANCH   1  13
TORSDOF 20
ENDMDL
MODEL 4
REMARK VINA RESULT:    -4.258      6.087      9.681
REMARK INTER + INTRA:         -12.693
REMARK INTER:                  -9.502
REMARK INTRA:                  -3.191
REMARK UNBOUND:                -3.457
REMARK SMILES CCCCCCCCCCCCCCCCCCCCCC(=O)[O-]
REMARK SMILES IDX 12 1 11 2 10 3 9 4 8 5 7 6 6 7 5 8 4 9 3 10 2 11 1 12 13 13
REMARK SMILES IDX 14 14 15 15 16 16 17 17 18 18 19 19 20 20 21 21 22 22 23 23
REMARK SMILES IDX 24 24
REMARK H PARENT
REMARK Flexibility Score: inf
ROOT
ATOM      1  C   UNL     1     140.362 134.046 139.163  1.00  0.00     0.000 C 
ENDROOT
BRANCH   1   2
ATOM      2  C   UNL     1     139.632 135.132 138.351  1.00  0.00     0.000 C 
BRANCH   2   3
ATOM      3  C   UNL     1     139.500 136.482 139.085  1.00  0.00     0.000 C 
BRANCH   3   4
ATOM      4  C   UNL     1     139.893 136.416 140.579  1.00  0.00    -0.000 C 
BRANCH   4   5
ATOM      5  C   UNL     1     138.884 137.110 141.516  1.00  0.00    -0.000 C 
BRANCH   5   6
ATOM      6  C   UNL     1     137.898 138.059 140.814  1.00  0.00    -0.000 C 
BRANCH   6   7
ATOM      7  C   UNL     1     136.742 138.499 141.730  1.00  0.00    -0.000 C 
BRANCH   7   8
ATOM      8  C   UNL     1     136.340 139.971 141.512  1.00  0.00    -0.000 C 
BRANCH   8   9
ATOM      9  C   UNL     1     134.910 140.167 140.976  1.00  0.00    -0.000 C 
BRANCH   9  10
ATOM     10  C   UNL     1     134.184 138.837 140.720  1.00  0.00    -0.000 C 
BRANCH  10  11
ATOM     11  C   UNL     1     133.797 138.696 139.243  1.00  0.00    -0.003 C 
ATOM     12  C   UNL     1     134.922 138.049 138.439  1.00  0.00     0.004 C 
ENDBRANCH  10  11
ENDBRANCH   9  10
ENDBRANCH   8   9
ENDBRANCH   7   8
ENDBRANCH   6   7
ENDBRANCH   5   6
ENDBRANCH   4   5
ENDBRANCH   3   4
ENDBRANCH   2   3
ENDBRANCH   1   2
BRANCH   1  13
ATOM     13  C   UNL     1     139.456 132.849 139.500  1.00  0.00     0.000 C 
BRANCH  13  14
ATOM     14  C   UNL     1     137.967 133.152 139.249  1.00  0.00     0.000 C 
BRANCH  14  15
ATOM     15  C   UNL     1     137.279 133.775 140.476  1.00  0.00     0.000 C 
BRANCH  15  16
ATOM     16  C   UNL     1     136.275 134.875 140.097  1.00  0.00     0.000 C 
BRANCH  16  17
ATOM     17  C   UNL     1     135.294 135.206 141.236  1.00  0.00     0.000 C 
BRANCH  17  18
ATOM     18  C   UNL     1     133.871 134.677 140.955  1.00  0.00     0.000 C 
BRANCH  18  19
ATOM     19  C   UNL     1     133.517 134.615 139.456  1.00  0.00     0.000 C 
BRANCH  19  20
ATOM     20  C   UNL     1     132.771 133.340 139.019  1.00  0.00     0.006 C 
BRANCH  20  21
ATOM     21  C   UNL     1     131.270 133.339 139.357  1.00  0.00     0.053 C 
BRANCH  21  22
ATOM     22  C   UNL     1     130.939 132.348 140.428  1.00  0.00     0.041 C 
ATOM     23  O   UNL     1     131.860 131.789 141.081  1.00  0.00    -0.550 OA
ATOM     24  O   UNL     1     129.613 132.062 140.725  1.00  0.00    -0.550 OA
ENDBRANCH  21  22
ENDBRANCH  20  21
ENDBRANCH  19  20
ENDBRANCH  18  19
ENDBRANCH  17  18
ENDBRANCH  16  17
ENDBRANCH  15  16
ENDBRANCH  14  15
ENDBRANCH  13  14
ENDBRANCH   1  13
TORSDOF 20
ENDMDL
MODEL 5
REMARK VINA RESULT:    -4.255      2.639      4.580
REMARK INTER + INTRA:         -12.687
REMARK INTER:                  -9.507
REMARK INTRA:                  -3.180
REMARK UNBOUND:                -3.457
REMARK SMILES CCCCCCCCCCCCCCCCCCCCCC(=O)[O-]
REMARK SMILES IDX 12 1 11 2 10 3 9 4 8 5 7 6 6 7 5 8 4 9 3 10 2 11 1 12 13 13
REMARK SMILES IDX 14 14 15 15 16 16 17 17 18 18 19 19 20 20 21 21 22 22 23 23
REMARK SMILES IDX 24 24
REMARK H PARENT
REMARK Flexibility Score: inf
ROOT
ATOM      1  C   UNL     1     130.437 139.963 138.050  1.00  0.00     0.000 C 
ENDROOT
BRANCH   1   2
ATOM      2  C   UNL     1     131.330 140.998 138.760  1.00  0.00     0.000 C 
BRANCH   2   3
ATOM      3  C   UNL     1     132.248 140.397 139.843  1.00  0.00     0.000 C 
BRANCH   3   4
ATOM      4  C   UNL     1     132.551 141.368 141.008  1.00  0.00    -0.000 C 
BRANCH   4   5
ATOM      5  C   UNL     1     133.797 140.982 141.830  1.00  0.00    -0.000 C 
BRANCH   5   6
ATOM      6  C   UNL     1     134.932 142.021 141.808  1.00  0.00    -0.000 C 
BRANCH   6   7
ATOM      7  C   UNL     1     136.325 141.376 141.701  1.00  0.00    -0.000 C 
BRANCH   7   8
ATOM      8  C   UNL     1     136.279 139.841 141.815  1.00  0.00    -0.000 C 
BRANCH   8   9
ATOM      9  C   UNL     1     136.702 139.094 140.536  1.00  0.00    -0.000 C 
BRANCH   9  10
ATOM     10  C   UNL     1     135.528 138.376 139.851  1.00  0.00    -0.000 C 
BRANCH  10  11
ATOM     11  C   UNL     1     134.998 137.233 140.725  1.00  0.00    -0.003 C 
ATOM     12  C   UNL     1     133.512 136.990 140.471  1.00  0.00     0.004 C 
ENDBRANCH  10  11
ENDBRANCH   9  10
ENDBRANCH   8   9
ENDBRANCH   7   8
ENDBRANCH   6   7
ENDBRANCH   5   6
ENDBRANCH   4   5
ENDBRANCH   3   4
ENDBRANCH   2   3
ENDBRANCH   1   2
BRANCH   1  13
ATOM     13  C   UNL     1     130.648 138.534 138.585  1.00  0.00     0.000 C 
BRANCH  13  14
ATOM     14  C   UNL     1     129.499 138.077 139.502  1.00  0.00     0.000 C 
BRANCH  14  15
ATOM     15  C   UNL     1     129.967 137.820 140.945  1.00  0.00     0.000 C 
BRANCH  15  16
ATOM     16  C   UNL     1     129.204 138.669 141.975  1.00  0.00     0.000 C 
BRANCH  16  17
ATOM     17  C   UNL     1     128.481 139.870 141.340  1.00  0.00     0.000 C 
BRANCH  17  18
ATOM     18  C   UNL     1     128.763 141.187 142.095  1.00  0.00     0.000 C 
BRANCH  18  19
ATOM     19  C   UNL     1     129.019 142.391 141.166  1.00  0.00     0.000 C 
BRANCH  19  20
ATOM     20  C   UNL     1     127.748 143.079 140.632  1.00  0.00     0.006 C 
BRANCH  20  21
ATOM     21  C   UNL     1     127.333 142.629 139.220  1.00  0.00     0.053 C 
BRANCH  21  22
ATOM     22  C   UNL     1     126.417 143.617 138.567  1.00  0.00     0.041 C 
ATOM     23  O   UNL     1     125.969 144.595 139.221  1.00  0.00    -0.550 OA
ATOM     24  O   UNL     1     126.081 143.472 137.227  1.00  0.00    -0.550 OA
ENDBRANCH  21  22
ENDBRANCH  20  21
ENDBRANCH  19  20
ENDBRANCH  18  19
ENDBRANCH  17  18
ENDBRANCH  16  17
ENDBRANCH  15  16
ENDBRANCH  14  15
ENDBRANCH  13  14
ENDBRANCH   1  13
TORSDOF 20
ENDMDL
MODEL 6
REMARK VINA RESULT:    -4.228      1.181      4.126
REMARK INTER + INTRA:         -12.628
REMARK INTER:                  -9.246
REMARK INTRA:                  -3.383
REMARK UNBOUND:                -3.457
REMARK SMILES CCCCCCCCCCCCCCCCCCCCCC(=O)[O-]
REMARK SMILES IDX 12 1 11 2 10 3 9 4 8 5 7 6 6 7 5 8 4 9 3 10 2 11 1 12 13 13
REMARK SMILES IDX 14 14 15 15 16 16 17 17 18 18 19 19 20 20 21 21 22 22 23 23
REMARK SMILES IDX 24 24
REMARK H PARENT
REMARK Flexibility Score: inf
ROOT
ATOM      1  C   UNL     1     132.094 135.300 138.001  1.00  0.00     0.000 C 
ENDROOT
BRANCH   1   2
ATOM      2  C   UNL     1     132.791 134.246 138.883  1.00  0.00     0.000 C 
BRANCH   2   3
ATOM      3  C   UNL     1     132.154 132.844 138.806  1.00  0.00     0.000 C 
BRANCH   3   4
ATOM      4  C   UNL     1     131.174 132.544 139.964  1.00  0.00    -0.000 C 
BRANCH   4   5
ATOM      5  C   UNL     1     131.276 133.542 141.136  1.00  0.00    -0.000 C 
BRANCH   5   6
ATOM      6  C   UNL     1     130.118 134.551 141.226  1.00  0.00    -0.000 C 
BRANCH   6   7
ATOM      7  C   UNL     1     128.995 134.259 140.214  1.00  0.00    -0.000 C 
BRANCH   7   8
ATOM      8  C   UNL     1     128.130 135.498 139.915  1.00  0.00    -0.000 C 
BRANCH   8   9
ATOM      9  C   UNL     1     128.580 136.779 140.642  1.00  0.00    -0.000 C 
BRANCH   9  10
ATOM     10  C   UNL     1     128.690 137.989 139.701  1.00  0.00    -0.000 C 
BRANCH  10  11
ATOM     11  C   UNL     1     128.784 137.541 138.238  1.00  0.00    -0.003 C 
ATOM     12  C   UNL     1     128.278 138.630 137.294  1.00  0.00     0.004 C 
ENDBRANCH  10  11
ENDBRANCH   9  10
ENDBRANCH   8   9
ENDBRANCH   7   8
ENDBRANCH   6   7
ENDBRANCH   5   6
ENDBRANCH   4   5
ENDBRANCH   3   4
ENDBRANCH   2   3
ENDBRANCH   1   2
BRANCH   1  13
ATOM     13  C   UNL     1     132.614 136.725 138.259  1.00  0.00     0.000 C 
BRANCH  13  14
ATOM     14  C   UNL     1     132.235 137.243 139.658  1.00  0.00     0.000 C 
BRANCH  14  15
ATOM     15  C   UNL     1     132.916 138.582 139.994  1.00  0.00     0.000 C 
BRANCH  15  16
ATOM     16  C   UNL     1     131.918 139.745 140.095  1.00  0.00     0.000 C 
BRANCH  16  17
ATOM     17  C   UNL     1     131.588 140.370 138.727  1.00  0.00     0.000 C 
BRANCH  17  18
ATOM     18  C   UNL     1     130.346 141.285 138.786  1.00  0.00     0.000 C 
BRANCH  18  19
ATOM     19  C   UNL     1     129.811 141.512 140.214  1.00  0.00     0.000 C 
BRANCH  19  20
ATOM     20  C   UNL     1     128.277 141.622 140.320  1.00  0.00     0.006 C 
BRANCH  20  21
ATOM     21  C   UNL     1     127.764 143.044 140.602  1.00  0.00     0.053 C 
BRANCH  21  22
ATOM     22  C   UNL     1     126.682 143.446 139.648  1.00  0.00     0.041 C 
ATOM     23  O   UNL     1     126.491 142.788 138.592  1.00  0.00    -0.550 OA
ATOM     24  O   UNL     1     125.868 144.533 139.940  1.00  0.00    -0.550 OA
ENDBRANCH  21  22
ENDBRANCH  20  21
ENDBRANCH  19  20
ENDBRANCH  18  19
ENDBRANCH  17  18
ENDBRANCH  16  17
ENDBRANCH  15  16
ENDBRANCH  14  15
ENDBRANCH  13  14
ENDBRANCH   1  13
TORSDOF 20
ENDMDL
MODEL 7
REMARK VINA RESULT:    -4.215      3.209      7.350
REMARK INTER + INTRA:         -12.601
REMARK INTER:                  -8.893
REMARK INTRA:                  -3.708
REMARK UNBOUND:                -3.457
REMARK SMILES CCCCCCCCCCCCCCCCCCCCCC(=O)[O-]
REMARK SMILES IDX 12 1 11 2 10 3 9 4 8 5 7 6 6 7 5 8 4 9 3 10 2 11 1 12 13 13
REMARK SMILES IDX 14 14 15 15 16 16 17 17 18 18 19 19 20 20 21 21 22 22 23 23
REMARK SMILES IDX 24 24
REMARK H PARENT
REMARK Flexibility Score: inf
ROOT
ATOM      1  C   UNL     1     126.945 137.351 137.076  1.00  0.00     0.000 C 
ENDROOT
BRANCH   1   2
ATOM      2  C   UNL     1     127.236 138.848 136.859  1.00  0.00     0.000 C 
BRANCH   2   3
ATOM      3  C   UNL     1     128.303 139.424 137.810  1.00  0.00     0.000 C 
BRANCH   3   4
ATOM      4  C   UNL     1     129.748 139.288 137.276  1.00  0.00    -0.000 C 
BRANCH   4   5
ATOM      5  C   UNL     1     130.790 140.075 138.097  1.00  0.00    -0.000 C 
BRANCH   5   6
ATOM      6  C   UNL     1     130.235 141.310 138.828  1.00  0.00    -0.000 C 
BRANCH   6   7
ATOM      7  C   UNL     1     130.565 141.307 140.332  1.00  0.00    -0.000 C 
BRANCH   7   8
ATOM      8  C   UNL     1     129.551 142.116 141.162  1.00  0.00    -0.000 C 
BRANCH   8   9
ATOM      9  C   UNL     1     128.091 141.985 140.689  1.00  0.00    -0.000 C 
BRANCH   9  10
ATOM     10  C   UNL     1     127.440 143.344 140.386  1.00  0.00    -0.000 C 
BRANCH  10  11
ATOM     11  C   UNL     1     126.278 143.190 139.398  1.00  0.00    -0.003 C 
ATOM     12  C   UNL     1     126.784 142.810 138.008  1.00  0.00     0.004 C 
ENDBRANCH  10  11
ENDBRANCH   9  10
ENDBRANCH   8   9
ENDBRANCH   7   8
ENDBRANCH   6   7
ENDBRANCH   5   6
ENDBRANCH   4   5
ENDBRANCH   3   4
ENDBRANCH   2   3
ENDBRANCH   1   2
BRANCH   1  13
ATOM     13  C   UNL     1     125.968 137.101 138.239  1.00  0.00     0.000 C 
BRANCH  13  14
ATOM     14  C   UNL     1     126.607 136.279 139.373  1.00  0.00     0.000 C 
BRANCH  14  15
ATOM     15  C   UNL     1     126.172 136.764 140.767  1.00  0.00     0.000 C 
BRANCH  15  16
ATOM     16  C   UNL     1     127.363 137.144 141.661  1.00  0.00     0.000 C 
BRANCH  16  17
ATOM     17  C   UNL     1     128.265 138.219 141.029  1.00  0.00     0.000 C 
BRANCH  17  18
ATOM     18  C   UNL     1     129.719 137.731 140.850  1.00  0.00     0.000 C 
BRANCH  18  19
ATOM     19  C   UNL     1     129.908 136.228 141.136  1.00  0.00     0.000 C 
BRANCH  19  20
ATOM     20  C   UNL     1     130.137 135.354 139.888  1.00  0.00     0.006 C 
BRANCH  20  21
ATOM     21  C   UNL     1     130.474 136.148 138.615  1.00  0.00     0.053 C 
BRANCH  21  22
ATOM     22  C   UNL     1     131.916 136.010 138.236  1.00  0.00     0.041 C 
ATOM     23  O   UNL     1     132.612 135.079 138.721  1.00  0.00    -0.550 OA
ATOM     24  O   UNL     1     132.483 136.892 137.326  1.00  0.00    -0.550 OA
ENDBRANCH  21  22
ENDBRANCH  20  21
ENDBRANCH  19  20
ENDBRANCH  18  19
ENDBRANCH  17  18
ENDBRANCH  16  17
ENDBRANCH  15  16
ENDBRANCH  14  15
ENDBRANCH  13  14
ENDBRANCH   1  13
TORSDOF 20
ENDMDL
MODEL 8
REMARK VINA RESULT:    -4.205      1.794      2.868
REMARK INTER + INTRA:         -12.578
REMARK INTER:                  -9.435
REMARK INTRA:                  -3.143
REMARK UNBOUND:                -3.457
REMARK SMILES CCCCCCCCCCCCCCCCCCCCCC(=O)[O-]
REMARK SMILES IDX 12 1 11 2 10 3 9 4 8 5 7 6 6 7 5 8 4 9 3 10 2 11 1 12 13 13
REMARK SMILES IDX 14 14 15 15 16 16 17 17 18 18 19 19 20 20 21 21 22 22 23 23
REMARK SMILES IDX 24 24
REMARK H PARENT
REMARK Flexibility Score: inf
ROOT
ATOM      1  C   UNL     1     130.819 139.755 137.328  1.00  0.00     0.000 C 
ENDROOT
BRANCH   1   2
ATOM      2  C   UNL     1     129.572 138.851 137.283  1.00  0.00     0.000 C 
BRANCH   2   3
ATOM      3  C   UNL     1     128.644 139.000 138.505  1.00  0.00     0.000 C 
BRANCH   3   4
ATOM      4  C   UNL     1     128.627 137.758 139.425  1.00  0.00    -0.000 C 
BRANCH   4   5
ATOM      5  C   UNL     1     130.027 137.181 139.715  1.00  0.00    -0.000 C 
BRANCH   5   6
ATOM      6  C   UNL     1     130.356 135.878 138.966  1.00  0.00    -0.000 C 
BRANCH   6   7
ATOM      7  C   UNL     1     131.666 135.970 138.162  1.00  0.00    -0.000 C 
BRANCH   7   8
ATOM      8  C   UNL     1     132.692 136.921 138.807  1.00  0.00    -0.000 C 
BRANCH   8   9
ATOM      9  C   UNL     1     133.809 136.212 139.595  1.00  0.00    -0.000 C 
BRANCH   9  10
ATOM     10  C   UNL     1     135.036 137.109 139.823  1.00  0.00    -0.000 C 
BRANCH  10  11
ATOM     11  C   UNL     1     134.838 138.487 139.179  1.00  0.00    -0.003 C 
ATOM     12  C   UNL     1     135.889 138.748 138.103  1.00  0.00     0.004 C 
ENDBRANCH  10  11
ENDBRANCH   9  10
ENDBRANCH   8   9
ENDBRANCH   7   8
ENDBRANCH   6   7
ENDBRANCH   5   6
ENDBRANCH   4   5
ENDBRANCH   3   4
ENDBRANCH   2   3
ENDBRANCH   1   2
BRANCH   1  13
ATOM     13  C   UNL     1     130.713 140.856 138.398  1.00  0.00     0.000 C 
BRANCH  13  14
ATOM     14  C   UNL     1     131.812 140.739 139.470  1.00  0.00     0.000 C 
BRANCH  14  15
ATOM     15  C   UNL     1     131.356 141.272 140.839  1.00  0.00     0.000 C 
BRANCH  15  16
ATOM     16  C   UNL     1     130.374 140.325 141.546  1.00  0.00     0.000 C 
BRANCH  16  17
ATOM     17  C   UNL     1     128.986 140.954 141.759  1.00  0.00     0.000 C 
BRANCH  17  18
ATOM     18  C   UNL     1     128.856 142.331 141.071  1.00  0.00     0.000 C 
BRANCH  18  19
ATOM     19  C   UNL     1     127.399 142.792 140.875  1.00  0.00     0.000 C 
BRANCH  19  20
ATOM     20  C   UNL     1     127.104 143.447 139.512  1.00  0.00     0.006 C 
BRANCH  20  21
ATOM     21  C   UNL     1     127.009 142.454 138.341  1.00  0.00     0.053 C 
BRANCH  21  22
ATOM     22  C   UNL     1     126.182 142.994 137.216  1.00  0.00     0.041 C 
ATOM     23  O   UNL     1     125.854 142.248 136.256  1.00  0.00    -0.550 OA
ATOM     24  O   UNL     1     125.750 144.314 137.243  1.00  0.00    -0.550 OA
ENDBRANCH  21  22
ENDBRANCH  20  21
ENDBRANCH  19  20
ENDBRANCH  18  19
ENDBRANCH  17  18
ENDBRANCH  16  17
ENDBRANCH  15  16
ENDBRANCH  14  15
ENDBRANCH  13  14
ENDBRANCH   1  13
TORSDOF 20
ENDMDL
MODEL 9
REMARK VINA RESULT:    -4.199      5.263      8.030
REMARK INTER + INTRA:         -12.565
REMARK INTER:                  -9.023
REMARK INTRA:                  -3.542
REMARK UNBOUND:                -3.457
REMARK SMILES CCCCCCCCCCCCCCCCCCCCCC(=O)[O-]
REMARK SMILES IDX 12 1 11 2 10 3 9 4 8 5 7 6 6 7 5 8 4 9 3 10 2 11 1 12 13 13
REMARK SMILES IDX 14 14 15 15 16 16 17 17 18 18 19 19 20 20 21 21 22 22 23 23
REMARK SMILES IDX 24 24
REMARK H PARENT
REMARK Flexibility Score: inf
ROOT
ATOM      1  C   UNL     1     136.883 134.094 139.627  1.00  0.00     0.000 C 
ENDROOT
BRANCH   1   2
ATOM      2  C   UNL     1     137.957 133.110 139.128  1.00  0.00     0.000 C 
BRANCH   2   3
ATOM      3  C   UNL     1     138.659 133.553 137.829  1.00  0.00     0.000 C 
BRANCH   3   4
ATOM      4  C   UNL     1     140.176 133.802 137.998  1.00  0.00    -0.000 C 
BRANCH   4   5
ATOM      5  C   UNL     1     140.659 133.722 139.460  1.00  0.00    -0.000 C 
BRANCH   5   6
ATOM      6  C   UNL     1     141.026 135.075 140.094  1.00  0.00    -0.000 C 
BRANCH   6   7
ATOM      7  C   UNL     1     140.159 135.412 141.320  1.00  0.00    -0.000 C 
BRANCH   7   8
ATOM      8  C   UNL     1     139.435 136.764 141.180  1.00  0.00    -0.000 C 
BRANCH   8   9
ATOM      9  C   UNL     1     138.807 137.010 139.795  1.00  0.00    -0.000 C 
BRANCH   9  10
ATOM     10  C   UNL     1     137.482 137.785 139.872  1.00  0.00    -0.000 C 
BRANCH  10  11
ATOM     11  C   UNL     1     137.191 138.234 141.309  1.00  0.00    -0.003 C 
ATOM     12  C   UNL     1     136.661 139.666 141.341  1.00  0.00     0.004 C 
ENDBRANCH  10  11
ENDBRANCH   9  10
ENDBRANCH   8   9
ENDBRANCH   7   8
ENDBRANCH   6   7
ENDBRANCH   5   6
ENDBRANCH   4   5
ENDBRANCH   3   4
ENDBRANCH   2   3
ENDBRANCH   1   2
BRANCH   1  13
ATOM     13  C   UNL     1     136.767 134.114 141.162  1.00  0.00     0.000 C 
BRANCH  13  14
ATOM     14  C   UNL     1     135.579 134.965 141.648  1.00  0.00     0.000 C 
BRANCH  14  15
ATOM     15  C   UNL     1     134.512 135.161 140.557  1.00  0.00     0.000 C 
BRANCH  15  16
ATOM     16  C   UNL     1     133.914 136.577 140.561  1.00  0.00     0.000 C 
BRANCH  16  17
ATOM     17  C   UNL     1     133.924 137.232 139.168  1.00  0.00     0.000 C 
BRANCH  17  18
ATOM     18  C   UNL     1     133.550 138.730 139.224  1.00  0.00     0.000 C 
BRANCH  18  19
ATOM     19  C   UNL     1     133.163 139.220 140.634  1.00  0.00     0.000 C 
BRANCH  19  20
ATOM     20  C   UNL     1     132.785 140.711 140.720  1.00  0.00     0.006 C 
BRANCH  20  21
ATOM     21  C   UNL     1     131.304 140.970 141.040  1.00  0.00     0.053 C 
BRANCH  21  22
ATOM     22  C   UNL     1     130.538 141.401 139.829  1.00  0.00     0.041 C 
ATOM     23  O   UNL     1     129.405 141.937 139.953  1.00  0.00    -0.550 OA
ATOM     24  O   UNL     1     131.087 141.237 138.564  1.00  0.00    -0.550 OA
ENDBRANCH  21  22
ENDBRANCH  20  21
ENDBRANCH  19  20
ENDBRANCH  18  19
ENDBRANCH  17  18
ENDBRANCH  16  17
ENDBRANCH  15  16
ENDBRANCH  14  15
ENDBRANCH  13  14
ENDBRANCH   1  13
TORSDOF 20
ENDMDL
