MODEL 1
REMARK VINA RESULT:    -2.663      0.000      0.000
REMARK INTER + INTRA:          -7.480
REMARK INTER:                  -5.153
REMARK INTRA:                  -2.327
REMARK UNBOUND:                -2.327
REMARK SMILES CCCCCCCCCCCCCCCCCC(=O)[O-]
REMARK SMILES IDX 10 1 11 2 12 3 13 4 14 5 15 6 16 7 17 8 18 9 19 10 20 11
REMARK SMILES IDX 9 12 8 13 7 14 6 15 5 16 4 17 3 18 2 19 1 20
REMARK H PARENT
REMARK Flexibility Score: inf
ROOT
ATOM      1  C   UNL     1      55.116 -35.993  22.184  1.00  0.00     0.000 C 
ENDROOT
BRANCH   1   2
ATOM      2  C   UNL     1      56.644 -35.955  22.367  1.00  0.00     0.000 C 
BRANCH   2   3
ATOM      3  C   UNL     1      57.131 -36.841  23.528  1.00  0.00     0.000 C 
BRANCH   3   4
ATOM      4  C   UNL     1      57.729 -36.081  24.726  1.00  0.00     0.000 C 
BRANCH   4   5
ATOM      5  C   UNL     1      57.847 -34.569  24.477  1.00  0.00     0.000 C 
BRANCH   5   6
ATOM      6  C   UNL     1      57.339 -33.773  25.686  1.00  0.00     0.000 C 
BRANCH   6   7
ATOM      7  C   UNL     1      56.092 -32.957  25.323  1.00  0.00     0.006 C 
BRANCH   7   8
ATOM      8  C   UNL     1      56.178 -32.428  23.889  1.00  0.00     0.053 C 
BRANCH   8   9
ATOM      9  C   UNL     1      56.703 -31.027  23.876  1.00  0.00     0.041 C 
ATOM     10  O   UNL     1      56.074 -30.110  24.469  1.00  0.00    -0.550 OA
ATOM     11  O   UNL     1      57.860 -30.725  23.170  1.00  0.00    -0.550 OA
ENDBRANCH   8   9
ENDBRANCH   7   8
ENDBRANCH   6   7
ENDBRANCH   5   6
ENDBRANCH   4   5
ENDBRANCH   3   4
ENDBRANCH   2   3
ENDBRANCH   1   2
BRANCH   1  12
ATOM     12  C   UNL     1      54.359 -35.616  23.469  1.00  0.00     0.000 C 
BRANCH  12  13
ATOM     13  C   UNL     1      53.226 -34.606  23.213  1.00  0.00    -0.000 C 
BRANCH  13  14
ATOM     14  C   UNL     1      51.833 -35.176  23.535  1.00  0.00    -0.000 C 
BRANCH  14  15
ATOM     15  C   UNL     1      50.667 -34.507  22.785  1.00  0.00    -0.000 C 
BRANCH  15  16
ATOM     16  C   UNL     1      50.021 -33.358  23.582  1.00  0.00    -0.000 C 
BRANCH  16  17
ATOM     17  C   UNL     1      50.181 -31.997  22.877  1.00  0.00    -0.000 C 
BRANCH  17  18
ATOM     18  C   UNL     1      51.603 -31.407  22.966  1.00  0.00    -0.000 C 
BRANCH  18  19
ATOM     19  C   UNL     1      51.896 -30.660  24.282  1.00  0.00    -0.003 C 
ATOM     20  C   UNL     1      52.764 -31.471  25.244  1.00  0.00     0.004 C 
ENDBRANCH  18  19
ENDBRANCH  17  18
ENDBRANCH  16  17
ENDBRANCH  15  16
ENDBRANCH  14  15
ENDBRANCH  13  14
ENDBRANCH  12  13
ENDBRANCH   1  12
TORSDOF 16
ENDMDL
MODEL 2
REMARK VINA RESULT:    -2.650      2.453      5.410
REMARK INTER + INTRA:          -7.456
REMARK INTER:                  -4.466
REMARK INTRA:                  -2.990
REMARK UNBOUND:                -2.327
REMARK SMILES CCCCCCCCCCCCCCCCCC(=O)[O-]
REMARK SMILES IDX 10 1 11 2 12 3 13 4 14 5 15 6 16 7 17 8 18 9 19 10 20 11
REMARK SMILES IDX 9 12 8 13 7 14 6 15 5 16 4 17 3 18 2 19 1 20
REMARK H PARENT
REMARK Flexibility Score: inf
ROOT
ATOM      1  C   UNL     1      54.381 -35.253  23.014  1.00  0.00     0.000 C 
ENDROOT
BRANCH   1   2
ATOM      2  C   UNL     1      53.067 -35.382  23.803  1.00  0.00     0.000 C 
BRANCH   2   3
ATOM      3  C   UNL     1      51.851 -34.828  23.038  1.00  0.00     0.000 C 
BRANCH   3   4
ATOM      4  C   UNL     1      50.796 -34.121  23.910  1.00  0.00     0.000 C 
BRANCH   4   5
ATOM      5  C   UNL     1      50.341 -32.775  23.325  1.00  0.00     0.000 C 
BRANCH   5   6
ATOM      6  C   UNL     1      51.544 -31.875  23.017  1.00  0.00     0.000 C 
BRANCH   6   7
ATOM      7  C   UNL     1      51.157 -30.393  23.092  1.00  0.00     0.006 C 
BRANCH   7   8
ATOM      8  C   UNL     1      52.181 -29.598  23.907  1.00  0.00     0.053 C 
BRANCH   8   9
ATOM      9  C   UNL     1      52.029 -28.131  23.652  1.00  0.00     0.041 C 
ATOM     10  O   UNL     1      50.882 -27.625  23.527  1.00  0.00    -0.550 OA
ATOM     11  O   UNL     1      53.156 -27.332  23.506  1.00  0.00    -0.550 OA
ENDBRANCH   8   9
ENDBRANCH   7   8
ENDBRANCH   6   7
ENDBRANCH   5   6
ENDBRANCH   4   5
ENDBRANCH   3   4
ENDBRANCH   2   3
ENDBRANCH   1   2
BRANCH   1  12
ATOM     12  C   UNL     1      55.357 -34.251  23.654  1.00  0.00     0.000 C 
BRANCH  12  13
ATOM     13  C   UNL     1      54.990 -32.788  23.346  1.00  0.00    -0.000 C 
BRANCH  13  14
ATOM     14  C   UNL     1      55.146 -31.864  24.567  1.00  0.00    -0.000 C 
BRANCH  14  15
ATOM     15  C   UNL     1      54.767 -32.499  25.918  1.00  0.00    -0.000 C 
BRANCH  15  16
ATOM     16  C   UNL     1      53.247 -32.519  26.165  1.00  0.00    -0.000 C 
BRANCH  16  17
ATOM     17  C   UNL     1      52.822 -33.676  27.090  1.00  0.00    -0.000 C 
BRANCH  17  18
ATOM     18  C   UNL     1      53.997 -34.531  27.607  1.00  0.00    -0.000 C 
BRANCH  18  19
ATOM     19  C   UNL     1      53.909 -36.022  27.227  1.00  0.00    -0.003 C 
ATOM     20  C   UNL     1      55.200 -36.550  26.599  1.00  0.00     0.004 C 
ENDBRANCH  18  19
ENDBRANCH  17  18
ENDBRANCH  16  17
ENDBRANCH  15  16
ENDBRANCH  14  15
ENDBRANCH  13  14
ENDBRANCH  12  13
ENDBRANCH   1  12
TORSDOF 16
ENDMDL
MODEL 3
REMARK VINA RESULT:    -2.637      2.251      6.058
REMARK INTER + INTRA:          -7.429
REMARK INTER:                  -4.791
REMARK INTRA:                  -2.639
REMARK UNBOUND:                -2.327
REMARK SMILES CCCCCCCCCCCCCCCCCC(=O)[O-]
REMARK SMILES IDX 10 1 11 2 12 3 13 4 14 5 15 6 16 7 17 8 18 9 19 10 20 11
REMARK SMILES IDX 9 12 8 13 7 14 6 15 5 16 4 17 3 18 2 19 1 20
REMARK H PARENT
REMARK Flexibility Score: inf
ROOT
ATOM      1  C   UNL     1      52.887 -34.634  26.361  1.00  0.00     0.000 C 
ENDROOT
BRANCH   1   2
ATOM      2  C   UNL     1      52.275 -35.523  25.265  1.00  0.00     0.000 C 
BRANCH   2   3
ATOM      3  C   UNL     1      52.269 -34.849  23.880  1.00  0.00     0.000 C 
BRANCH   3   4
ATOM      4  C   UNL     1      50.972 -35.030  23.070  1.00  0.00     0.000 C 
BRANCH   4   5
ATOM      5  C   UNL     1      49.891 -34.000  23.432  1.00  0.00     0.000 C 
BRANCH   5   6
ATOM      6  C   UNL     1      50.146 -32.664  22.723  1.00  0.00     0.000 C 
BRANCH   6   7
ATOM      7  C   UNL     1      50.585 -31.585  23.720  1.00  0.00     0.006 C 
BRANCH   7   8
ATOM      8  C   UNL     1      51.618 -30.645  23.094  1.00  0.00     0.053 C 
BRANCH   8   9
ATOM      9  C   UNL     1      51.154 -29.225  23.176  1.00  0.00     0.041 C 
ATOM     10  O   UNL     1      51.785 -28.392  23.881  1.00  0.00    -0.550 OA
ATOM     11  O   UNL     1      49.998 -28.833  22.513  1.00  0.00    -0.550 OA
ENDBRANCH   8   9
ENDBRANCH   7   8
ENDBRANCH   6   7
ENDBRANCH   5   6
ENDBRANCH   4   5
ENDBRANCH   3   4
ENDBRANCH   2   3
ENDBRANCH   1   2
BRANCH   1  12
ATOM     12  C   UNL     1      52.818 -33.137  26.015  1.00  0.00     0.000 C 
BRANCH  12  13
ATOM     13  C   UNL     1      54.162 -32.418  26.225  1.00  0.00    -0.000 C 
BRANCH  13  14
ATOM     14  C   UNL     1      54.682 -31.737  24.946  1.00  0.00    -0.000 C 
BRANCH  14  15
ATOM     15  C   UNL     1      55.119 -32.701  23.827  1.00  0.00    -0.000 C 
BRANCH  15  16
ATOM     16  C   UNL     1      56.583 -33.159  23.970  1.00  0.00    -0.000 C 
BRANCH  16  17
ATOM     17  C   UNL     1      56.706 -34.484  24.747  1.00  0.00    -0.000 C 
BRANCH  17  18
ATOM     18  C   UNL     1      55.837 -35.626  24.183  1.00  0.00    -0.000 C 
BRANCH  18  19
ATOM     19  C   UNL     1      56.258 -36.108  22.781  1.00  0.00    -0.003 C 
ATOM     20  C   UNL     1      55.184 -35.858  21.721  1.00  0.00     0.004 C 
ENDBRANCH  18  19
ENDBRANCH  17  18
ENDBRANCH  16  17
ENDBRANCH  15  16
ENDBRANCH  14  15
ENDBRANCH  13  14
ENDBRANCH  12  13
ENDBRANCH   1  12
TORSDOF 16
ENDMDL
MODEL 4
REMARK VINA RESULT:    -2.635      1.566      5.497
REMARK INTER + INTRA:          -7.427
REMARK INTER:                  -5.016
REMARK INTRA:                  -2.411
REMARK UNBOUND:                -2.327
REMARK SMILES CCCCCCCCCCCCCCCCCC(=O)[O-]
REMARK SMILES IDX 10 1 11 2 12 3 13 4 14 5 15 6 16 7 17 8 18 9 19 10 20 11
REMARK SMILES IDX 9 12 8 13 7 14 6 15 5 16 4 17 3 18 2 19 1 20
REMARK H PARENT
REMARK Flexibility Score: inf
ROOT
ATOM      1  C   UNL     1      54.711 -34.931  22.736  1.00  0.00     0.000 C 
ENDROOT
BRANCH   1   2
ATOM      2  C   UNL     1      54.087 -35.493  24.025  1.00  0.00     0.000 C 
BRANCH   2   3
ATOM      3  C   UNL     1      52.723 -34.861  24.356  1.00  0.00     0.000 C 
BRANCH   3   4
ATOM      4  C   UNL     1      51.706 -34.856  23.200  1.00  0.00     0.000 C 
BRANCH   4   5
ATOM      5  C   UNL     1      50.810 -33.608  23.196  1.00  0.00     0.000 C 
BRANCH   5   6
ATOM      6  C   UNL     1      51.652 -32.327  23.257  1.00  0.00     0.000 C 
BRANCH   6   7
ATOM      7  C   UNL     1      50.779 -31.109  23.582  1.00  0.00     0.006 C 
BRANCH   7   8
ATOM      8  C   UNL     1      51.535 -29.804  23.316  1.00  0.00     0.053 C 
BRANCH   8   9
ATOM      9  C   UNL     1      52.304 -29.386  24.530  1.00  0.00     0.041 C 
ATOM     10  O   UNL     1      51.723 -29.284  25.643  1.00  0.00    -0.550 OA
ATOM     11  O   UNL     1      53.650 -29.062  24.422  1.00  0.00    -0.550 OA
ENDBRANCH   8   9
ENDBRANCH   7   8
ENDBRANCH   6   7
ENDBRANCH   5   6
ENDBRANCH   4   5
ENDBRANCH   3   4
ENDBRANCH   2   3
ENDBRANCH   1   2
BRANCH   1  12
ATOM     12  C   UNL     1      55.445 -36.007  21.917  1.00  0.00     0.000 C 
BRANCH  12  13
ATOM     13  C   UNL     1      56.582 -36.678  22.707  1.00  0.00    -0.000 C 
BRANCH  13  14
ATOM     14  C   UNL     1      57.961 -36.061  22.411  1.00  0.00    -0.000 C 
BRANCH  14  15
ATOM     15  C   UNL     1      58.541 -35.192  23.542  1.00  0.00    -0.000 C 
BRANCH  15  16
ATOM     16  C   UNL     1      57.723 -35.277  24.843  1.00  0.00    -0.000 C 
BRANCH  16  17
ATOM     17  C   UNL     1      57.233 -33.895  25.317  1.00  0.00    -0.000 C 
BRANCH  17  18
ATOM     18  C   UNL     1      57.335 -32.792  24.245  1.00  0.00    -0.000 C 
BRANCH  18  19
ATOM     19  C   UNL     1      56.135 -31.825  24.216  1.00  0.00    -0.003 C 
ATOM     20  C   UNL     1      55.089 -32.145  25.285  1.00  0.00     0.004 C 
ENDBRANCH  18  19
ENDBRANCH  17  18
ENDBRANCH  16  17
ENDBRANCH  15  16
ENDBRANCH  14  15
ENDBRANCH  13  14
ENDBRANCH  12  13
ENDBRANCH   1  12
TORSDOF 16
ENDMDL
MODEL 5
REMARK VINA RESULT:    -2.605      1.187      5.450
REMARK INTER + INTRA:          -7.368
REMARK INTER:                  -4.967
REMARK INTRA:                  -2.402
REMARK UNBOUND:                -2.327
REMARK SMILES CCCCCCCCCCCCCCCCCC(=O)[O-]
REMARK SMILES IDX 10 1 11 2 12 3 13 4 14 5 15 6 16 7 17 8 18 9 19 10 20 11
REMARK SMILES IDX 9 12 8 13 7 14 6 15 5 16 4 17 3 18 2 19 1 20
REMARK H PARENT
REMARK Flexibility Score: inf
ROOT
ATOM      1  C   UNL     1      52.417 -35.305  24.379  1.00  0.00     0.000 C 
ENDROOT
BRANCH   1   2
ATOM      2  C   UNL     1      51.725 -34.725  23.133  1.00  0.00     0.000 C 
BRANCH   2   3
ATOM      3  C   UNL     1      50.485 -33.879  23.474  1.00  0.00     0.000 C 
BRANCH   3   4
ATOM      4  C   UNL     1      50.599 -32.382  23.129  1.00  0.00     0.000 C 
BRANCH   4   5
ATOM      5  C   UNL     1      52.049 -31.874  23.135  1.00  0.00     0.000 C 
BRANCH   5   6
ATOM      6  C   UNL     1      52.470 -31.433  24.543  1.00  0.00     0.000 C 
BRANCH   6   7
ATOM      7  C   UNL     1      53.986 -31.565  24.731  1.00  0.00     0.006 C 
BRANCH   7   8
ATOM      8  C   UNL     1      54.538 -30.410  25.572  1.00  0.00     0.053 C 
BRANCH   8   9
ATOM      9  C   UNL     1      55.297 -29.450  24.711  1.00  0.00     0.041 C 
ATOM     10  O   UNL     1      54.781 -28.348  24.385  1.00  0.00    -0.550 OA
ATOM     11  O   UNL     1      56.554 -29.793  24.231  1.00  0.00    -0.550 OA
ENDBRANCH   8   9
ENDBRANCH   7   8
ENDBRANCH   6   7
ENDBRANCH   5   6
ENDBRANCH   4   5
ENDBRANCH   3   4
ENDBRANCH   2   3
ENDBRANCH   1   2
BRANCH   1  12
ATOM     12  C   UNL     1      53.905 -35.614  24.138  1.00  0.00     0.000 C 
BRANCH  12  13
ATOM     13  C   UNL     1      54.517 -34.744  23.027  1.00  0.00    -0.000 C 
BRANCH  13  14
ATOM     14  C   UNL     1      55.179 -35.576  21.913  1.00  0.00    -0.000 C 
BRANCH  14  15
ATOM     15  C   UNL     1      56.124 -36.687  22.405  1.00  0.00    -0.000 C 
BRANCH  15  16
ATOM     16  C   UNL     1      57.580 -36.212  22.559  1.00  0.00    -0.000 C 
BRANCH  16  17
ATOM     17  C   UNL     1      58.185 -36.614  23.918  1.00  0.00    -0.000 C 
BRANCH  17  18
ATOM     18  C   UNL     1      57.436 -36.033  25.134  1.00  0.00    -0.000 C 
BRANCH  18  19
ATOM     19  C   UNL     1      57.492 -34.496  25.236  1.00  0.00    -0.003 C 
ATOM     20  C   UNL     1      56.513 -33.934  26.268  1.00  0.00     0.004 C 
ENDBRANCH  18  19
ENDBRANCH  17  18
ENDBRANCH  16  17
ENDBRANCH  15  16
ENDBRANCH  14  15
ENDBRANCH  13  14
ENDBRANCH  12  13
ENDBRANCH   1  12
TORSDOF 16
ENDMDL
MODEL 6
REMARK VINA RESULT:    -2.585      2.825      6.021
REMARK INTER + INTRA:          -7.330
REMARK INTER:                  -4.940
REMARK INTRA:                  -2.390
REMARK UNBOUND:                -2.327
REMARK SMILES CCCCCCCCCCCCCCCCCC(=O)[O-]
REMARK SMILES IDX 10 1 11 2 12 3 13 4 14 5 15 6 16 7 17 8 18 9 19 10 20 11
REMARK SMILES IDX 9 12 8 13 7 14 6 15 5 16 4 17 3 18 2 19 1 20
REMARK H PARENT
REMARK Flexibility Score: inf
ROOT
ATOM      1  C   UNL     1      50.958 -30.301  23.067  1.00  0.00     0.000 C 
ENDROOT
BRANCH   1   2
ATOM      2  C   UNL     1      51.418 -31.766  22.972  1.00  0.00     0.000 C 
BRANCH   2   3
ATOM      3  C   UNL     1      50.247 -32.753  22.813  1.00  0.00     0.000 C 
BRANCH   3   4
ATOM      4  C   UNL     1      50.601 -34.232  23.051  1.00  0.00     0.000 C 
BRANCH   4   5
ATOM      5  C   UNL     1      51.501 -34.443  24.278  1.00  0.00     0.000 C 
BRANCH   5   6
ATOM      6  C   UNL     1      52.818 -35.123  23.882  1.00  0.00     0.000 C 
BRANCH   6   7
ATOM      7  C   UNL     1      54.022 -34.244  24.244  1.00  0.00     0.006 C 
BRANCH   7   8
ATOM      8  C   UNL     1      54.990 -34.124  23.064  1.00  0.00     0.053 C 
BRANCH   8   9
ATOM      9  C   UNL     1      55.390 -35.480  22.574  1.00  0.00     0.041 C 
ATOM     10  O   UNL     1      54.995 -35.889  21.450  1.00  0.00    -0.550 OA
ATOM     11  O   UNL     1      56.160 -36.310  23.379  1.00  0.00    -0.550 OA
ENDBRANCH   8   9
ENDBRANCH   7   8
ENDBRANCH   6   7
ENDBRANCH   5   6
ENDBRANCH   4   5
ENDBRANCH   3   4
ENDBRANCH   2   3
ENDBRANCH   1   2
BRANCH   1  12
ATOM     12  C   UNL     1      49.936 -30.075  24.196  1.00  0.00     0.000 C 
BRANCH  12  13
ATOM     13  C   UNL     1      50.050 -28.676  24.826  1.00  0.00    -0.000 C 
BRANCH  13  14
ATOM     14  C   UNL     1      50.692 -27.645  23.880  1.00  0.00    -0.000 C 
BRANCH  14  15
ATOM     15  C   UNL     1      51.937 -26.933  24.441  1.00  0.00    -0.000 C 
BRANCH  15  16
ATOM     16  C   UNL     1      53.180 -27.108  23.549  1.00  0.00    -0.000 C 
BRANCH  16  17
ATOM     17  C   UNL     1      54.319 -27.851  24.275  1.00  0.00    -0.000 C 
BRANCH  17  18
ATOM     18  C   UNL     1      53.849 -28.717  25.460  1.00  0.00    -0.000 C 
BRANCH  18  19
ATOM     19  C   UNL     1      53.974 -30.235  25.222  1.00  0.00    -0.003 C 
ATOM     20  C   UNL     1      53.072 -31.057  26.145  1.00  0.00     0.004 C 
ENDBRANCH  18  19
ENDBRANCH  17  18
ENDBRANCH  16  17
ENDBRANCH  15  16
ENDBRANCH  14  15
ENDBRANCH  13  14
ENDBRANCH  12  13
ENDBRANCH   1  12
TORSDOF 16
ENDMDL
MODEL 7
REMARK VINA RESULT:    -2.574      2.008      5.800
REMARK INTER + INTRA:          -7.309
REMARK INTER:                  -5.118
REMARK INTRA:                  -2.191
REMARK UNBOUND:                -2.327
REMARK SMILES CCCCCCCCCCCCCCCCCC(=O)[O-]
REMARK SMILES IDX 10 1 11 2 12 3 13 4 14 5 15 6 16 7 17 8 18 9 19 10 20 11
REMARK SMILES IDX 9 12 8 13 7 14 6 15 5 16 4 17 3 18 2 19 1 20
REMARK H PARENT
REMARK Flexibility Score: inf
ROOT
ATOM      1  C   UNL     1      54.012 -33.997  23.579  1.00  0.00     0.000 C 
ENDROOT
BRANCH   1   2
ATOM      2  C   UNL     1      53.176 -35.239  23.932  1.00  0.00     0.000 C 
BRANCH   2   3
ATOM      3  C   UNL     1      51.728 -35.154  23.414  1.00  0.00     0.000 C 
BRANCH   3   4
ATOM      4  C   UNL     1      50.926 -33.935  23.909  1.00  0.00     0.000 C 
BRANCH   4   5
ATOM      5  C   UNL     1      49.924 -33.415  22.867  1.00  0.00     0.000 C 
BRANCH   5   6
ATOM      6  C   UNL     1      50.013 -31.889  22.734  1.00  0.00     0.000 C 
BRANCH   6   7
ATOM      7  C   UNL     1      51.467 -31.411  22.831  1.00  0.00     0.006 C 
BRANCH   7   8
ATOM      8  C   UNL     1      51.538 -29.959  23.312  1.00  0.00     0.053 C 
BRANCH   8   9
ATOM      9  C   UNL     1      52.605 -29.802  24.348  1.00  0.00     0.041 C 
ATOM     10  O   UNL     1      53.255 -28.725  24.430  1.00  0.00    -0.550 OA
ATOM     11  O   UNL     1      52.915 -30.860  25.193  1.00  0.00    -0.550 OA
ENDBRANCH   8   9
ENDBRANCH   7   8
ENDBRANCH   6   7
ENDBRANCH   5   6
ENDBRANCH   4   5
ENDBRANCH   3   4
ENDBRANCH   2   3
ENDBRANCH   1   2
BRANCH   1  12
ATOM     12  C   UNL     1      55.320 -34.353  22.852  1.00  0.00     0.000 C 
BRANCH  12  13
ATOM     13  C   UNL     1      55.206 -35.649  22.031  1.00  0.00    -0.000 C 
BRANCH  13  14
ATOM     14  C   UNL     1      56.233 -36.716  22.452  1.00  0.00    -0.000 C 
BRANCH  14  15
ATOM     15  C   UNL     1      57.242 -36.261  23.522  1.00  0.00    -0.000 C 
BRANCH  15  16
ATOM     16  C   UNL     1      57.195 -37.124  24.797  1.00  0.00    -0.000 C 
BRANCH  16  17
ATOM     17  C   UNL     1      56.285 -36.513  25.881  1.00  0.00    -0.000 C 
BRANCH  17  18
ATOM     18  C   UNL     1      56.596 -35.039  26.204  1.00  0.00    -0.000 C 
BRANCH  18  19
ATOM     19  C   UNL     1      55.756 -34.453  27.356  1.00  0.00    -0.003 C 
ATOM     20  C   UNL     1      54.323 -34.986  27.376  1.00  0.00     0.004 C 
ENDBRANCH  18  19
ENDBRANCH  17  18
ENDBRANCH  16  17
ENDBRANCH  15  16
ENDBRANCH  14  15
ENDBRANCH  13  14
ENDBRANCH  12  13
ENDBRANCH   1  12
TORSDOF 16
ENDMDL
MODEL 8
REMARK VINA RESULT:    -2.562      1.460      2.217
REMARK INTER + INTRA:          -7.285
REMARK INTER:                  -4.740
REMARK INTRA:                  -2.545
REMARK UNBOUND:                -2.327
REMARK SMILES CCCCCCCCCCCCCCCCCC(=O)[O-]
REMARK SMILES IDX 10 1 11 2 12 3 13 4 14 5 15 6 16 7 17 8 18 9 19 10 20 11
REMARK SMILES IDX 9 12 8 13 7 14 6 15 5 16 4 17 3 18 2 19 1 20
REMARK H PARENT
REMARK Flexibility Score: inf
ROOT
ATOM      1  C   UNL     1      55.031 -34.692  22.807  1.00  0.00     0.000 C 
ENDROOT
BRANCH   1   2
ATOM      2  C   UNL     1      55.546 -35.807  21.880  1.00  0.00     0.000 C 
BRANCH   2   3
ATOM      3  C   UNL     1      56.547 -36.749  22.574  1.00  0.00     0.000 C 
BRANCH   3   4
ATOM      4  C   UNL     1      58.023 -36.321  22.477  1.00  0.00     0.000 C 
BRANCH   4   5
ATOM      5  C   UNL     1      58.601 -35.855  23.822  1.00  0.00     0.000 C 
BRANCH   5   6
ATOM      6  C   UNL     1      59.092 -34.404  23.735  1.00  0.00     0.000 C 
BRANCH   6   7
ATOM      7  C   UNL     1      58.062 -33.437  24.332  1.00  0.00     0.006 C 
BRANCH   7   8
ATOM      8  C   UNL     1      58.716 -32.108  24.720  1.00  0.00     0.053 C 
BRANCH   8   9
ATOM      9  C   UNL     1      58.564 -31.107  23.619  1.00  0.00     0.041 C 
ATOM     10  O   UNL     1      57.468 -30.507  23.456  1.00  0.00    -0.550 OA
ATOM     11  O   UNL     1      59.616 -30.873  22.743  1.00  0.00    -0.550 OA
ENDBRANCH   8   9
ENDBRANCH   7   8
ENDBRANCH   6   7
ENDBRANCH   5   6
ENDBRANCH   4   5
ENDBRANCH   3   4
ENDBRANCH   2   3
ENDBRANCH   1   2
BRANCH   1  12
ATOM     12  C   UNL     1      54.693 -35.206  24.217  1.00  0.00     0.000 C 
BRANCH  12  13
ATOM     13  C   UNL     1      53.221 -35.634  24.354  1.00  0.00    -0.000 C 
BRANCH  13  14
ATOM     14  C   UNL     1      52.278 -34.833  23.438  1.00  0.00    -0.000 C 
BRANCH  14  15
ATOM     15  C   UNL     1      51.636 -33.594  24.088  1.00  0.00    -0.000 C 
BRANCH  15  16
ATOM     16  C   UNL     1      52.097 -32.272  23.446  1.00  0.00    -0.000 C 
BRANCH  16  17
ATOM     17  C   UNL     1      52.792 -31.343  24.460  1.00  0.00    -0.000 C 
BRANCH  17  18
ATOM     18  C   UNL     1      54.315 -31.556  24.566  1.00  0.00    -0.000 C 
BRANCH  18  19
ATOM     19  C   UNL     1      54.806 -31.927  25.979  1.00  0.00    -0.003 C 
ATOM     20  C   UNL     1      55.724 -30.865  26.586  1.00  0.00     0.004 C 
ENDBRANCH  18  19
ENDBRANCH  17  18
ENDBRANCH  16  17
ENDBRANCH  15  16
ENDBRANCH  14  15
ENDBRANCH  13  14
ENDBRANCH  12  13
ENDBRANCH   1  12
TORSDOF 16
ENDMDL
MODEL 9
REMARK VINA RESULT:    -2.561      2.263      5.175
REMARK INTER + INTRA:          -7.283
REMARK INTER:                  -4.312
REMARK INTRA:                  -2.971
REMARK UNBOUND:                -2.327
REMARK SMILES CCCCCCCCCCCCCCCCCC(=O)[O-]
REMARK SMILES IDX 10 1 11 2 12 3 13 4 14 5 15 6 16 7 17 8 18 9 19 10 20 11
REMARK SMILES IDX 9 12 8 13 7 14 6 15 5 16 4 17 3 18 2 19 1 20
REMARK H PARENT
REMARK Flexibility Score: inf
ROOT
ATOM      1  C   UNL     1      56.354 -36.801  22.511  1.00  0.00     0.000 C 
ENDROOT
BRANCH   1   2
ATOM      2  C   UNL     1      55.203 -35.917  22.000  1.00  0.00     0.000 C 
BRANCH   2   3
ATOM      3  C   UNL     1      55.146 -34.546  22.698  1.00  0.00     0.000 C 
BRANCH   3   4
ATOM      4  C   UNL     1      53.861 -34.274  23.502  1.00  0.00     0.000 C 
BRANCH   4   5
ATOM      5  C   UNL     1      53.265 -35.545  24.126  1.00  0.00     0.000 C 
BRANCH   5   6
ATOM      6  C   UNL     1      51.736 -35.552  24.004  1.00  0.00     0.000 C 
BRANCH   6   7
ATOM      7  C   UNL     1      51.248 -34.396  23.120  1.00  0.00     0.006 C 
BRANCH   7   8
ATOM      8  C   UNL     1      50.322 -33.460  23.901  1.00  0.00     0.053 C 
BRANCH   8   9
ATOM      9  C   UNL     1      50.913 -32.088  23.984  1.00  0.00     0.041 C 
ATOM     10  O   UNL     1      50.858 -31.439  25.064  1.00  0.00    -0.550 OA
ATOM     11  O   UNL     1      51.481 -31.506  22.858  1.00  0.00    -0.550 OA
ENDBRANCH   8   9
ENDBRANCH   7   8
ENDBRANCH   6   7
ENDBRANCH   5   6
ENDBRANCH   4   5
ENDBRANCH   3   4
ENDBRANCH   2   3
ENDBRANCH   1   2
BRANCH   1  12
ATOM     12  C   UNL     1      57.531 -35.978  23.063  1.00  0.00     0.000 C 
BRANCH  12  13
ATOM     13  C   UNL     1      57.860 -36.324  24.526  1.00  0.00    -0.000 C 
BRANCH  13  14
ATOM     14  C   UNL     1      56.619 -36.741  25.335  1.00  0.00    -0.000 C 
BRANCH  14  15
ATOM     15  C   UNL     1      56.168 -35.729  26.404  1.00  0.00    -0.000 C 
BRANCH  15  16
ATOM     16  C   UNL     1      57.063 -34.477  26.459  1.00  0.00    -0.000 C 
BRANCH  16  17
ATOM     17  C   UNL     1      56.330 -33.213  25.970  1.00  0.00    -0.000 C 
BRANCH  17  18
ATOM     18  C   UNL     1      55.443 -32.548  27.040  1.00  0.00    -0.000 C 
BRANCH  18  19
ATOM     19  C   UNL     1      53.974 -32.354  26.613  1.00  0.00    -0.003 C 
ATOM     20  C   UNL     1      53.055 -33.463  27.127  1.00  0.00     0.004 C 
ENDBRANCH  18  19
ENDBRANCH  17  18
ENDBRANCH  16  17
ENDBRANCH  15  16
ENDBRANCH  14  15
ENDBRANCH  13  14
ENDBRANCH  12  13
ENDBRANCH   1  12
TORSDOF 16
ENDMDL
