MODEL 1
REMARK VINA RESULT:    -5.921      0.000      0.000
REMARK INTER + INTRA:          -7.275
REMARK INTER:                  -6.959
REMARK INTRA:                  -0.315
REMARK UNBOUND:                -0.315
REMARK SMILES O=c1cc(-c2ccc(O)c(O)c2)oc2cc(O)cc(O)c12
REMARK SMILES IDX 4 1 3 2 2 3 1 4 21 5 19 6 18 7 16 8 15 9 14 10 13 11 5 12
REMARK SMILES IDX 6 13 7 14 8 15 12 16 10 17 9 18 11 20 20 22 17 24
REMARK H PARENT 9 19 11 21 20 23 17 25
REMARK Flexibility Score: inf
ROOT
ATOM      1  C   UNL     1      46.574  16.445  -4.249  1.00  0.00     0.138 A 
ATOM      2  C   UNL     1      46.253  17.496  -5.120  1.00  0.00     0.100 A 
ATOM      3  C   UNL     1      44.998  18.101  -5.037  1.00  0.00     0.197 A 
ATOM      4  O   UNL     1      44.761  19.077  -5.794  1.00  0.00    -0.289 OA
ATOM      5  C   UNL     1      44.048  17.627  -4.102  1.00  0.00     0.107 A 
ATOM      6  C   UNL     1      42.726  18.145  -3.950  1.00  0.00     0.134 A 
ATOM      7  C   UNL     1      41.909  17.659  -2.921  1.00  0.00     0.093 A 
ATOM      8  C   UNL     1      42.345  16.637  -2.075  1.00  0.00     0.123 A 
ATOM      9  C   UNL     1      43.614  16.091  -2.246  1.00  0.00     0.094 A 
ATOM     10  C   UNL     1      44.466  16.576  -3.242  1.00  0.00     0.146 A 
ATOM     11  O   UNL     1      45.676  16.040  -3.359  1.00  0.00    -0.456 OA
ENDROOT
BRANCH   1  12
ATOM     12  C   UNL     1      47.892  15.762  -4.296  1.00  0.00     0.021 A 
ATOM     13  C   UNL     1      48.994  16.324  -4.969  1.00  0.00     0.016 A 
ATOM     14  C   UNL     1      50.225  15.663  -4.987  1.00  0.00     0.051 A 
ATOM     15  C   UNL     1      50.380  14.438  -4.328  1.00  0.00     0.157 A 
ATOM     16  C   UNL     1      48.061  14.538  -3.626  1.00  0.00     0.062 A 
ATOM     17  C   UNL     1      49.293  13.874  -3.643  1.00  0.00     0.158 A 
BRANCH  15  18
ATOM     18  O   UNL     1      51.610  13.780  -4.350  1.00  0.00    -0.504 OA
ATOM     19  H   UNL     1      52.098  13.597  -5.219  1.00  0.00     0.293 HD
ENDBRANCH  15  18
BRANCH  17  20
ATOM     20  O   UNL     1      49.415  12.656  -2.973  1.00  0.00    -0.504 OA
ATOM     21  H   UNL     1      48.829  12.415  -2.183  1.00  0.00     0.293 HD
ENDBRANCH  17  20
ENDBRANCH   1  12
BRANCH   6  22
ATOM     22  O   UNL     1      42.161  19.109  -4.789  1.00  0.00    -0.507 OA
ATOM     23  H   UNL     1      42.495  20.055  -4.892  1.00  0.00     0.293 HD
ENDBRANCH   6  22
BRANCH   8  24
ATOM     24  O   UNL     1      41.519  16.150  -1.065  1.00  0.00    -0.508 OA
ATOM     25  H   UNL     1      41.479  16.591  -0.153  1.00  0.00     0.293 HD
ENDBRANCH   8  24
TORSDOF 5
ENDMDL
MODEL 2
REMARK VINA RESULT:    -5.888      1.531      6.752
REMARK INTER + INTRA:          -7.236
REMARK INTER:                  -6.920
REMARK INTRA:                  -0.315
REMARK UNBOUND:                -0.315
REMARK SMILES O=c1cc(-c2ccc(O)c(O)c2)oc2cc(O)cc(O)c12
REMARK SMILES IDX 4 1 3 2 2 3 1 4 21 5 19 6 18 7 16 8 15 9 14 10 13 11 5 12
REMARK SMILES IDX 6 13 7 14 8 15 12 16 10 17 9 18 11 20 20 22 17 24
REMARK H PARENT 9 19 11 21 20 23 17 25
REMARK Flexibility Score: inf
ROOT
ATOM      1  C   UNL     1      45.513  16.512  -3.502  1.00  0.00     0.138 A 
ATOM      2  C   UNL     1      46.250  17.169  -4.497  1.00  0.00     0.100 A 
ATOM      3  C   UNL     1      47.488  16.658  -4.890  1.00  0.00     0.197 A 
ATOM      4  O   UNL     1      48.099  17.239  -5.823  1.00  0.00    -0.289 OA
ATOM      5  C   UNL     1      48.006  15.504  -4.257  1.00  0.00     0.107 A 
ATOM      6  C   UNL     1      49.272  14.912  -4.550  1.00  0.00     0.134 A 
ATOM      7  C   UNL     1      49.633  13.711  -3.927  1.00  0.00     0.093 A 
ATOM      8  C   UNL     1      48.801  13.112  -2.978  1.00  0.00     0.123 A 
ATOM      9  C   UNL     1      47.587  13.707  -2.648  1.00  0.00     0.094 A 
ATOM     10  C   UNL     1      47.182  14.887  -3.277  1.00  0.00     0.146 A 
ATOM     11  O   UNL     1      46.007  15.412  -2.945  1.00  0.00    -0.456 OA
ENDROOT
BRANCH   1  12
ATOM     12  C   UNL     1      44.192  17.014  -3.043  1.00  0.00     0.021 A 
ATOM     13  C   UNL     1      43.736  18.305  -3.370  1.00  0.00     0.016 A 
ATOM     14  C   UNL     1      42.485  18.745  -2.932  1.00  0.00     0.051 A 
ATOM     15  C   UNL     1      41.664  17.905  -2.170  1.00  0.00     0.157 A 
ATOM     16  C   UNL     1      43.357  16.171  -2.289  1.00  0.00     0.062 A 
ATOM     17  C   UNL     1      42.103  16.611  -1.849  1.00  0.00     0.158 A 
BRANCH  15  18
ATOM     18  O   UNL     1      40.416  18.349  -1.734  1.00  0.00    -0.504 OA
ATOM     19  H   UNL     1      39.623  17.721  -1.670  1.00  0.00     0.293 HD
ENDBRANCH  15  18
BRANCH  17  20
ATOM     20  O   UNL     1      41.308  15.746  -1.094  1.00  0.00    -0.504 OA
ATOM     21  H   UNL     1      40.827  14.958  -1.510  1.00  0.00     0.293 HD
ENDBRANCH  17  20
ENDBRANCH   1  12
BRANCH   6  22
ATOM     22  O   UNL     1      50.213  15.468  -5.421  1.00  0.00    -0.507 OA
ATOM     23  H   UNL     1      51.022  14.988  -5.783  1.00  0.00     0.293 HD
ENDBRANCH   6  22
BRANCH   8  24
ATOM     24  O   UNL     1      49.177  11.926  -2.352  1.00  0.00    -0.508 OA
ATOM     25  H   UNL     1      49.611  11.168  -2.866  1.00  0.00     0.293 HD
ENDBRANCH   8  24
TORSDOF 5
ENDMDL
MODEL 3
REMARK VINA RESULT:    -5.788      1.331      7.259
REMARK INTER + INTRA:          -7.119
REMARK INTER:                  -6.825
REMARK INTRA:                  -0.294
REMARK UNBOUND:                -0.315
REMARK SMILES O=c1cc(-c2ccc(O)c(O)c2)oc2cc(O)cc(O)c12
REMARK SMILES IDX 4 1 3 2 2 3 1 4 21 5 19 6 18 7 16 8 15 9 14 10 13 11 5 12
REMARK SMILES IDX 6 13 7 14 8 15 12 16 10 17 9 18 11 20 20 22 17 24
REMARK H PARENT 9 19 11 21 20 23 17 25
REMARK Flexibility Score: inf
ROOT
ATOM      1  C   UNL     1      45.852  15.863  -3.389  1.00  0.00     0.138 A 
ATOM      2  C   UNL     1      46.148  14.658  -2.736  1.00  0.00     0.100 A 
ATOM      3  C   UNL     1      47.409  14.080  -2.892  1.00  0.00     0.197 A 
ATOM      4  O   UNL     1      47.662  13.030  -2.249  1.00  0.00    -0.289 OA
ATOM      5  C   UNL     1      48.365  14.695  -3.735  1.00  0.00     0.107 A 
ATOM      6  C   UNL     1      49.671  14.179  -3.997  1.00  0.00     0.134 A 
ATOM      7  C   UNL     1      50.565  14.929  -4.772  1.00  0.00     0.093 A 
ATOM      8  C   UNL     1      50.182  16.145  -5.342  1.00  0.00     0.123 A 
ATOM      9  C   UNL     1      48.895  16.632  -5.134  1.00  0.00     0.094 A 
ATOM     10  C   UNL     1      47.990  15.926  -4.337  1.00  0.00     0.146 A 
ATOM     11  O   UNL     1      46.777  16.436  -4.150  1.00  0.00    -0.456 OA
ENDROOT
BRANCH   1  12
ATOM     12  C   UNL     1      44.525  16.519  -3.261  1.00  0.00     0.021 A 
ATOM     13  C   UNL     1      44.152  17.601  -4.081  1.00  0.00     0.016 A 
ATOM     14  C   UNL     1      42.893  18.191  -3.944  1.00  0.00     0.051 A 
ATOM     15  C   UNL     1      41.983  17.707  -2.997  1.00  0.00     0.157 A 
ATOM     16  C   UNL     1      43.600  16.030  -2.322  1.00  0.00     0.062 A 
ATOM     17  C   UNL     1      42.338  16.620  -2.184  1.00  0.00     0.158 A 
BRANCH  15  18
ATOM     18  O   UNL     1      40.727  18.299  -2.863  1.00  0.00    -0.504 OA
ATOM     19  H   UNL     1      40.498  19.167  -3.334  1.00  0.00     0.293 HD
ENDBRANCH  15  18
BRANCH  17  20
ATOM     20  O   UNL     1      41.453  16.111  -1.232  1.00  0.00    -0.504 OA
ATOM     21  H   UNL     1      41.038  16.695  -0.516  1.00  0.00     0.293 HD
ENDBRANCH  17  20
ENDBRANCH   1  12
BRANCH   6  22
ATOM     22  O   UNL     1      50.129  12.939  -3.544  1.00  0.00    -0.507 OA
ATOM     23  H   UNL     1      50.711  12.308  -4.072  1.00  0.00     0.293 HD
ENDBRANCH   6  22
BRANCH   8  24
ATOM     24  O   UNL     1      51.074  16.874  -6.124  1.00  0.00    -0.508 OA
ATOM     25  H   UNL     1      50.794  17.729  -6.592  1.00  0.00     0.293 HD
ENDBRANCH   8  24
TORSDOF 5
ENDMDL
MODEL 4
REMARK VINA RESULT:    -5.211      1.749      2.289
REMARK INTER + INTRA:          -6.440
REMARK INTER:                  -6.124
REMARK INTRA:                  -0.315
REMARK UNBOUND:                -0.315
REMARK SMILES O=c1cc(-c2ccc(O)c(O)c2)oc2cc(O)cc(O)c12
REMARK SMILES IDX 4 1 3 2 2 3 1 4 21 5 19 6 18 7 16 8 15 9 14 10 13 11 5 12
REMARK SMILES IDX 6 13 7 14 8 15 12 16 10 17 9 18 11 20 20 22 17 24
REMARK H PARENT 9 19 11 21 20 23 17 25
REMARK Flexibility Score: inf
ROOT
ATOM      1  C   UNL     1      46.183  15.347  -3.302  1.00  0.00     0.138 A 
ATOM      2  C   UNL     1      46.495  16.173  -4.391  1.00  0.00     0.100 A 
ATOM      3  C   UNL     1      45.644  17.229  -4.724  1.00  0.00     0.197 A 
ATOM      4  O   UNL     1      45.981  17.985  -5.670  1.00  0.00    -0.289 OA
ATOM      5  C   UNL     1      44.456  17.434  -3.982  1.00  0.00     0.107 A 
ATOM      6  C   UNL     1      43.496  18.457  -4.251  1.00  0.00     0.134 A 
ATOM      7  C   UNL     1      42.407  18.624  -3.386  1.00  0.00     0.093 A 
ATOM      8  C   UNL     1      42.212  17.770  -2.297  1.00  0.00     0.123 A 
ATOM      9  C   UNL     1      43.115  16.739  -2.056  1.00  0.00     0.094 A 
ATOM     10  C   UNL     1      44.231  16.567  -2.880  1.00  0.00     0.146 A 
ATOM     11  O   UNL     1      45.078  15.581  -2.604  1.00  0.00    -0.456 OA
ENDROOT
BRANCH   1  12
ATOM     12  C   UNL     1      47.051  14.208  -2.908  1.00  0.00     0.021 A 
ATOM     13  C   UNL     1      48.067  13.722  -3.753  1.00  0.00     0.016 A 
ATOM     14  C   UNL     1      48.874  12.657  -3.350  1.00  0.00     0.051 A 
ATOM     15  C   UNL     1      48.689  12.063  -2.095  1.00  0.00     0.157 A 
ATOM     16  C   UNL     1      46.881  13.616  -1.644  1.00  0.00     0.062 A 
ATOM     17  C   UNL     1      47.688  12.547  -1.238  1.00  0.00     0.158 A 
BRANCH  15  18
ATOM     18  O   UNL     1      49.496  10.998  -1.697  1.00  0.00    -0.504 OA
ATOM     19  H   UNL     1      49.998  10.431  -2.371  1.00  0.00     0.293 HD
ENDBRANCH  15  18
BRANCH  17  20
ATOM     20  O   UNL     1      47.480  11.981   0.020  1.00  0.00    -0.504 OA
ATOM     21  H   UNL     1      46.726  11.328   0.198  1.00  0.00     0.293 HD
ENDBRANCH  17  20
ENDBRANCH   1  12
BRANCH   6  22
ATOM     22  O   UNL     1      43.550  19.313  -5.354  1.00  0.00    -0.507 OA
ATOM     23  H   UNL     1      42.965  19.243  -6.171  1.00  0.00     0.293 HD
ENDBRANCH   6  22
BRANCH   8  24
ATOM     24  O   UNL     1      41.117  17.935  -1.453  1.00  0.00    -0.508 OA
ATOM     25  H   UNL     1      41.047  17.440  -0.571  1.00  0.00     0.293 HD
ENDBRANCH   8  24
TORSDOF 5
ENDMDL
MODEL 5
REMARK VINA RESULT:    -5.195      1.572      2.674
REMARK INTER + INTRA:          -6.421
REMARK INTER:                  -6.137
REMARK INTRA:                  -0.284
REMARK UNBOUND:                -0.315
REMARK SMILES O=c1cc(-c2ccc(O)c(O)c2)oc2cc(O)cc(O)c12
REMARK SMILES IDX 4 1 3 2 2 3 1 4 21 5 19 6 18 7 16 8 15 9 14 10 13 11 5 12
REMARK SMILES IDX 6 13 7 14 8 15 12 16 10 17 9 18 11 20 20 22 17 24
REMARK H PARENT 9 19 11 21 20 23 17 25
REMARK Flexibility Score: inf
ROOT
ATOM      1  C   UNL     1      45.609  15.244  -3.306  1.00  0.00     0.138 A 
ATOM      2  C   UNL     1      44.632  14.239  -3.294  1.00  0.00     0.100 A 
ATOM      3  C   UNL     1      43.293  14.580  -3.095  1.00  0.00     0.197 A 
ATOM      4  O   UNL     1      42.435  13.662  -3.146  1.00  0.00    -0.289 OA
ATOM      5  C   UNL     1      42.938  15.931  -2.869  1.00  0.00     0.107 A 
ATOM      6  C   UNL     1      41.609  16.392  -2.620  1.00  0.00     0.134 A 
ATOM      7  C   UNL     1      41.366  17.767  -2.509  1.00  0.00     0.093 A 
ATOM      8  C   UNL     1      42.410  18.693  -2.581  1.00  0.00     0.123 A 
ATOM      9  C   UNL     1      43.716  18.250  -2.773  1.00  0.00     0.094 A 
ATOM     10  C   UNL     1      43.987  16.887  -2.922  1.00  0.00     0.146 A 
ATOM     11  O   UNL     1      45.245  16.508  -3.122  1.00  0.00    -0.456 OA
ENDROOT
BRANCH   1  12
ATOM     12  C   UNL     1      47.048  14.938  -3.510  1.00  0.00     0.021 A 
ATOM     13  C   UNL     1      47.917  15.846  -4.143  1.00  0.00     0.016 A 
ATOM     14  C   UNL     1      49.268  15.534  -4.311  1.00  0.00     0.051 A 
ATOM     15  C   UNL     1      49.778  14.317  -3.843  1.00  0.00     0.157 A 
ATOM     16  C   UNL     1      47.571  13.723  -3.030  1.00  0.00     0.062 A 
ATOM     17  C   UNL     1      48.924  13.408  -3.198  1.00  0.00     0.158 A 
BRANCH  15  18
ATOM     18  O   UNL     1      51.127  14.008  -4.015  1.00  0.00    -0.504 OA
ATOM     19  H   UNL     1      51.855  14.545  -3.558  1.00  0.00     0.293 HD
ENDBRANCH  15  18
BRANCH  17  20
ATOM     20  O   UNL     1      49.400  12.188  -2.717  1.00  0.00    -0.504 OA
ATOM     21  H   UNL     1      50.324  11.843  -2.948  1.00  0.00     0.293 HD
ENDBRANCH  17  20
ENDBRANCH   1  12
BRANCH   6  22
ATOM     22  O   UNL     1      40.506  15.551  -2.451  1.00  0.00    -0.507 OA
ATOM     23  H   UNL     1      40.443  14.603  -2.790  1.00  0.00     0.293 HD
ENDBRANCH   6  22
BRANCH   8  24
ATOM     24  O   UNL     1      42.160  20.057  -2.453  1.00  0.00    -0.508 OA
ATOM     25  H   UNL     1      42.882  20.747  -2.625  1.00  0.00     0.293 HD
ENDBRANCH   8  24
TORSDOF 5
ENDMDL
MODEL 6
REMARK VINA RESULT:    -5.193      1.837      3.429
REMARK INTER + INTRA:          -6.419
REMARK INTER:                  -6.110
REMARK INTRA:                  -0.310
REMARK UNBOUND:                -0.315
REMARK SMILES O=c1cc(-c2ccc(O)c(O)c2)oc2cc(O)cc(O)c12
REMARK SMILES IDX 4 1 3 2 2 3 1 4 21 5 19 6 18 7 16 8 15 9 14 10 13 11 5 12
REMARK SMILES IDX 6 13 7 14 8 15 12 16 10 17 9 18 11 20 20 22 17 24
REMARK H PARENT 9 19 11 21 20 23 17 25
REMARK Flexibility Score: inf
ROOT
ATOM      1  C   UNL     1      44.588  15.887  -2.880  1.00  0.00     0.138 A 
ATOM      2  C   UNL     1      43.429  15.103  -2.796  1.00  0.00     0.100 A 
ATOM      3  C   UNL     1      42.186  15.722  -2.645  1.00  0.00     0.197 A 
ATOM      4  O   UNL     1      41.161  14.994  -2.629  1.00  0.00    -0.289 OA
ATOM      5  C   UNL     1      42.110  17.131  -2.542  1.00  0.00     0.107 A 
ATOM      6  C   UNL     1      40.903  17.869  -2.352  1.00  0.00     0.134 A 
ATOM      7  C   UNL     1      40.942  19.270  -2.364  1.00  0.00     0.093 A 
ATOM      8  C   UNL     1      42.150  19.957  -2.501  1.00  0.00     0.123 A 
ATOM      9  C   UNL     1      43.339  19.246  -2.636  1.00  0.00     0.094 A 
ATOM     10  C   UNL     1      43.330  17.848  -2.663  1.00  0.00     0.146 A 
ATOM     11  O   UNL     1      44.486  17.209  -2.812  1.00  0.00    -0.456 OA
ENDROOT
BRANCH   1  12
ATOM     12  C   UNL     1      45.935  15.281  -3.037  1.00  0.00     0.021 A 
ATOM     13  C   UNL     1      46.209  13.964  -2.620  1.00  0.00     0.016 A 
ATOM     14  C   UNL     1      47.483  13.418  -2.790  1.00  0.00     0.051 A 
ATOM     15  C   UNL     1      48.502  14.171  -3.386  1.00  0.00     0.157 A 
ATOM     16  C   UNL     1      46.960  16.025  -3.647  1.00  0.00     0.062 A 
ATOM     17  C   UNL     1      48.238  15.480  -3.818  1.00  0.00     0.158 A 
BRANCH  15  18
ATOM     18  O   UNL     1      49.774  13.622  -3.553  1.00  0.00    -0.504 OA
ATOM     19  H   UNL     1      50.612  14.163  -3.374  1.00  0.00     0.293 HD
ENDBRANCH  15  18
BRANCH  17  20
ATOM     20  O   UNL     1      49.231  16.255  -4.419  1.00  0.00    -0.504 OA
ATOM     21  H   UNL     1      49.901  15.862  -5.069  1.00  0.00     0.293 HD
ENDBRANCH  17  20
ENDBRANCH   1  12
BRANCH   6  22
ATOM     22  O   UNL     1      39.654  17.284  -2.127  1.00  0.00    -0.507 OA
ATOM     23  H   UNL     1      39.457  16.297  -2.184  1.00  0.00     0.293 HD
ENDBRANCH   6  22
BRANCH   8  24
ATOM     24  O   UNL     1      42.180  21.349  -2.495  1.00  0.00    -0.508 OA
ATOM     25  H   UNL     1      41.356  21.899  -2.713  1.00  0.00     0.293 HD
ENDBRANCH   8  24
TORSDOF 5
ENDMDL
MODEL 7
REMARK VINA RESULT:    -5.185      1.301      2.136
REMARK INTER + INTRA:          -6.410
REMARK INTER:                  -6.122
REMARK INTRA:                  -0.288
REMARK UNBOUND:                -0.315
REMARK SMILES O=c1cc(-c2ccc(O)c(O)c2)oc2cc(O)cc(O)c12
REMARK SMILES IDX 4 1 3 2 2 3 1 4 21 5 19 6 18 7 16 8 15 9 14 10 13 11 5 12
REMARK SMILES IDX 6 13 7 14 8 15 12 16 10 17 9 18 11 20 20 22 17 24
REMARK H PARENT 9 19 11 21 20 23 17 25
REMARK Flexibility Score: inf
ROOT
ATOM      1  C   UNL     1      45.927  15.891  -3.605  1.00  0.00     0.138 A 
ATOM      2  C   UNL     1      46.169  16.713  -4.715  1.00  0.00     0.100 A 
ATOM      3  C   UNL     1      45.285  17.752  -5.010  1.00  0.00     0.197 A 
ATOM      4  O   UNL     1      45.560  18.506  -5.978  1.00  0.00    -0.289 OA
ATOM      5  C   UNL     1      44.134  17.945  -4.210  1.00  0.00     0.107 A 
ATOM      6  C   UNL     1      43.145  18.950  -4.435  1.00  0.00     0.134 A 
ATOM      7  C   UNL     1      42.099  19.107  -3.517  1.00  0.00     0.093 A 
ATOM      8  C   UNL     1      41.975  18.259  -2.414  1.00  0.00     0.123 A 
ATOM      9  C   UNL     1      42.905  17.244  -2.212  1.00  0.00     0.094 A 
ATOM     10  C   UNL     1      43.980  17.083  -3.092  1.00  0.00     0.146 A 
ATOM     11  O   UNL     1      44.856  16.113  -2.852  1.00  0.00    -0.456 OA
ENDROOT
BRANCH   1  12
ATOM     12  C   UNL     1      46.832  14.769  -3.248  1.00  0.00     0.021 A 
ATOM     13  C   UNL     1      46.376  13.650  -2.525  1.00  0.00     0.016 A 
ATOM     14  C   UNL     1      47.248  12.605  -2.213  1.00  0.00     0.051 A 
ATOM     15  C   UNL     1      48.586  12.652  -2.623  1.00  0.00     0.157 A 
ATOM     16  C   UNL     1      48.174  14.802  -3.668  1.00  0.00     0.062 A 
ATOM     17  C   UNL     1      49.050  13.756  -3.355  1.00  0.00     0.158 A 
BRANCH  15  18
ATOM     18  O   UNL     1      49.454  11.608  -2.308  1.00  0.00    -0.504 OA
ATOM     19  H   UNL     1      49.108  10.694  -2.037  1.00  0.00     0.293 HD
ENDBRANCH  15  18
BRANCH  17  20
ATOM     20  O   UNL     1      50.376  13.833  -3.783  1.00  0.00    -0.504 OA
ATOM     21  H   UNL     1      51.019  14.527  -3.419  1.00  0.00     0.293 HD
ENDBRANCH  17  20
ENDBRANCH   1  12
BRANCH   6  22
ATOM     22  O   UNL     1      43.129  19.798  -5.546  1.00  0.00    -0.507 OA
ATOM     23  H   UNL     1      43.526  19.582  -6.447  1.00  0.00     0.293 HD
ENDBRANCH   6  22
BRANCH   8  24
ATOM     24  O   UNL     1      40.922  18.413  -1.515  1.00  0.00    -0.508 OA
ATOM     25  H   UNL     1      41.002  18.119  -0.548  1.00  0.00     0.293 HD
ENDBRANCH   8  24
TORSDOF 5
ENDMDL
MODEL 8
REMARK VINA RESULT:    -5.063      1.362      2.790
REMARK INTER + INTRA:          -6.266
REMARK INTER:                  -5.976
REMARK INTRA:                  -0.290
REMARK UNBOUND:                -0.315
REMARK SMILES O=c1cc(-c2ccc(O)c(O)c2)oc2cc(O)cc(O)c12
REMARK SMILES IDX 4 1 3 2 2 3 1 4 21 5 19 6 18 7 16 8 15 9 14 10 13 11 5 12
REMARK SMILES IDX 6 13 7 14 8 15 12 16 10 17 9 18 11 20 20 22 17 24
REMARK H PARENT 9 19 11 21 20 23 17 25
REMARK Flexibility Score: inf
ROOT
ATOM      1  C   UNL     1      46.658  16.212  -4.245  1.00  0.00     0.138 A 
ATOM      2  C   UNL     1      46.137  15.046  -3.667  1.00  0.00     0.100 A 
ATOM      3  C   UNL     1      44.818  15.033  -3.210  1.00  0.00     0.197 A 
ATOM      4  O   UNL     1      44.363  13.956  -2.747  1.00  0.00    -0.289 OA
ATOM      5  C   UNL     1      44.030  16.205  -3.301  1.00  0.00     0.107 A 
ATOM      6  C   UNL     1      42.684  16.319  -2.837  1.00  0.00     0.134 A 
ATOM      7  C   UNL     1      41.972  17.503  -3.071  1.00  0.00     0.093 A 
ATOM      8  C   UNL     1      42.575  18.595  -3.701  1.00  0.00     0.123 A 
ATOM      9  C   UNL     1      43.902  18.511  -4.112  1.00  0.00     0.094 A 
ATOM     10  C   UNL     1      44.630  17.332  -3.923  1.00  0.00     0.146 A 
ATOM     11  O   UNL     1      45.888  17.289  -4.347  1.00  0.00    -0.456 OA
ENDROOT
BRANCH   1  12
ATOM     12  C   UNL     1      48.056  16.282  -4.744  1.00  0.00     0.021 A 
ATOM     13  C   UNL     1      48.459  17.252  -5.682  1.00  0.00     0.016 A 
ATOM     14  C   UNL     1      49.783  17.300  -6.125  1.00  0.00     0.051 A 
ATOM     15  C   UNL     1      50.728  16.390  -5.634  1.00  0.00     0.157 A 
ATOM     16  C   UNL     1      49.013  15.381  -4.246  1.00  0.00     0.062 A 
ATOM     17  C   UNL     1      50.341  15.428  -4.689  1.00  0.00     0.158 A 
BRANCH  15  18
ATOM     18  O   UNL     1      52.049  16.441  -6.080  1.00  0.00    -0.504 OA
ATOM     19  H   UNL     1      52.574  17.308  -6.084  1.00  0.00     0.293 HD
ENDBRANCH  15  18
BRANCH  17  20
ATOM     20  O   UNL     1      51.258  14.509  -4.177  1.00  0.00    -0.504 OA
ATOM     21  H   UNL     1      51.174  14.129  -3.242  1.00  0.00     0.293 HD
ENDBRANCH  17  20
ENDBRANCH   1  12
BRANCH   6  22
ATOM     22  O   UNL     1      42.013  15.321  -2.127  1.00  0.00    -0.507 OA
ATOM     23  H   UNL     1      41.437  15.475  -1.314  1.00  0.00     0.293 HD
ENDBRANCH   6  22
BRANCH   8  24
ATOM     24  O   UNL     1      41.863  19.773  -3.915  1.00  0.00    -0.508 OA
ATOM     25  H   UNL     1      42.287  20.683  -3.771  1.00  0.00     0.293 HD
ENDBRANCH   8  24
TORSDOF 5
ENDMDL
MODEL 9
REMARK VINA RESULT:    -4.895      2.177      3.588
REMARK INTER + INTRA:          -6.069
REMARK INTER:                  -5.751
REMARK INTRA:                  -0.318
REMARK UNBOUND:                -0.315
REMARK SMILES O=c1cc(-c2ccc(O)c(O)c2)oc2cc(O)cc(O)c12
REMARK SMILES IDX 4 1 3 2 2 3 1 4 21 5 19 6 18 7 16 8 15 9 14 10 13 11 5 12
REMARK SMILES IDX 6 13 7 14 8 15 12 16 10 17 9 18 11 20 20 22 17 24
REMARK H PARENT 9 19 11 21 20 23 17 25
REMARK Flexibility Score: inf
ROOT
ATOM      1  C   UNL     1      47.371  13.750  -4.189  1.00  0.00     0.138 A 
ATOM      2  C   UNL     1      46.475  12.677  -4.284  1.00  0.00     0.100 A 
ATOM      3  C   UNL     1      45.135  12.863  -3.938  1.00  0.00     0.197 A 
ATOM      4  O   UNL     1      44.346  11.896  -4.088  1.00  0.00    -0.289 OA
ATOM      5  C   UNL     1      44.700  14.122  -3.462  1.00  0.00     0.107 A 
ATOM      6  C   UNL     1      43.366  14.420  -3.048  1.00  0.00     0.134 A 
ATOM      7  C   UNL     1      43.032  15.732  -2.688  1.00  0.00     0.093 A 
ATOM      8  C   UNL     1      43.996  16.743  -2.671  1.00  0.00     0.123 A 
ATOM      9  C   UNL     1      45.311  16.452  -3.024  1.00  0.00     0.094 A 
ATOM     10  C   UNL     1      45.669  15.161  -3.421  1.00  0.00     0.146 A 
ATOM     11  O   UNL     1      46.931  14.931  -3.768  1.00  0.00    -0.456 OA
ENDROOT
BRANCH   1  12
ATOM     12  C   UNL     1      48.807  13.607  -4.539  1.00  0.00     0.021 A 
ATOM     13  C   UNL     1      49.315  12.427  -5.115  1.00  0.00     0.016 A 
ATOM     14  C   UNL     1      50.669  12.325  -5.443  1.00  0.00     0.051 A 
ATOM     15  C   UNL     1      51.537  13.399  -5.212  1.00  0.00     0.157 A 
ATOM     16  C   UNL     1      49.683  14.686  -4.322  1.00  0.00     0.062 A 
ATOM     17  C   UNL     1      51.040  14.586  -4.650  1.00  0.00     0.158 A 
BRANCH  15  18
ATOM     18  O   UNL     1      52.888  13.294  -5.540  1.00  0.00    -0.504 OA
ATOM     19  H   UNL     1      53.236  13.573  -6.450  1.00  0.00     0.293 HD
ENDBRANCH  15  18
BRANCH  17  20
ATOM     20  O   UNL     1      51.877  15.676  -4.409  1.00  0.00    -0.504 OA
ATOM     21  H   UNL     1      51.616  16.621  -4.664  1.00  0.00     0.293 HD
ENDBRANCH  17  20
ENDBRANCH   1  12
BRANCH   6  22
ATOM     22  O   UNL     1      42.346  13.471  -2.952  1.00  0.00    -0.507 OA
ATOM     23  H   UNL     1      42.428  12.502  -3.218  1.00  0.00     0.293 HD
ENDBRANCH   6  22
BRANCH   8  24
ATOM     24  O   UNL     1      43.658  18.041  -2.295  1.00  0.00    -0.508 OA
ATOM     25  H   UNL     1      44.137  18.847  -2.680  1.00  0.00     0.293 HD
ENDBRANCH   8  24
TORSDOF 5
ENDMDL
