MODEL 1
REMARK VINA RESULT:    -6.237      0.000      0.000
REMARK INTER + INTRA:          -7.740
REMARK INTER:                  -7.513
REMARK INTRA:                  -0.227
REMARK UNBOUND:                -0.227
REMARK SMILES O=c1c(O)c(-c2ccc(O)cc2O)oc2cc(O)cc(O)c12
REMARK SMILES IDX 5 1 3 2 2 3 1 4 22 5 20 6 19 7 17 8 16 9 15 10 14 11 6 12
REMARK SMILES IDX 8 13 7 14 9 15 11 16 12 17 10 18 13 20 4 22 21 24 18 26
REMARK H PARENT 10 19 13 21 4 23 21 25 18 27
REMARK Flexibility Score: inf
ROOT
ATOM      1  C   UNL     1     141.177 153.415 120.450  1.00  0.00     0.184 A 
ATOM      2  C   UNL     1     142.091 153.874 121.412  1.00  0.00     0.208 A 
ATOM      3  C   UNL     1     142.174 155.252 121.669  1.00  0.00     0.238 A 
ATOM      4  O   UNL     1     142.955 155.652 122.572  1.00  0.00    -0.285 OA
ATOM      5  C   UNL     1     141.357 156.154 120.947  1.00  0.00     0.111 A 
ATOM      6  C   UNL     1     141.386 157.573 121.098  1.00  0.00     0.134 A 
ATOM      7  C   UNL     1     140.442 158.359 120.423  1.00  0.00     0.093 A 
ATOM      8  C   UNL     1     139.514 157.781 119.554  1.00  0.00     0.123 A 
ATOM      9  C   UNL     1     139.515 156.402 119.355  1.00  0.00     0.094 A 
ATOM     10  C   UNL     1     140.420 155.589 120.042  1.00  0.00     0.146 A 
ATOM     11  O   UNL     1     140.381 154.279 119.832  1.00  0.00    -0.451 OA
ENDROOT
BRANCH   1  12
ATOM     12  C   UNL     1     141.055 151.978 120.112  1.00  0.00     0.063 A 
ATOM     13  C   UNL     1     139.766 149.912 120.107  1.00  0.00     0.047 A 
ATOM     14  C   UNL     1     139.872 151.273 120.402  1.00  0.00     0.020 A 
ATOM     15  C   UNL     1     140.844 149.232 119.529  1.00  0.00     0.119 A 
ATOM     16  C   UNL     1     142.028 149.918 119.249  1.00  0.00     0.093 A 
ATOM     17  C   UNL     1     142.143 151.287 119.539  1.00  0.00     0.130 A 
BRANCH  15  18
ATOM     18  O   UNL     1     140.749 147.874 119.232  1.00  0.00    -0.508 OA
ATOM     19  H   UNL     1     141.204 147.173 119.805  1.00  0.00     0.293 HD
ENDBRANCH  15  18
BRANCH  17  20
ATOM     20  O   UNL     1     143.330 151.960 119.248  1.00  0.00    -0.507 OA
ATOM     21  H   UNL     1     143.335 152.827 118.724  1.00  0.00     0.293 HD
ENDBRANCH  17  20
ENDBRANCH   1  12
BRANCH   2  22
ATOM     22  O   UNL     1     142.879 152.963 122.122  1.00  0.00    -0.502 OA
ATOM     23  H   UNL     1     143.748 153.229 122.569  1.00  0.00     0.293 HD
ENDBRANCH   2  22
BRANCH   6  24
ATOM     24  O   UNL     1     142.330 158.257 121.869  1.00  0.00    -0.507 OA
ATOM     25  H   UNL     1     142.633 159.204 121.700  1.00  0.00     0.293 HD
ENDBRANCH   6  24
BRANCH   8  26
ATOM     26  O   UNL     1     138.588 158.572 118.875  1.00  0.00    -0.508 OA
ATOM     27  H   UNL     1     138.265 158.330 117.946  1.00  0.00     0.293 HD
ENDBRANCH   8  26
TORSDOF 6
ENDMDL
MODEL 2
REMARK VINA RESULT:    -5.982      2.574      4.937
REMARK INTER + INTRA:          -7.432
REMARK INTER:                  -7.082
REMARK INTRA:                  -0.351
REMARK UNBOUND:                -0.227
REMARK SMILES O=c1c(O)c(-c2ccc(O)cc2O)oc2cc(O)cc(O)c12
REMARK SMILES IDX 5 1 3 2 2 3 1 4 22 5 20 6 19 7 17 8 16 9 15 10 14 11 6 12
REMARK SMILES IDX 8 13 7 14 9 15 11 16 12 17 10 18 13 20 4 22 21 24 18 26
REMARK H PARENT 10 19 13 21 4 23 21 25 18 27
REMARK Flexibility Score: inf
ROOT
ATOM      1  C   UNL     1     139.082 150.061 120.087  1.00  0.00     0.184 A 
ATOM      2  C   UNL     1     138.145 150.966 119.563  1.00  0.00     0.208 A 
ATOM      3  C   UNL     1     138.516 152.311 119.399  1.00  0.00     0.238 A 
ATOM      4  O   UNL     1     137.691 153.105 118.876  1.00  0.00    -0.285 OA
ATOM      5  C   UNL     1     139.811 152.736 119.779  1.00  0.00     0.111 A 
ATOM      6  C   UNL     1     140.281 154.082 119.694  1.00  0.00     0.134 A 
ATOM      7  C   UNL     1     141.623 154.364 119.979  1.00  0.00     0.093 A 
ATOM      8  C   UNL     1     142.494 153.361 120.408  1.00  0.00     0.123 A 
ATOM      9  C   UNL     1     142.031 152.055 120.551  1.00  0.00     0.094 A 
ATOM     10  C   UNL     1     140.707 151.735 120.240  1.00  0.00     0.146 A 
ATOM     11  O   UNL     1     140.309 150.477 120.379  1.00  0.00    -0.451 OA
ENDROOT
BRANCH   1  12
ATOM     12  C   UNL     1     138.750 148.635 120.310  1.00  0.00     0.063 A 
ATOM     13  C   UNL     1     137.375 146.929 121.371  1.00  0.00     0.047 A 
ATOM     14  C   UNL     1     137.672 148.274 121.139  1.00  0.00     0.020 A 
ATOM     15  C   UNL     1     138.156 145.925 120.789  1.00  0.00     0.119 A 
ATOM     16  C   UNL     1     139.238 146.272 119.975  1.00  0.00     0.093 A 
ATOM     17  C   UNL     1     139.543 147.620 119.735  1.00  0.00     0.130 A 
BRANCH  15  18
ATOM     18  O   UNL     1     137.869 144.580 121.015  1.00  0.00    -0.508 OA
ATOM     19  H   UNL     1     137.887 144.184 121.948  1.00  0.00     0.293 HD
ENDBRANCH  15  18
BRANCH  17  20
ATOM     20  O   UNL     1     140.622 147.951 118.915  1.00  0.00    -0.507 OA
ATOM     21  H   UNL     1     141.014 147.288 118.257  1.00  0.00     0.293 HD
ENDBRANCH  17  20
ENDBRANCH   1  12
BRANCH   2  22
ATOM     22  O   UNL     1     136.877 150.520 119.182  1.00  0.00    -0.502 OA
ATOM     23  H   UNL     1     136.742 149.745 118.545  1.00  0.00     0.293 HD
ENDBRANCH   2  22
BRANCH   6  24
ATOM     24  O   UNL     1     139.470 155.171 119.364  1.00  0.00    -0.507 OA
ATOM     25  H   UNL     1     138.465 155.135 119.277  1.00  0.00     0.293 HD
ENDBRANCH   6  24
BRANCH   8  26
ATOM     26  O   UNL     1     143.824 153.654 120.704  1.00  0.00    -0.508 OA
ATOM     27  H   UNL     1     144.580 153.357 120.098  1.00  0.00     0.293 HD
ENDBRANCH   8  26
TORSDOF 6
ENDMDL
MODEL 3
REMARK VINA RESULT:    -5.936      1.434      6.547
REMARK INTER + INTRA:          -7.378
REMARK INTER:                  -7.175
REMARK INTRA:                  -0.203
REMARK UNBOUND:                -0.227
REMARK SMILES O=c1c(O)c(-c2ccc(O)cc2O)oc2cc(O)cc(O)c12
REMARK SMILES IDX 5 1 3 2 2 3 1 4 22 5 20 6 19 7 17 8 16 9 15 10 14 11 6 12
REMARK SMILES IDX 8 13 7 14 9 15 11 16 12 17 10 18 13 20 4 22 21 24 18 26
REMARK H PARENT 10 19 13 21 4 23 21 25 18 27
REMARK Flexibility Score: inf
ROOT
ATOM      1  C   UNL     1     141.234 153.381 120.222  1.00  0.00     0.184 A 
ATOM      2  C   UNL     1     142.364 152.566 120.049  1.00  0.00     0.208 A 
ATOM      3  C   UNL     1     142.184 151.195 119.806  1.00  0.00     0.238 A 
ATOM      4  O   UNL     1     143.199 150.481 119.596  1.00  0.00    -0.285 OA
ATOM      5  C   UNL     1     140.877 150.654 119.761  1.00  0.00     0.111 A 
ATOM      6  C   UNL     1     140.578 149.272 119.561  1.00  0.00     0.134 A 
ATOM      7  C   UNL     1     139.245 148.869 119.407  1.00  0.00     0.093 A 
ATOM      8  C   UNL     1     138.199 149.788 119.509  1.00  0.00     0.123 A 
ATOM      9  C   UNL     1     138.477 151.129 119.762  1.00  0.00     0.094 A 
ATOM     10  C   UNL     1     139.797 151.568 119.885  1.00  0.00     0.146 A 
ATOM     11  O   UNL     1     140.019 152.856 120.115  1.00  0.00    -0.451 OA
ENDROOT
BRANCH   1  12
ATOM     12  C   UNL     1     141.352 154.831 120.506  1.00  0.00     0.063 A 
ATOM     13  C   UNL     1     141.007 157.147 119.840  1.00  0.00     0.047 A 
ATOM     14  C   UNL     1     140.872 155.780 119.585  1.00  0.00     0.020 A 
ATOM     15  C   UNL     1     141.633 157.585 121.012  1.00  0.00     0.119 A 
ATOM     16  C   UNL     1     142.125 156.651 121.927  1.00  0.00     0.093 A 
ATOM     17  C   UNL     1     141.992 155.276 121.681  1.00  0.00     0.130 A 
BRANCH  15  18
ATOM     18  O   UNL     1     141.773 158.947 121.275  1.00  0.00    -0.508 OA
ATOM     19  H   UNL     1     142.684 159.369 121.411  1.00  0.00     0.293 HD
ENDBRANCH  15  18
BRANCH  17  20
ATOM     20  O   UNL     1     142.483 154.356 122.607  1.00  0.00    -0.507 OA
ATOM     21  H   UNL     1     142.301 153.363 122.520  1.00  0.00     0.293 HD
ENDBRANCH  17  20
ENDBRANCH   1  12
BRANCH   2  22
ATOM     22  O   UNL     1     143.645 153.126 120.085  1.00  0.00    -0.502 OA
ATOM     23  H   UNL     1     144.469 152.582 120.310  1.00  0.00     0.293 HD
ENDBRANCH   2  22
BRANCH   6  24
ATOM     24  O   UNL     1     141.543 148.261 119.536  1.00  0.00    -0.507 OA
ATOM     25  H   UNL     1     141.349 147.278 119.653  1.00  0.00     0.293 HD
ENDBRANCH   6  24
BRANCH   8  26
ATOM     26  O   UNL     1     136.875 149.375 119.369  1.00  0.00    -0.508 OA
ATOM     27  H   UNL     1     136.641 148.438 119.063  1.00  0.00     0.293 HD
ENDBRANCH   8  26
TORSDOF 6
ENDMDL
MODEL 4
REMARK VINA RESULT:    -5.883      0.733      1.493
REMARK INTER + INTRA:          -7.313
REMARK INTER:                  -6.885
REMARK INTRA:                  -0.428
REMARK UNBOUND:                -0.227
REMARK SMILES O=c1c(O)c(-c2ccc(O)cc2O)oc2cc(O)cc(O)c12
REMARK SMILES IDX 5 1 3 2 2 3 1 4 22 5 20 6 19 7 17 8 16 9 15 10 14 11 6 12
REMARK SMILES IDX 8 13 7 14 9 15 11 16 12 17 10 18 13 20 4 22 21 24 18 26
REMARK H PARENT 10 19 13 21 4 23 21 25 18 27
REMARK Flexibility Score: inf
ROOT
ATOM      1  C   UNL     1     141.090 153.371 120.379  1.00  0.00     0.184 A 
ATOM      2  C   UNL     1     142.101 153.886 121.206  1.00  0.00     0.208 A 
ATOM      3  C   UNL     1     142.161 155.271 121.425  1.00  0.00     0.238 A 
ATOM      4  O   UNL     1     143.035 155.721 122.212  1.00  0.00    -0.285 OA
ATOM      5  C   UNL     1     141.223 156.125 120.798  1.00  0.00     0.111 A 
ATOM      6  C   UNL     1     141.213 157.548 120.918  1.00  0.00     0.134 A 
ATOM      7  C   UNL     1     140.160 158.281 120.356  1.00  0.00     0.093 A 
ATOM      8  C   UNL     1     139.152 157.649 119.625  1.00  0.00     0.123 A 
ATOM      9  C   UNL     1     139.184 156.267 119.453  1.00  0.00     0.094 A 
ATOM     10  C   UNL     1     140.201 155.505 120.032  1.00  0.00     0.146 A 
ATOM     11  O   UNL     1     140.188 154.189 119.853  1.00  0.00    -0.451 OA
ENDROOT
BRANCH   1  12
ATOM     12  C   UNL     1     140.984 151.922 120.085  1.00  0.00     0.063 A 
ATOM     13  C   UNL     1     141.886 149.903 119.067  1.00  0.00     0.047 A 
ATOM     14  C   UNL     1     141.998 151.263 119.367  1.00  0.00     0.020 A 
ATOM     15  C   UNL     1     140.754 149.186 119.468  1.00  0.00     0.119 A 
ATOM     16  C   UNL     1     139.734 149.833 120.171  1.00  0.00     0.093 A 
ATOM     17  C   UNL     1     139.840 151.198 120.479  1.00  0.00     0.130 A 
BRANCH  15  18
ATOM     18  O   UNL     1     140.632 147.829 119.173  1.00  0.00    -0.508 OA
ATOM     19  H   UNL     1     139.726 147.398 119.030  1.00  0.00     0.293 HD
ENDBRANCH  15  18
BRANCH  17  20
ATOM     20  O   UNL     1     138.816 151.830 121.186  1.00  0.00    -0.507 OA
ATOM     21  H   UNL     1     137.895 151.417 121.272  1.00  0.00     0.293 HD
ENDBRANCH  17  20
ENDBRANCH   1  12
BRANCH   2  22
ATOM     22  O   UNL     1     143.009 153.022 121.825  1.00  0.00    -0.502 OA
ATOM     23  H   UNL     1     142.887 152.695 122.776  1.00  0.00     0.293 HD
ENDBRANCH   2  22
BRANCH   6  24
ATOM     24  O   UNL     1     142.220 158.284 121.548  1.00  0.00    -0.507 OA
ATOM     25  H   UNL     1     142.073 159.146 122.052  1.00  0.00     0.293 HD
ENDBRANCH   6  24
BRANCH   8  26
ATOM     26  O   UNL     1     138.116 158.389 119.057  1.00  0.00    -0.508 OA
ATOM     27  H   UNL     1     137.288 157.940 118.683  1.00  0.00     0.293 HD
ENDBRANCH   8  26
TORSDOF 6
ENDMDL
MODEL 5
REMARK VINA RESULT:    -5.779      1.510      6.541
REMARK INTER + INTRA:          -7.188
REMARK INTER:                  -7.009
REMARK INTRA:                  -0.179
REMARK UNBOUND:                -0.227
REMARK SMILES O=c1c(O)c(-c2ccc(O)cc2O)oc2cc(O)cc(O)c12
REMARK SMILES IDX 5 1 3 2 2 3 1 4 22 5 20 6 19 7 17 8 16 9 15 10 14 11 6 12
REMARK SMILES IDX 8 13 7 14 9 15 11 16 12 17 10 18 13 20 4 22 21 24 18 26
REMARK H PARENT 10 19 13 21 4 23 21 25 18 27
REMARK Flexibility Score: inf
ROOT
ATOM      1  C   UNL     1     141.362 153.466 120.243  1.00  0.00     0.184 A 
ATOM      2  C   UNL     1     142.463 152.606 120.104  1.00  0.00     0.208 A 
ATOM      3  C   UNL     1     142.236 151.252 119.806  1.00  0.00     0.238 A 
ATOM      4  O   UNL     1     143.229 150.499 119.627  1.00  0.00    -0.285 OA
ATOM      5  C   UNL     1     140.912 150.773 119.673  1.00  0.00     0.111 A 
ATOM      6  C   UNL     1     140.563 149.413 119.411  1.00  0.00     0.134 A 
ATOM      7  C   UNL     1     139.224 149.077 119.172  1.00  0.00     0.093 A 
ATOM      8  C   UNL     1     138.215 150.040 119.248  1.00  0.00     0.123 A 
ATOM      9  C   UNL     1     138.538 151.359 119.560  1.00  0.00     0.094 A 
ATOM     10  C   UNL     1     139.868 151.732 119.768  1.00  0.00     0.146 A 
ATOM     11  O   UNL     1     140.134 153.001 120.053  1.00  0.00    -0.451 OA
ENDROOT
BRANCH   1  12
ATOM     12  C   UNL     1     141.529 154.899 120.580  1.00  0.00     0.063 A 
ATOM     13  C   UNL     1     142.534 156.641 121.952  1.00  0.00     0.047 A 
ATOM     14  C   UNL     1     142.396 155.293 121.616  1.00  0.00     0.020 A 
ATOM     15  C   UNL     1     141.798 157.615 121.268  1.00  0.00     0.119 A 
ATOM     16  C   UNL     1     140.923 157.235 120.247  1.00  0.00     0.093 A 
ATOM     17  C   UNL     1     140.780 155.882 119.901  1.00  0.00     0.130 A 
BRANCH  15  18
ATOM     18  O   UNL     1     141.927 158.963 121.597  1.00  0.00    -0.508 OA
ATOM     19  H   UNL     1     142.834 159.385 121.758  1.00  0.00     0.293 HD
ENDBRANCH  15  18
BRANCH  17  20
ATOM     20  O   UNL     1     139.908 155.518 118.875  1.00  0.00    -0.507 OA
ATOM     21  H   UNL     1     139.306 156.196 118.422  1.00  0.00     0.293 HD
ENDBRANCH  17  20
ENDBRANCH   1  12
BRANCH   2  22
ATOM     22  O   UNL     1     143.764 153.104 120.228  1.00  0.00    -0.502 OA
ATOM     23  H   UNL     1     144.277 153.072 121.100  1.00  0.00     0.293 HD
ENDBRANCH   2  22
BRANCH   6  24
ATOM     24  O   UNL     1     141.482 148.360 119.404  1.00  0.00    -0.507 OA
ATOM     25  H   UNL     1     142.099 148.140 118.637  1.00  0.00     0.293 HD
ENDBRANCH   6  24
BRANCH   8  26
ATOM     26  O   UNL     1     136.884 149.694 119.023  1.00  0.00    -0.508 OA
ATOM     27  H   UNL     1     136.125 150.317 119.272  1.00  0.00     0.293 HD
ENDBRANCH   8  26
TORSDOF 6
ENDMDL
MODEL 6
REMARK VINA RESULT:    -5.530      2.655      7.568
REMARK INTER + INTRA:          -6.889
REMARK INTER:                  -6.431
REMARK INTRA:                  -0.458
REMARK UNBOUND:                -0.227
REMARK SMILES O=c1c(O)c(-c2ccc(O)cc2O)oc2cc(O)cc(O)c12
REMARK SMILES IDX 5 1 3 2 2 3 1 4 22 5 20 6 19 7 17 8 16 9 15 10 14 11 6 12
REMARK SMILES IDX 8 13 7 14 9 15 11 16 12 17 10 18 13 20 4 22 21 24 18 26
REMARK H PARENT 10 19 13 21 4 23 21 25 18 27
REMARK Flexibility Score: inf
ROOT
ATOM      1  C   UNL     1     139.417 151.183 120.541  1.00  0.00     0.184 A 
ATOM      2  C   UNL     1     138.471 151.034 121.568  1.00  0.00     0.208 A 
ATOM      3  C   UNL     1     137.969 149.754 121.851  1.00  0.00     0.238 A 
ATOM      4  O   UNL     1     137.165 149.619 122.810  1.00  0.00    -0.285 OA
ATOM      5  C   UNL     1     138.405 148.643 121.090  1.00  0.00     0.111 A 
ATOM      6  C   UNL     1     137.934 147.306 121.263  1.00  0.00     0.134 A 
ATOM      7  C   UNL     1     138.529 146.265 120.539  1.00  0.00     0.093 A 
ATOM      8  C   UNL     1     139.532 146.521 119.602  1.00  0.00     0.123 A 
ATOM      9  C   UNL     1     139.958 147.829 119.383  1.00  0.00     0.094 A 
ATOM     10  C   UNL     1     139.410 148.885 120.116  1.00  0.00     0.146 A 
ATOM     11  O   UNL     1     139.851 150.115 119.884  1.00  0.00    -0.451 OA
ENDROOT
BRANCH   1  12
ATOM     12  C   UNL     1     139.969 152.508 120.174  1.00  0.00     0.063 A 
ATOM     13  C   UNL     1     139.678 154.717 119.190  1.00  0.00     0.047 A 
ATOM     14  C   UNL     1     139.152 153.477 119.561  1.00  0.00     0.020 A 
ATOM     15  C   UNL     1     141.029 155.003 119.414  1.00  0.00     0.119 A 
ATOM     16  C   UNL     1     141.853 154.044 120.010  1.00  0.00     0.093 A 
ATOM     17  C   UNL     1     141.332 152.796 120.388  1.00  0.00     0.130 A 
BRANCH  15  18
ATOM     18  O   UNL     1     141.564 156.236 119.047  1.00  0.00    -0.508 OA
ATOM     19  H   UNL     1     141.120 156.819 118.347  1.00  0.00     0.293 HD
ENDBRANCH  15  18
BRANCH  17  20
ATOM     20  O   UNL     1     142.165 151.851 120.987  1.00  0.00    -0.507 OA
ATOM     21  H   UNL     1     141.799 150.995 121.387  1.00  0.00     0.293 HD
ENDBRANCH  17  20
ENDBRANCH   1  12
BRANCH   2  22
ATOM     22  O   UNL     1     138.066 152.144 122.315  1.00  0.00    -0.502 OA
ATOM     23  H   UNL     1     137.962 153.065 121.907  1.00  0.00     0.293 HD
ENDBRANCH   2  22
BRANCH   6  24
ATOM     24  O   UNL     1     136.875 146.955 122.105  1.00  0.00    -0.507 OA
ATOM     25  H   UNL     1     136.974 146.688 123.073  1.00  0.00     0.293 HD
ENDBRANCH   6  24
BRANCH   8  26
ATOM     26  O   UNL     1     140.108 145.481 118.875  1.00  0.00    -0.508 OA
ATOM     27  H   UNL     1     140.038 145.438 117.865  1.00  0.00     0.293 HD
ENDBRANCH   8  26
TORSDOF 6
ENDMDL
MODEL 7
REMARK VINA RESULT:    -5.464      2.593      4.406
REMARK INTER + INTRA:          -6.809
REMARK INTER:                  -6.641
REMARK INTRA:                  -0.167
REMARK UNBOUND:                -0.227
REMARK SMILES O=c1c(O)c(-c2ccc(O)cc2O)oc2cc(O)cc(O)c12
REMARK SMILES IDX 5 1 3 2 2 3 1 4 22 5 20 6 19 7 17 8 16 9 15 10 14 11 6 12
REMARK SMILES IDX 8 13 7 14 9 15 11 16 12 17 10 18 13 20 4 22 21 24 18 26
REMARK H PARENT 10 19 13 21 4 23 21 25 18 27
REMARK Flexibility Score: inf
ROOT
ATOM      1  C   UNL     1     139.200 151.214 120.735  1.00  0.00     0.184 A 
ATOM      2  C   UNL     1     138.424 152.300 121.170  1.00  0.00     0.208 A 
ATOM      3  C   UNL     1     139.043 153.546 121.361  1.00  0.00     0.238 A 
ATOM      4  O   UNL     1     138.331 154.529 121.696  1.00  0.00    -0.285 OA
ATOM      5  C   UNL     1     140.432 153.684 121.133  1.00  0.00     0.111 A 
ATOM      6  C   UNL     1     141.172 154.890 121.332  1.00  0.00     0.134 A 
ATOM      7  C   UNL     1     142.519 154.945 120.952  1.00  0.00     0.093 A 
ATOM      8  C   UNL     1     143.169 153.819 120.442  1.00  0.00     0.123 A 
ATOM      9  C   UNL     1     142.473 152.622 120.298  1.00  0.00     0.094 A 
ATOM     10  C   UNL     1     141.119 152.546 120.634  1.00  0.00     0.146 A 
ATOM     11  O   UNL     1     140.489 151.388 120.472  1.00  0.00    -0.451 OA
ENDROOT
BRANCH   1  12
ATOM     12  C   UNL     1     138.617 149.867 120.538  1.00  0.00     0.063 A 
ATOM     13  C   UNL     1     138.036 148.012 119.072  1.00  0.00     0.047 A 
ATOM     14  C   UNL     1     138.609 149.271 119.264  1.00  0.00     0.020 A 
ATOM     15  C   UNL     1     137.451 147.334 120.147  1.00  0.00     0.119 A 
ATOM     16  C   UNL     1     137.440 147.922 121.415  1.00  0.00     0.093 A 
ATOM     17  C   UNL     1     138.016 149.186 121.617  1.00  0.00     0.130 A 
BRANCH  15  18
ATOM     18  O   UNL     1     136.875 146.078 119.967  1.00  0.00    -0.508 OA
ATOM     19  H   UNL     1     136.101 145.937 119.329  1.00  0.00     0.293 HD
ENDBRANCH  15  18
BRANCH  17  20
ATOM     20  O   UNL     1     138.003 149.758 122.890  1.00  0.00    -0.507 OA
ATOM     21  H   UNL     1     137.496 149.335 123.658  1.00  0.00     0.293 HD
ENDBRANCH  17  20
ENDBRANCH   1  12
BRANCH   2  22
ATOM     22  O   UNL     1     137.050 152.143 121.376  1.00  0.00    -0.502 OA
ATOM     23  H   UNL     1     136.662 151.876 122.273  1.00  0.00     0.293 HD
ENDBRANCH   2  22
BRANCH   6  24
ATOM     24  O   UNL     1     140.641 156.042 121.919  1.00  0.00    -0.507 OA
ATOM     25  H   UNL     1     139.708 156.119 122.295  1.00  0.00     0.293 HD
ENDBRANCH   6  24
BRANCH   8  26
ATOM     26  O   UNL     1     144.514 153.879 120.080  1.00  0.00    -0.508 OA
ATOM     27  H   UNL     1     145.114 153.064 120.134  1.00  0.00     0.293 HD
ENDBRANCH   8  26
TORSDOF 6
ENDMDL
MODEL 8
REMARK VINA RESULT:    -5.364      1.568      3.235
REMARK INTER + INTRA:          -6.688
REMARK INTER:                  -6.356
REMARK INTRA:                  -0.332
REMARK UNBOUND:                -0.227
REMARK SMILES O=c1c(O)c(-c2ccc(O)cc2O)oc2cc(O)cc(O)c12
REMARK SMILES IDX 5 1 3 2 2 3 1 4 22 5 20 6 19 7 17 8 16 9 15 10 14 11 6 12
REMARK SMILES IDX 8 13 7 14 9 15 11 16 12 17 10 18 13 20 4 22 21 24 18 26
REMARK H PARENT 10 19 13 21 4 23 21 25 18 27
REMARK Flexibility Score: inf
ROOT
ATOM      1  C   UNL     1     139.896 152.222 120.095  1.00  0.00     0.184 A 
ATOM      2  C   UNL     1     138.865 153.040 119.606  1.00  0.00     0.208 A 
ATOM      3  C   UNL     1     138.929 154.424 119.833  1.00  0.00     0.238 A 
ATOM      4  O   UNL     1     138.031 155.158 119.343  1.00  0.00    -0.285 OA
ATOM      5  C   UNL     1     140.011 154.969 120.563  1.00  0.00     0.111 A 
ATOM      6  C   UNL     1     140.157 156.353 120.887  1.00  0.00     0.134 A 
ATOM      7  C   UNL     1     141.333 156.797 121.504  1.00  0.00     0.093 A 
ATOM      8  C   UNL     1     142.339 155.899 121.868  1.00  0.00     0.123 A 
ATOM      9  C   UNL     1     142.181 154.540 121.610  1.00  0.00     0.094 A 
ATOM     10  C   UNL     1     141.035 154.071 120.962  1.00  0.00     0.146 A 
ATOM     11  O   UNL     1     140.929 152.769 120.725  1.00  0.00    -0.451 OA
ENDROOT
BRANCH   1  12
ATOM     12  C   UNL     1     139.880 150.752 119.913  1.00  0.00     0.063 A 
ATOM     13  C   UNL     1     138.785 148.599 120.221  1.00  0.00     0.047 A 
ATOM     14  C   UNL     1     138.789 149.988 120.368  1.00  0.00     0.020 A 
ATOM     15  C   UNL     1     139.875 147.952 119.629  1.00  0.00     0.119 A 
ATOM     16  C   UNL     1     140.970 148.699 119.186  1.00  0.00     0.093 A 
ATOM     17  C   UNL     1     140.981 150.095 119.328  1.00  0.00     0.130 A 
BRANCH  15  18
ATOM     18  O   UNL     1     139.881 146.566 119.478  1.00  0.00    -0.508 OA
ATOM     19  H   UNL     1     139.281 146.104 118.805  1.00  0.00     0.293 HD
ENDBRANCH  15  18
BRANCH  17  20
ATOM     20  O   UNL     1     142.079 150.828 118.875  1.00  0.00    -0.507 OA
ATOM     21  H   UNL     1     142.067 151.840 118.845  1.00  0.00     0.293 HD
ENDBRANCH  17  20
ENDBRANCH   1  12
BRANCH   2  22
ATOM     22  O   UNL     1     137.813 152.481 118.875  1.00  0.00    -0.502 OA
ATOM     23  H   UNL     1     136.849 152.760 119.010  1.00  0.00     0.293 HD
ENDBRANCH   2  22
BRANCH   6  24
ATOM     24  O   UNL     1     139.173 157.317 120.650  1.00  0.00    -0.507 OA
ATOM     25  H   UNL     1     138.203 157.115 120.462  1.00  0.00     0.293 HD
ENDBRANCH   6  24
BRANCH   8  26
ATOM     26  O   UNL     1     143.499 156.349 122.495  1.00  0.00    -0.508 OA
ATOM     27  H   UNL     1     143.693 156.136 123.467  1.00  0.00     0.293 HD
ENDBRANCH   8  26
TORSDOF 6
ENDMDL
MODEL 9
REMARK VINA RESULT:    -5.319      3.397      5.962
REMARK INTER + INTRA:          -6.634
REMARK INTER:                  -6.906
REMARK INTRA:                   0.272
REMARK UNBOUND:                -0.227
REMARK SMILES O=c1c(O)c(-c2ccc(O)cc2O)oc2cc(O)cc(O)c12
REMARK SMILES IDX 5 1 3 2 2 3 1 4 22 5 20 6 19 7 17 8 16 9 15 10 14 11 6 12
REMARK SMILES IDX 8 13 7 14 9 15 11 16 12 17 10 18 13 20 4 22 21 24 18 26
REMARK H PARENT 10 19 13 21 4 23 21 25 18 27
REMARK Flexibility Score: inf
ROOT
ATOM      1  C   UNL     1     138.985 148.408 120.296  1.00  0.00     0.184 A 
ATOM      2  C   UNL     1     140.160 148.781 119.624  1.00  0.00     0.208 A 
ATOM      3  C   UNL     1     140.549 150.131 119.631  1.00  0.00     0.238 A 
ATOM      4  O   UNL     1     141.632 150.450 119.075  1.00  0.00    -0.285 OA
ATOM      5  C   UNL     1     139.747 151.091 120.293  1.00  0.00     0.111 A 
ATOM      6  C   UNL     1     140.024 152.491 120.331  1.00  0.00     0.134 A 
ATOM      7  C   UNL     1     139.230 153.331 121.124  1.00  0.00     0.093 A 
ATOM      8  C   UNL     1     138.132 152.830 121.827  1.00  0.00     0.123 A 
ATOM      9  C   UNL     1     137.819 151.476 121.750  1.00  0.00     0.094 A 
ATOM     10  C   UNL     1     138.613 150.607 120.997  1.00  0.00     0.146 A 
ATOM     11  O   UNL     1     138.286 149.321 120.959  1.00  0.00    -0.451 OA
ENDROOT
BRANCH   1  12
ATOM     12  C   UNL     1     138.504 147.007 120.308  1.00  0.00     0.063 A 
ATOM     13  C   UNL     1     138.369 144.813 119.261  1.00  0.00     0.047 A 
ATOM     14  C   UNL     1     138.844 146.126 119.265  1.00  0.00     0.020 A 
ATOM     15  C   UNL     1     137.537 144.363 120.292  1.00  0.00     0.119 A 
ATOM     16  C   UNL     1     137.181 145.233 121.327  1.00  0.00     0.093 A 
ATOM     17  C   UNL     1     137.656 146.553 121.340  1.00  0.00     0.130 A 
BRANCH  15  18
ATOM     18  O   UNL     1     137.056 143.055 120.298  1.00  0.00    -0.508 OA
ATOM     19  H   UNL     1     136.215 142.797 119.795  1.00  0.00     0.293 HD
ENDBRANCH  15  18
BRANCH  17  20
ATOM     20  O   UNL     1     137.298 147.408 122.382  1.00  0.00    -0.507 OA
ATOM     21  H   UNL     1     137.988 147.797 123.014  1.00  0.00     0.293 HD
ENDBRANCH  17  20
ENDBRANCH   1  12
BRANCH   2  22
ATOM     22  O   UNL     1     140.943 147.813 118.988  1.00  0.00    -0.502 OA
ATOM     23  H   UNL     1     141.584 148.040 118.238  1.00  0.00     0.293 HD
ENDBRANCH   2  22
BRANCH   6  24
ATOM     24  O   UNL     1     141.039 153.106 119.594  1.00  0.00    -0.507 OA
ATOM     25  H   UNL     1     141.119 153.075 118.588  1.00  0.00     0.293 HD
ENDBRANCH   6  24
BRANCH   8  26
ATOM     26  O   UNL     1     137.339 153.676 122.601  1.00  0.00    -0.508 OA
ATOM     27  H   UNL     1     137.513 154.673 122.644  1.00  0.00     0.293 HD
ENDBRANCH   8  26
TORSDOF 6
ENDMDL
