MODEL 1
REMARK VINA RESULT:    -6.415      0.000      0.000
REMARK INTER + INTRA:          -6.790
REMARK INTER:                  -6.790
REMARK INTRA:                   0.000
REMARK UNBOUND:                 0.000
REMARK SMILES O=c1ccc2cc(O)c(O)cc2o1
REMARK SMILES IDX 4 1 3 2 2 3 1 4 13 5 12 6 11 7 9 8 7 9 6 10 5 11 8 12 10 14
REMARK H PARENT 8 13 10 15
REMARK Flexibility Score: inf
ROOT
ATOM      1  C   UNL     1      13.362 -22.616  22.679  1.00  0.00     0.019 A 
ATOM      2  C   UNL     1      14.360 -22.596  21.706  1.00  0.00     0.094 A 
ATOM      3  C   UNL     1      14.193 -23.359  20.546  1.00  0.00     0.336 A 
ATOM      4  O   UNL     1      15.085 -23.353  19.656  1.00  0.00    -0.246 OA
ATOM      5  O   UNL     1      13.097 -24.093  20.375  1.00  0.00    -0.423 OA
ATOM      6  C   UNL     1      12.120 -24.141  21.278  1.00  0.00     0.142 A 
ATOM      7  C   UNL     1      10.990 -24.931  21.043  1.00  0.00     0.098 A 
ATOM      8  C   UNL     1       9.958 -24.985  21.991  1.00  0.00     0.161 A 
ATOM      9  C   UNL     1      10.056 -24.246  23.179  1.00  0.00     0.158 A 
ATOM     10  C   UNL     1      11.187 -23.451  23.420  1.00  0.00     0.062 A 
ATOM     11  C   UNL     1      12.220 -23.397  22.473  1.00  0.00     0.022 A 
ENDROOT
BRANCH   9  12
ATOM     12  O   UNL     1       9.026 -24.305  24.116  1.00  0.00    -0.504 OA
ATOM     13  H   UNL     1       8.671 -25.190  24.458  1.00  0.00     0.293 HD
ENDBRANCH   9  12
BRANCH   8  14
ATOM     14  O   UNL     1       8.830 -25.771  21.760  1.00  0.00    -0.504 OA
ATOM     15  H   UNL     1       8.043 -25.769  22.400  1.00  0.00     0.293 HD
ENDBRANCH   8  14
TORSDOF 2
ENDMDL
MODEL 2
REMARK VINA RESULT:    -5.935      1.828      2.642
REMARK INTER + INTRA:          -6.282
REMARK INTER:                  -6.282
REMARK INTRA:                   0.000
REMARK UNBOUND:                 0.000
REMARK SMILES O=c1ccc2cc(O)c(O)cc2o1
REMARK SMILES IDX 4 1 3 2 2 3 1 4 13 5 12 6 11 7 9 8 7 9 6 10 5 11 8 12 10 14
REMARK H PARENT 8 13 10 15
REMARK Flexibility Score: inf
ROOT
ATOM      1  C   UNL     1      13.329 -23.336  21.393  1.00  0.00     0.019 A 
ATOM      2  C   UNL     1      14.200 -22.422  21.986  1.00  0.00     0.094 A 
ATOM      3  C   UNL     1      13.859 -21.864  23.222  1.00  0.00     0.336 A 
ATOM      4  O   UNL     1      14.632 -21.037  23.773  1.00  0.00    -0.246 OA
ATOM      5  O   UNL     1      12.721 -22.203  23.823  1.00  0.00    -0.423 OA
ATOM      6  C   UNL     1      11.863 -23.071  23.293  1.00  0.00     0.142 A 
ATOM      7  C   UNL     1      10.682 -23.389  23.971  1.00  0.00     0.098 A 
ATOM      8  C   UNL     1       9.774 -24.303  23.416  1.00  0.00     0.161 A 
ATOM      9  C   UNL     1      10.049 -24.902  22.178  1.00  0.00     0.158 A 
ATOM     10  C   UNL     1      11.232 -24.588  21.494  1.00  0.00     0.062 A 
ATOM     11  C   UNL     1      12.140 -23.674  22.047  1.00  0.00     0.022 A 
ENDROOT
BRANCH   9  12
ATOM     12  O   UNL     1       9.142 -25.810  21.635  1.00  0.00    -0.504 OA
ATOM     13  H   UNL     1       8.564 -25.569  20.838  1.00  0.00     0.293 HD
ENDBRANCH   9  12
BRANCH   8  14
ATOM     14  O   UNL     1       8.596 -24.623  24.090  1.00  0.00    -0.504 OA
ATOM     15  H   UNL     1       8.390 -25.574  24.375  1.00  0.00     0.293 HD
ENDBRANCH   8  14
TORSDOF 2
ENDMDL
MODEL 3
REMARK VINA RESULT:    -5.877      1.088      2.236
REMARK INTER + INTRA:          -6.221
REMARK INTER:                  -6.221
REMARK INTRA:                   0.000
REMARK UNBOUND:                 0.000
REMARK SMILES O=c1ccc2cc(O)c(O)cc2o1
REMARK SMILES IDX 4 1 3 2 2 3 1 4 13 5 12 6 11 7 9 8 7 9 6 10 5 11 8 12 10 14
REMARK H PARENT 8 13 10 15
REMARK Flexibility Score: inf
ROOT
ATOM      1  C   UNL     1      12.659 -24.892  20.406  1.00  0.00     0.019 A 
ATOM      2  C   UNL     1      13.888 -24.235  20.356  1.00  0.00     0.094 A 
ATOM      3  C   UNL     1      14.178 -23.265  21.322  1.00  0.00     0.336 A 
ATOM      4  O   UNL     1      15.283 -22.662  21.294  1.00  0.00    -0.246 OA
ATOM      5  O   UNL     1      13.294 -22.977  22.273  1.00  0.00    -0.423 OA
ATOM      6  C   UNL     1      12.110 -23.579  22.357  1.00  0.00     0.142 A 
ATOM      7  C   UNL     1      11.220 -23.234  23.379  1.00  0.00     0.098 A 
ATOM      8  C   UNL     1       9.972 -23.866  23.471  1.00  0.00     0.161 A 
ATOM      9  C   UNL     1       9.611 -24.848  22.537  1.00  0.00     0.158 A 
ATOM     10  C   UNL     1      10.500 -25.199  21.510  1.00  0.00     0.062 A 
ATOM     11  C   UNL     1      11.748 -24.568  21.416  1.00  0.00     0.022 A 
ENDROOT
BRANCH   9  12
ATOM     12  O   UNL     1       8.369 -25.472  22.637  1.00  0.00    -0.504 OA
ATOM     13  H   UNL     1       8.082 -26.191  21.983  1.00  0.00     0.293 HD
ENDBRANCH   9  12
BRANCH   8  14
ATOM     14  O   UNL     1       9.083 -23.525  24.489  1.00  0.00    -0.504 OA
ATOM     15  H   UNL     1       8.093 -23.401  24.309  1.00  0.00     0.293 HD
ENDBRANCH   8  14
TORSDOF 2
ENDMDL
MODEL 4
REMARK VINA RESULT:    -5.832      1.921      3.078
REMARK INTER + INTRA:          -6.173
REMARK INTER:                  -6.173
REMARK INTRA:                   0.000
REMARK UNBOUND:                 0.000
REMARK SMILES O=c1ccc2cc(O)c(O)cc2o1
REMARK SMILES IDX 4 1 3 2 2 3 1 4 13 5 12 6 11 7 9 8 7 9 6 10 5 11 8 12 10 14
REMARK H PARENT 8 13 10 15
REMARK Flexibility Score: inf
ROOT
ATOM      1  C   UNL     1      12.010 -23.508  21.205  1.00  0.00     0.019 A 
ATOM      2  C   UNL     1      13.115 -23.345  20.371  1.00  0.00     0.094 A 
ATOM      3  C   UNL     1      14.365 -23.090  20.944  1.00  0.00     0.336 A 
ATOM      4  O   UNL     1      15.376 -22.940  20.206  1.00  0.00    -0.246 OA
ATOM      5  O   UNL     1      14.496 -23.005  22.265  1.00  0.00    -0.423 OA
ATOM      6  C   UNL     1      13.468 -23.154  23.097  1.00  0.00     0.142 A 
ATOM      7  C   UNL     1      13.665 -23.053  24.477  1.00  0.00     0.098 A 
ATOM      8  C   UNL     1      12.586 -23.209  25.358  1.00  0.00     0.161 A 
ATOM      9  C   UNL     1      11.302 -23.467  24.856  1.00  0.00     0.158 A 
ATOM     10  C   UNL     1      11.097 -23.569  23.472  1.00  0.00     0.062 A 
ATOM     11  C   UNL     1      12.176 -23.413  22.590  1.00  0.00     0.022 A 
ENDROOT
BRANCH   9  12
ATOM     12  O   UNL     1      10.234 -23.621  25.738  1.00  0.00    -0.504 OA
ATOM     13  H   UNL     1       9.539 -22.894  25.862  1.00  0.00     0.293 HD
ENDBRANCH   9  12
BRANCH   8  14
ATOM     14  O   UNL     1      12.779 -23.111  26.735  1.00  0.00    -0.504 OA
ATOM     15  H   UNL     1      13.613 -22.684  27.123  1.00  0.00     0.293 HD
ENDBRANCH   8  14
TORSDOF 2
ENDMDL
MODEL 5
REMARK VINA RESULT:    -5.722      1.163      1.552
REMARK INTER + INTRA:          -6.056
REMARK INTER:                  -6.056
REMARK INTRA:                   0.000
REMARK UNBOUND:                 0.000
REMARK SMILES O=c1ccc2cc(O)c(O)cc2o1
REMARK SMILES IDX 4 1 3 2 2 3 1 4 13 5 12 6 11 7 9 8 7 9 6 10 5 11 8 12 10 14
REMARK H PARENT 8 13 10 15
REMARK Flexibility Score: inf
ROOT
ATOM      1  C   UNL     1      13.609 -21.987  23.188  1.00  0.00     0.019 A 
ATOM      2  C   UNL     1      14.333 -22.248  22.025  1.00  0.00     0.094 A 
ATOM      3  C   UNL     1      13.814 -23.150  21.091  1.00  0.00     0.336 A 
ATOM      4  O   UNL     1      14.454 -23.398  20.034  1.00  0.00    -0.246 OA
ATOM      5  O   UNL     1      12.646 -23.747  21.309  1.00  0.00    -0.423 OA
ATOM      6  C   UNL     1      11.922 -23.527  22.404  1.00  0.00     0.142 A 
ATOM      7  C   UNL     1      10.700 -24.184  22.579  1.00  0.00     0.098 A 
ATOM      8  C   UNL     1       9.934 -23.955  23.731  1.00  0.00     0.161 A 
ATOM      9  C   UNL     1      10.392 -23.064  24.713  1.00  0.00     0.158 A 
ATOM     10  C   UNL     1      11.617 -22.401  24.543  1.00  0.00     0.062 A 
ATOM     11  C   UNL     1      12.383 -22.629  23.391  1.00  0.00     0.022 A 
ENDROOT
BRANCH   9  12
ATOM     12  O   UNL     1       9.624 -22.842  25.855  1.00  0.00    -0.504 OA
ATOM     13  H   UNL     1       9.142 -23.599  26.325  1.00  0.00     0.293 HD
ENDBRANCH   9  12
BRANCH   8  14
ATOM     14  O   UNL     1       8.716 -24.609  23.908  1.00  0.00    -0.504 OA
ATOM     15  H   UNL     1       7.836 -24.106  23.881  1.00  0.00     0.293 HD
ENDBRANCH   8  14
TORSDOF 2
ENDMDL
MODEL 6
REMARK VINA RESULT:    -5.704      1.757      4.601
REMARK INTER + INTRA:          -6.037
REMARK INTER:                  -6.037
REMARK INTRA:                   0.000
REMARK UNBOUND:                 0.000
REMARK SMILES O=c1ccc2cc(O)c(O)cc2o1
REMARK SMILES IDX 4 1 3 2 2 3 1 4 13 5 12 6 11 7 9 8 7 9 6 10 5 11 8 12 10 14
REMARK H PARENT 8 13 10 15
REMARK Flexibility Score: inf
ROOT
ATOM      1  C   UNL     1      10.332 -23.359  24.435  1.00  0.00     0.019 A 
ATOM      2  C   UNL     1       9.345 -24.207  23.935  1.00  0.00     0.094 A 
ATOM      3  C   UNL     1       9.508 -24.763  22.662  1.00  0.00     0.336 A 
ATOM      4  O   UNL     1       8.627 -25.531  22.193  1.00  0.00    -0.246 OA
ATOM      5  O   UNL     1      10.591 -24.486  21.941  1.00  0.00    -0.423 OA
ATOM      6  C   UNL     1      11.558 -23.682  22.380  1.00  0.00     0.142 A 
ATOM      7  C   UNL     1      12.674 -23.427  21.577  1.00  0.00     0.098 A 
ATOM      8  C   UNL     1      13.694 -22.581  22.034  1.00  0.00     0.161 A 
ATOM      9  C   UNL     1      13.598 -21.988  23.301  1.00  0.00     0.158 A 
ATOM     10  C   UNL     1      12.481 -22.240  24.112  1.00  0.00     0.062 A 
ATOM     11  C   UNL     1      11.460 -23.085  23.655  1.00  0.00     0.022 A 
ENDROOT
BRANCH   9  12
ATOM     12  O   UNL     1      14.617 -21.149  23.749  1.00  0.00    -0.504 OA
ATOM     13  H   UNL     1      15.461 -21.004  23.207  1.00  0.00     0.293 HD
ENDBRANCH   9  12
BRANCH   8  14
ATOM     14  O   UNL     1      14.808 -22.325  21.236  1.00  0.00    -0.504 OA
ATOM     15  H   UNL     1      14.770 -22.421  20.228  1.00  0.00     0.293 HD
ENDBRANCH   8  14
TORSDOF 2
ENDMDL
MODEL 7
REMARK VINA RESULT:    -5.650      1.220      4.597
REMARK INTER + INTRA:          -5.980
REMARK INTER:                  -5.980
REMARK INTRA:                   0.000
REMARK UNBOUND:                 0.000
REMARK SMILES O=c1ccc2cc(O)c(O)cc2o1
REMARK SMILES IDX 4 1 3 2 2 3 1 4 13 5 12 6 11 7 9 8 7 9 6 10 5 11 8 12 10 14
REMARK H PARENT 8 13 10 15
REMARK Flexibility Score: inf
ROOT
ATOM      1  C   UNL     1      11.467 -23.188  22.959  1.00  0.00     0.019 A 
ATOM      2  C   UNL     1      10.265 -23.890  23.036  1.00  0.00     0.094 A 
ATOM      3  C   UNL     1      10.067 -24.990  22.195  1.00  0.00     0.336 A 
ATOM      4  O   UNL     1       8.987 -25.637  22.250  1.00  0.00    -0.246 OA
ATOM      5  O   UNL     1      11.013 -25.361  21.337  1.00  0.00    -0.423 OA
ATOM      6  C   UNL     1      12.175 -24.720  21.232  1.00  0.00     0.142 A 
ATOM      7  C   UNL     1      13.133 -25.155  20.311  1.00  0.00     0.098 A 
ATOM      8  C   UNL     1      14.358 -24.483  20.196  1.00  0.00     0.161 A 
ATOM      9  C   UNL     1      14.627 -23.370  21.006  1.00  0.00     0.158 A 
ATOM     10  C   UNL     1      13.670 -22.928  21.932  1.00  0.00     0.062 A 
ATOM     11  C   UNL     1      12.445 -23.599  22.048  1.00  0.00     0.022 A 
ENDROOT
BRANCH   9  12
ATOM     12  O   UNL     1      15.847 -22.707  20.886  1.00  0.00    -0.504 OA
ATOM     13  H   UNL     1      16.716 -23.214  20.764  1.00  0.00     0.293 HD
ENDBRANCH   9  12
BRANCH   8  14
ATOM     14  O   UNL     1      15.316 -24.914  19.279  1.00  0.00    -0.504 OA
ATOM     15  H   UNL     1      15.870 -25.747  19.445  1.00  0.00     0.293 HD
ENDBRANCH   8  14
TORSDOF 2
ENDMDL
MODEL 8
REMARK VINA RESULT:    -5.635      1.419      5.031
REMARK INTER + INTRA:          -5.964
REMARK INTER:                  -5.964
REMARK INTRA:                   0.000
REMARK UNBOUND:                 0.000
REMARK SMILES O=c1ccc2cc(O)c(O)cc2o1
REMARK SMILES IDX 4 1 3 2 2 3 1 4 13 5 12 6 11 7 9 8 7 9 6 10 5 11 8 12 10 14
REMARK H PARENT 8 13 10 15
REMARK Flexibility Score: inf
ROOT
ATOM      1  C   UNL     1      11.016 -24.889  21.139  1.00  0.00     0.019 A 
ATOM      2  C   UNL     1       9.843 -25.098  21.863  1.00  0.00     0.094 A 
ATOM      3  C   UNL     1       9.655 -24.408  23.064  1.00  0.00     0.336 A 
ATOM      4  O   UNL     1       8.602 -24.584  23.733  1.00  0.00    -0.246 OA
ATOM      5  O   UNL     1      10.583 -23.563  23.508  1.00  0.00    -0.423 OA
ATOM      6  C   UNL     1      11.716 -23.333  22.848  1.00  0.00     0.142 A 
ATOM      7  C   UNL     1      12.655 -22.434  23.363  1.00  0.00     0.098 A 
ATOM      8  C   UNL     1      13.850 -22.189  22.672  1.00  0.00     0.161 A 
ATOM      9  C   UNL     1      14.107 -22.846  21.460  1.00  0.00     0.158 A 
ATOM     10  C   UNL     1      13.169 -23.749  20.938  1.00  0.00     0.062 A 
ATOM     11  C   UNL     1      11.974 -23.995  21.628  1.00  0.00     0.022 A 
ENDROOT
BRANCH   9  12
ATOM     12  O   UNL     1      15.298 -22.597  20.779  1.00  0.00    -0.504 OA
ATOM     13  H   UNL     1      16.172 -23.020  21.067  1.00  0.00     0.293 HD
ENDBRANCH   9  12
BRANCH   8  14
ATOM     14  O   UNL     1      14.788 -21.293  23.182  1.00  0.00    -0.504 OA
ATOM     15  H   UNL     1      14.929 -20.379  22.765  1.00  0.00     0.293 HD
ENDBRANCH   8  14
TORSDOF 2
ENDMDL
MODEL 9
REMARK VINA RESULT:    -5.541      2.524      3.411
REMARK INTER + INTRA:          -5.865
REMARK INTER:                  -5.865
REMARK INTRA:                   0.000
REMARK UNBOUND:                 0.000
REMARK SMILES O=c1ccc2cc(O)c(O)cc2o1
REMARK SMILES IDX 4 1 3 2 2 3 1 4 13 5 12 6 11 7 9 8 7 9 6 10 5 11 8 12 10 14
REMARK H PARENT 8 13 10 15
REMARK Flexibility Score: inf
ROOT
ATOM      1  C   UNL     1      12.949 -22.745  22.524  1.00  0.00     0.019 A 
ATOM      2  C   UNL     1      14.240 -22.325  22.843  1.00  0.00     0.094 A 
ATOM      3  C   UNL     1      14.646 -22.339  24.182  1.00  0.00     0.336 A 
ATOM      4  O   UNL     1      15.809 -21.964  24.490  1.00  0.00    -0.246 OA
ATOM      5  O   UNL     1      13.813 -22.748  25.134  1.00  0.00    -0.423 OA
ATOM      6  C   UNL     1      12.573 -23.157  24.873  1.00  0.00     0.142 A 
ATOM      7  C   UNL     1      11.741 -23.577  25.916  1.00  0.00     0.098 A 
ATOM      8  C   UNL     1      10.434 -24.008  25.646  1.00  0.00     0.161 A 
ATOM      9  C   UNL     1       9.957 -24.021  24.327  1.00  0.00     0.158 A 
ATOM     10  C   UNL     1      10.787 -23.601  23.277  1.00  0.00     0.062 A 
ATOM     11  C   UNL     1      12.094 -23.170  23.545  1.00  0.00     0.022 A 
ENDROOT
BRANCH   9  12
ATOM     12  O   UNL     1       8.657 -24.451  24.068  1.00  0.00    -0.504 OA
ATOM     13  H   UNL     1       7.981 -24.572  24.812  1.00  0.00     0.293 HD
ENDBRANCH   9  12
BRANCH   8  14
ATOM     14  O   UNL     1       9.602 -24.427  26.683  1.00  0.00    -0.504 OA
ATOM     15  H   UNL     1       8.866 -25.107  26.530  1.00  0.00     0.293 HD
ENDBRANCH   8  14
TORSDOF 2
ENDMDL
