MODEL 1
REMARK VINA RESULT:    -5.334      0.000      0.000
REMARK INTER + INTRA:          -6.742
REMARK INTER:                  -6.426
REMARK INTRA:                  -0.316
REMARK UNBOUND:                -0.316
REMARK SMILES O=c1c(O)c(-c2ccc(O)c(O)c2)oc2cc(O)cc(O)c12
REMARK SMILES IDX 5 1 3 2 2 3 1 4 22 5 20 6 19 7 17 8 16 9 15 10 14 11 6 12
REMARK SMILES IDX 7 13 8 14 9 15 13 16 11 17 10 18 12 20 4 22 21 24 18 26
REMARK H PARENT 10 19 12 21 4 23 21 25 18 27
REMARK Flexibility Score: inf
ROOT
ATOM      1  C   UNL     1      54.424   7.254 -48.047  1.00  0.00     0.180 A 
ATOM      2  C   UNL     1      55.027   6.117 -48.613  1.00  0.00     0.208 A 
ATOM      3  C   UNL     1      55.015   5.961 -50.008  1.00  0.00     0.238 A 
ATOM      4  O   UNL     1      55.604   4.970 -50.511  1.00  0.00    -0.285 OA
ATOM      5  C   UNL     1      54.385   6.936 -50.819  1.00  0.00     0.111 A 
ATOM      6  C   UNL     1      54.278   6.860 -52.241  1.00  0.00     0.134 A 
ATOM      7  C   UNL     1      53.748   7.943 -52.952  1.00  0.00     0.093 A 
ATOM      8  C   UNL     1      53.264   9.071 -52.292  1.00  0.00     0.123 A 
ATOM      9  C   UNL     1      53.309   9.131 -50.898  1.00  0.00     0.094 A 
ATOM     10  C   UNL     1      53.864   8.081 -50.163  1.00  0.00     0.146 A 
ATOM     11  O   UNL     1      53.899   8.182 -48.839  1.00  0.00    -0.452 OA
ENDROOT
BRANCH   1  12
ATOM     12  C   UNL     1      54.374   7.475 -46.585  1.00  0.00     0.025 A 
ATOM     13  C   UNL     1      53.261   7.029 -45.855  1.00  0.00     0.016 A 
ATOM     14  C   UNL     1      53.202   7.210 -44.472  1.00  0.00     0.051 A 
ATOM     15  C   UNL     1      54.263   7.825 -43.793  1.00  0.00     0.157 A 
ATOM     16  C   UNL     1      55.446   8.075 -45.898  1.00  0.00     0.062 A 
ATOM     17  C   UNL     1      55.391   8.256 -44.511  1.00  0.00     0.158 A 
BRANCH  15  18
ATOM     18  O   UNL     1      54.201   8.006 -42.413  1.00  0.00    -0.504 OA
ATOM     19  H   UNL     1      53.337   7.877 -41.898  1.00  0.00     0.293 HD
ENDBRANCH  15  18
BRANCH  17  20
ATOM     20  O   UNL     1      56.469   8.859 -43.864  1.00  0.00    -0.504 OA
ATOM     21  H   UNL     1      56.392   9.237 -42.927  1.00  0.00     0.293 HD
ENDBRANCH  17  20
ENDBRANCH   1  12
BRANCH   2  22
ATOM     22  O   UNL     1      55.662   5.178 -47.795  1.00  0.00    -0.502 OA
ATOM     23  H   UNL     1      56.555   5.358 -47.352  1.00  0.00     0.293 HD
ENDBRANCH   2  22
BRANCH   6  24
ATOM     24  O   UNL     1      54.647   5.740 -52.993  1.00  0.00    -0.507 OA
ATOM     25  H   UNL     1      55.348   5.069 -52.718  1.00  0.00     0.293 HD
ENDBRANCH   6  24
BRANCH   8  26
ATOM     26  O   UNL     1      52.730  10.125 -53.031  1.00  0.00    -0.508 OA
ATOM     27  H   UNL     1      52.999  10.286 -53.995  1.00  0.00     0.293 HD
ENDBRANCH   8  26
TORSDOF 6
ENDMDL
MODEL 2
REMARK VINA RESULT:    -5.240      1.989      7.756
REMARK INTER + INTRA:          -6.628
REMARK INTER:                  -6.369
REMARK INTRA:                  -0.258
REMARK UNBOUND:                -0.316
REMARK SMILES O=c1c(O)c(-c2ccc(O)c(O)c2)oc2cc(O)cc(O)c12
REMARK SMILES IDX 5 1 3 2 2 3 1 4 22 5 20 6 19 7 17 8 16 9 15 10 14 11 6 12
REMARK SMILES IDX 7 13 8 14 9 15 13 16 11 17 10 18 12 20 4 22 21 24 18 26
REMARK H PARENT 10 19 12 21 4 23 21 25 18 27
REMARK Flexibility Score: inf
ROOT
ATOM      1  C   UNL     1      54.510   7.409 -45.583  1.00  0.00     0.180 A 
ATOM      2  C   UNL     1      55.486   8.111 -44.853  1.00  0.00     0.208 A 
ATOM      3  C   UNL     1      55.396   8.144 -43.453  1.00  0.00     0.238 A 
ATOM      4  O   UNL     1      56.303   8.727 -42.802  1.00  0.00    -0.285 OA
ATOM      5  C   UNL     1      54.323   7.489 -42.800  1.00  0.00     0.111 A 
ATOM      6  C   UNL     1      54.112   7.492 -41.388  1.00  0.00     0.134 A 
ATOM      7  C   UNL     1      53.092   6.703 -40.842  1.00  0.00     0.093 A 
ATOM      8  C   UNL     1      52.237   5.965 -41.657  1.00  0.00     0.123 A 
ATOM      9  C   UNL     1      52.397   6.002 -43.043  1.00  0.00     0.094 A 
ATOM     10  C   UNL     1      53.428   6.751 -43.616  1.00  0.00     0.146 A 
ATOM     11  O   UNL     1      53.554   6.751 -44.938  1.00  0.00    -0.452 OA
ENDROOT
BRANCH   1  12
ATOM     12  C   UNL     1      54.523   7.350 -47.062  1.00  0.00     0.025 A 
ATOM     13  C   UNL     1      55.432   6.503 -47.712  1.00  0.00     0.016 A 
ATOM     14  C   UNL     1      55.448   6.417 -49.106  1.00  0.00     0.051 A 
ATOM     15  C   UNL     1      54.542   7.164 -49.871  1.00  0.00     0.157 A 
ATOM     16  C   UNL     1      53.602   8.085 -47.832  1.00  0.00     0.062 A 
ATOM     17  C   UNL     1      53.613   7.999 -49.228  1.00  0.00     0.158 A 
BRANCH  15  18
ATOM     18  O   UNL     1      54.561   7.078 -51.262  1.00  0.00    -0.504 OA
ATOM     19  H   UNL     1      54.843   7.861 -51.839  1.00  0.00     0.293 HD
ENDBRANCH  15  18
BRANCH  17  20
ATOM     20  O   UNL     1      52.690   8.746 -49.960  1.00  0.00    -0.504 OA
ATOM     21  H   UNL     1      52.540   8.596 -50.951  1.00  0.00     0.293 HD
ENDBRANCH  17  20
ENDBRANCH   1  12
BRANCH   2  22
ATOM     22  O   UNL     1      56.549   8.731 -45.516  1.00  0.00    -0.502 OA
ATOM     23  H   UNL     1      56.661   8.690 -46.521  1.00  0.00     0.293 HD
ENDBRANCH   2  22
BRANCH   6  24
ATOM     24  O   UNL     1      54.851   8.267 -40.489  1.00  0.00    -0.507 OA
ATOM     25  H   UNL     1      55.207   7.939 -39.604  1.00  0.00     0.293 HD
ENDBRANCH   6  24
BRANCH   8  26
ATOM     26  O   UNL     1      51.223   5.203 -41.080  1.00  0.00    -0.508 OA
ATOM     27  H   UNL     1      51.234   4.190 -41.118  1.00  0.00     0.293 HD
ENDBRANCH   8  26
TORSDOF 6
ENDMDL
MODEL 3
REMARK VINA RESULT:    -5.214      1.677      7.129
REMARK INTER + INTRA:          -6.596
REMARK INTER:                  -6.275
REMARK INTRA:                  -0.321
REMARK UNBOUND:                -0.316
REMARK SMILES O=c1c(O)c(-c2ccc(O)c(O)c2)oc2cc(O)cc(O)c12
REMARK SMILES IDX 5 1 3 2 2 3 1 4 22 5 20 6 19 7 17 8 16 9 15 10 14 11 6 12
REMARK SMILES IDX 7 13 8 14 9 15 13 16 11 17 10 18 12 20 4 22 21 24 18 26
REMARK H PARENT 10 19 12 21 4 23 21 25 18 27
REMARK Flexibility Score: inf
ROOT
ATOM      1  C   UNL     1      53.502   7.548 -47.605  1.00  0.00     0.180 A 
ATOM      2  C   UNL     1      52.390   6.897 -47.043  1.00  0.00     0.208 A 
ATOM      3  C   UNL     1      52.348   6.698 -45.654  1.00  0.00     0.238 A 
ATOM      4  O   UNL     1      51.325   6.163 -45.150  1.00  0.00    -0.285 OA
ATOM      5  C   UNL     1      53.424   7.138 -44.846  1.00  0.00     0.111 A 
ATOM      6  C   UNL     1      53.505   6.953 -43.432  1.00  0.00     0.134 A 
ATOM      7  C   UNL     1      54.554   7.544 -42.718  1.00  0.00     0.093 A 
ATOM      8  C   UNL     1      55.558   8.256 -43.370  1.00  0.00     0.123 A 
ATOM      9  C   UNL     1      55.522   8.393 -44.758  1.00  0.00     0.094 A 
ATOM     10  C   UNL     1      54.469   7.846 -45.495  1.00  0.00     0.146 A 
ATOM     11  O   UNL     1      54.465   8.007 -46.813  1.00  0.00    -0.452 OA
ENDROOT
BRANCH   1  12
ATOM     12  C   UNL     1      53.632   7.772 -49.062  1.00  0.00     0.025 A 
ATOM     13  C   UNL     1      53.323   9.032 -49.599  1.00  0.00     0.016 A 
ATOM     14  C   UNL     1      53.457   9.270 -50.968  1.00  0.00     0.051 A 
ATOM     15  C   UNL     1      53.918   8.258 -51.820  1.00  0.00     0.157 A 
ATOM     16  C   UNL     1      54.113   6.764 -49.918  1.00  0.00     0.062 A 
ATOM     17  C   UNL     1      54.250   7.000 -51.291  1.00  0.00     0.158 A 
BRANCH  15  18
ATOM     18  O   UNL     1      54.049   8.499 -53.187  1.00  0.00    -0.504 OA
ATOM     19  H   UNL     1      54.079   9.441 -53.560  1.00  0.00     0.293 HD
ENDBRANCH  15  18
BRANCH  17  20
ATOM     20  O   UNL     1      54.723   5.976 -52.110  1.00  0.00    -0.504 OA
ATOM     21  H   UNL     1      55.402   5.297 -51.787  1.00  0.00     0.293 HD
ENDBRANCH  17  20
ENDBRANCH   1  12
BRANCH   2  22
ATOM     22  O   UNL     1      51.329   6.490 -47.856  1.00  0.00    -0.502 OA
ATOM     23  H   UNL     1      50.363   6.693 -47.631  1.00  0.00     0.293 HD
ENDBRANCH   2  22
BRANCH   6  24
ATOM     24  O   UNL     1      52.604   6.181 -42.694  1.00  0.00    -0.507 OA
ATOM     25  H   UNL     1      52.200   5.311 -43.008  1.00  0.00     0.293 HD
ENDBRANCH   6  24
BRANCH   8  26
ATOM     26  O   UNL     1      56.596   8.818 -42.628  1.00  0.00    -0.508 OA
ATOM     27  H   UNL     1      57.215   8.246 -42.065  1.00  0.00     0.293 HD
ENDBRANCH   8  26
TORSDOF 6
ENDMDL
MODEL 4
REMARK VINA RESULT:    -5.185      1.949      7.560
REMARK INTER + INTRA:          -6.562
REMARK INTER:                  -6.258
REMARK INTRA:                  -0.304
REMARK UNBOUND:                -0.316
REMARK SMILES O=c1c(O)c(-c2ccc(O)c(O)c2)oc2cc(O)cc(O)c12
REMARK SMILES IDX 5 1 3 2 2 3 1 4 22 5 20 6 19 7 17 8 16 9 15 10 14 11 6 12
REMARK SMILES IDX 7 13 8 14 9 15 13 16 11 17 10 18 12 20 4 22 21 24 18 26
REMARK H PARENT 10 19 12 21 4 23 21 25 18 27
REMARK Flexibility Score: inf
ROOT
ATOM      1  C   UNL     1      54.120   7.421 -45.975  1.00  0.00     0.180 A 
ATOM      2  C   UNL     1      53.065   6.744 -45.338  1.00  0.00     0.208 A 
ATOM      3  C   UNL     1      53.056   6.663 -43.937  1.00  0.00     0.238 A 
ATOM      4  O   UNL     1      52.081   6.104 -43.370  1.00  0.00    -0.285 OA
ATOM      5  C   UNL     1      54.109   7.246 -43.191  1.00  0.00     0.111 A 
ATOM      6  C   UNL     1      54.221   7.190 -41.769  1.00  0.00     0.134 A 
ATOM      7  C   UNL     1      55.235   7.912 -41.128  1.00  0.00     0.093 A 
ATOM      8  C   UNL     1      56.177   8.635 -41.858  1.00  0.00     0.123 A 
ATOM      9  C   UNL     1      56.112   8.648 -43.252  1.00  0.00     0.094 A 
ATOM     10  C   UNL     1      55.091   7.967 -43.918  1.00  0.00     0.146 A 
ATOM     11  O   UNL     1      55.058   8.013 -45.245  1.00  0.00    -0.452 OA
ENDROOT
BRANCH   1  12
ATOM     12  C   UNL     1      54.213   7.526 -47.449  1.00  0.00     0.025 A 
ATOM     13  C   UNL     1      54.990   6.600 -48.161  1.00  0.00     0.016 A 
ATOM     14  C   UNL     1      55.076   6.669 -49.553  1.00  0.00     0.051 A 
ATOM     15  C   UNL     1      54.372   7.656 -50.257  1.00  0.00     0.157 A 
ATOM     16  C   UNL     1      53.492   8.504 -48.161  1.00  0.00     0.062 A 
ATOM     17  C   UNL     1      53.574   8.574 -49.556  1.00  0.00     0.158 A 
BRANCH  15  18
ATOM     18  O   UNL     1      54.461   7.723 -51.646  1.00  0.00    -0.504 OA
ATOM     19  H   UNL     1      53.646   7.892 -52.224  1.00  0.00     0.293 HD
ENDBRANCH  15  18
BRANCH  17  20
ATOM     20  O   UNL     1      52.851   9.560 -50.228  1.00  0.00    -0.504 OA
ATOM     21  H   UNL     1      52.436   9.397 -51.138  1.00  0.00     0.293 HD
ENDBRANCH  17  20
ENDBRANCH   1  12
BRANCH   2  22
ATOM     22  O   UNL     1      52.025   6.195 -46.093  1.00  0.00    -0.502 OA
ATOM     23  H   UNL     1      52.115   5.997 -47.081  1.00  0.00     0.293 HD
ENDBRANCH   2  22
BRANCH   6  24
ATOM     24  O   UNL     1      53.388   6.423 -40.949  1.00  0.00    -0.507 OA
ATOM     25  H   UNL     1      52.914   5.581 -41.239  1.00  0.00     0.293 HD
ENDBRANCH   6  24
BRANCH   8  26
ATOM     26  O   UNL     1      57.182   9.330 -41.188  1.00  0.00    -0.508 OA
ATOM     27  H   UNL     1      57.267   9.297 -40.178  1.00  0.00     0.293 HD
ENDBRANCH   8  26
TORSDOF 6
ENDMDL
MODEL 5
REMARK VINA RESULT:    -5.045      2.690      4.342
REMARK INTER + INTRA:          -6.394
REMARK INTER:                  -6.090
REMARK INTRA:                  -0.304
REMARK UNBOUND:                -0.316
REMARK SMILES O=c1c(O)c(-c2ccc(O)c(O)c2)oc2cc(O)cc(O)c12
REMARK SMILES IDX 5 1 3 2 2 3 1 4 22 5 20 6 19 7 17 8 16 9 15 10 14 11 6 12
REMARK SMILES IDX 7 13 8 14 9 15 13 16 11 17 10 18 12 20 4 22 21 24 18 26
REMARK H PARENT 10 19 12 21 4 23 21 25 18 27
REMARK Flexibility Score: inf
ROOT
ATOM      1  C   UNL     1      53.126   7.746 -50.673  1.00  0.00     0.180 A 
ATOM      2  C   UNL     1      53.519   8.824 -51.485  1.00  0.00     0.208 A 
ATOM      3  C   UNL     1      52.764   9.125 -52.629  1.00  0.00     0.238 A 
ATOM      4  O   UNL     1      53.090  10.124 -53.323  1.00  0.00    -0.285 OA
ATOM      5  C   UNL     1      51.634   8.336 -52.956  1.00  0.00     0.111 A 
ATOM      6  C   UNL     1      50.820   8.528 -54.113  1.00  0.00     0.134 A 
ATOM      7  C   UNL     1      49.652   7.771 -54.267  1.00  0.00     0.093 A 
ATOM      8  C   UNL     1      49.303   6.789 -53.343  1.00  0.00     0.123 A 
ATOM      9  C   UNL     1      50.123   6.552 -52.239  1.00  0.00     0.094 A 
ATOM     10  C   UNL     1      51.276   7.315 -52.038  1.00  0.00     0.146 A 
ATOM     11  O   UNL     1      52.024   7.067 -50.970  1.00  0.00    -0.452 OA
ENDROOT
BRANCH   1  12
ATOM     12  C   UNL     1      53.885   7.350 -49.465  1.00  0.00     0.025 A 
ATOM     13  C   UNL     1      55.041   6.567 -49.601  1.00  0.00     0.016 A 
ATOM     14  C   UNL     1      55.783   6.199 -48.476  1.00  0.00     0.051 A 
ATOM     15  C   UNL     1      55.390   6.623 -47.200  1.00  0.00     0.157 A 
ATOM     16  C   UNL     1      53.504   7.791 -48.183  1.00  0.00     0.062 A 
ATOM     17  C   UNL     1      54.247   7.425 -47.055  1.00  0.00     0.158 A 
BRANCH  15  18
ATOM     18  O   UNL     1      56.132   6.253 -46.079  1.00  0.00    -0.504 OA
ATOM     19  H   UNL     1      55.733   5.682 -45.343  1.00  0.00     0.293 HD
ENDBRANCH  15  18
BRANCH  17  20
ATOM     20  O   UNL     1      53.837   7.875 -45.800  1.00  0.00    -0.504 OA
ATOM     21  H   UNL     1      54.420   8.470 -45.224  1.00  0.00     0.293 HD
ENDBRANCH  17  20
ENDBRANCH   1  12
BRANCH   2  22
ATOM     22  O   UNL     1      54.625   9.602 -51.133  1.00  0.00    -0.502 OA
ATOM     23  H   UNL     1      55.050   9.560 -50.215  1.00  0.00     0.293 HD
ENDBRANCH   2  22
BRANCH   6  24
ATOM     24  O   UNL     1      51.127   9.419 -55.145  1.00  0.00    -0.507 OA
ATOM     25  H   UNL     1      51.645  10.277 -55.029  1.00  0.00     0.293 HD
ENDBRANCH   6  24
BRANCH   8  26
ATOM     26  O   UNL     1      48.141   6.044 -53.536  1.00  0.00    -0.508 OA
ATOM     27  H   UNL     1      47.333   6.155 -52.934  1.00  0.00     0.293 HD
ENDBRANCH   8  26
TORSDOF 6
ENDMDL
MODEL 6
REMARK VINA RESULT:    -5.035      9.309     12.542
REMARK INTER + INTRA:          -6.382
REMARK INTER:                  -6.059
REMARK INTRA:                  -0.322
REMARK UNBOUND:                -0.316
REMARK SMILES O=c1c(O)c(-c2ccc(O)c(O)c2)oc2cc(O)cc(O)c12
REMARK SMILES IDX 5 1 3 2 2 3 1 4 22 5 20 6 19 7 17 8 16 9 15 10 14 11 6 12
REMARK SMILES IDX 7 13 8 14 9 15 13 16 11 17 10 18 12 20 4 22 21 24 18 26
REMARK H PARENT 10 19 12 21 4 23 21 25 18 27
REMARK Flexibility Score: inf
ROOT
ATOM      1  C   UNL     1      56.660  -2.205 -51.710  1.00  0.00     0.180 A 
ATOM      2  C   UNL     1      56.587  -1.073 -50.879  1.00  0.00     0.208 A 
ATOM      3  C   UNL     1      57.632  -0.822 -49.976  1.00  0.00     0.238 A 
ATOM      4  O   UNL     1      57.587   0.222 -49.274  1.00  0.00    -0.285 OA
ATOM      5  C   UNL     1      58.729  -1.714 -49.903  1.00  0.00     0.111 A 
ATOM      6  C   UNL     1      59.824  -1.579 -48.997  1.00  0.00     0.134 A 
ATOM      7  C   UNL     1      60.917  -2.447 -49.102  1.00  0.00     0.093 A 
ATOM      8  C   UNL     1      60.928  -3.483 -50.034  1.00  0.00     0.123 A 
ATOM      9  C   UNL     1      59.837  -3.662 -50.885  1.00  0.00     0.094 A 
ATOM     10  C   UNL     1      58.747  -2.790 -50.829  1.00  0.00     0.146 A 
ATOM     11  O   UNL     1      57.733  -2.987 -51.663  1.00  0.00    -0.452 OA
ENDROOT
BRANCH   1  12
ATOM     12  C   UNL     1      55.586  -2.551 -52.668  1.00  0.00     0.025 A 
ATOM     13  C   UNL     1      54.529  -3.375 -52.254  1.00  0.00     0.016 A 
ATOM     14  C   UNL     1      53.495  -3.698 -53.137  1.00  0.00     0.051 A 
ATOM     15  C   UNL     1      53.494  -3.187 -54.441  1.00  0.00     0.157 A 
ATOM     16  C   UNL     1      55.572  -2.024 -53.973  1.00  0.00     0.062 A 
ATOM     17  C   UNL     1      54.536  -2.344 -54.859  1.00  0.00     0.158 A 
BRANCH  15  18
ATOM     18  O   UNL     1      52.462  -3.512 -55.320  1.00  0.00    -0.504 OA
ATOM     19  H   UNL     1      52.120  -2.850 -56.007  1.00  0.00     0.293 HD
ENDBRANCH  15  18
BRANCH  17  20
ATOM     20  O   UNL     1      54.558  -1.809 -56.147  1.00  0.00    -0.504 OA
ATOM     21  H   UNL     1      53.731  -1.415 -56.580  1.00  0.00     0.293 HD
ENDBRANCH  17  20
ENDBRANCH   1  12
BRANCH   2  22
ATOM     22  O   UNL     1      55.505  -0.194 -50.983  1.00  0.00    -0.502 OA
ATOM     23  H   UNL     1      54.767  -0.156 -50.292  1.00  0.00     0.293 HD
ENDBRANCH   2  22
BRANCH   6  24
ATOM     24  O   UNL     1      59.873  -0.635 -47.967  1.00  0.00    -0.507 OA
ATOM     25  H   UNL     1      59.559   0.320 -48.047  1.00  0.00     0.293 HD
ENDBRANCH   6  24
BRANCH   8  26
ATOM     26  O   UNL     1      62.027  -4.338 -50.099  1.00  0.00    -0.508 OA
ATOM     27  H   UNL     1      62.389  -4.668 -50.987  1.00  0.00     0.293 HD
ENDBRANCH   8  26
TORSDOF 6
ENDMDL
MODEL 7
REMARK VINA RESULT:    -5.013      1.419      3.091
REMARK INTER + INTRA:          -6.354
REMARK INTER:                  -6.075
REMARK INTRA:                  -0.280
REMARK UNBOUND:                -0.316
REMARK SMILES O=c1c(O)c(-c2ccc(O)c(O)c2)oc2cc(O)cc(O)c12
REMARK SMILES IDX 5 1 3 2 2 3 1 4 22 5 20 6 19 7 17 8 16 9 15 10 14 11 6 12
REMARK SMILES IDX 7 13 8 14 9 15 13 16 11 17 10 18 12 20 4 22 21 24 18 26
REMARK H PARENT 10 19 12 21 4 23 21 25 18 27
REMARK Flexibility Score: inf
ROOT
ATOM      1  C   UNL     1      53.740   7.574 -49.152  1.00  0.00     0.180 A 
ATOM      2  C   UNL     1      53.317   8.674 -49.918  1.00  0.00     0.208 A 
ATOM      3  C   UNL     1      53.406   8.605 -51.317  1.00  0.00     0.238 A 
ATOM      4  O   UNL     1      52.975   9.571 -51.999  1.00  0.00    -0.285 OA
ATOM      5  C   UNL     1      53.931   7.442 -51.932  1.00  0.00     0.111 A 
ATOM      6  C   UNL     1      54.103   7.279 -53.340  1.00  0.00     0.134 A 
ATOM      7  C   UNL     1      54.509   6.038 -53.846  1.00  0.00     0.093 A 
ATOM      8  C   UNL     1      54.811   4.976 -52.995  1.00  0.00     0.123 A 
ATOM      9  C   UNL     1      54.703   5.143 -51.613  1.00  0.00     0.094 A 
ATOM     10  C   UNL     1      54.266   6.358 -51.080  1.00  0.00     0.146 A 
ATOM     11  O   UNL     1      54.166   6.473 -49.761  1.00  0.00    -0.452 OA
ENDROOT
BRANCH   1  12
ATOM     12  C   UNL     1      53.701   7.581 -47.672  1.00  0.00     0.025 A 
ATOM     13  C   UNL     1      52.485   7.353 -47.010  1.00  0.00     0.016 A 
ATOM     14  C   UNL     1      52.430   7.336 -45.615  1.00  0.00     0.051 A 
ATOM     15  C   UNL     1      53.593   7.531 -44.859  1.00  0.00     0.157 A 
ATOM     16  C   UNL     1      54.871   7.757 -46.909  1.00  0.00     0.062 A 
ATOM     17  C   UNL     1      54.819   7.739 -45.511  1.00  0.00     0.158 A 
BRANCH  15  18
ATOM     18  O   UNL     1      53.535   7.516 -43.467  1.00  0.00    -0.504 OA
ATOM     19  H   UNL     1      52.806   7.015 -42.971  1.00  0.00     0.293 HD
ENDBRANCH  15  18
BRANCH  17  20
ATOM     20  O   UNL     1      55.998   7.923 -44.787  1.00  0.00    -0.504 OA
ATOM     21  H   UNL     1      55.994   8.129 -43.796  1.00  0.00     0.293 HD
ENDBRANCH  17  20
ENDBRANCH   1  12
BRANCH   2  22
ATOM     22  O   UNL     1      52.782   9.803 -49.291  1.00  0.00    -0.502 OA
ATOM     23  H   UNL     1      52.316  10.541 -49.803  1.00  0.00     0.293 HD
ENDBRANCH   2  22
BRANCH   6  24
ATOM     24  O   UNL     1      53.918   8.303 -54.273  1.00  0.00    -0.507 OA
ATOM     25  H   UNL     1      54.282   8.296 -55.214  1.00  0.00     0.293 HD
ENDBRANCH   6  24
BRANCH   8  26
ATOM     26  O   UNL     1      55.228   3.760 -53.532  1.00  0.00    -0.508 OA
ATOM     27  H   UNL     1      54.872   3.423 -54.420  1.00  0.00     0.293 HD
ENDBRANCH   8  26
TORSDOF 6
ENDMDL
MODEL 8
REMARK VINA RESULT:    -4.851      3.050      8.255
REMARK INTER + INTRA:          -6.160
REMARK INTER:                  -5.840
REMARK INTRA:                  -0.320
REMARK UNBOUND:                -0.316
REMARK SMILES O=c1c(O)c(-c2ccc(O)c(O)c2)oc2cc(O)cc(O)c12
REMARK SMILES IDX 5 1 3 2 2 3 1 4 22 5 20 6 19 7 17 8 16 9 15 10 14 11 6 12
REMARK SMILES IDX 7 13 8 14 9 15 13 16 11 17 10 18 12 20 4 22 21 24 18 26
REMARK H PARENT 10 19 12 21 4 23 21 25 18 27
REMARK Flexibility Score: inf
ROOT
ATOM      1  C   UNL     1      54.998   7.134 -44.423  1.00  0.00     0.180 A 
ATOM      2  C   UNL     1      55.411   8.247 -43.669  1.00  0.00     0.208 A 
ATOM      3  C   UNL     1      56.162   8.037 -42.502  1.00  0.00     0.238 A 
ATOM      4  O   UNL     1      56.574   9.039 -41.860  1.00  0.00    -0.285 OA
ATOM      5  C   UNL     1      56.478   6.718 -42.095  1.00  0.00     0.111 A 
ATOM      6  C   UNL     1      57.200   6.388 -40.908  1.00  0.00     0.134 A 
ATOM      7  C   UNL     1      57.568   5.058 -40.672  1.00  0.00     0.093 A 
ATOM      8  C   UNL     1      57.187   4.039 -41.543  1.00  0.00     0.123 A 
ATOM      9  C   UNL     1      56.430   4.343 -42.676  1.00  0.00     0.094 A 
ATOM     10  C   UNL     1      56.078   5.665 -42.957  1.00  0.00     0.146 A 
ATOM     11  O   UNL     1      55.367   5.914 -44.051  1.00  0.00    -0.452 OA
ENDROOT
BRANCH   1  12
ATOM     12  C   UNL     1      54.183   7.272 -45.651  1.00  0.00     0.025 A 
ATOM     13  C   UNL     1      52.787   7.374 -45.546  1.00  0.00     0.016 A 
ATOM     14  C   UNL     1      52.000   7.525 -46.690  1.00  0.00     0.051 A 
ATOM     15  C   UNL     1      52.597   7.593 -47.955  1.00  0.00     0.157 A 
ATOM     16  C   UNL     1      54.781   7.361 -46.922  1.00  0.00     0.062 A 
ATOM     17  C   UNL     1      53.995   7.514 -48.070  1.00  0.00     0.158 A 
BRANCH  15  18
ATOM     18  O   UNL     1      51.809   7.742 -49.095  1.00  0.00    -0.504 OA
ATOM     19  H   UNL     1      51.906   8.544 -49.707  1.00  0.00     0.293 HD
ENDBRANCH  15  18
BRANCH  17  20
ATOM     20  O   UNL     1      54.621   7.592 -49.314  1.00  0.00    -0.504 OA
ATOM     21  H   UNL     1      55.566   7.940 -49.420  1.00  0.00     0.293 HD
ENDBRANCH  17  20
ENDBRANCH   1  12
BRANCH   2  22
ATOM     22  O   UNL     1      55.106   9.540 -44.101  1.00  0.00    -0.502 OA
ATOM     23  H   UNL     1      54.228   9.993 -43.884  1.00  0.00     0.293 HD
ENDBRANCH   2  22
BRANCH   6  24
ATOM     24  O   UNL     1      57.550   7.317 -39.924  1.00  0.00    -0.507 OA
ATOM     25  H   UNL     1      58.250   8.035 -40.034  1.00  0.00     0.293 HD
ENDBRANCH   6  24
BRANCH   8  26
ATOM     26  O   UNL     1      57.558   2.724 -41.269  1.00  0.00    -0.508 OA
ATOM     27  H   UNL     1      56.869   2.014 -41.048  1.00  0.00     0.293 HD
ENDBRANCH   8  26
TORSDOF 6
ENDMDL
MODEL 9
REMARK VINA RESULT:    -4.782      1.512      6.706
REMARK INTER + INTRA:          -6.076
REMARK INTER:                  -5.757
REMARK INTRA:                  -0.320
REMARK UNBOUND:                -0.316
REMARK SMILES O=c1c(O)c(-c2ccc(O)c(O)c2)oc2cc(O)cc(O)c12
REMARK SMILES IDX 5 1 3 2 2 3 1 4 22 5 20 6 19 7 17 8 16 9 15 10 14 11 6 12
REMARK SMILES IDX 7 13 8 14 9 15 13 16 11 17 10 18 12 20 4 22 21 24 18 26
REMARK H PARENT 10 19 12 21 4 23 21 25 18 27
REMARK Flexibility Score: inf
ROOT
ATOM      1  C   UNL     1      54.257   7.121 -48.919  1.00  0.00     0.180 A 
ATOM      2  C   UNL     1      55.111   6.006 -48.979  1.00  0.00     0.208 A 
ATOM      3  C   UNL     1      55.639   5.488 -47.786  1.00  0.00     0.238 A 
ATOM      4  O   UNL     1      56.359   4.457 -47.841  1.00  0.00    -0.285 OA
ATOM      5  C   UNL     1      55.319   6.100 -46.550  1.00  0.00     0.111 A 
ATOM      6  C   UNL     1      55.829   5.682 -45.283  1.00  0.00     0.134 A 
ATOM      7  C   UNL     1      55.343   6.278 -44.113  1.00  0.00     0.093 A 
ATOM      8  C   UNL     1      54.417   7.317 -44.165  1.00  0.00     0.123 A 
ATOM      9  C   UNL     1      53.956   7.774 -45.400  1.00  0.00     0.094 A 
ATOM     10  C   UNL     1      54.394   7.176 -46.584  1.00  0.00     0.146 A 
ATOM     11  O   UNL     1      53.924   7.632 -47.739  1.00  0.00    -0.452 OA
ENDROOT
BRANCH   1  12
ATOM     12  C   UNL     1      53.681   7.741 -50.134  1.00  0.00     0.025 A 
ATOM     13  C   UNL     1      54.368   8.787 -50.768  1.00  0.00     0.016 A 
ATOM     14  C   UNL     1      53.854   9.372 -51.927  1.00  0.00     0.051 A 
ATOM     15  C   UNL     1      52.652   8.909 -52.480  1.00  0.00     0.157 A 
ATOM     16  C   UNL     1      52.485   7.265 -50.703  1.00  0.00     0.062 A 
ATOM     17  C   UNL     1      51.968   7.848 -51.865  1.00  0.00     0.158 A 
BRANCH  15  18
ATOM     18  O   UNL     1      52.140   9.496 -53.635  1.00  0.00    -0.504 OA
ATOM     19  H   UNL     1      52.748   9.847 -54.367  1.00  0.00     0.293 HD
ENDBRANCH  15  18
BRANCH  17  20
ATOM     20  O   UNL     1      50.776   7.355 -52.398  1.00  0.00    -0.504 OA
ATOM     21  H   UNL     1      49.922   7.310 -51.855  1.00  0.00     0.293 HD
ENDBRANCH  17  20
ENDBRANCH   1  12
BRANCH   2  22
ATOM     22  O   UNL     1      55.396   5.405 -50.208  1.00  0.00    -0.502 OA
ATOM     23  H   UNL     1      56.342   5.279 -50.545  1.00  0.00     0.293 HD
ENDBRANCH   2  22
BRANCH   6  24
ATOM     24  O   UNL     1      56.826   4.715 -45.124  1.00  0.00    -0.507 OA
ATOM     25  H   UNL     1      57.590   4.566 -45.765  1.00  0.00     0.293 HD
ENDBRANCH   6  24
BRANCH   8  26
ATOM     26  O   UNL     1      53.966   7.898 -42.981  1.00  0.00    -0.508 OA
ATOM     27  H   UNL     1      53.345   8.699 -42.986  1.00  0.00     0.293 HD
ENDBRANCH   8  26
TORSDOF 6
ENDMDL
