MODEL 1
REMARK VINA RESULT:    -3.842      0.000      0.000
REMARK INTER + INTRA:         -15.596
REMARK INTER:                 -10.132
REMARK INTRA:                  -5.464
REMARK UNBOUND:                -5.464
REMARK SMILES CCCCCCCCCCCCCCCCCCCCCCCCCCCCCC(=O)[O-]
REMARK SMILES IDX 16 1 17 2 18 3 19 4 20 5 21 6 22 7 23 8 24 9 25 10 26 11
REMARK SMILES IDX 27 12 28 13 29 14 30 15 31 16 32 17 15 18 14 19 13 20 12 21
REMARK SMILES IDX 11 22 10 23 9 24 8 25 7 26 6 27 5 28 4 29 3 30 2 31 1 32
REMARK H PARENT
REMARK Flexibility Score: inf
ROOT
ATOM      1  C   UNL     1      33.373  32.732  18.288  1.00  0.00     0.000 C 
ENDROOT
BRANCH   1   2
ATOM      2  C   UNL     1      32.051  33.033  19.014  1.00  0.00     0.000 C 
BRANCH   2   3
ATOM      3  C   UNL     1      31.591  34.492  18.827  1.00  0.00     0.000 C 
BRANCH   3   4
ATOM      4  C   UNL     1      32.697  35.516  19.161  1.00  0.00     0.000 C 
BRANCH   4   5
ATOM      5  C   UNL     1      33.089  36.435  17.987  1.00  0.00     0.000 C 
BRANCH   5   6
ATOM      6  C   UNL     1      34.371  36.040  17.232  1.00  0.00     0.000 C 
BRANCH   6   7
ATOM      7  C   UNL     1      34.116  35.715  15.751  1.00  0.00     0.000 C 
BRANCH   7   8
ATOM      8  C   UNL     1      32.624  35.523  15.431  1.00  0.00     0.000 C 
BRANCH   8   9
ATOM      9  C   UNL     1      32.188  34.064  15.188  1.00  0.00     0.000 C 
BRANCH   9  10
ATOM     10  C   UNL     1      32.237  33.605  13.720  1.00  0.00     0.000 C 
BRANCH  10  11
ATOM     11  C   UNL     1      33.445  32.710  13.410  1.00  0.00     0.000 C 
BRANCH  11  12
ATOM     12  C   UNL     1      34.021  32.095  14.694  1.00  0.00     0.000 C 
BRANCH  12  13
ATOM     13  C   UNL     1      35.554  31.985  14.664  1.00  0.00     0.006 C 
BRANCH  13  14
ATOM     14  C   UNL     1      36.218  32.564  15.921  1.00  0.00     0.053 C 
BRANCH  14  15
ATOM     15  C   UNL     1      37.259  33.572  15.546  1.00  0.00     0.041 C 
ATOM     16  O   UNL     1      37.285  34.049  14.380  1.00  0.00    -0.550 OA
ATOM     17  O   UNL     1      38.222  33.956  16.468  1.00  0.00    -0.550 OA
ENDBRANCH  14  15
ENDBRANCH  13  14
ENDBRANCH  12  13
ENDBRANCH  11  12
ENDBRANCH  10  11
ENDBRANCH   9  10
ENDBRANCH   8   9
ENDBRANCH   7   8
ENDBRANCH   6   7
ENDBRANCH   5   6
ENDBRANCH   4   5
ENDBRANCH   3   4
ENDBRANCH   2   3
ENDBRANCH   1   2
BRANCH   1  18
ATOM     18  C   UNL     1      34.139  31.553  18.916  1.00  0.00     0.000 C 
BRANCH  18  19
ATOM     19  C   UNL     1      35.438  31.989  19.614  1.00  0.00     0.000 C 
BRANCH  19  20
ATOM     20  C   UNL     1      35.795  33.482  19.452  1.00  0.00     0.000 C 
BRANCH  20  21
ATOM     21  C   UNL     1      35.933  34.267  20.770  1.00  0.00     0.000 C 
BRANCH  21  22
ATOM     22  C   UNL     1      35.324  33.527  21.970  1.00  0.00     0.000 C 
BRANCH  22  23
ATOM     23  C   UNL     1      34.005  34.186  22.410  1.00  0.00     0.000 C 
BRANCH  23  24
ATOM     24  C   UNL     1      32.853  33.173  22.508  1.00  0.00    -0.000 C 
BRANCH  24  25
ATOM     25  C   UNL     1      31.476  33.856  22.577  1.00  0.00    -0.000 C 
BRANCH  25  26
ATOM     26  C   UNL     1      30.349  32.900  23.012  1.00  0.00    -0.000 C 
BRANCH  26  27
ATOM     27  C   UNL     1      28.982  33.572  23.247  1.00  0.00    -0.000 C 
BRANCH  27  28
ATOM     28  C   UNL     1      27.910  33.130  22.235  1.00  0.00    -0.000 C 
BRANCH  28  29
ATOM     29  C   UNL     1      28.397  33.193  20.778  1.00  0.00    -0.000 C 
BRANCH  29  30
ATOM     30  C   UNL     1      27.388  33.793  19.778  1.00  0.00    -0.000 C 
BRANCH  30  31
ATOM     31  C   UNL     1      25.933  33.858  20.277  1.00  0.00    -0.003 C 
ATOM     32  C   UNL     1      25.068  32.714  19.754  1.00  0.00     0.004 C 
ENDBRANCH  30  31
ENDBRANCH  29  30
ENDBRANCH  28  29
ENDBRANCH  27  28
ENDBRANCH  26  27
ENDBRANCH  25  26
ENDBRANCH  24  25
ENDBRANCH  23  24
ENDBRANCH  22  23
ENDBRANCH  21  22
ENDBRANCH  20  21
ENDBRANCH  19  20
ENDBRANCH  18  19
ENDBRANCH   1  18
TORSDOF 28
ENDMDL
MODEL 2
REMARK VINA RESULT:    -3.791      2.720      5.122
REMARK INTER + INTRA:         -15.461
REMARK INTER:                  -9.308
REMARK INTRA:                  -6.153
REMARK UNBOUND:                -5.464
REMARK SMILES CCCCCCCCCCCCCCCCCCCCCCCCCCCCCC(=O)[O-]
REMARK SMILES IDX 16 1 17 2 18 3 19 4 20 5 21 6 22 7 23 8 24 9 25 10 26 11
REMARK SMILES IDX 27 12 28 13 29 14 30 15 31 16 32 17 15 18 14 19 13 20 12 21
REMARK SMILES IDX 11 22 10 23 9 24 8 25 7 26 6 27 5 28 4 29 3 30 2 31 1 32
REMARK H PARENT
REMARK Flexibility Score: inf
ROOT
ATOM      1  C   UNL     1      28.588  34.222  20.658  1.00  0.00     0.000 C 
ENDROOT
BRANCH   1   2
ATOM      2  C   UNL     1      29.435  33.388  19.683  1.00  0.00     0.000 C 
BRANCH   2   3
ATOM      3  C   UNL     1      30.936  33.735  19.754  1.00  0.00     0.000 C 
BRANCH   3   4
ATOM      4  C   UNL     1      31.233  35.192  19.342  1.00  0.00     0.000 C 
BRANCH   4   5
ATOM      5  C   UNL     1      32.369  35.861  20.142  1.00  0.00     0.000 C 
BRANCH   5   6
ATOM      6  C   UNL     1      33.753  35.853  19.467  1.00  0.00     0.000 C 
BRANCH   6   7
ATOM      7  C   UNL     1      34.893  35.527  20.446  1.00  0.00     0.000 C 
BRANCH   7   8
ATOM      8  C   UNL     1      34.389  34.935  21.773  1.00  0.00     0.000 C 
BRANCH   8   9
ATOM      9  C   UNL     1      34.741  33.453  22.006  1.00  0.00     0.000 C 
BRANCH   9  10
ATOM     10  C   UNL     1      33.890  32.447  21.210  1.00  0.00     0.000 C 
BRANCH  10  11
ATOM     11  C   UNL     1      34.623  31.870  19.992  1.00  0.00     0.000 C 
BRANCH  11  12
ATOM     12  C   UNL     1      33.751  31.954  18.731  1.00  0.00     0.000 C 
BRANCH  12  13
ATOM     13  C   UNL     1      34.414  32.759  17.602  1.00  0.00     0.006 C 
BRANCH  13  14
ATOM     14  C   UNL     1      33.437  33.119  16.473  1.00  0.00     0.053 C 
BRANCH  14  15
ATOM     15  C   UNL     1      33.743  32.323  15.243  1.00  0.00     0.041 C 
ATOM     16  O   UNL     1      34.552  31.358  15.300  1.00  0.00    -0.550 OA
ATOM     17  O   UNL     1      33.169  32.668  14.028  1.00  0.00    -0.550 OA
ENDBRANCH  14  15
ENDBRANCH  13  14
ENDBRANCH  12  13
ENDBRANCH  11  12
ENDBRANCH  10  11
ENDBRANCH   9  10
ENDBRANCH   8   9
ENDBRANCH   7   8
ENDBRANCH   6   7
ENDBRANCH   5   6
ENDBRANCH   4   5
ENDBRANCH   3   4
ENDBRANCH   2   3
ENDBRANCH   1   2
BRANCH   1  18
ATOM     18  C   UNL     1      27.916  33.362  21.744  1.00  0.00     0.000 C 
BRANCH  18  19
ATOM     19  C   UNL     1      28.643  33.435  23.098  1.00  0.00     0.000 C 
BRANCH  19  20
ATOM     20  C   UNL     1      30.039  32.779  23.124  1.00  0.00     0.000 C 
BRANCH  20  21
ATOM     21  C   UNL     1      31.209  33.744  23.388  1.00  0.00     0.000 C 
BRANCH  21  22
ATOM     22  C   UNL     1      30.779  35.218  23.380  1.00  0.00     0.000 C 
BRANCH  22  23
ATOM     23  C   UNL     1      31.850  36.107  24.034  1.00  0.00     0.000 C 
BRANCH  23  24
ATOM     24  C   UNL     1      31.588  36.328  25.532  1.00  0.00    -0.000 C 
BRANCH  24  25
ATOM     25  C   UNL     1      30.327  37.171  25.789  1.00  0.00    -0.000 C 
BRANCH  25  26
ATOM     26  C   UNL     1      29.236  36.404  26.560  1.00  0.00    -0.000 C 
BRANCH  26  27
ATOM     27  C   UNL     1      28.013  35.990  25.717  1.00  0.00    -0.000 C 
BRANCH  27  28
ATOM     28  C   UNL     1      26.972  37.115  25.569  1.00  0.00    -0.000 C 
BRANCH  28  29
ATOM     29  C   UNL     1      26.513  37.318  24.115  1.00  0.00    -0.000 C 
BRANCH  29  30
ATOM     30  C   UNL     1      27.564  36.963  23.043  1.00  0.00    -0.000 C 
BRANCH  30  31
ATOM     31  C   UNL     1      28.528  38.103  22.670  1.00  0.00    -0.003 C 
ATOM     32  C   UNL     1      29.249  37.868  21.344  1.00  0.00     0.004 C 
ENDBRANCH  30  31
ENDBRANCH  29  30
ENDBRANCH  28  29
ENDBRANCH  27  28
ENDBRANCH  26  27
ENDBRANCH  25  26
ENDBRANCH  24  25
ENDBRANCH  23  24
ENDBRANCH  22  23
ENDBRANCH  21  22
ENDBRANCH  20  21
ENDBRANCH  19  20
ENDBRANCH  18  19
ENDBRANCH   1  18
TORSDOF 28
ENDMDL
MODEL 3
REMARK VINA RESULT:    -3.711      4.322      8.868
REMARK INTER + INTRA:         -15.250
REMARK INTER:                  -9.916
REMARK INTRA:                  -5.334
REMARK UNBOUND:                -5.464
REMARK SMILES CCCCCCCCCCCCCCCCCCCCCCCCCCCCCC(=O)[O-]
REMARK SMILES IDX 16 1 17 2 18 3 19 4 20 5 21 6 22 7 23 8 24 9 25 10 26 11
REMARK SMILES IDX 27 12 28 13 29 14 30 15 31 16 32 17 15 18 14 19 13 20 12 21
REMARK SMILES IDX 11 22 10 23 9 24 8 25 7 26 6 27 5 28 4 29 3 30 2 31 1 32
REMARK H PARENT
REMARK Flexibility Score: inf
ROOT
ATOM      1  C   UNL     1      32.359  36.529  22.030  1.00  0.00     0.000 C 
ENDROOT
BRANCH   1   2
ATOM      2  C   UNL     1      30.851  36.830  22.040  1.00  0.00     0.000 C 
BRANCH   2   3
ATOM      3  C   UNL     1      30.149  36.382  20.742  1.00  0.00     0.000 C 
BRANCH   3   4
ATOM      4  C   UNL     1      30.953  35.322  19.961  1.00  0.00     0.000 C 
BRANCH   4   5
ATOM      5  C   UNL     1      30.228  33.973  19.787  1.00  0.00     0.000 C 
BRANCH   5   6
ATOM      6  C   UNL     1      28.887  33.837  20.532  1.00  0.00     0.000 C 
BRANCH   6   7
ATOM      7  C   UNL     1      28.889  32.694  21.561  1.00  0.00     0.000 C 
BRANCH   7   8
ATOM      8  C   UNL     1      28.355  33.130  22.937  1.00  0.00     0.000 C 
BRANCH   8   9
ATOM      9  C   UNL     1      28.137  34.647  23.104  1.00  0.00     0.000 C 
BRANCH   9  10
ATOM     10  C   UNL     1      28.421  35.195  24.514  1.00  0.00     0.000 C 
BRANCH  10  11
ATOM     11  C   UNL     1      28.195  36.709  24.627  1.00  0.00     0.000 C 
BRANCH  11  12
ATOM     12  C   UNL     1      29.250  37.359  25.536  1.00  0.00     0.000 C 
BRANCH  12  13
ATOM     13  C   UNL     1      30.370  36.385  25.936  1.00  0.00     0.006 C 
BRANCH  13  14
ATOM     14  C   UNL     1      31.447  37.043  26.811  1.00  0.00     0.053 C 
BRANCH  14  15
ATOM     15  C   UNL     1      31.371  36.525  28.212  1.00  0.00     0.041 C 
ATOM     16  O   UNL     1      30.376  35.846  28.582  1.00  0.00    -0.550 OA
ATOM     17  O   UNL     1      32.376  36.824  29.121  1.00  0.00    -0.550 OA
ENDBRANCH  14  15
ENDBRANCH  13  14
ENDBRANCH  12  13
ENDBRANCH  11  12
ENDBRANCH  10  11
ENDBRANCH   9  10
ENDBRANCH   8   9
ENDBRANCH   7   8
ENDBRANCH   6   7
ENDBRANCH   5   6
ENDBRANCH   4   5
ENDBRANCH   3   4
ENDBRANCH   2   3
ENDBRANCH   1   2
BRANCH   1  18
ATOM     18  C   UNL     1      32.781  35.579  23.166  1.00  0.00     0.000 C 
BRANCH  18  19
ATOM     19  C   UNL     1      31.844  34.367  23.310  1.00  0.00     0.000 C 
BRANCH  19  20
ATOM     20  C   UNL     1      32.352  33.069  22.648  1.00  0.00     0.000 C 
BRANCH  20  21
ATOM     21  C   UNL     1      33.773  33.148  22.060  1.00  0.00     0.000 C 
BRANCH  21  22
ATOM     22  C   UNL     1      33.864  32.567  20.642  1.00  0.00     0.000 C 
BRANCH  22  23
ATOM     23  C   UNL     1      34.635  33.515  19.708  1.00  0.00     0.000 C 
BRANCH  23  24
ATOM     24  C   UNL     1      34.964  32.861  18.357  1.00  0.00    -0.000 C 
BRANCH  24  25
ATOM     25  C   UNL     1      34.144  31.582  18.110  1.00  0.00    -0.000 C 
BRANCH  25  26
ATOM     26  C   UNL     1      34.069  31.191  16.622  1.00  0.00    -0.000 C 
BRANCH  26  27
ATOM     27  C   UNL     1      35.264  31.655  15.766  1.00  0.00    -0.000 C 
BRANCH  27  28
ATOM     28  C   UNL     1      34.873  32.679  14.686  1.00  0.00    -0.000 C 
BRANCH  28  29
ATOM     29  C   UNL     1      33.471  32.432  14.105  1.00  0.00    -0.000 C 
BRANCH  29  30
ATOM     30  C   UNL     1      32.426  33.516  14.441  1.00  0.00    -0.000 C 
BRANCH  30  31
ATOM     31  C   UNL     1      32.931  34.651  15.350  1.00  0.00    -0.003 C 
ATOM     32  C   UNL     1      32.259  34.665  16.722  1.00  0.00     0.004 C 
ENDBRANCH  30  31
ENDBRANCH  29  30
ENDBRANCH  28  29
ENDBRANCH  27  28
ENDBRANCH  26  27
ENDBRANCH  25  26
ENDBRANCH  24  25
ENDBRANCH  23  24
ENDBRANCH  22  23
ENDBRANCH  21  22
ENDBRANCH  20  21
ENDBRANCH  19  20
ENDBRANCH  18  19
ENDBRANCH   1  18
TORSDOF 28
ENDMDL
MODEL 4
REMARK VINA RESULT:    -3.643      1.954      7.267
REMARK INTER + INTRA:         -15.069
REMARK INTER:                  -9.301
REMARK INTRA:                  -5.768
REMARK UNBOUND:                -5.464
REMARK SMILES CCCCCCCCCCCCCCCCCCCCCCCCCCCCCC(=O)[O-]
REMARK SMILES IDX 16 1 17 2 18 3 19 4 20 5 21 6 22 7 23 8 24 9 25 10 26 11
REMARK SMILES IDX 27 12 28 13 29 14 30 15 31 16 32 17 15 18 14 19 13 20 12 21
REMARK SMILES IDX 11 22 10 23 9 24 8 25 7 26 6 27 5 28 4 29 3 30 2 31 1 32
REMARK H PARENT
REMARK Flexibility Score: inf
ROOT
ATOM      1  C   UNL     1      31.008  34.155  19.224  1.00  0.00     0.000 C 
ENDROOT
BRANCH   1   2
ATOM      2  C   UNL     1      30.059  33.027  19.662  1.00  0.00     0.000 C 
BRANCH   2   3
ATOM      3  C   UNL     1      28.666  33.547  20.069  1.00  0.00     0.000 C 
BRANCH   3   4
ATOM      4  C   UNL     1      28.271  33.140  21.504  1.00  0.00     0.000 C 
BRANCH   4   5
ATOM      5  C   UNL     1      28.305  34.294  22.526  1.00  0.00     0.000 C 
BRANCH   5   6
ATOM      6  C   UNL     1      29.518  34.309  23.474  1.00  0.00     0.000 C 
BRANCH   6   7
ATOM      7  C   UNL     1      30.540  33.205  23.153  1.00  0.00     0.000 C 
BRANCH   7   8
ATOM      8  C   UNL     1      31.972  33.747  22.996  1.00  0.00     0.000 C 
BRANCH   8   9
ATOM      9  C   UNL     1      32.974  32.771  22.350  1.00  0.00     0.000 C 
BRANCH   9  10
ATOM     10  C   UNL     1      34.022  33.424  21.431  1.00  0.00     0.000 C 
BRANCH  10  11
ATOM     11  C   UNL     1      34.321  32.594  20.175  1.00  0.00     0.000 C 
BRANCH  11  12
ATOM     12  C   UNL     1      34.684  33.500  18.988  1.00  0.00     0.000 C 
BRANCH  12  13
ATOM     13  C   UNL     1      36.201  33.675  18.817  1.00  0.00     0.006 C 
BRANCH  13  14
ATOM     14  C   UNL     1      36.996  32.427  19.227  1.00  0.00     0.053 C 
BRANCH  14  15
ATOM     15  C   UNL     1      38.000  32.769  20.283  1.00  0.00     0.041 C 
ATOM     16  O   UNL     1      39.092  32.142  20.343  1.00  0.00    -0.550 OA
ATOM     17  O   UNL     1      37.717  33.750  21.223  1.00  0.00    -0.550 OA
ENDBRANCH  14  15
ENDBRANCH  13  14
ENDBRANCH  12  13
ENDBRANCH  11  12
ENDBRANCH  10  11
ENDBRANCH   9  10
ENDBRANCH   8   9
ENDBRANCH   7   8
ENDBRANCH   6   7
ENDBRANCH   5   6
ENDBRANCH   4   5
ENDBRANCH   3   4
ENDBRANCH   2   3
ENDBRANCH   1   2
BRANCH   1  18
ATOM     18  C   UNL     1      30.745  35.474  19.973  1.00  0.00     0.000 C 
BRANCH  18  19
ATOM     19  C   UNL     1      32.023  36.303  20.188  1.00  0.00     0.000 C 
BRANCH  19  20
ATOM     20  C   UNL     1      32.833  36.597  18.907  1.00  0.00     0.000 C 
BRANCH  20  21
ATOM     21  C   UNL     1      32.072  37.378  17.820  1.00  0.00     0.000 C 
BRANCH  21  22
ATOM     22  C   UNL     1      32.301  36.812  16.411  1.00  0.00     0.000 C 
BRANCH  22  23
ATOM     23  C   UNL     1      33.086  35.491  16.469  1.00  0.00     0.000 C 
BRANCH  23  24
ATOM     24  C   UNL     1      32.337  34.339  15.779  1.00  0.00    -0.000 C 
BRANCH  24  25
ATOM     25  C   UNL     1      31.985  34.662  14.317  1.00  0.00    -0.000 C 
BRANCH  25  26
ATOM     26  C   UNL     1      31.931  33.413  13.418  1.00  0.00    -0.000 C 
BRANCH  26  27
ATOM     27  C   UNL     1      33.305  32.839  13.019  1.00  0.00    -0.000 C 
BRANCH  27  28
ATOM     28  C   UNL     1      34.426  33.894  13.026  1.00  0.00    -0.000 C 
BRANCH  28  29
ATOM     29  C   UNL     1      35.748  33.361  13.603  1.00  0.00    -0.000 C 
BRANCH  29  30
ATOM     30  C   UNL     1      35.739  33.106  15.125  1.00  0.00    -0.000 C 
BRANCH  30  31
ATOM     31  C   UNL     1      35.669  31.625  15.538  1.00  0.00    -0.003 C 
ATOM     32  C   UNL     1      34.312  31.227  16.116  1.00  0.00     0.004 C 
ENDBRANCH  30  31
ENDBRANCH  29  30
ENDBRANCH  28  29
ENDBRANCH  27  28
ENDBRANCH  26  27
ENDBRANCH  25  26
ENDBRANCH  24  25
ENDBRANCH  23  24
ENDBRANCH  22  23
ENDBRANCH  21  22
ENDBRANCH  20  21
ENDBRANCH  19  20
ENDBRANCH  18  19
ENDBRANCH   1  18
TORSDOF 28
ENDMDL
MODEL 5
REMARK VINA RESULT:    -3.636      3.299      8.428
REMARK INTER + INTRA:         -15.053
REMARK INTER:                  -9.636
REMARK INTRA:                  -5.416
REMARK UNBOUND:                -5.464
REMARK SMILES CCCCCCCCCCCCCCCCCCCCCCCCCCCCCC(=O)[O-]
REMARK SMILES IDX 16 1 17 2 18 3 19 4 20 5 21 6 22 7 23 8 24 9 25 10 26 11
REMARK SMILES IDX 27 12 28 13 29 14 30 15 31 16 32 17 15 18 14 19 13 20 12 21
REMARK SMILES IDX 11 22 10 23 9 24 8 25 7 26 6 27 5 28 4 29 3 30 2 31 1 32
REMARK H PARENT
REMARK Flexibility Score: inf
ROOT
ATOM      1  C   UNL     1      34.308  31.999  19.989  1.00  0.00     0.000 C 
ENDROOT
BRANCH   1   2
ATOM      2  C   UNL     1      33.819  32.686  21.274  1.00  0.00     0.000 C 
BRANCH   2   3
ATOM      3  C   UNL     1      34.941  33.455  22.000  1.00  0.00     0.000 C 
BRANCH   3   4
ATOM      4  C   UNL     1      34.643  34.963  22.134  1.00  0.00     0.000 C 
BRANCH   4   5
ATOM      5  C   UNL     1      34.061  35.613  20.863  1.00  0.00     0.000 C 
BRANCH   5   6
ATOM      6  C   UNL     1      32.679  36.271  21.024  1.00  0.00     0.000 C 
BRANCH   6   7
ATOM      7  C   UNL     1      32.288  36.486  22.496  1.00  0.00     0.000 C 
BRANCH   7   8
ATOM      8  C   UNL     1      30.843  36.053  22.797  1.00  0.00     0.000 C 
BRANCH   8   9
ATOM      9  C   UNL     1      30.706  34.819  23.710  1.00  0.00     0.000 C 
BRANCH   9  10
ATOM     10  C   UNL     1      31.028  33.472  23.040  1.00  0.00     0.000 C 
BRANCH  10  11
ATOM     11  C   UNL     1      29.863  32.475  23.100  1.00  0.00     0.000 C 
BRANCH  11  12
ATOM     12  C   UNL     1      28.591  33.074  22.480  1.00  0.00     0.000 C 
BRANCH  12  13
ATOM     13  C   UNL     1      28.588  33.002  20.945  1.00  0.00     0.006 C 
BRANCH  13  14
ATOM     14  C   UNL     1      28.560  34.387  20.283  1.00  0.00     0.053 C 
BRANCH  14  15
ATOM     15  C   UNL     1      27.150  34.810  20.013  1.00  0.00     0.041 C 
ATOM     16  O   UNL     1      26.745  35.940  20.397  1.00  0.00    -0.550 OA
ATOM     17  O   UNL     1      26.272  33.944  19.376  1.00  0.00    -0.550 OA
ENDBRANCH  14  15
ENDBRANCH  13  14
ENDBRANCH  12  13
ENDBRANCH  11  12
ENDBRANCH  10  11
ENDBRANCH   9  10
ENDBRANCH   8   9
ENDBRANCH   7   8
ENDBRANCH   6   7
ENDBRANCH   5   6
ENDBRANCH   4   5
ENDBRANCH   3   4
ENDBRANCH   2   3
ENDBRANCH   1   2
BRANCH   1  18
ATOM     18  C   UNL     1      33.361  32.229  18.796  1.00  0.00     0.000 C 
BRANCH  18  19
ATOM     19  C   UNL     1      32.073  32.972  19.192  1.00  0.00     0.000 C 
BRANCH  19  20
ATOM     20  C   UNL     1      31.682  34.139  18.261  1.00  0.00     0.000 C 
BRANCH  20  21
ATOM     21  C   UNL     1      32.858  34.812  17.529  1.00  0.00     0.000 C 
BRANCH  21  22
ATOM     22  C   UNL     1      32.613  34.963  16.020  1.00  0.00     0.000 C 
BRANCH  22  23
ATOM     23  C   UNL     1      32.440  33.589  15.351  1.00  0.00     0.000 C 
BRANCH  23  24
ATOM     24  C   UNL     1      32.497  33.677  13.818  1.00  0.00    -0.000 C 
BRANCH  24  25
ATOM     25  C   UNL     1      33.533  32.714  13.213  1.00  0.00    -0.000 C 
BRANCH  25  26
ATOM     26  C   UNL     1      34.975  33.248  13.297  1.00  0.00    -0.000 C 
BRANCH  26  27
ATOM     27  C   UNL     1      35.999  32.266  13.900  1.00  0.00    -0.000 C 
BRANCH  27  28
ATOM     28  C   UNL     1      35.835  32.078  15.419  1.00  0.00    -0.000 C 
BRANCH  28  29
ATOM     29  C   UNL     1      36.915  32.809  16.234  1.00  0.00    -0.000 C 
BRANCH  29  30
ATOM     30  C   UNL     1      36.565  34.259  16.628  1.00  0.00    -0.000 C 
BRANCH  30  31
ATOM     31  C   UNL     1      36.281  34.478  18.124  1.00  0.00    -0.003 C 
ATOM     32  C   UNL     1      37.237  33.711  19.035  1.00  0.00     0.004 C 
ENDBRANCH  30  31
ENDBRANCH  29  30
ENDBRANCH  28  29
ENDBRANCH  27  28
ENDBRANCH  26  27
ENDBRANCH  25  26
ENDBRANCH  24  25
ENDBRANCH  23  24
ENDBRANCH  22  23
ENDBRANCH  21  22
ENDBRANCH  20  21
ENDBRANCH  19  20
ENDBRANCH  18  19
ENDBRANCH   1  18
TORSDOF 28
ENDMDL
MODEL 6
REMARK VINA RESULT:    -3.620      4.227      8.690
REMARK INTER + INTRA:         -15.009
REMARK INTER:                  -9.804
REMARK INTRA:                  -5.206
REMARK UNBOUND:                -5.464
REMARK SMILES CCCCCCCCCCCCCCCCCCCCCCCCCCCCCC(=O)[O-]
REMARK SMILES IDX 16 1 17 2 18 3 19 4 20 5 21 6 22 7 23 8 24 9 25 10 26 11
REMARK SMILES IDX 27 12 28 13 29 14 30 15 31 16 32 17 15 18 14 19 13 20 12 21
REMARK SMILES IDX 11 22 10 23 9 24 8 25 7 26 6 27 5 28 4 29 3 30 2 31 1 32
REMARK H PARENT
REMARK Flexibility Score: inf
ROOT
ATOM      1  C   UNL     1      34.041  33.302  21.854  1.00  0.00     0.000 C 
ENDROOT
BRANCH   1   2
ATOM      2  C   UNL     1      33.279  34.509  22.424  1.00  0.00     0.000 C 
BRANCH   2   3
ATOM      3  C   UNL     1      31.991  34.101  23.166  1.00  0.00     0.000 C 
BRANCH   3   4
ATOM      4  C   UNL     1      30.995  33.342  22.263  1.00  0.00     0.000 C 
BRANCH   4   5
ATOM      5  C   UNL     1      29.830  32.675  23.021  1.00  0.00     0.000 C 
BRANCH   5   6
ATOM      6  C   UNL     1      28.422  33.174  22.650  1.00  0.00     0.000 C 
BRANCH   6   7
ATOM      7  C   UNL     1      28.104  33.010  21.154  1.00  0.00     0.000 C 
BRANCH   7   8
ATOM      8  C   UNL     1      28.234  34.327  20.370  1.00  0.00     0.000 C 
BRANCH   8   9
ATOM      9  C   UNL     1      27.936  35.604  21.179  1.00  0.00     0.000 C 
BRANCH   9  10
ATOM     10  C   UNL     1      29.053  36.663  21.162  1.00  0.00     0.000 C 
BRANCH  10  11
ATOM     11  C   UNL     1      29.683  36.895  22.542  1.00  0.00     0.000 C 
BRANCH  11  12
ATOM     12  C   UNL     1      28.678  36.598  23.665  1.00  0.00     0.000 C 
BRANCH  12  13
ATOM     13  C   UNL     1      29.346  36.016  24.922  1.00  0.00     0.006 C 
BRANCH  13  14
ATOM     14  C   UNL     1      29.312  36.980  26.116  1.00  0.00     0.053 C 
BRANCH  14  15
ATOM     15  C   UNL     1      28.819  36.278  27.342  1.00  0.00     0.041 C 
ATOM     16  O   UNL     1      29.621  35.990  28.271  1.00  0.00    -0.550 OA
ATOM     17  O   UNL     1      27.487  35.904  27.443  1.00  0.00    -0.550 OA
ENDBRANCH  14  15
ENDBRANCH  13  14
ENDBRANCH  12  13
ENDBRANCH  11  12
ENDBRANCH  10  11
ENDBRANCH   9  10
ENDBRANCH   8   9
ENDBRANCH   7   8
ENDBRANCH   6   7
ENDBRANCH   5   6
ENDBRANCH   4   5
ENDBRANCH   3   4
ENDBRANCH   2   3
ENDBRANCH   1   2
BRANCH   1  18
ATOM     18  C   UNL     1      35.073  33.703  20.784  1.00  0.00     0.000 C 
BRANCH  18  19
ATOM     19  C   UNL     1      35.321  32.593  19.748  1.00  0.00     0.000 C 
BRANCH  19  20
ATOM     20  C   UNL     1      34.143  31.618  19.543  1.00  0.00     0.000 C 
BRANCH  20  21
ATOM     21  C   UNL     1      33.843  31.256  18.077  1.00  0.00     0.000 C 
BRANCH  21  22
ATOM     22  C   UNL     1      34.820  31.909  17.090  1.00  0.00     0.000 C 
BRANCH  22  23
ATOM     23  C   UNL     1      34.732  31.244  15.706  1.00  0.00     0.000 C 
BRANCH  23  24
ATOM     24  C   UNL     1      35.489  32.038  14.629  1.00  0.00    -0.000 C 
BRANCH  24  25
ATOM     25  C   UNL     1      34.579  33.029  13.883  1.00  0.00    -0.000 C 
BRANCH  25  26
ATOM     26  C   UNL     1      33.081  32.703  14.033  1.00  0.00    -0.000 C 
BRANCH  26  27
ATOM     27  C   UNL     1      32.209  33.870  14.535  1.00  0.00    -0.000 C 
BRANCH  27  28
ATOM     28  C   UNL     1      33.031  35.030  15.125  1.00  0.00    -0.000 C 
BRANCH  28  29
ATOM     29  C   UNL     1      33.014  35.057  16.662  1.00  0.00    -0.000 C 
BRANCH  29  30
ATOM     30  C   UNL     1      31.935  34.170  17.317  1.00  0.00    -0.000 C 
BRANCH  30  31
ATOM     31  C   UNL     1      31.745  34.382  18.830  1.00  0.00    -0.003 C 
ATOM     32  C   UNL     1      32.031  35.815  19.275  1.00  0.00     0.004 C 
ENDBRANCH  30  31
ENDBRANCH  29  30
ENDBRANCH  28  29
ENDBRANCH  27  28
ENDBRANCH  26  27
ENDBRANCH  25  26
ENDBRANCH  24  25
ENDBRANCH  23  24
ENDBRANCH  22  23
ENDBRANCH  21  22
ENDBRANCH  20  21
ENDBRANCH  19  20
ENDBRANCH  18  19
ENDBRANCH   1  18
TORSDOF 28
ENDMDL
MODEL 7
REMARK VINA RESULT:    -3.558      1.605      6.589
REMARK INTER + INTRA:         -14.847
REMARK INTER:                  -9.488
REMARK INTRA:                  -5.359
REMARK UNBOUND:                -5.464
REMARK SMILES CCCCCCCCCCCCCCCCCCCCCCCCCCCCCC(=O)[O-]
REMARK SMILES IDX 16 1 17 2 18 3 19 4 20 5 21 6 22 7 23 8 24 9 25 10 26 11
REMARK SMILES IDX 27 12 28 13 29 14 30 15 31 16 32 17 15 18 14 19 13 20 12 21
REMARK SMILES IDX 11 22 10 23 9 24 8 25 7 26 6 27 5 28 4 29 3 30 2 31 1 32
REMARK H PARENT
REMARK Flexibility Score: inf
ROOT
ATOM      1  C   UNL     1      28.861  34.052  23.344  1.00  0.00     0.000 C 
ENDROOT
BRANCH   1   2
ATOM      2  C   UNL     1      30.149  34.785  23.753  1.00  0.00     0.000 C 
BRANCH   2   3
ATOM      3  C   UNL     1      31.423  34.030  23.325  1.00  0.00     0.000 C 
BRANCH   3   4
ATOM      4  C   UNL     1      32.625  34.968  23.090  1.00  0.00     0.000 C 
BRANCH   4   5
ATOM      5  C   UNL     1      33.779  34.335  22.288  1.00  0.00     0.000 C 
BRANCH   5   6
ATOM      6  C   UNL     1      33.573  32.869  21.868  1.00  0.00     0.000 C 
BRANCH   6   7
ATOM      7  C   UNL     1      33.743  32.650  20.355  1.00  0.00     0.000 C 
BRANCH   7   8
ATOM      8  C   UNL     1      35.062  31.943  20.000  1.00  0.00     0.000 C 
BRANCH   8   9
ATOM      9  C   UNL     1      36.166  32.859  19.437  1.00  0.00     0.000 C 
BRANCH   9  10
ATOM     10  C   UNL     1      35.739  34.314  19.179  1.00  0.00     0.000 C 
BRANCH  10  11
ATOM     11  C   UNL     1      36.050  34.789  17.752  1.00  0.00     0.000 C 
BRANCH  11  12
ATOM     12  C   UNL     1      37.564  34.827  17.501  1.00  0.00     0.000 C 
BRANCH  12  13
ATOM     13  C   UNL     1      37.954  34.244  16.133  1.00  0.00     0.006 C 
BRANCH  13  14
ATOM     14  C   UNL     1      38.693  32.902  16.245  1.00  0.00     0.053 C 
BRANCH  14  15
ATOM     15  C   UNL     1      39.506  32.648  15.015  1.00  0.00     0.041 C 
ATOM     16  O   UNL     1      39.441  33.442  14.039  1.00  0.00    -0.550 OA
ATOM     17  O   UNL     1      40.304  31.516  14.928  1.00  0.00    -0.550 OA
ENDBRANCH  14  15
ENDBRANCH  13  14
ENDBRANCH  12  13
ENDBRANCH  11  12
ENDBRANCH  10  11
ENDBRANCH   9  10
ENDBRANCH   8   9
ENDBRANCH   7   8
ENDBRANCH   6   7
ENDBRANCH   5   6
ENDBRANCH   4   5
ENDBRANCH   3   4
ENDBRANCH   2   3
ENDBRANCH   1   2
BRANCH   1  18
ATOM     18  C   UNL     1      29.140  32.724  22.617  1.00  0.00     0.000 C 
BRANCH  18  19
ATOM     19  C   UNL     1      28.617  32.714  21.170  1.00  0.00     0.000 C 
BRANCH  19  20
ATOM     20  C   UNL     1      28.975  33.966  20.340  1.00  0.00     0.000 C 
BRANCH  20  21
ATOM     21  C   UNL     1      30.384  33.956  19.720  1.00  0.00     0.000 C 
BRANCH  21  22
ATOM     22  C   UNL     1      31.070  35.329  19.779  1.00  0.00     0.000 C 
BRANCH  22  23
ATOM     23  C   UNL     1      32.203  35.423  18.743  1.00  0.00     0.000 C 
BRANCH  23  24
ATOM     24  C   UNL     1      32.055  34.380  17.624  1.00  0.00    -0.000 C 
BRANCH  24  25
ATOM     25  C   UNL     1      32.495  34.924  16.253  1.00  0.00    -0.000 C 
BRANCH  25  26
ATOM     26  C   UNL     1      32.261  33.927  15.104  1.00  0.00    -0.000 C 
BRANCH  26  27
ATOM     27  C   UNL     1      33.107  34.180  13.840  1.00  0.00    -0.000 C 
BRANCH  27  28
ATOM     28  C   UNL     1      33.746  32.899  13.274  1.00  0.00    -0.000 C 
BRANCH  28  29
ATOM     29  C   UNL     1      35.251  32.797  13.572  1.00  0.00    -0.000 C 
BRANCH  29  30
ATOM     30  C   UNL     1      35.646  31.677  14.557  1.00  0.00    -0.000 C 
BRANCH  30  31
ATOM     31  C   UNL     1      35.180  31.889  16.008  1.00  0.00    -0.003 C 
ATOM     32  C   UNL     1      34.083  30.915  16.434  1.00  0.00     0.004 C 
ENDBRANCH  30  31
ENDBRANCH  29  30
ENDBRANCH  28  29
ENDBRANCH  27  28
ENDBRANCH  26  27
ENDBRANCH  25  26
ENDBRANCH  24  25
ENDBRANCH  23  24
ENDBRANCH  22  23
ENDBRANCH  21  22
ENDBRANCH  20  21
ENDBRANCH  19  20
ENDBRANCH  18  19
ENDBRANCH   1  18
TORSDOF 28
ENDMDL
MODEL 8
REMARK VINA RESULT:    -3.557      1.500      3.321
REMARK INTER + INTRA:         -14.844
REMARK INTER:                  -9.660
REMARK INTRA:                  -5.184
REMARK UNBOUND:                -5.464
REMARK SMILES CCCCCCCCCCCCCCCCCCCCCCCCCCCCCC(=O)[O-]
REMARK SMILES IDX 16 1 17 2 18 3 19 4 20 5 21 6 22 7 23 8 24 9 25 10 26 11
REMARK SMILES IDX 27 12 28 13 29 14 30 15 31 16 32 17 15 18 14 19 13 20 12 21
REMARK SMILES IDX 11 22 10 23 9 24 8 25 7 26 6 27 5 28 4 29 3 30 2 31 1 32
REMARK H PARENT
REMARK Flexibility Score: inf
ROOT
ATOM      1  C   UNL     1      36.767  32.321  20.294  1.00  0.00     0.000 C 
ENDROOT
BRANCH   1   2
ATOM      2  C   UNL     1      35.797  32.486  19.113  1.00  0.00     0.000 C 
BRANCH   2   3
ATOM      3  C   UNL     1      34.817  31.304  18.980  1.00  0.00     0.000 C 
BRANCH   3   4
ATOM      4  C   UNL     1      33.341  31.751  18.941  1.00  0.00     0.000 C 
BRANCH   4   5
ATOM      5  C   UNL     1      33.117  33.156  18.347  1.00  0.00     0.000 C 
BRANCH   5   6
ATOM      6  C   UNL     1      31.687  33.714  18.476  1.00  0.00     0.000 C 
BRANCH   6   7
ATOM      7  C   UNL     1      31.658  35.189  18.908  1.00  0.00     0.000 C 
BRANCH   7   8
ATOM      8  C   UNL     1      32.376  36.116  17.912  1.00  0.00     0.000 C 
BRANCH   8   9
ATOM      9  C   UNL     1      33.366  37.115  18.543  1.00  0.00     0.000 C 
BRANCH   9  10
ATOM     10  C   UNL     1      34.838  36.918  18.139  1.00  0.00     0.000 C 
BRANCH  10  11
ATOM     11  C   UNL     1      35.005  36.420  16.697  1.00  0.00     0.000 C 
BRANCH  11  12
ATOM     12  C   UNL     1      35.702  35.052  16.662  1.00  0.00     0.000 C 
BRANCH  12  13
ATOM     13  C   UNL     1      35.625  34.381  15.281  1.00  0.00     0.006 C 
BRANCH  13  14
ATOM     14  C   UNL     1      34.459  33.389  15.163  1.00  0.00     0.053 C 
BRANCH  14  15
ATOM     15  C   UNL     1      34.974  31.991  15.026  1.00  0.00     0.041 C 
ATOM     16  O   UNL     1      34.358  31.035  15.570  1.00  0.00    -0.550 OA
ATOM     17  O   UNL     1      36.151  31.746  14.334  1.00  0.00    -0.550 OA
ENDBRANCH  14  15
ENDBRANCH  13  14
ENDBRANCH  12  13
ENDBRANCH  11  12
ENDBRANCH  10  11
ENDBRANCH   9  10
ENDBRANCH   8   9
ENDBRANCH   7   8
ENDBRANCH   6   7
ENDBRANCH   5   6
ENDBRANCH   4   5
ENDBRANCH   3   4
ENDBRANCH   2   3
ENDBRANCH   1   2
BRANCH   1  18
ATOM     18  C   UNL     1      36.527  33.358  21.408  1.00  0.00     0.000 C 
BRANCH  18  19
ATOM     19  C   UNL     1      35.756  34.595  20.916  1.00  0.00     0.000 C 
BRANCH  19  20
ATOM     20  C   UNL     1      34.337  34.754  21.502  1.00  0.00     0.000 C 
BRANCH  20  21
ATOM     21  C   UNL     1      33.743  33.479  22.129  1.00  0.00     0.000 C 
BRANCH  21  22
ATOM     22  C   UNL     1      32.208  33.473  22.123  1.00  0.00     0.000 C 
BRANCH  22  23
ATOM     23  C   UNL     1      31.650  34.075  23.423  1.00  0.00     0.000 C 
BRANCH  23  24
ATOM     24  C   UNL     1      30.703  35.256  23.158  1.00  0.00    -0.000 C 
BRANCH  24  25
ATOM     25  C   UNL     1      29.458  35.224  24.062  1.00  0.00    -0.000 C 
BRANCH  25  26
ATOM     26  C   UNL     1      28.203  34.697  23.343  1.00  0.00    -0.000 C 
BRANCH  26  27
ATOM     27  C   UNL     1      28.290  33.233  22.869  1.00  0.00    -0.000 C 
BRANCH  27  28
ATOM     28  C   UNL     1      28.300  33.093  21.336  1.00  0.00    -0.000 C 
BRANCH  28  29
ATOM     29  C   UNL     1      28.022  34.420  20.611  1.00  0.00    -0.000 C 
BRANCH  29  30
ATOM     30  C   UNL     1      26.569  34.605  20.124  1.00  0.00    -0.000 C 
BRANCH  30  31
ATOM     31  C   UNL     1      25.982  33.410  19.353  1.00  0.00    -0.003 C 
ATOM     32  C   UNL     1      24.876  32.686  20.120  1.00  0.00     0.004 C 
ENDBRANCH  30  31
ENDBRANCH  29  30
ENDBRANCH  28  29
ENDBRANCH  27  28
ENDBRANCH  26  27
ENDBRANCH  25  26
ENDBRANCH  24  25
ENDBRANCH  23  24
ENDBRANCH  22  23
ENDBRANCH  21  22
ENDBRANCH  20  21
ENDBRANCH  19  20
ENDBRANCH  18  19
ENDBRANCH   1  18
TORSDOF 28
ENDMDL
MODEL 9
REMARK VINA RESULT:    -3.544      2.819      5.886
REMARK INTER + INTRA:         -14.809
REMARK INTER:                  -9.005
REMARK INTRA:                  -5.804
REMARK UNBOUND:                -5.464
REMARK SMILES CCCCCCCCCCCCCCCCCCCCCCCCCCCCCC(=O)[O-]
REMARK SMILES IDX 16 1 17 2 18 3 19 4 20 5 21 6 22 7 23 8 24 9 25 10 26 11
REMARK SMILES IDX 27 12 28 13 29 14 30 15 31 16 32 17 15 18 14 19 13 20 12 21
REMARK SMILES IDX 11 22 10 23 9 24 8 25 7 26 6 27 5 28 4 29 3 30 2 31 1 32
REMARK H PARENT
REMARK Flexibility Score: inf
ROOT
ATOM      1  C   UNL     1      30.091  32.594  23.137  1.00  0.00     0.000 C 
ENDROOT
BRANCH   1   2
ATOM      2  C   UNL     1      31.057  33.357  22.217  1.00  0.00     0.000 C 
BRANCH   2   3
ATOM      3  C   UNL     1      32.537  33.097  22.563  1.00  0.00     0.000 C 
BRANCH   3   4
ATOM      4  C   UNL     1      33.400  34.374  22.498  1.00  0.00     0.000 C 
BRANCH   4   5
ATOM      5  C   UNL     1      32.611  35.686  22.675  1.00  0.00     0.000 C 
BRANCH   5   6
ATOM      6  C   UNL     1      32.499  36.571  21.420  1.00  0.00     0.000 C 
BRANCH   6   7
ATOM      7  C   UNL     1      33.439  36.124  20.288  1.00  0.00     0.000 C 
BRANCH   7   8
ATOM      8  C   UNL     1      32.698  35.862  18.966  1.00  0.00     0.000 C 
BRANCH   8   9
ATOM      9  C   UNL     1      31.439  34.981  19.084  1.00  0.00     0.000 C 
BRANCH   9  10
ATOM     10  C   UNL     1      31.541  33.603  18.407  1.00  0.00     0.000 C 
BRANCH  10  11
ATOM     11  C   UNL     1      32.987  33.112  18.257  1.00  0.00     0.000 C 
BRANCH  11  12
ATOM     12  C   UNL     1      33.240  31.865  19.116  1.00  0.00     0.000 C 
BRANCH  12  13
ATOM     13  C   UNL     1      34.644  31.849  19.742  1.00  0.00     0.006 C 
BRANCH  13  14
ATOM     14  C   UNL     1      35.473  33.089  19.378  1.00  0.00     0.053 C 
BRANCH  14  15
ATOM     15  C   UNL     1      36.929  32.833  19.613  1.00  0.00     0.041 C 
ATOM     16  O   UNL     1      37.734  32.832  18.644  1.00  0.00    -0.550 OA
ATOM     17  O   UNL     1      37.390  32.556  20.892  1.00  0.00    -0.550 OA
ENDBRANCH  14  15
ENDBRANCH  13  14
ENDBRANCH  12  13
ENDBRANCH  11  12
ENDBRANCH  10  11
ENDBRANCH   9  10
ENDBRANCH   8   9
ENDBRANCH   7   8
ENDBRANCH   6   7
ENDBRANCH   5   6
ENDBRANCH   4   5
ENDBRANCH   3   4
ENDBRANCH   2   3
ENDBRANCH   1   2
BRANCH   1  18
ATOM     18  C   UNL     1      28.647  32.581  22.602  1.00  0.00     0.000 C 
BRANCH  18  19
ATOM     19  C   UNL     1      28.551  33.027  21.133  1.00  0.00     0.000 C 
BRANCH  19  20
ATOM     20  C   UNL     1      27.201  33.658  20.731  1.00  0.00     0.000 C 
BRANCH  20  21
ATOM     21  C   UNL     1      27.278  35.127  20.275  1.00  0.00     0.000 C 
BRANCH  21  22
ATOM     22  C   UNL     1      28.428  35.898  20.938  1.00  0.00     0.000 C 
BRANCH  22  23
ATOM     23  C   UNL     1      27.917  37.193  21.592  1.00  0.00     0.000 C 
BRANCH  23  24
ATOM     24  C   UNL     1      28.512  37.412  22.992  1.00  0.00    -0.000 C 
BRANCH  24  25
ATOM     25  C   UNL     1      29.137  36.131  23.570  1.00  0.00    -0.000 C 
BRANCH  25  26
ATOM     26  C   UNL     1      28.289  35.497  24.689  1.00  0.00    -0.000 C 
BRANCH  26  27
ATOM     27  C   UNL     1      27.223  36.426  25.302  1.00  0.00    -0.000 C 
BRANCH  27  28
ATOM     28  C   UNL     1      27.416  36.656  26.811  1.00  0.00    -0.000 C 
BRANCH  28  29
ATOM     29  C   UNL     1      28.766  36.133  27.330  1.00  0.00    -0.000 C 
BRANCH  29  30
ATOM     30  C   UNL     1      29.731  37.220  27.847  1.00  0.00    -0.000 C 
BRANCH  30  31
ATOM     31  C   UNL     1      30.735  37.751  26.809  1.00  0.00    -0.003 C 
ATOM     32  C   UNL     1      31.573  36.648  26.167  1.00  0.00     0.004 C 
ENDBRANCH  30  31
ENDBRANCH  29  30
ENDBRANCH  28  29
ENDBRANCH  27  28
ENDBRANCH  26  27
ENDBRANCH  25  26
ENDBRANCH  24  25
ENDBRANCH  23  24
ENDBRANCH  22  23
ENDBRANCH  21  22
ENDBRANCH  20  21
ENDBRANCH  19  20
ENDBRANCH  18  19
ENDBRANCH   1  18
TORSDOF 28
ENDMDL
