MODEL 1
REMARK VINA RESULT:    -7.772      0.000      0.000
REMARK INTER + INTRA:          -9.885
REMARK INTER:                  -9.589
REMARK INTRA:                  -0.296
REMARK UNBOUND:                -0.296
REMARK SMILES Oc1cc(O)c2cc(O)c(-c3cc(O)c(O)c(O)c3)[o+]c2c1
REMARK SMILES IDX 10 1 20 2 21 3 22 4 2 5 3 6 4 7 6 8 7 9 8 10 11 11 12 12
REMARK SMILES IDX 13 13 19 14 15 15 17 16 14 17 16 19 18 21 9 23 1 25 5 27
REMARK H PARENT 14 18 16 20 18 22 9 24 1 26 5 28
REMARK Flexibility Score: inf
ROOT
ATOM      1  C   UNL     1     -17.721  13.465   0.144  1.00  0.00     0.402 A 
ATOM      2  O   UNL     1     -16.528  14.014   0.359  1.00  0.00    -0.202 OA
ATOM      3  C   UNL     1     -15.545  13.996  -0.536  1.00  0.00     0.368 A 
ATOM      4  C   UNL     1     -14.327  14.603  -0.220  1.00  0.00     0.162 A 
ATOM      5  C   UNL     1     -13.278  14.604  -1.140  1.00  0.00     0.128 A 
ATOM      6  C   UNL     1     -13.448  13.994  -2.388  1.00  0.00     0.093 A 
ATOM      7  C   UNL     1     -14.659  13.380  -2.731  1.00  0.00     0.136 A 
ATOM      8  C   UNL     1     -15.726  13.375  -1.796  1.00  0.00     0.125 A 
ATOM      9  C   UNL     1     -16.970  12.772  -2.046  1.00  0.00     0.078 A 
ATOM     10  C   UNL     1     -17.973  12.804  -1.073  1.00  0.00     0.223 A 
ENDROOT
BRANCH   1  11
ATOM     11  C   UNL     1     -18.738  13.557   1.215  1.00  0.00     0.091 A 
ATOM     12  C   UNL     1     -18.522  12.889   2.431  1.00  0.00     0.068 A 
ATOM     13  C   UNL     1     -19.455  12.975   3.469  1.00  0.00     0.162 A 
ATOM     14  C   UNL     1     -19.890  14.346   1.065  1.00  0.00     0.068 A 
ATOM     15  C   UNL     1     -20.618  13.749   3.306  1.00  0.00     0.200 A 
ATOM     16  C   UNL     1     -20.831  14.440   2.101  1.00  0.00     0.162 A 
BRANCH  13  17
ATOM     17  O   UNL     1     -19.210  12.284   4.656  1.00  0.00    -0.504 OA
ATOM     18  H   UNL     1     -19.909  12.201   5.384  1.00  0.00     0.293 HD
ENDBRANCH  13  17
BRANCH  15  19
ATOM     19  O   UNL     1     -21.546  13.826   4.345  1.00  0.00    -0.502 OA
ATOM     20  H   UNL     1     -21.821  13.014   4.885  1.00  0.00     0.293 HD
ENDBRANCH  15  19
BRANCH  16  21
ATOM     21  O   UNL     1     -21.974  15.221   1.938  1.00  0.00    -0.504 OA
ATOM     22  H   UNL     1     -22.845  14.992   2.401  1.00  0.00     0.293 HD
ENDBRANCH  16  21
ENDBRANCH   1  11
BRANCH  10  23
ATOM     23  O   UNL     1     -19.191  12.162  -1.303  1.00  0.00    -0.500 OA
ATOM     24  H   UNL     1     -19.694  12.270  -2.174  1.00  0.00     0.294 HD
ENDBRANCH  10  23
BRANCH   5  25
ATOM     25  O   UNL     1     -12.072  15.214  -0.806  1.00  0.00    -0.507 OA
ATOM     26  H   UNL     1     -12.042  16.052  -0.236  1.00  0.00     0.293 HD
ENDBRANCH   5  25
BRANCH   7  27
ATOM     27  O   UNL     1     -14.749  12.797  -3.998  1.00  0.00    -0.507 OA
ATOM     28  H   UNL     1     -15.522  12.226  -4.310  1.00  0.00     0.293 HD
ENDBRANCH   7  27
TORSDOF 7
ENDMDL
MODEL 2
REMARK VINA RESULT:    -7.689      1.148      7.086
REMARK INTER + INTRA:          -9.783
REMARK INTER:                  -9.525
REMARK INTRA:                  -0.258
REMARK UNBOUND:                -0.296
REMARK SMILES Oc1cc(O)c2cc(O)c(-c3cc(O)c(O)c(O)c3)[o+]c2c1
REMARK SMILES IDX 10 1 20 2 21 3 22 4 2 5 3 6 4 7 6 8 7 9 8 10 11 11 12 12
REMARK SMILES IDX 13 13 19 14 15 15 17 16 14 17 16 19 18 21 9 23 1 25 5 27
REMARK H PARENT 14 18 16 20 18 22 9 24 1 26 5 28
REMARK Flexibility Score: inf
ROOT
ATOM      1  C   UNL     1     -17.308  13.965  -0.223  1.00  0.00     0.402 A 
ATOM      2  O   UNL     1     -17.441  13.480   1.008  1.00  0.00    -0.202 OA
ATOM      3  C   UNL     1     -18.576  13.536   1.696  1.00  0.00     0.368 A 
ATOM      4  C   UNL     1     -18.619  12.996   2.984  1.00  0.00     0.162 A 
ATOM      5  C   UNL     1     -19.798  13.037   3.729  1.00  0.00     0.128 A 
ATOM      6  C   UNL     1     -20.945  13.623   3.183  1.00  0.00     0.093 A 
ATOM      7  C   UNL     1     -20.930  14.171   1.894  1.00  0.00     0.136 A 
ATOM      8  C   UNL     1     -19.732  14.133   1.135  1.00  0.00     0.125 A 
ATOM      9  C   UNL     1     -19.619  14.669  -0.158  1.00  0.00     0.078 A 
ATOM     10  C   UNL     1     -18.402  14.598  -0.843  1.00  0.00     0.223 A 
ENDROOT
BRANCH   1  11
ATOM     11  C   UNL     1     -15.993  13.834  -0.890  1.00  0.00     0.091 A 
ATOM     12  C   UNL     1     -15.873  13.015  -2.024  1.00  0.00     0.068 A 
ATOM     13  C   UNL     1     -14.648  12.887  -2.688  1.00  0.00     0.162 A 
ATOM     14  C   UNL     1     -14.872  14.555  -0.447  1.00  0.00     0.068 A 
ATOM     15  C   UNL     1     -13.524  13.594  -2.228  1.00  0.00     0.200 A 
ATOM     16  C   UNL     1     -13.640  14.434  -1.107  1.00  0.00     0.162 A 
BRANCH  13  17
ATOM     17  O   UNL     1     -14.568  12.052  -3.802  1.00  0.00    -0.504 OA
ATOM     18  H   UNL     1     -14.617  11.044  -3.723  1.00  0.00     0.293 HD
ENDBRANCH  13  17
BRANCH  15  19
ATOM     19  O   UNL     1     -12.305  13.459  -2.893  1.00  0.00    -0.502 OA
ATOM     20  H   UNL     1     -12.240  13.447  -3.904  1.00  0.00     0.293 HD
ENDBRANCH  15  19
BRANCH  16  21
ATOM     21  O   UNL     1     -12.533  15.151  -0.655  1.00  0.00    -0.504 OA
ATOM     22  H   UNL     1     -11.804  14.712  -0.105  1.00  0.00     0.293 HD
ENDBRANCH  16  21
ENDBRANCH   1  11
BRANCH  10  23
ATOM     23  O   UNL     1     -18.276  15.175  -2.107  1.00  0.00    -0.500 OA
ATOM     24  H   UNL     1     -17.500  15.781  -2.342  1.00  0.00     0.294 HD
ENDBRANCH  10  23
BRANCH   5  25
ATOM     25  O   UNL     1     -19.820  12.494   5.010  1.00  0.00    -0.507 OA
ATOM     26  H   UNL     1     -19.871  13.081   5.835  1.00  0.00     0.293 HD
ENDBRANCH   5  25
BRANCH   7  27
ATOM     27  O   UNL     1     -22.118  14.735   1.419  1.00  0.00    -0.507 OA
ATOM     28  H   UNL     1     -22.633  14.393   0.621  1.00  0.00     0.293 HD
ENDBRANCH   7  27
TORSDOF 7
ENDMDL
MODEL 3
REMARK VINA RESULT:    -7.647      0.133      1.795
REMARK INTER + INTRA:          -9.731
REMARK INTER:                  -9.521
REMARK INTRA:                  -0.209
REMARK UNBOUND:                -0.296
REMARK SMILES Oc1cc(O)c2cc(O)c(-c3cc(O)c(O)c(O)c3)[o+]c2c1
REMARK SMILES IDX 10 1 20 2 21 3 22 4 2 5 3 6 4 7 6 8 7 9 8 10 11 11 12 12
REMARK SMILES IDX 13 13 19 14 15 15 17 16 14 17 16 19 18 21 9 23 1 25 5 27
REMARK H PARENT 14 18 16 20 18 22 9 24 1 26 5 28
REMARK Flexibility Score: inf
ROOT
ATOM      1  C   UNL     1     -17.659  13.420   0.139  1.00  0.00     0.402 A 
ATOM      2  O   UNL     1     -16.471  13.987   0.333  1.00  0.00    -0.202 OA
ATOM      3  C   UNL     1     -15.496  13.965  -0.570  1.00  0.00     0.368 A 
ATOM      4  C   UNL     1     -14.283  14.592  -0.276  1.00  0.00     0.162 A 
ATOM      5  C   UNL     1     -13.242  14.589  -1.206  1.00  0.00     0.128 A 
ATOM      6  C   UNL     1     -13.415  13.954  -2.441  1.00  0.00     0.093 A 
ATOM      7  C   UNL     1     -14.621  13.319  -2.761  1.00  0.00     0.136 A 
ATOM      8  C   UNL     1     -15.681  13.318  -1.816  1.00  0.00     0.125 A 
ATOM      9  C   UNL     1     -16.919  12.696  -2.044  1.00  0.00     0.078 A 
ATOM     10  C   UNL     1     -17.914  12.734  -1.063  1.00  0.00     0.223 A 
ENDROOT
BRANCH   1  11
ATOM     11  C   UNL     1     -18.667  13.520   1.218  1.00  0.00     0.091 A 
ATOM     12  C   UNL     1     -19.880  14.182   0.970  1.00  0.00     0.068 A 
ATOM     13  C   UNL     1     -20.861  14.274   1.963  1.00  0.00     0.162 A 
ATOM     14  C   UNL     1     -18.462  12.918   2.471  1.00  0.00     0.068 A 
ATOM     15  C   UNL     1     -20.641  13.688   3.222  1.00  0.00     0.200 A 
ATOM     16  C   UNL     1     -19.440  13.004   3.472  1.00  0.00     0.162 A 
BRANCH  13  17
ATOM     17  O   UNL     1     -22.045  14.953   1.680  1.00  0.00    -0.504 OA
ATOM     18  H   UNL     1     -22.850  14.909   2.294  1.00  0.00     0.293 HD
ENDBRANCH  13  17
BRANCH  15  19
ATOM     19  O   UNL     1     -21.623  13.788   4.209  1.00  0.00    -0.502 OA
ATOM     20  H   UNL     1     -22.078  14.666   4.430  1.00  0.00     0.293 HD
ENDBRANCH  15  19
BRANCH  16  21
ATOM     21  O   UNL     1     -19.222  12.407   4.713  1.00  0.00    -0.504 OA
ATOM     22  H   UNL     1     -19.524  11.460   4.908  1.00  0.00     0.293 HD
ENDBRANCH  16  21
ENDBRANCH   1  11
BRANCH  10  23
ATOM     23  O   UNL     1     -19.125  12.073  -1.269  1.00  0.00    -0.500 OA
ATOM     24  H   UNL     1     -20.015  12.533  -1.124  1.00  0.00     0.294 HD
ENDBRANCH  10  23
BRANCH   5  25
ATOM     25  O   UNL     1     -12.041  15.219  -0.893  1.00  0.00    -0.507 OA
ATOM     26  H   UNL     1     -12.015  16.063  -0.332  1.00  0.00     0.293 HD
ENDBRANCH   5  25
BRANCH   7  27
ATOM     27  O   UNL     1     -14.716  12.711  -4.016  1.00  0.00    -0.507 OA
ATOM     28  H   UNL     1     -15.060  13.169  -4.848  1.00  0.00     0.293 HD
ENDBRANCH   7  27
TORSDOF 7
ENDMDL
MODEL 4
REMARK VINA RESULT:    -7.617      1.297      7.210
REMARK INTER + INTRA:          -9.695
REMARK INTER:                  -9.318
REMARK INTRA:                  -0.377
REMARK UNBOUND:                -0.296
REMARK SMILES Oc1cc(O)c2cc(O)c(-c3cc(O)c(O)c(O)c3)[o+]c2c1
REMARK SMILES IDX 10 1 20 2 21 3 22 4 2 5 3 6 4 7 6 8 7 9 8 10 11 11 12 12
REMARK SMILES IDX 13 13 19 14 15 15 17 16 14 17 16 19 18 21 9 23 1 25 5 27
REMARK H PARENT 14 18 16 20 18 22 9 24 1 26 5 28
REMARK Flexibility Score: inf
ROOT
ATOM      1  C   UNL     1     -16.980  13.365   1.038  1.00  0.00     0.402 A 
ATOM      2  O   UNL     1     -18.029  14.181   0.965  1.00  0.00    -0.202 OA
ATOM      3  C   UNL     1     -18.991  14.215   1.880  1.00  0.00     0.368 A 
ATOM      4  C   UNL     1     -20.052  15.110   1.718  1.00  0.00     0.162 A 
ATOM      5  C   UNL     1     -21.076  15.172   2.664  1.00  0.00     0.128 A 
ATOM      6  C   UNL     1     -21.040  14.332   3.783  1.00  0.00     0.093 A 
ATOM      7  C   UNL     1     -19.988  13.427   3.970  1.00  0.00     0.136 A 
ATOM      8  C   UNL     1     -18.947  13.360   3.008  1.00  0.00     0.125 A 
ATOM      9  C   UNL     1     -17.861  12.475   3.105  1.00  0.00     0.078 A 
ATOM     10  C   UNL     1     -16.874  12.464   2.115  1.00  0.00     0.223 A 
ENDROOT
BRANCH   1  11
ATOM     11  C   UNL     1     -15.968  13.426  -0.040  1.00  0.00     0.091 A 
ATOM     12  C   UNL     1     -14.820  14.216   0.135  1.00  0.00     0.068 A 
ATOM     13  C   UNL     1     -13.836  14.277  -0.857  1.00  0.00     0.162 A 
ATOM     14  C   UNL     1     -16.102  12.668  -1.215  1.00  0.00     0.068 A 
ATOM     15  C   UNL     1     -13.985  13.532  -2.040  1.00  0.00     0.200 A 
ATOM     16  C   UNL     1     -15.120  12.722  -2.214  1.00  0.00     0.162 A 
BRANCH  13  17
ATOM     17  O   UNL     1     -12.719  15.085  -0.650  1.00  0.00    -0.504 OA
ATOM     18  H   UNL     1     -11.916  15.061  -1.266  1.00  0.00     0.293 HD
ENDBRANCH  13  17
BRANCH  15  19
ATOM     19  O   UNL     1     -13.001  13.602  -3.027  1.00  0.00    -0.502 OA
ATOM     20  H   UNL     1     -12.089  14.006  -2.851  1.00  0.00     0.293 HD
ENDBRANCH  15  19
BRANCH  16  21
ATOM     21  O   UNL     1     -15.266  11.968  -3.378  1.00  0.00    -0.504 OA
ATOM     22  H   UNL     1     -15.198  10.957  -3.369  1.00  0.00     0.293 HD
ENDBRANCH  16  21
ENDBRANCH   1  11
BRANCH  10  23
ATOM     23  O   UNL     1     -15.822  11.551   2.185  1.00  0.00    -0.500 OA
ATOM     24  H   UNL     1     -14.899  11.772   1.832  1.00  0.00     0.294 HD
ENDBRANCH  10  23
BRANCH   5  25
ATOM     25  O   UNL     1     -22.124  16.070   2.484  1.00  0.00    -0.507 OA
ATOM     26  H   UNL     1     -22.834  16.205   3.195  1.00  0.00     0.293 HD
ENDBRANCH   5  25
BRANCH   7  27
ATOM     27  O   UNL     1     -20.023  12.626   5.116  1.00  0.00    -0.507 OA
ATOM     28  H   UNL     1     -20.087  11.618   5.106  1.00  0.00     0.293 HD
ENDBRANCH   7  27
TORSDOF 7
ENDMDL
MODEL 5
REMARK VINA RESULT:    -7.436      1.134      2.511
REMARK INTER + INTRA:          -9.471
REMARK INTER:                  -9.102
REMARK INTRA:                  -0.368
REMARK UNBOUND:                -0.296
REMARK SMILES Oc1cc(O)c2cc(O)c(-c3cc(O)c(O)c(O)c3)[o+]c2c1
REMARK SMILES IDX 10 1 20 2 21 3 22 4 2 5 3 6 4 7 6 8 7 9 8 10 11 11 12 12
REMARK SMILES IDX 13 13 19 14 15 15 17 16 14 17 16 19 18 21 9 23 1 25 5 27
REMARK H PARENT 14 18 16 20 18 22 9 24 1 26 5 28
REMARK Flexibility Score: inf
ROOT
ATOM      1  C   UNL     1     -17.380  14.008   0.245  1.00  0.00     0.402 A 
ATOM      2  O   UNL     1     -17.235  13.115  -0.731  1.00  0.00    -0.202 OA
ATOM      3  C   UNL     1     -16.237  13.149  -1.608  1.00  0.00     0.368 A 
ATOM      4  C   UNL     1     -16.167  12.164  -2.597  1.00  0.00     0.162 A 
ATOM      5  C   UNL     1     -15.128  12.171  -3.529  1.00  0.00     0.128 A 
ATOM      6  C   UNL     1     -14.150  13.170  -3.472  1.00  0.00     0.093 A 
ATOM      7  C   UNL     1     -14.196  14.168  -2.490  1.00  0.00     0.136 A 
ATOM      8  C   UNL     1     -15.252  14.165  -1.543  1.00  0.00     0.125 A 
ATOM      9  C   UNL     1     -15.388  15.132  -0.533  1.00  0.00     0.078 A 
ATOM     10  C   UNL     1     -16.459  15.065   0.363  1.00  0.00     0.223 A 
ENDROOT
BRANCH   1  11
ATOM     11  C   UNL     1     -18.530  13.858   1.165  1.00  0.00     0.091 A 
ATOM     12  C   UNL     1     -18.341  13.241   2.412  1.00  0.00     0.068 A 
ATOM     13  C   UNL     1     -19.404  13.105   3.311  1.00  0.00     0.162 A 
ATOM     14  C   UNL     1     -19.798  14.371   0.843  1.00  0.00     0.068 A 
ATOM     15  C   UNL     1     -20.675  13.601   2.974  1.00  0.00     0.200 A 
ATOM     16  C   UNL     1     -20.869  14.240   1.738  1.00  0.00     0.162 A 
BRANCH  13  17
ATOM     17  O   UNL     1     -19.176  12.473   4.533  1.00  0.00    -0.504 OA
ATOM     18  H   UNL     1     -18.777  12.961   5.325  1.00  0.00     0.293 HD
ENDBRANCH  13  17
BRANCH  15  19
ATOM     19  O   UNL     1     -21.731  13.457   3.875  1.00  0.00    -0.502 OA
ATOM     20  H   UNL     1     -22.514  14.100   3.896  1.00  0.00     0.293 HD
ENDBRANCH  15  19
BRANCH  16  21
ATOM     21  O   UNL     1     -22.124  14.748   1.405  1.00  0.00    -0.504 OA
ATOM     22  H   UNL     1     -22.465  14.737   0.451  1.00  0.00     0.293 HD
ENDBRANCH  16  21
ENDBRANCH   1  11
BRANCH  10  23
ATOM     23  O   UNL     1     -16.621  16.054   1.334  1.00  0.00    -0.500 OA
ATOM     24  H   UNL     1     -15.828  16.491   1.786  1.00  0.00     0.294 HD
ENDBRANCH  10  23
BRANCH   5  25
ATOM     25  O   UNL     1     -15.077  11.182  -4.507  1.00  0.00    -0.507 OA
ATOM     26  H   UNL     1     -15.218  11.397  -5.487  1.00  0.00     0.293 HD
ENDBRANCH   5  25
BRANCH   7  27
ATOM     27  O   UNL     1     -13.180  15.128  -2.499  1.00  0.00    -0.507 OA
ATOM     28  H   UNL     1     -13.227  16.005  -2.996  1.00  0.00     0.293 HD
ENDBRANCH   7  27
TORSDOF 7
ENDMDL
MODEL 6
REMARK VINA RESULT:    -7.110      2.964      3.872
REMARK INTER + INTRA:          -9.068
REMARK INTER:                  -9.071
REMARK INTRA:                   0.003
REMARK UNBOUND:                -0.296
REMARK SMILES Oc1cc(O)c2cc(O)c(-c3cc(O)c(O)c(O)c3)[o+]c2c1
REMARK SMILES IDX 10 1 20 2 21 3 22 4 2 5 3 6 4 7 6 8 7 9 8 10 11 11 12 12
REMARK SMILES IDX 13 13 19 14 15 15 17 16 14 17 16 19 18 21 9 23 1 25 5 27
REMARK H PARENT 14 18 16 20 18 22 9 24 1 26 5 28
REMARK Flexibility Score: inf
ROOT
ATOM      1  C   UNL     1     -18.534  12.647   0.079  1.00  0.00     0.402 A 
ATOM      2  O   UNL     1     -18.982  13.551  -0.788  1.00  0.00    -0.202 OA
ATOM      3  C   UNL     1     -18.786  13.464  -2.099  1.00  0.00     0.368 A 
ATOM      4  C   UNL     1     -19.298  14.463  -2.932  1.00  0.00     0.162 A 
ATOM      5  C   UNL     1     -19.111  14.396  -4.313  1.00  0.00     0.128 A 
ATOM      6  C   UNL     1     -18.407  13.322  -4.869  1.00  0.00     0.093 A 
ATOM      7  C   UNL     1     -17.884  12.307  -4.057  1.00  0.00     0.136 A 
ATOM      8  C   UNL     1     -18.070  12.373  -2.652  1.00  0.00     0.125 A 
ATOM      9  C   UNL     1     -17.571  11.411  -1.760  1.00  0.00     0.078 A 
ATOM     10  C   UNL     1     -17.791  11.546  -0.386  1.00  0.00     0.223 A 
ENDROOT
BRANCH   1  11
ATOM     11  C   UNL     1     -18.825  12.851   1.516  1.00  0.00     0.091 A 
ATOM     12  C   UNL     1     -20.137  13.144   1.920  1.00  0.00     0.068 A 
ATOM     13  C   UNL     1     -20.446  13.320   3.273  1.00  0.00     0.162 A 
ATOM     14  C   UNL     1     -17.827  12.702   2.494  1.00  0.00     0.068 A 
ATOM     15  C   UNL     1     -19.439  13.192   4.245  1.00  0.00     0.200 A 
ATOM     16  C   UNL     1     -18.127  12.876   3.852  1.00  0.00     0.162 A 
BRANCH  13  17
ATOM     17  O   UNL     1     -21.759  13.625   3.631  1.00  0.00    -0.504 OA
ATOM     18  H   UNL     1     -22.169  14.533   3.452  1.00  0.00     0.293 HD
ENDBRANCH  13  17
BRANCH  15  19
ATOM     19  O   UNL     1     -19.754  13.374   5.592  1.00  0.00    -0.502 OA
ATOM     20  H   UNL     1     -19.338  12.811   6.325  1.00  0.00     0.293 HD
ENDBRANCH  15  19
BRANCH  16  21
ATOM     21  O   UNL     1     -17.127  12.732   4.812  1.00  0.00    -0.504 OA
ATOM     22  H   UNL     1     -16.927  11.836   5.241  1.00  0.00     0.293 HD
ENDBRANCH  16  21
ENDBRANCH   1  11
BRANCH  10  23
ATOM     23  O   UNL     1     -17.252  10.616   0.504  1.00  0.00    -0.500 OA
ATOM     24  H   UNL     1     -17.833  10.103   1.155  1.00  0.00     0.294 HD
ENDBRANCH  10  23
BRANCH   5  25
ATOM     25  O   UNL     1     -19.629  15.401  -5.125  1.00  0.00    -0.507 OA
ATOM     26  H   UNL     1     -20.512  15.289  -5.610  1.00  0.00     0.293 HD
ENDBRANCH   5  25
BRANCH   7  27
ATOM     27  O   UNL     1     -17.197  11.267  -4.689  1.00  0.00    -0.507 OA
ATOM     28  H   UNL     1     -16.334  10.865  -4.351  1.00  0.00     0.293 HD
ENDBRANCH   7  27
TORSDOF 7
ENDMDL
MODEL 7
REMARK VINA RESULT:    -7.106      1.337      3.470
REMARK INTER + INTRA:          -9.064
REMARK INTER:                  -8.697
REMARK INTRA:                  -0.367
REMARK UNBOUND:                -0.296
REMARK SMILES Oc1cc(O)c2cc(O)c(-c3cc(O)c(O)c(O)c3)[o+]c2c1
REMARK SMILES IDX 10 1 20 2 21 3 22 4 2 5 3 6 4 7 6 8 7 9 8 10 11 11 12 12
REMARK SMILES IDX 13 13 19 14 15 15 17 16 14 17 16 19 18 21 9 23 1 25 5 27
REMARK H PARENT 14 18 16 20 18 22 9 24 1 26 5 28
REMARK Flexibility Score: inf
ROOT
ATOM      1  C   UNL     1     -17.844  13.363   0.026  1.00  0.00     0.402 A 
ATOM      2  O   UNL     1     -18.112  12.461  -0.915  1.00  0.00    -0.202 OA
ATOM      3  C   UNL     1     -17.318  12.235  -1.956  1.00  0.00     0.368 A 
ATOM      4  C   UNL     1     -17.683  11.263  -2.891  1.00  0.00     0.162 A 
ATOM      5  C   UNL     1     -16.867  11.002  -3.993  1.00  0.00     0.128 A 
ATOM      6  C   UNL     1     -15.677  11.717  -4.163  1.00  0.00     0.093 A 
ATOM      7  C   UNL     1     -15.287  12.697  -3.240  1.00  0.00     0.136 A 
ATOM      8  C   UNL     1     -16.116  12.966  -2.120  1.00  0.00     0.125 A 
ATOM      9  C   UNL     1     -15.814  13.938  -1.152  1.00  0.00     0.078 A 
ATOM     10  C   UNL     1     -16.682  14.150  -0.077  1.00  0.00     0.223 A 
ENDROOT
BRANCH   1  11
ATOM     11  C   UNL     1     -18.803  13.516   1.143  1.00  0.00     0.091 A 
ATOM     12  C   UNL     1     -20.006  14.206   0.931  1.00  0.00     0.068 A 
ATOM     13  C   UNL     1     -20.940  14.348   1.963  1.00  0.00     0.162 A 
ATOM     14  C   UNL     1     -18.561  12.936   2.400  1.00  0.00     0.068 A 
ATOM     15  C   UNL     1     -20.684  13.784   3.224  1.00  0.00     0.200 A 
ATOM     16  C   UNL     1     -19.492  13.072   3.439  1.00  0.00     0.162 A 
BRANCH  13  17
ATOM     17  O   UNL     1     -22.117  15.054   1.715  1.00  0.00    -0.504 OA
ATOM     18  H   UNL     1     -22.112  15.993   1.335  1.00  0.00     0.293 HD
ENDBRANCH  13  17
BRANCH  15  19
ATOM     19  O   UNL     1     -21.619  13.934   4.249  1.00  0.00    -0.502 OA
ATOM     20  H   UNL     1     -21.442  13.611   5.193  1.00  0.00     0.293 HD
ENDBRANCH  15  19
BRANCH  16  21
ATOM     21  O   UNL     1     -19.238  12.496   4.684  1.00  0.00    -0.504 OA
ATOM     22  H   UNL     1     -19.130  11.495   4.794  1.00  0.00     0.293 HD
ENDBRANCH  16  21
ENDBRANCH   1  11
BRANCH  10  23
ATOM     23  O   UNL     1     -16.407  15.150   0.857  1.00  0.00    -0.500 OA
ATOM     24  H   UNL     1     -16.550  16.130   0.647  1.00  0.00     0.294 HD
ENDBRANCH  10  23
BRANCH   5  25
ATOM     25  O   UNL     1     -17.249  10.030  -4.914  1.00  0.00    -0.507 OA
ATOM     26  H   UNL     1     -16.737   9.160  -5.009  1.00  0.00     0.293 HD
ENDBRANCH   5  25
BRANCH   7  27
ATOM     27  O   UNL     1     -14.083  13.364  -3.479  1.00  0.00    -0.507 OA
ATOM     28  H   UNL     1     -13.187  13.072  -3.116  1.00  0.00     0.293 HD
ENDBRANCH   7  27
TORSDOF 7
ENDMDL
MODEL 8
REMARK VINA RESULT:    -7.103      2.021      4.263
REMARK INTER + INTRA:          -9.061
REMARK INTER:                  -8.730
REMARK INTRA:                  -0.331
REMARK UNBOUND:                -0.296
REMARK SMILES Oc1cc(O)c2cc(O)c(-c3cc(O)c(O)c(O)c3)[o+]c2c1
REMARK SMILES IDX 10 1 20 2 21 3 22 4 2 5 3 6 4 7 6 8 7 9 8 10 11 11 12 12
REMARK SMILES IDX 13 13 19 14 15 15 17 16 14 17 16 19 18 21 9 23 1 25 5 27
REMARK H PARENT 14 18 16 20 18 22 9 24 1 26 5 28
REMARK Flexibility Score: inf
ROOT
ATOM      1  C   UNL     1     -17.491  13.279  -0.173  1.00  0.00     0.402 A 
ATOM      2  O   UNL     1     -18.515  12.919  -0.943  1.00  0.00    -0.202 OA
ATOM      3  C   UNL     1     -18.412  12.730  -2.254  1.00  0.00     0.368 A 
ATOM      4  C   UNL     1     -19.544  12.349  -2.978  1.00  0.00     0.162 A 
ATOM      5  C   UNL     1     -19.465  12.140  -4.355  1.00  0.00     0.128 A 
ATOM      6  C   UNL     1     -18.243  12.311  -5.015  1.00  0.00     0.093 A 
ATOM      7  C   UNL     1     -17.093  12.692  -4.314  1.00  0.00     0.136 A 
ATOM      8  C   UNL     1     -17.171  12.908  -2.913  1.00  0.00     0.125 A 
ATOM      9  C   UNL     1     -16.074  13.304  -2.130  1.00  0.00     0.078 A 
ATOM     10  C   UNL     1     -16.229  13.502  -0.755  1.00  0.00     0.223 A 
ENDROOT
BRANCH   1  11
ATOM     11  C   UNL     1     -17.731  13.449   1.278  1.00  0.00     0.091 A 
ATOM     12  C   UNL     1     -18.491  14.541   1.728  1.00  0.00     0.068 A 
ATOM     13  C   UNL     1     -18.751  14.716   3.091  1.00  0.00     0.162 A 
ATOM     14  C   UNL     1     -17.262  12.512   2.213  1.00  0.00     0.068 A 
ATOM     15  C   UNL     1     -18.261  13.787   4.025  1.00  0.00     0.200 A 
ATOM     16  C   UNL     1     -17.520  12.679   3.581  1.00  0.00     0.162 A 
BRANCH  13  17
ATOM     17  O   UNL     1     -19.498  15.822   3.498  1.00  0.00    -0.504 OA
ATOM     18  H   UNL     1     -19.061  16.682   3.806  1.00  0.00     0.293 HD
ENDBRANCH  13  17
BRANCH  15  19
ATOM     19  O   UNL     1     -18.522  13.971   5.383  1.00  0.00    -0.502 OA
ATOM     20  H   UNL     1     -19.263  14.578   5.712  1.00  0.00     0.293 HD
ENDBRANCH  15  19
BRANCH  16  21
ATOM     21  O   UNL     1     -17.044  11.744   4.500  1.00  0.00    -0.504 OA
ATOM     22  H   UNL     1     -16.055  11.650   4.699  1.00  0.00     0.293 HD
ENDBRANCH  16  21
ENDBRANCH   1  11
BRANCH  10  23
ATOM     23  O   UNL     1     -15.152  13.944   0.014  1.00  0.00    -0.500 OA
ATOM     24  H   UNL     1     -15.270  14.247   0.973  1.00  0.00     0.294 HD
ENDBRANCH  10  23
BRANCH   5  25
ATOM     25  O   UNL     1     -20.605  11.761  -5.058  1.00  0.00    -0.507 OA
ATOM     26  H   UNL     1     -21.443  12.332  -5.058  1.00  0.00     0.293 HD
ENDBRANCH   5  25
BRANCH   7  27
ATOM     27  O   UNL     1     -15.911  12.839  -5.045  1.00  0.00    -0.507 OA
ATOM     28  H   UNL     1     -15.255  12.093  -5.227  1.00  0.00     0.293 HD
ENDBRANCH   7  27
TORSDOF 7
ENDMDL
MODEL 9
REMARK VINA RESULT:    -7.056      2.793      6.454
REMARK INTER + INTRA:          -9.002
REMARK INTER:                  -8.755
REMARK INTRA:                  -0.247
REMARK UNBOUND:                -0.296
REMARK SMILES Oc1cc(O)c2cc(O)c(-c3cc(O)c(O)c(O)c3)[o+]c2c1
REMARK SMILES IDX 10 1 20 2 21 3 22 4 2 5 3 6 4 7 6 8 7 9 8 10 11 11 12 12
REMARK SMILES IDX 13 13 19 14 15 15 17 16 14 17 16 19 18 21 9 23 1 25 5 27
REMARK H PARENT 14 18 16 20 18 22 9 24 1 26 5 28
REMARK Flexibility Score: inf
ROOT
ATOM      1  C   UNL     1     -18.364  13.694   0.082  1.00  0.00     0.402 A 
ATOM      2  O   UNL     1     -19.162  14.025   1.093  1.00  0.00    -0.202 OA
ATOM      3  C   UNL     1     -18.948  13.641   2.347  1.00  0.00     0.368 A 
ATOM      4  C   UNL     1     -19.843  14.043   3.343  1.00  0.00     0.162 A 
ATOM      5  C   UNL     1     -19.642  13.658   4.670  1.00  0.00     0.128 A 
ATOM      6  C   UNL     1     -18.537  12.867   5.005  1.00  0.00     0.093 A 
ATOM      7  C   UNL     1     -17.625  12.452   4.027  1.00  0.00     0.136 A 
ATOM      8  C   UNL     1     -17.828  12.839   2.676  1.00  0.00     0.125 A 
ATOM      9  C   UNL     1     -16.975  12.459   1.627  1.00  0.00     0.078 A 
ATOM     10  C   UNL     1     -17.243  12.876   0.320  1.00  0.00     0.223 A 
ENDROOT
BRANCH   1  11
ATOM     11  C   UNL     1     -18.703  14.190  -1.271  1.00  0.00     0.091 A 
ATOM     12  C   UNL     1     -19.146  13.284  -2.248  1.00  0.00     0.068 A 
ATOM     13  C   UNL     1     -19.494  13.727  -3.528  1.00  0.00     0.162 A 
ATOM     14  C   UNL     1     -18.646  15.559  -1.584  1.00  0.00     0.068 A 
ATOM     15  C   UNL     1     -19.415  15.095  -3.843  1.00  0.00     0.200 A 
ATOM     16  C   UNL     1     -18.995  16.012  -2.865  1.00  0.00     0.162 A 
BRANCH  13  17
ATOM     17  O   UNL     1     -19.914  12.793  -4.474  1.00  0.00    -0.504 OA
ATOM     18  H   UNL     1     -19.666  11.813  -4.410  1.00  0.00     0.293 HD
ENDBRANCH  13  17
BRANCH  15  19
ATOM     19  O   UNL     1     -19.760  15.528  -5.124  1.00  0.00    -0.502 OA
ATOM     20  H   UNL     1     -19.292  16.306  -5.575  1.00  0.00     0.293 HD
ENDBRANCH  15  19
BRANCH  16  21
ATOM     21  O   UNL     1     -18.929  17.372  -3.165  1.00  0.00    -0.504 OA
ATOM     22  H   UNL     1     -19.514  18.050  -2.692  1.00  0.00     0.293 HD
ENDBRANCH  16  21
ENDBRANCH   1  11
BRANCH  10  23
ATOM     23  O   UNL     1     -16.424  12.458  -0.729  1.00  0.00    -0.500 OA
ATOM     24  H   UNL     1     -16.581  12.761  -1.683  1.00  0.00     0.294 HD
ENDBRANCH  10  23
BRANCH   5  25
ATOM     25  O   UNL     1     -20.544  14.068   5.647  1.00  0.00    -0.507 OA
ATOM     26  H   UNL     1     -21.466  13.654   5.724  1.00  0.00     0.293 HD
ENDBRANCH   5  25
BRANCH   7  27
ATOM     27  O   UNL     1     -16.546  11.667   4.443  1.00  0.00    -0.507 OA
ATOM     28  H   UNL     1     -15.794  11.366   3.841  1.00  0.00     0.293 HD
ENDBRANCH   7  27
TORSDOF 7
ENDMDL
