MODEL 1
REMARK VINA RESULT:    -3.901      0.000      0.000
REMARK INTER + INTRA:          -8.576
REMARK INTER:                  -7.550
REMARK INTRA:                  -1.026
REMARK UNBOUND:                -1.026
REMARK SMILES CCCCCCCCCCCCCCCCCC(=O)[O-]
REMARK SMILES IDX 10 1 11 2 12 3 13 4 14 5 15 6 16 7 17 8 18 9 19 10 20 11
REMARK SMILES IDX 9 12 8 13 7 14 6 15 5 16 4 17 3 18 2 19 1 20
REMARK H PARENT
REMARK Flexibility Score: inf
ROOT
ATOM      1  C   UNL     1      32.074  -0.697  42.226  1.00  0.00     0.000 C 
ENDROOT
BRANCH   1   2
ATOM      2  C   UNL     1      30.542  -0.736  42.091  1.00  0.00     0.000 C 
BRANCH   2   3
ATOM      3  C   UNL     1      29.799  -1.333  43.304  1.00  0.00     0.000 C 
BRANCH   3   4
ATOM      4  C   UNL     1      30.708  -1.838  44.441  1.00  0.00     0.000 C 
BRANCH   4   5
ATOM      5  C   UNL     1      30.039  -2.815  45.428  1.00  0.00     0.000 C 
BRANCH   5   6
ATOM      6  C   UNL     1      28.506  -2.906  45.313  1.00  0.00     0.000 C 
BRANCH   6   7
ATOM      7  C   UNL     1      27.777  -2.074  46.377  1.00  0.00     0.006 C 
BRANCH   7   8
ATOM      8  C   UNL     1      26.506  -2.784  46.853  1.00  0.00     0.053 C 
BRANCH   8   9
ATOM      9  C   UNL     1      26.848  -3.881  47.811  1.00  0.00     0.041 C 
ATOM     10  O   UNL     1      26.990  -5.062  47.398  1.00  0.00    -0.550 OA
ATOM     11  O   UNL     1      26.959  -3.609  49.168  1.00  0.00    -0.550 OA
ENDBRANCH   8   9
ENDBRANCH   7   8
ENDBRANCH   6   7
ENDBRANCH   5   6
ENDBRANCH   4   5
ENDBRANCH   3   4
ENDBRANCH   2   3
ENDBRANCH   1   2
BRANCH   1  12
ATOM     12  C   UNL     1      32.646   0.725  42.110  1.00  0.00     0.000 C 
BRANCH  12  13
ATOM     13  C   UNL     1      34.181   0.742  42.005  1.00  0.00    -0.000 C 
BRANCH  13  14
ATOM     14  C   UNL     1      34.855  -0.637  42.156  1.00  0.00    -0.000 C 
BRANCH  14  15
ATOM     15  C   UNL     1      36.219  -0.625  42.875  1.00  0.00    -0.000 C 
BRANCH  15  16
ATOM     16  C   UNL     1      37.257  -1.611  42.309  1.00  0.00    -0.000 C 
BRANCH  16  17
ATOM     17  C   UNL     1      38.028  -2.359  43.411  1.00  0.00    -0.000 C 
BRANCH  17  18
ATOM     18  C   UNL     1      37.538  -3.806  43.603  1.00  0.00    -0.000 C 
BRANCH  18  19
ATOM     19  C   UNL     1      36.227  -4.145  42.871  1.00  0.00    -0.003 C 
ATOM     20  C   UNL     1      35.009  -4.148  43.796  1.00  0.00     0.004 C 
ENDBRANCH  18  19
ENDBRANCH  17  18
ENDBRANCH  16  17
ENDBRANCH  15  16
ENDBRANCH  14  15
ENDBRANCH  13  14
ENDBRANCH  12  13
ENDBRANCH   1  12
TORSDOF 16
ENDMDL
MODEL 2
REMARK VINA RESULT:    -3.793      1.140      1.675
REMARK INTER + INTRA:          -8.366
REMARK INTER:                  -6.995
REMARK INTRA:                  -1.371
REMARK UNBOUND:                -1.026
REMARK SMILES CCCCCCCCCCCCCCCCCC(=O)[O-]
REMARK SMILES IDX 10 1 11 2 12 3 13 4 14 5 15 6 16 7 17 8 18 9 19 10 20 11
REMARK SMILES IDX 9 12 8 13 7 14 6 15 5 16 4 17 3 18 2 19 1 20
REMARK H PARENT
REMARK Flexibility Score: inf
ROOT
ATOM      1  C   UNL     1      32.505  -0.699  43.924  1.00  0.00     0.000 C 
ENDROOT
BRANCH   1   2
ATOM      2  C   UNL     1      31.173  -1.452  43.759  1.00  0.00     0.000 C 
BRANCH   2   3
ATOM      3  C   UNL     1      30.371  -1.081  42.495  1.00  0.00     0.000 C 
BRANCH   3   4
ATOM      4  C   UNL     1      28.857  -0.890  42.716  1.00  0.00     0.000 C 
BRANCH   4   5
ATOM      5  C   UNL     1      28.306  -1.493  44.023  1.00  0.00     0.000 C 
BRANCH   5   6
ATOM      6  C   UNL     1      28.228  -3.031  44.046  1.00  0.00     0.000 C 
BRANCH   6   7
ATOM      7  C   UNL     1      28.996  -3.650  45.222  1.00  0.00     0.006 C 
BRANCH   7   8
ATOM      8  C   UNL     1      28.666  -2.928  46.533  1.00  0.00     0.053 C 
BRANCH   8   9
ATOM      9  C   UNL     1      27.307  -3.322  47.019  1.00  0.00     0.041 C 
ATOM     10  O   UNL     1      26.368  -2.484  47.024  1.00  0.00    -0.550 OA
ATOM     11  O   UNL     1      27.090  -4.601  47.515  1.00  0.00    -0.550 OA
ENDBRANCH   8   9
ENDBRANCH   7   8
ENDBRANCH   6   7
ENDBRANCH   5   6
ENDBRANCH   4   5
ENDBRANCH   3   4
ENDBRANCH   2   3
ENDBRANCH   1   2
BRANCH   1  12
ATOM     12  C   UNL     1      32.974  -0.028  42.623  1.00  0.00     0.000 C 
BRANCH  12  13
ATOM     13  C   UNL     1      34.033  -0.855  41.875  1.00  0.00    -0.000 C 
BRANCH  13  14
ATOM     14  C   UNL     1      35.472  -0.310  41.977  1.00  0.00    -0.000 C 
BRANCH  14  15
ATOM     15  C   UNL     1      36.134  -0.459  43.361  1.00  0.00    -0.000 C 
BRANCH  15  16
ATOM     16  C   UNL     1      37.356  -1.394  43.396  1.00  0.00    -0.000 C 
BRANCH  16  17
ATOM     17  C   UNL     1      37.505  -2.225  42.110  1.00  0.00    -0.000 C 
BRANCH  17  18
ATOM     18  C   UNL     1      36.976  -3.662  42.265  1.00  0.00    -0.000 C 
BRANCH  18  19
ATOM     19  C   UNL     1      36.478  -4.017  43.677  1.00  0.00    -0.003 C 
ATOM     20  C   UNL     1      34.959  -4.173  43.754  1.00  0.00     0.004 C 
ENDBRANCH  18  19
ENDBRANCH  17  18
ENDBRANCH  16  17
ENDBRANCH  15  16
ENDBRANCH  14  15
ENDBRANCH  13  14
ENDBRANCH  12  13
ENDBRANCH   1  12
TORSDOF 16
ENDMDL
MODEL 3
REMARK VINA RESULT:    -3.757      2.974      7.989
REMARK INTER + INTRA:          -8.297
REMARK INTER:                  -7.287
REMARK INTRA:                  -1.010
REMARK UNBOUND:                -1.026
REMARK SMILES CCCCCCCCCCCCCCCCCC(=O)[O-]
REMARK SMILES IDX 10 1 11 2 12 3 13 4 14 5 15 6 16 7 17 8 18 9 19 10 20 11
REMARK SMILES IDX 9 12 8 13 7 14 6 15 5 16 4 17 3 18 2 19 1 20
REMARK H PARENT
REMARK Flexibility Score: inf
ROOT
ATOM      1  C   UNL     1      32.884  -0.604  41.967  1.00  0.00     0.000 C 
ENDROOT
BRANCH   1   2
ATOM      2  C   UNL     1      33.675   0.700  42.169  1.00  0.00     0.000 C 
BRANCH   2   3
ATOM      3  C   UNL     1      35.198   0.573  41.954  1.00  0.00     0.000 C 
BRANCH   3   4
ATOM      4  C   UNL     1      35.942  -0.243  43.029  1.00  0.00     0.000 C 
BRANCH   4   5
ATOM      5  C   UNL     1      37.182  -1.008  42.527  1.00  0.00     0.000 C 
BRANCH   5   6
ATOM      6  C   UNL     1      37.811  -1.971  43.551  1.00  0.00     0.000 C 
BRANCH   6   7
ATOM      7  C   UNL     1      37.804  -3.432  43.079  1.00  0.00     0.006 C 
BRANCH   7   8
ATOM      8  C   UNL     1      36.844  -4.275  43.923  1.00  0.00     0.053 C 
BRANCH   8   9
ATOM      9  C   UNL     1      35.438  -4.106  43.442  1.00  0.00     0.041 C 
ATOM     10  O   UNL     1      34.470  -4.375  44.202  1.00  0.00    -0.550 OA
ATOM     11  O   UNL     1      35.193  -3.700  42.137  1.00  0.00    -0.550 OA
ENDBRANCH   8   9
ENDBRANCH   7   8
ENDBRANCH   6   7
ENDBRANCH   5   6
ENDBRANCH   4   5
ENDBRANCH   3   4
ENDBRANCH   2   3
ENDBRANCH   1   2
BRANCH   1  12
ATOM     12  C   UNL     1      31.364  -0.378  41.929  1.00  0.00     0.000 C 
BRANCH  12  13
ATOM     13  C   UNL     1      30.623  -1.122  43.054  1.00  0.00    -0.000 C 
BRANCH  13  14
ATOM     14  C   UNL     1      31.522  -1.612  44.207  1.00  0.00    -0.000 C 
BRANCH  14  15
ATOM     15  C   UNL     1      31.067  -1.189  45.619  1.00  0.00    -0.000 C 
BRANCH  15  16
ATOM     16  C   UNL     1      29.544  -1.211  45.839  1.00  0.00    -0.000 C 
BRANCH  16  17
ATOM     17  C   UNL     1      28.980  -2.637  45.957  1.00  0.00    -0.000 C 
BRANCH  17  18
ATOM     18  C   UNL     1      27.444  -2.681  45.862  1.00  0.00    -0.000 C 
BRANCH  18  19
ATOM     19  C   UNL     1      26.713  -2.635  47.215  1.00  0.00    -0.003 C 
ATOM     20  C   UNL     1      26.799  -3.952  47.986  1.00  0.00     0.004 C 
ENDBRANCH  18  19
ENDBRANCH  17  18
ENDBRANCH  16  17
ENDBRANCH  15  16
ENDBRANCH  14  15
ENDBRANCH  13  14
ENDBRANCH  12  13
ENDBRANCH   1  12
TORSDOF 16
ENDMDL
MODEL 4
REMARK VINA RESULT:    -3.699      1.259      2.118
REMARK INTER + INTRA:          -8.184
REMARK INTER:                  -7.299
REMARK INTRA:                  -0.885
REMARK UNBOUND:                -1.026
REMARK SMILES CCCCCCCCCCCCCCCCCC(=O)[O-]
REMARK SMILES IDX 10 1 11 2 12 3 13 4 14 5 15 6 16 7 17 8 18 9 19 10 20 11
REMARK SMILES IDX 9 12 8 13 7 14 6 15 5 16 4 17 3 18 2 19 1 20
REMARK H PARENT
REMARK Flexibility Score: inf
ROOT
ATOM      1  C   UNL     1      33.613   0.738  42.261  1.00  0.00     0.000 C 
ENDROOT
BRANCH   1   2
ATOM      2  C   UNL     1      32.884  -0.594  42.508  1.00  0.00     0.000 C 
BRANCH   2   3
ATOM      3  C   UNL     1      31.472  -0.684  41.892  1.00  0.00     0.000 C 
BRANCH   3   4
ATOM      4  C   UNL     1      30.336  -0.946  42.899  1.00  0.00     0.000 C 
BRANCH   4   5
ATOM      5  C   UNL     1      30.728  -1.805  44.118  1.00  0.00     0.000 C 
BRANCH   5   6
ATOM      6  C   UNL     1      30.872  -1.029  45.440  1.00  0.00     0.000 C 
BRANCH   6   7
ATOM      7  C   UNL     1      29.557  -0.941  46.227  1.00  0.00     0.006 C 
BRANCH   7   8
ATOM      8  C   UNL     1      28.405  -1.574  45.440  1.00  0.00     0.053 C 
BRANCH   8   9
ATOM      9  C   UNL     1      27.875  -2.772  46.161  1.00  0.00     0.041 C 
ATOM     10  O   UNL     1      28.443  -3.889  46.039  1.00  0.00    -0.550 OA
ATOM     11  O   UNL     1      26.722  -2.668  46.929  1.00  0.00    -0.550 OA
ENDBRANCH   8   9
ENDBRANCH   7   8
ENDBRANCH   6   7
ENDBRANCH   5   6
ENDBRANCH   4   5
ENDBRANCH   3   4
ENDBRANCH   2   3
ENDBRANCH   1   2
BRANCH   1  12
ATOM     12  C   UNL     1      35.121   0.556  42.023  1.00  0.00     0.000 C 
BRANCH  12  13
ATOM     13  C   UNL     1      35.764  -0.435  43.009  1.00  0.00    -0.000 C 
BRANCH  13  14
ATOM     14  C   UNL     1      37.085  -1.066  42.523  1.00  0.00    -0.000 C 
BRANCH  14  15
ATOM     15  C   UNL     1      38.066  -1.473  43.641  1.00  0.00    -0.000 C 
BRANCH  15  16
ATOM     16  C   UNL     1      38.899  -2.733  43.342  1.00  0.00    -0.000 C 
BRANCH  16  17
ATOM     17  C   UNL     1      38.037  -3.920  42.880  1.00  0.00    -0.000 C 
BRANCH  17  18
ATOM     18  C   UNL     1      36.888  -4.236  43.854  1.00  0.00    -0.000 C 
BRANCH  18  19
ATOM     19  C   UNL     1      35.478  -4.126  43.246  1.00  0.00    -0.003 C 
ATOM     20  C   UNL     1      34.366  -4.363  44.267  1.00  0.00     0.004 C 
ENDBRANCH  18  19
ENDBRANCH  17  18
ENDBRANCH  16  17
ENDBRANCH  15  16
ENDBRANCH  14  15
ENDBRANCH  13  14
ENDBRANCH  12  13
ENDBRANCH   1  12
TORSDOF 16
ENDMDL
MODEL 5
REMARK VINA RESULT:    -3.529      3.072      7.895
REMARK INTER + INTRA:          -7.855
REMARK INTER:                  -6.965
REMARK INTRA:                  -0.891
REMARK UNBOUND:                -1.026
REMARK SMILES CCCCCCCCCCCCCCCCCC(=O)[O-]
REMARK SMILES IDX 10 1 11 2 12 3 13 4 14 5 15 6 16 7 17 8 18 9 19 10 20 11
REMARK SMILES IDX 9 12 8 13 7 14 6 15 5 16 4 17 3 18 2 19 1 20
REMARK H PARENT
REMARK Flexibility Score: inf
ROOT
ATOM      1  C   UNL     1      33.975  -0.780  42.126  1.00  0.00     0.000 C 
ENDROOT
BRANCH   1   2
ATOM      2  C   UNL     1      35.142   0.118  42.572  1.00  0.00     0.000 C 
BRANCH   2   3
ATOM      3  C   UNL     1      36.384  -0.641  43.085  1.00  0.00     0.000 C 
BRANCH   3   4
ATOM      4  C   UNL     1      37.313  -1.191  41.985  1.00  0.00     0.000 C 
BRANCH   4   5
ATOM      5  C   UNL     1      38.424  -2.137  42.481  1.00  0.00     0.000 C 
BRANCH   5   6
ATOM      6  C   UNL     1      38.270  -3.606  42.043  1.00  0.00     0.000 C 
BRANCH   6   7
ATOM      7  C   UNL     1      37.912  -4.541  43.207  1.00  0.00     0.006 C 
BRANCH   7   8
ATOM      8  C   UNL     1      36.818  -3.927  44.086  1.00  0.00     0.053 C 
BRANCH   8   9
ATOM      9  C   UNL     1      35.473  -4.126  43.463  1.00  0.00     0.041 C 
ATOM     10  O   UNL     1      34.498  -4.504  44.165  1.00  0.00    -0.550 OA
ATOM     11  O   UNL     1      35.306  -3.945  42.096  1.00  0.00    -0.550 OA
ENDBRANCH   8   9
ENDBRANCH   7   8
ENDBRANCH   6   7
ENDBRANCH   5   6
ENDBRANCH   4   5
ENDBRANCH   3   4
ENDBRANCH   2   3
ENDBRANCH   1   2
BRANCH   1  12
ATOM     12  C   UNL     1      32.671   0.004  41.902  1.00  0.00     0.000 C 
BRANCH  12  13
ATOM     13  C   UNL     1      31.511  -0.511  42.770  1.00  0.00    -0.000 C 
BRANCH  13  14
ATOM     14  C   UNL     1      30.312  -1.076  41.981  1.00  0.00    -0.000 C 
BRANCH  14  15
ATOM     15  C   UNL     1      28.951  -0.982  42.699  1.00  0.00    -0.000 C 
BRANCH  15  16
ATOM     16  C   UNL     1      28.301  -2.336  43.033  1.00  0.00    -0.000 C 
BRANCH  16  17
ATOM     17  C   UNL     1      28.355  -2.667  44.534  1.00  0.00    -0.000 C 
BRANCH  17  18
ATOM     18  C   UNL     1      29.793  -2.835  45.056  1.00  0.00    -0.000 C 
BRANCH  18  19
ATOM     19  C   UNL     1      30.127  -2.003  46.307  1.00  0.00    -0.003 C 
ATOM     20  C   UNL     1      29.418  -0.649  46.331  1.00  0.00     0.004 C 
ENDBRANCH  18  19
ENDBRANCH  17  18
ENDBRANCH  16  17
ENDBRANCH  15  16
ENDBRANCH  14  15
ENDBRANCH  13  14
ENDBRANCH  12  13
ENDBRANCH   1  12
TORSDOF 16
ENDMDL
MODEL 6
REMARK VINA RESULT:    -3.490      3.263      8.259
REMARK INTER + INTRA:          -7.780
REMARK INTER:                  -6.877
REMARK INTRA:                  -0.903
REMARK UNBOUND:                -1.026
REMARK SMILES CCCCCCCCCCCCCCCCCC(=O)[O-]
REMARK SMILES IDX 10 1 11 2 12 3 13 4 14 5 15 6 16 7 17 8 18 9 19 10 20 11
REMARK SMILES IDX 9 12 8 13 7 14 6 15 5 16 4 17 3 18 2 19 1 20
REMARK H PARENT
REMARK Flexibility Score: inf
ROOT
ATOM      1  C   UNL     1      31.792  -0.874  42.986  1.00  0.00     0.000 C 
ENDROOT
BRANCH   1   2
ATOM      2  C   UNL     1      33.089  -0.047  42.957  1.00  0.00     0.000 C 
BRANCH   2   3
ATOM      3  C   UNL     1      34.258  -0.701  42.192  1.00  0.00     0.000 C 
BRANCH   3   4
ATOM      4  C   UNL     1      35.599   0.054  42.280  1.00  0.00     0.000 C 
BRANCH   4   5
ATOM      5  C   UNL     1      36.846  -0.789  41.949  1.00  0.00     0.000 C 
BRANCH   5   6
ATOM      6  C   UNL     1      37.561  -1.398  43.169  1.00  0.00     0.000 C 
BRANCH   6   7
ATOM      7  C   UNL     1      38.408  -2.628  42.811  1.00  0.00     0.006 C 
BRANCH   7   8
ATOM      8  C   UNL     1      37.523  -3.782  42.330  1.00  0.00     0.053 C 
BRANCH   8   9
ATOM      9  C   UNL     1      36.470  -4.092  43.347  1.00  0.00     0.041 C 
ATOM     10  O   UNL     1      36.794  -4.528  44.483  1.00  0.00    -0.550 OA
ATOM     11  O   UNL     1      35.127  -3.948  43.023  1.00  0.00    -0.550 OA
ENDBRANCH   8   9
ENDBRANCH   7   8
ENDBRANCH   6   7
ENDBRANCH   5   6
ENDBRANCH   4   5
ENDBRANCH   3   4
ENDBRANCH   2   3
ENDBRANCH   1   2
BRANCH   1  12
ATOM     12  C   UNL     1      30.784  -0.441  41.909  1.00  0.00     0.000 C 
BRANCH  12  13
ATOM     13  C   UNL     1      29.530  -1.331  41.875  1.00  0.00    -0.000 C 
BRANCH  13  14
ATOM     14  C   UNL     1      28.342  -0.807  42.708  1.00  0.00    -0.000 C 
BRANCH  14  15
ATOM     15  C   UNL     1      28.127  -1.513  44.062  1.00  0.00    -0.000 C 
BRANCH  15  16
ATOM     16  C   UNL     1      29.181  -1.187  45.135  1.00  0.00    -0.000 C 
BRANCH  16  17
ATOM     17  C   UNL     1      29.634  -2.430  45.920  1.00  0.00    -0.000 C 
BRANCH  17  18
ATOM     18  C   UNL     1      28.508  -3.464  46.099  1.00  0.00    -0.000 C 
BRANCH  18  19
ATOM     19  C   UNL     1      27.411  -3.056  47.097  1.00  0.00    -0.003 C 
ATOM     20  C   UNL     1      26.783  -4.250  47.817  1.00  0.00     0.004 C 
ENDBRANCH  18  19
ENDBRANCH  17  18
ENDBRANCH  16  17
ENDBRANCH  15  16
ENDBRANCH  14  15
ENDBRANCH  13  14
ENDBRANCH  12  13
ENDBRANCH   1  12
TORSDOF 16
ENDMDL
MODEL 7
REMARK VINA RESULT:    -3.468     12.391     15.336
REMARK INTER + INTRA:          -7.738
REMARK INTER:                  -6.033
REMARK INTRA:                  -1.705
REMARK UNBOUND:                -1.026
REMARK SMILES CCCCCCCCCCCCCCCCCC(=O)[O-]
REMARK SMILES IDX 10 1 11 2 12 3 13 4 14 5 15 6 16 7 17 8 18 9 19 10 20 11
REMARK SMILES IDX 9 12 8 13 7 14 6 15 5 16 4 17 3 18 2 19 1 20
REMARK H PARENT
REMARK Flexibility Score: inf
ROOT
ATOM      1  C   UNL     1      19.216 -10.924  45.049  1.00  0.00     0.000 C 
ENDROOT
BRANCH   1   2
ATOM      2  C   UNL     1      19.952  -9.825  44.263  1.00  0.00     0.000 C 
BRANCH   2   3
ATOM      3  C   UNL     1      20.026 -10.058  42.739  1.00  0.00     0.000 C 
BRANCH   3   4
ATOM      4  C   UNL     1      19.495  -8.897  41.876  1.00  0.00     0.000 C 
BRANCH   4   5
ATOM      5  C   UNL     1      19.391  -7.539  42.599  1.00  0.00     0.000 C 
BRANCH   5   6
ATOM      6  C   UNL     1      20.581  -6.588  42.370  1.00  0.00     0.000 C 
BRANCH   6   7
ATOM      7  C   UNL     1      20.256  -5.131  42.728  1.00  0.00     0.006 C 
BRANCH   7   8
ATOM      8  C   UNL     1      20.749  -4.789  44.137  1.00  0.00     0.053 C 
BRANCH   8   9
ATOM      9  C   UNL     1      20.354  -3.394  44.506  1.00  0.00     0.041 C 
ATOM     10  O   UNL     1      20.470  -2.996  45.695  1.00  0.00    -0.550 OA
ATOM     11  O   UNL     1      19.809  -2.550  43.548  1.00  0.00    -0.550 OA
ENDBRANCH   8   9
ENDBRANCH   7   8
ENDBRANCH   6   7
ENDBRANCH   5   6
ENDBRANCH   4   5
ENDBRANCH   3   4
ENDBRANCH   2   3
ENDBRANCH   1   2
BRANCH   1  12
ATOM     12  C   UNL     1      19.585 -10.938  46.542  1.00  0.00     0.000 C 
BRANCH  12  13
ATOM     13  C   UNL     1      20.013 -12.330  47.036  1.00  0.00    -0.000 C 
BRANCH  13  14
ATOM     14  C   UNL     1      20.794 -13.172  46.005  1.00  0.00    -0.000 C 
BRANCH  14  15
ATOM     15  C   UNL     1      22.096 -12.530  45.486  1.00  0.00    -0.000 C 
BRANCH  15  16
ATOM     16  C   UNL     1      22.467 -12.899  44.039  1.00  0.00    -0.000 C 
BRANCH  16  17
ATOM     17  C   UNL     1      21.511 -13.937  43.427  1.00  0.00    -0.000 C 
BRANCH  17  18
ATOM     18  C   UNL     1      20.674 -13.366  42.269  1.00  0.00    -0.000 C 
BRANCH  18  19
ATOM     19  C   UNL     1      19.187 -13.763  42.291  1.00  0.00    -0.003 C 
ATOM     20  C   UNL     1      18.875 -14.857  43.313  1.00  0.00     0.004 C 
ENDBRANCH  18  19
ENDBRANCH  17  18
ENDBRANCH  16  17
ENDBRANCH  15  16
ENDBRANCH  14  15
ENDBRANCH  13  14
ENDBRANCH  12  13
ENDBRANCH   1  12
TORSDOF 16
ENDMDL
MODEL 8
REMARK VINA RESULT:    -3.322      3.582      7.895
REMARK INTER + INTRA:          -7.456
REMARK INTER:                  -5.865
REMARK INTRA:                  -1.590
REMARK UNBOUND:                -1.026
REMARK SMILES CCCCCCCCCCCCCCCCCC(=O)[O-]
REMARK SMILES IDX 10 1 11 2 12 3 13 4 14 5 15 6 16 7 17 8 18 9 19 10 20 11
REMARK SMILES IDX 9 12 8 13 7 14 6 15 5 16 4 17 3 18 2 19 1 20
REMARK H PARENT
REMARK Flexibility Score: inf
ROOT
ATOM      1  C   UNL     1      30.434  -0.958  41.994  1.00  0.00     0.000 C 
ENDROOT
BRANCH   1   2
ATOM      2  C   UNL     1      31.685  -0.063  41.939  1.00  0.00     0.000 C 
BRANCH   2   3
ATOM      3  C   UNL     1      33.006  -0.776  42.295  1.00  0.00     0.000 C 
BRANCH   3   4
ATOM      4  C   UNL     1      34.084   0.127  42.928  1.00  0.00     0.000 C 
BRANCH   4   5
ATOM      5  C   UNL     1      35.254   0.499  41.996  1.00  0.00     0.000 C 
BRANCH   5   6
ATOM      6  C   UNL     1      36.430  -0.496  42.001  1.00  0.00     0.000 C 
BRANCH   6   7
ATOM      7  C   UNL     1      36.688  -1.106  43.386  1.00  0.00     0.006 C 
BRANCH   7   8
ATOM      8  C   UNL     1      37.755  -2.204  43.311  1.00  0.00     0.053 C 
BRANCH   8   9
ATOM      9  C   UNL     1      37.137  -3.548  43.528  1.00  0.00     0.041 C 
ATOM     10  O   UNL     1      37.859  -4.579  43.567  1.00  0.00    -0.550 OA
ATOM     11  O   UNL     1      35.758  -3.671  43.636  1.00  0.00    -0.550 OA
ENDBRANCH   8   9
ENDBRANCH   7   8
ENDBRANCH   6   7
ENDBRANCH   5   6
ENDBRANCH   4   5
ENDBRANCH   3   4
ENDBRANCH   2   3
ENDBRANCH   1   2
BRANCH   1  12
ATOM     12  C   UNL     1      29.125  -0.159  41.879  1.00  0.00     0.000 C 
BRANCH  12  13
ATOM     13  C   UNL     1      27.893  -0.970  42.314  1.00  0.00    -0.000 C 
BRANCH  13  14
ATOM     14  C   UNL     1      28.207  -2.370  42.881  1.00  0.00    -0.000 C 
BRANCH  14  15
ATOM     15  C   UNL     1      28.057  -2.507  44.410  1.00  0.00    -0.000 C 
BRANCH  15  16
ATOM     16  C   UNL     1      27.845  -1.180  45.160  1.00  0.00    -0.000 C 
BRANCH  16  17
ATOM     17  C   UNL     1      29.072  -0.765  45.991  1.00  0.00    -0.000 C 
BRANCH  17  18
ATOM     18  C   UNL     1      29.808  -1.968  46.607  1.00  0.00    -0.000 C 
BRANCH  18  19
ATOM     19  C   UNL     1      31.263  -2.143  46.137  1.00  0.00    -0.003 C 
ATOM     20  C   UNL     1      31.390  -3.041  44.906  1.00  0.00     0.004 C 
ENDBRANCH  18  19
ENDBRANCH  17  18
ENDBRANCH  16  17
ENDBRANCH  15  16
ENDBRANCH  14  15
ENDBRANCH  13  14
ENDBRANCH  12  13
ENDBRANCH   1  12
TORSDOF 16
ENDMDL
MODEL 9
REMARK VINA RESULT:    -3.255     12.172     15.669
REMARK INTER + INTRA:          -7.326
REMARK INTER:                  -5.708
REMARK INTRA:                  -1.617
REMARK UNBOUND:                -1.026
REMARK SMILES CCCCCCCCCCCCCCCCCC(=O)[O-]
REMARK SMILES IDX 10 1 11 2 12 3 13 4 14 5 15 6 16 7 17 8 18 9 19 10 20 11
REMARK SMILES IDX 9 12 8 13 7 14 6 15 5 16 4 17 3 18 2 19 1 20
REMARK H PARENT
REMARK Flexibility Score: inf
ROOT
ATOM      1  C   UNL     1      21.382 -11.178  45.725  1.00  0.00     0.000 C 
ENDROOT
BRANCH   1   2
ATOM      2  C   UNL     1      20.919  -9.971  44.891  1.00  0.00     0.000 C 
BRANCH   2   3
ATOM      3  C   UNL     1      21.914  -9.515  43.804  1.00  0.00     0.000 C 
BRANCH   3   4
ATOM      4  C   UNL     1      21.359  -8.481  42.804  1.00  0.00     0.000 C 
BRANCH   4   5
ATOM      5  C   UNL     1      20.260  -7.557  43.363  1.00  0.00     0.000 C 
BRANCH   5   6
ATOM      6  C   UNL     1      19.296  -6.982  42.308  1.00  0.00     0.000 C 
BRANCH   6   7
ATOM      7  C   UNL     1      19.059  -5.475  42.476  1.00  0.00     0.006 C 
BRANCH   7   8
ATOM      8  C   UNL     1      19.993  -4.888  43.538  1.00  0.00     0.053 C 
BRANCH   8   9
ATOM      9  C   UNL     1      20.893  -3.858  42.932  1.00  0.00     0.041 C 
ATOM     10  O   UNL     1      22.006  -4.195  42.447  1.00  0.00    -0.550 OA
ATOM     11  O   UNL     1      20.527  -2.519  42.947  1.00  0.00    -0.550 OA
ENDBRANCH   8   9
ENDBRANCH   7   8
ENDBRANCH   6   7
ENDBRANCH   5   6
ENDBRANCH   4   5
ENDBRANCH   3   4
ENDBRANCH   2   3
ENDBRANCH   1   2
BRANCH   1  12
ATOM     12  C   UNL     1      20.574 -11.351  47.022  1.00  0.00     0.000 C 
BRANCH  12  13
ATOM     13  C   UNL     1      19.099 -11.703  46.762  1.00  0.00    -0.000 C 
BRANCH  13  14
ATOM     14  C   UNL     1      18.876 -12.886  45.798  1.00  0.00    -0.000 C 
BRANCH  14  15
ATOM     15  C   UNL     1      19.865 -14.058  45.958  1.00  0.00    -0.000 C 
BRANCH  15  16
ATOM     16  C   UNL     1      20.362 -14.670  44.636  1.00  0.00    -0.000 C 
BRANCH  16  17
ATOM     17  C   UNL     1      19.219 -14.954  43.647  1.00  0.00    -0.000 C 
BRANCH  17  18
ATOM     18  C   UNL     1      19.362 -14.171  42.330  1.00  0.00    -0.000 C 
BRANCH  18  19
ATOM     19  C   UNL     1      20.261 -12.925  42.415  1.00  0.00    -0.003 C 
ATOM     20  C   UNL     1      19.566 -11.652  41.929  1.00  0.00     0.004 C 
ENDBRANCH  18  19
ENDBRANCH  17  18
ENDBRANCH  16  17
ENDBRANCH  15  16
ENDBRANCH  14  15
ENDBRANCH  13  14
ENDBRANCH  12  13
ENDBRANCH   1  12
TORSDOF 16
ENDMDL
