MODEL 1
REMARK VINA RESULT:    -6.317      0.000      0.000
REMARK INTER + INTRA:          -7.719
REMARK INTER:                  -7.425
REMARK INTRA:                  -0.294
REMARK UNBOUND:                -0.294
REMARK SMILES O=c1c(O)c(-c2ccc(O)cc2)oc2cc(O)cc(O)c12
REMARK SMILES IDX 5 1 3 2 2 3 1 4 21 5 19 6 18 7 16 8 15 9 14 10 13 11 6 12
REMARK SMILES IDX 7 13 8 14 9 15 12 16 11 17 10 18 4 20 20 22 17 24
REMARK H PARENT 10 19 4 21 20 23 17 25
REMARK Flexibility Score: inf
ROOT
ATOM      1  C   UNL     1      68.151  48.130   9.074  1.00  0.00     0.180 A 
ATOM      2  C   UNL     1      67.136  48.947   9.603  1.00  0.00     0.208 A 
ATOM      3  C   UNL     1      65.810  48.484   9.581  1.00  0.00     0.238 A 
ATOM      4  O   UNL     1      64.917  49.186  10.124  1.00  0.00    -0.285 OA
ATOM      5  C   UNL     1      65.507  47.239   8.979  1.00  0.00     0.111 A 
ATOM      6  C   UNL     1      64.193  46.692   8.859  1.00  0.00     0.134 A 
ATOM      7  C   UNL     1      64.026  45.402   8.340  1.00  0.00     0.093 A 
ATOM      8  C   UNL     1      65.116  44.665   7.877  1.00  0.00     0.123 A 
ATOM      9  C   UNL     1      66.398  45.211   7.938  1.00  0.00     0.094 A 
ATOM     10  C   UNL     1      66.602  46.481   8.487  1.00  0.00     0.146 A 
ATOM     11  O   UNL     1      67.840  46.953   8.545  1.00  0.00    -0.452 OA
ENDROOT
BRANCH   1  12
ATOM     12  C   UNL     1      69.573  48.543   9.074  1.00  0.00     0.021 A 
ATOM     13  C   UNL     1      70.087  49.251   7.975  1.00  0.00     0.016 A 
ATOM     14  C   UNL     1      71.433  49.629   7.944  1.00  0.00     0.047 A 
ATOM     15  C   UNL     1      72.285  49.291   9.002  1.00  0.00     0.115 A 
ATOM     16  C   UNL     1      70.439  48.188  10.124  1.00  0.00     0.016 A 
ATOM     17  C   UNL     1      71.785  48.567  10.089  1.00  0.00     0.047 A 
BRANCH  15  18
ATOM     18  O   UNL     1      73.626  49.662   8.982  1.00  0.00    -0.508 OA
ATOM     19  H   UNL     1      74.183  49.683   9.830  1.00  0.00     0.293 HD
ENDBRANCH  15  18
ENDBRANCH   1  12
BRANCH   2  20
ATOM     20  O   UNL     1      67.445  50.206  10.124  1.00  0.00    -0.502 OA
ATOM     21  H   UNL     1      67.587  51.018   9.535  1.00  0.00     0.293 HD
ENDBRANCH   2  20
BRANCH   6  22
ATOM     22  O   UNL     1      63.026  47.376   9.209  1.00  0.00    -0.507 OA
ATOM     23  H   UNL     1      62.872  48.364   9.074  1.00  0.00     0.293 HD
ENDBRANCH   6  22
BRANCH   8  24
ATOM     24  O   UNL     1      64.911  43.392   7.351  1.00  0.00    -0.508 OA
ATOM     25  H   UNL     1      64.941  43.220   6.353  1.00  0.00     0.293 HD
ENDBRANCH   8  24
TORSDOF 5
ENDMDL
MODEL 2
REMARK VINA RESULT:    -6.150      5.673      7.526
REMARK INTER + INTRA:          -7.522
REMARK INTER:                  -7.249
REMARK INTRA:                  -0.273
REMARK UNBOUND:                -0.294
REMARK SMILES O=c1c(O)c(-c2ccc(O)cc2)oc2cc(O)cc(O)c12
REMARK SMILES IDX 5 1 3 2 2 3 1 4 21 5 19 6 18 7 16 8 15 9 14 10 13 11 6 12
REMARK SMILES IDX 7 13 8 14 9 15 12 16 11 17 10 18 4 20 20 22 17 24
REMARK H PARENT 10 19 4 21 20 23 17 25
REMARK Flexibility Score: inf
ROOT
ATOM      1  C   UNL     1      72.304  46.364   5.241  1.00  0.00     0.180 A 
ATOM      2  C   UNL     1      71.846  47.057   6.376  1.00  0.00     0.208 A 
ATOM      3  C   UNL     1      71.130  48.252   6.199  1.00  0.00     0.238 A 
ATOM      4  O   UNL     1      70.658  48.827   7.214  1.00  0.00    -0.285 OA
ATOM      5  C   UNL     1      70.930  48.769   4.896  1.00  0.00     0.111 A 
ATOM      6  C   UNL     1      70.259  49.995   4.603  1.00  0.00     0.134 A 
ATOM      7  C   UNL     1      70.027  50.353   3.268  1.00  0.00     0.093 A 
ATOM      8  C   UNL     1      70.497  49.565   2.219  1.00  0.00     0.123 A 
ATOM      9  C   UNL     1      71.203  48.394   2.494  1.00  0.00     0.094 A 
ATOM     10  C   UNL     1      71.417  47.989   3.814  1.00  0.00     0.146 A 
ATOM     11  O   UNL     1      72.074  46.857   4.031  1.00  0.00    -0.452 OA
ENDROOT
BRANCH   1  12
ATOM     12  C   UNL     1      73.054  45.091   5.346  1.00  0.00     0.021 A 
ATOM     13  C   UNL     1      72.362  43.872   5.248  1.00  0.00     0.016 A 
ATOM     14  C   UNL     1      73.046  42.658   5.368  1.00  0.00     0.047 A 
ATOM     15  C   UNL     1      74.427  42.648   5.602  1.00  0.00     0.115 A 
ATOM     16  C   UNL     1      74.437  45.073   5.602  1.00  0.00     0.016 A 
ATOM     17  C   UNL     1      75.117  43.858   5.722  1.00  0.00     0.047 A 
BRANCH  15  18
ATOM     18  O   UNL     1      75.118  41.446   5.722  1.00  0.00    -0.508 OA
ATOM     19  H   UNL     1      75.147  40.937   6.599  1.00  0.00     0.293 HD
ENDBRANCH  15  18
ENDBRANCH   1  12
BRANCH   2  20
ATOM     20  O   UNL     1      72.119  46.570   7.656  1.00  0.00    -0.502 OA
ATOM     21  H   UNL     1      71.748  45.690   7.995  1.00  0.00     0.293 HD
ENDBRANCH   2  20
BRANCH   6  22
ATOM     22  O   UNL     1      69.824  50.901   5.573  1.00  0.00    -0.507 OA
ATOM     23  H   UNL     1      68.859  51.099   5.789  1.00  0.00     0.293 HD
ENDBRANCH   6  22
BRANCH   8  24
ATOM     24  O   UNL     1      70.264  49.961   0.904  1.00  0.00    -0.508 OA
ATOM     25  H   UNL     1      70.062  50.926   0.668  1.00  0.00     0.293 HD
ENDBRANCH   8  24
TORSDOF 5
ENDMDL
MODEL 3
REMARK VINA RESULT:    -6.087      2.407      7.037
REMARK INTER + INTRA:          -7.449
REMARK INTER:                  -7.358
REMARK INTRA:                  -0.091
REMARK UNBOUND:                -0.294
REMARK SMILES O=c1c(O)c(-c2ccc(O)cc2)oc2cc(O)cc(O)c12
REMARK SMILES IDX 5 1 3 2 2 3 1 4 21 5 19 6 18 7 16 8 15 9 14 10 13 11 6 12
REMARK SMILES IDX 7 13 8 14 9 15 12 16 11 17 10 18 4 20 20 22 17 24
REMARK H PARENT 10 19 4 21 20 23 17 25
REMARK Flexibility Score: inf
ROOT
ATOM      1  C   UNL     1      69.467  48.218   8.110  1.00  0.00     0.180 A 
ATOM      2  C   UNL     1      69.765  48.460   6.757  1.00  0.00     0.208 A 
ATOM      3  C   UNL     1      71.085  48.289   6.310  1.00  0.00     0.238 A 
ATOM      4  O   UNL     1      71.330  48.434   5.084  1.00  0.00    -0.285 OA
ATOM      5  C   UNL     1      72.102  47.934   7.230  1.00  0.00     0.111 A 
ATOM      6  C   UNL     1      73.481  47.779   6.897  1.00  0.00     0.134 A 
ATOM      7  C   UNL     1      74.379  47.322   7.870  1.00  0.00     0.093 A 
ATOM      8  C   UNL     1      73.962  47.076   9.177  1.00  0.00     0.123 A 
ATOM      9  C   UNL     1      72.627  47.278   9.528  1.00  0.00     0.094 A 
ATOM     10  C   UNL     1      71.699  47.697   8.571  1.00  0.00     0.146 A 
ATOM     11  O   UNL     1      70.435  47.855   8.942  1.00  0.00    -0.452 OA
ENDROOT
BRANCH   1  12
ATOM     12  C   UNL     1      68.097  48.363   8.652  1.00  0.00     0.021 A 
ATOM     13  C   UNL     1      67.064  47.557   8.145  1.00  0.00     0.016 A 
ATOM     14  C   UNL     1      65.758  47.694   8.626  1.00  0.00     0.047 A 
ATOM     15  C   UNL     1      65.466  48.648   9.608  1.00  0.00     0.115 A 
ATOM     16  C   UNL     1      67.792  49.334   9.624  1.00  0.00     0.016 A 
ATOM     17  C   UNL     1      66.485  49.468  10.101  1.00  0.00     0.047 A 
BRANCH  15  18
ATOM     18  O   UNL     1      64.169  48.793  10.095  1.00  0.00    -0.508 OA
ATOM     19  H   UNL     1      63.362  48.685   9.491  1.00  0.00     0.293 HD
ENDBRANCH  15  18
ENDBRANCH   1  12
BRANCH   2  20
ATOM     20  O   UNL     1      68.763  48.883   5.880  1.00  0.00    -0.502 OA
ATOM     21  H   UNL     1      68.686  49.843   5.564  1.00  0.00     0.293 HD
ENDBRANCH   2  20
BRANCH   6  22
ATOM     22  O   UNL     1      74.023  48.080   5.644  1.00  0.00    -0.507 OA
ATOM     23  H   UNL     1      73.676  48.794   5.021  1.00  0.00     0.293 HD
ENDBRANCH   6  22
BRANCH   8  24
ATOM     24  O   UNL     1      74.886  46.638  10.123  1.00  0.00    -0.508 OA
ATOM     25  H   UNL     1      75.505  45.857   9.938  1.00  0.00     0.293 HD
ENDBRANCH   8  24
TORSDOF 5
ENDMDL
MODEL 4
REMARK VINA RESULT:    -5.946      1.232      1.763
REMARK INTER + INTRA:          -7.283
REMARK INTER:                  -6.996
REMARK INTRA:                  -0.287
REMARK UNBOUND:                -0.294
REMARK SMILES O=c1c(O)c(-c2ccc(O)cc2)oc2cc(O)cc(O)c12
REMARK SMILES IDX 5 1 3 2 2 3 1 4 21 5 19 6 18 7 16 8 15 9 14 10 13 11 6 12
REMARK SMILES IDX 7 13 8 14 9 15 12 16 11 17 10 18 4 20 20 22 17 24
REMARK H PARENT 10 19 4 21 20 23 17 25
REMARK Flexibility Score: inf
ROOT
ATOM      1  C   UNL     1      69.212  47.992   8.628  1.00  0.00     0.180 A 
ATOM      2  C   UNL     1      68.517  49.004   9.315  1.00  0.00     0.208 A 
ATOM      3  C   UNL     1      67.123  48.903   9.445  1.00  0.00     0.238 A 
ATOM      4  O   UNL     1      66.516  49.772  10.125  1.00  0.00    -0.285 OA
ATOM      5  C   UNL     1      66.433  47.824   8.840  1.00  0.00     0.111 A 
ATOM      6  C   UNL     1      65.017  47.646   8.868  1.00  0.00     0.134 A 
ATOM      7  C   UNL     1      64.455  46.484   8.325  1.00  0.00     0.093 A 
ATOM      8  C   UNL     1      65.250  45.525   7.699  1.00  0.00     0.123 A 
ATOM      9  C   UNL     1      66.629  45.715   7.615  1.00  0.00     0.094 A 
ATOM     10  C   UNL     1      67.224  46.846   8.182  1.00  0.00     0.146 A 
ATOM     11  O   UNL     1      68.542  46.977   8.099  1.00  0.00    -0.452 OA
ENDROOT
BRANCH   1  12
ATOM     12  C   UNL     1      70.683  48.021   8.462  1.00  0.00     0.021 A 
ATOM     13  C   UNL     1      71.503  47.479   9.466  1.00  0.00     0.016 A 
ATOM     14  C   UNL     1      72.895  47.517   9.340  1.00  0.00     0.047 A 
ATOM     15  C   UNL     1      73.485  48.111   8.218  1.00  0.00     0.115 A 
ATOM     16  C   UNL     1      71.283  48.635   7.347  1.00  0.00     0.016 A 
ATOM     17  C   UNL     1      72.676  48.673   7.226  1.00  0.00     0.047 A 
BRANCH  15  18
ATOM     18  O   UNL     1      74.870  48.155   8.082  1.00  0.00    -0.508 OA
ATOM     19  H   UNL     1      75.309  48.323   7.183  1.00  0.00     0.293 HD
ENDBRANCH  15  18
ENDBRANCH   1  12
BRANCH   2  20
ATOM     20  O   UNL     1      69.207  50.100   9.839  1.00  0.00    -0.502 OA
ATOM     21  H   UNL     1      69.520  50.872   9.263  1.00  0.00     0.293 HD
ENDBRANCH   2  20
BRANCH   6  22
ATOM     22  O   UNL     1      64.121  48.583   9.391  1.00  0.00    -0.507 OA
ATOM     23  H   UNL     1      63.161  48.391   9.635  1.00  0.00     0.293 HD
ENDBRANCH   6  22
BRANCH   8  24
ATOM     24  O   UNL     1      64.656  44.389   7.154  1.00  0.00    -0.508 OA
ATOM     25  H   UNL     1      65.115  43.486   7.178  1.00  0.00     0.293 HD
ENDBRANCH   8  24
TORSDOF 5
ENDMDL
MODEL 5
REMARK VINA RESULT:    -5.713      4.939      6.733
REMARK INTER + INTRA:          -7.009
REMARK INTER:                  -6.782
REMARK INTRA:                  -0.228
REMARK UNBOUND:                -0.294
REMARK SMILES O=c1c(O)c(-c2ccc(O)cc2)oc2cc(O)cc(O)c12
REMARK SMILES IDX 5 1 3 2 2 3 1 4 21 5 19 6 18 7 16 8 15 9 14 10 13 11 6 12
REMARK SMILES IDX 7 13 8 14 9 15 12 16 11 17 10 18 4 20 20 22 17 24
REMARK H PARENT 10 19 4 21 20 23 17 25
REMARK Flexibility Score: inf
ROOT
ATOM      1  C   UNL     1      71.766  47.222   6.352  1.00  0.00     0.180 A 
ATOM      2  C   UNL     1      73.075  47.245   6.863  1.00  0.00     0.208 A 
ATOM      3  C   UNL     1      73.435  46.317   7.852  1.00  0.00     0.238 A 
ATOM      4  O   UNL     1      74.630  46.293   8.251  1.00  0.00    -0.285 OA
ATOM      5  C   UNL     1      72.470  45.414   8.359  1.00  0.00     0.111 A 
ATOM      6  C   UNL     1      72.711  44.461   9.394  1.00  0.00     0.134 A 
ATOM      7  C   UNL     1      71.707  43.547   9.741  1.00  0.00     0.093 A 
ATOM      8  C   UNL     1      70.452  43.593   9.137  1.00  0.00     0.123 A 
ATOM      9  C   UNL     1      70.186  44.557   8.164  1.00  0.00     0.094 A 
ATOM     10  C   UNL     1      71.179  45.458   7.769  1.00  0.00     0.146 A 
ATOM     11  O   UNL     1      70.891  46.343   6.824  1.00  0.00    -0.452 OA
ENDROOT
BRANCH   1  12
ATOM     12  C   UNL     1      71.315  48.160   5.298  1.00  0.00     0.021 A 
ATOM     13  C   UNL     1      70.399  49.175   5.622  1.00  0.00     0.016 A 
ATOM     14  C   UNL     1      69.941  50.056   4.638  1.00  0.00     0.047 A 
ATOM     15  C   UNL     1      70.382  49.925   3.315  1.00  0.00     0.115 A 
ATOM     16  C   UNL     1      71.737  48.021   3.963  1.00  0.00     0.016 A 
ATOM     17  C   UNL     1      71.276  48.904   2.982  1.00  0.00     0.047 A 
BRANCH  15  18
ATOM     18  O   UNL     1      69.934  50.797   2.327  1.00  0.00    -0.508 OA
ATOM     19  H   UNL     1      70.427  50.898   1.447  1.00  0.00     0.293 HD
ENDBRANCH  15  18
ENDBRANCH   1  12
BRANCH   2  20
ATOM     20  O   UNL     1      73.993  48.194   6.405  1.00  0.00    -0.502 OA
ATOM     21  H   UNL     1      74.503  48.082   5.536  1.00  0.00     0.293 HD
ENDBRANCH   2  20
BRANCH   6  22
ATOM     22  O   UNL     1      73.900  44.383  10.125  1.00  0.00    -0.507 OA
ATOM     23  H   UNL     1      74.826  44.366   9.724  1.00  0.00     0.293 HD
ENDBRANCH   6  22
BRANCH   8  24
ATOM     24  O   UNL     1      69.472  42.681   9.519  1.00  0.00    -0.508 OA
ATOM     25  H   UNL     1      69.613  42.044  10.294  1.00  0.00     0.293 HD
ENDBRANCH   8  24
TORSDOF 5
ENDMDL
MODEL 6
REMARK VINA RESULT:    -5.674      5.750      7.360
REMARK INTER + INTRA:          -6.964
REMARK INTER:                  -6.737
REMARK INTRA:                  -0.226
REMARK UNBOUND:                -0.294
REMARK SMILES O=c1c(O)c(-c2ccc(O)cc2)oc2cc(O)cc(O)c12
REMARK SMILES IDX 5 1 3 2 2 3 1 4 21 5 19 6 18 7 16 8 15 9 14 10 13 11 6 12
REMARK SMILES IDX 7 13 8 14 9 15 12 16 11 17 10 18 4 20 20 22 17 24
REMARK H PARENT 10 19 4 21 20 23 17 25
REMARK Flexibility Score: inf
ROOT
ATOM      1  C   UNL     1      72.340  46.999   6.465  1.00  0.00     0.180 A 
ATOM      2  C   UNL     1      73.292  47.423   7.408  1.00  0.00     0.208 A 
ATOM      3  C   UNL     1      73.894  46.468   8.243  1.00  0.00     0.238 A 
ATOM      4  O   UNL     1      74.800  46.843   9.033  1.00  0.00    -0.285 OA
ATOM      5  C   UNL     1      73.497  45.111   8.165  1.00  0.00     0.111 A 
ATOM      6  C   UNL     1      74.006  44.066   8.993  1.00  0.00     0.134 A 
ATOM      7  C   UNL     1      73.616  42.742   8.754  1.00  0.00     0.093 A 
ATOM      8  C   UNL     1      72.688  42.433   7.760  1.00  0.00     0.123 A 
ATOM      9  C   UNL     1      72.142  43.453   6.982  1.00  0.00     0.094 A 
ATOM     10  C   UNL     1      72.539  44.780   7.170  1.00  0.00     0.146 A 
ATOM     11  O   UNL     1      72.011  45.716   6.393  1.00  0.00    -0.452 OA
ENDROOT
BRANCH   1  12
ATOM     12  C   UNL     1      71.672  47.945   5.540  1.00  0.00     0.021 A 
ATOM     13  C   UNL     1      70.649  48.777   6.024  1.00  0.00     0.016 A 
ATOM     14  C   UNL     1      69.989  49.660   5.164  1.00  0.00     0.047 A 
ATOM     15  C   UNL     1      70.332  49.710   3.807  1.00  0.00     0.115 A 
ATOM     16  C   UNL     1      71.997  47.985   4.172  1.00  0.00     0.016 A 
ATOM     17  C   UNL     1      71.334  48.868   3.315  1.00  0.00     0.047 A 
BRANCH  15  18
ATOM     18  O   UNL     1      69.682  50.585   2.941  1.00  0.00    -0.508 OA
ATOM     19  H   UNL     1      69.365  51.497   3.250  1.00  0.00     0.293 HD
ENDBRANCH  15  18
ENDBRANCH   1  12
BRANCH   2  20
ATOM     20  O   UNL     1      73.616  48.777   7.522  1.00  0.00    -0.502 OA
ATOM     21  H   UNL     1      72.951  49.515   7.320  1.00  0.00     0.293 HD
ENDBRANCH   2  20
BRANCH   6  22
ATOM     22  O   UNL     1      74.871  44.273  10.071  1.00  0.00    -0.507 OA
ATOM     23  H   UNL     1      75.634  43.663  10.326  1.00  0.00     0.293 HD
ENDBRANCH   6  22
BRANCH   8  24
ATOM     24  O   UNL     1      72.310  41.108   7.561  1.00  0.00    -0.508 OA
ATOM     25  H   UNL     1      71.388  40.865   7.219  1.00  0.00     0.293 HD
ENDBRANCH   8  24
TORSDOF 5
ENDMDL
MODEL 7
REMARK VINA RESULT:    -5.657      1.783      3.133
REMARK INTER + INTRA:          -6.943
REMARK INTER:                  -6.658
REMARK INTRA:                  -0.285
REMARK UNBOUND:                -0.294
REMARK SMILES O=c1c(O)c(-c2ccc(O)cc2)oc2cc(O)cc(O)c12
REMARK SMILES IDX 5 1 3 2 2 3 1 4 21 5 19 6 18 7 16 8 15 9 14 10 13 11 6 12
REMARK SMILES IDX 7 13 8 14 9 15 12 16 11 17 10 18 4 20 20 22 17 24
REMARK H PARENT 10 19 4 21 20 23 17 25
REMARK Flexibility Score: inf
ROOT
ATOM      1  C   UNL     1      68.130  47.067   7.946  1.00  0.00     0.180 A 
ATOM      2  C   UNL     1      68.463  45.701   7.971  1.00  0.00     0.208 A 
ATOM      3  C   UNL     1      67.432  44.749   7.906  1.00  0.00     0.238 A 
ATOM      4  O   UNL     1      67.740  43.530   7.853  1.00  0.00    -0.285 OA
ATOM      5  C   UNL     1      66.081  45.172   7.875  1.00  0.00     0.111 A 
ATOM      6  C   UNL     1      64.955  44.295   7.855  1.00  0.00     0.134 A 
ATOM      7  C   UNL     1      63.666  44.828   7.717  1.00  0.00     0.093 A 
ATOM      8  C   UNL     1      63.458  46.205   7.663  1.00  0.00     0.123 A 
ATOM      9  C   UNL     1      64.547  47.074   7.739  1.00  0.00     0.094 A 
ATOM     10  C   UNL     1      65.848  46.572   7.837  1.00  0.00     0.146 A 
ATOM     11  O   UNL     1      66.856  47.433   7.884  1.00  0.00    -0.452 OA
ENDROOT
BRANCH   1  12
ATOM     12  C   UNL     1      69.161  48.129   7.996  1.00  0.00     0.021 A 
ATOM     13  C   UNL     1      69.685  48.641   6.798  1.00  0.00     0.016 A 
ATOM     14  C   UNL     1      70.676  49.627   6.822  1.00  0.00     0.047 A 
ATOM     15  C   UNL     1      71.167  50.102   8.044  1.00  0.00     0.115 A 
ATOM     16  C   UNL     1      69.674  48.596   9.221  1.00  0.00     0.016 A 
ATOM     17  C   UNL     1      70.666  49.581   9.241  1.00  0.00     0.047 A 
BRANCH  15  18
ATOM     18  O   UNL     1      72.153  51.084   8.081  1.00  0.00    -0.508 OA
ATOM     19  H   UNL     1      71.942  52.054   7.875  1.00  0.00     0.293 HD
ENDBRANCH  15  18
ENDBRANCH   1  12
BRANCH   2  20
ATOM     20  O   UNL     1      69.797  45.303   8.079  1.00  0.00    -0.502 OA
ATOM     21  H   UNL     1      70.163  44.844   8.904  1.00  0.00     0.293 HD
ENDBRANCH   2  20
BRANCH   6  22
ATOM     22  O   UNL     1      65.041  42.907   7.990  1.00  0.00    -0.507 OA
ATOM     23  H   UNL     1      65.036  42.409   8.868  1.00  0.00     0.293 HD
ENDBRANCH   6  22
BRANCH   8  24
ATOM     24  O   UNL     1      62.162  46.700   7.544  1.00  0.00    -0.508 OA
ATOM     25  H   UNL     1      61.355  46.140   7.792  1.00  0.00     0.293 HD
ENDBRANCH   8  24
TORSDOF 5
ENDMDL
MODEL 8
REMARK VINA RESULT:    -5.639      2.102      7.315
REMARK INTER + INTRA:          -6.922
REMARK INTER:                  -6.624
REMARK INTRA:                  -0.298
REMARK UNBOUND:                -0.294
REMARK SMILES O=c1c(O)c(-c2ccc(O)cc2)oc2cc(O)cc(O)c12
REMARK SMILES IDX 5 1 3 2 2 3 1 4 21 5 19 6 18 7 16 8 15 9 14 10 13 11 6 12
REMARK SMILES IDX 7 13 8 14 9 15 12 16 11 17 10 18 4 20 20 22 17 24
REMARK H PARENT 10 19 4 21 20 23 17 25
REMARK Flexibility Score: inf
ROOT
ATOM      1  C   UNL     1      66.053  45.195   8.513  1.00  0.00     0.180 A 
ATOM      2  C   UNL     1      67.261  44.746   7.950  1.00  0.00     0.208 A 
ATOM      3  C   UNL     1      68.363  45.617   7.922  1.00  0.00     0.238 A 
ATOM      4  O   UNL     1      69.462  45.185   7.486  1.00  0.00    -0.285 OA
ATOM      5  C   UNL     1      68.229  46.941   8.404  1.00  0.00     0.111 A 
ATOM      6  C   UNL     1      69.265  47.923   8.383  1.00  0.00     0.134 A 
ATOM      7  C   UNL     1      69.049  49.169   8.986  1.00  0.00     0.093 A 
ATOM      8  C   UNL     1      67.816  49.492   9.550  1.00  0.00     0.123 A 
ATOM      9  C   UNL     1      66.778  48.561   9.527  1.00  0.00     0.094 A 
ATOM     10  C   UNL     1      66.975  47.295   8.968  1.00  0.00     0.146 A 
ATOM     11  O   UNL     1      65.967  46.432   8.986  1.00  0.00    -0.452 OA
ENDROOT
BRANCH   1  12
ATOM     12  C   UNL     1      64.852  44.332   8.591  1.00  0.00     0.021 A 
ATOM     13  C   UNL     1      63.875  44.416   7.586  1.00  0.00     0.016 A 
ATOM     14  C   UNL     1      62.722  43.627   7.652  1.00  0.00     0.047 A 
ATOM     15  C   UNL     1      62.524  42.757   8.731  1.00  0.00     0.115 A 
ATOM     16  C   UNL     1      64.638  43.471   9.683  1.00  0.00     0.016 A 
ATOM     17  C   UNL     1      63.483  42.685   9.746  1.00  0.00     0.047 A 
BRANCH  15  18
ATOM     18  O   UNL     1      61.381  41.967   8.807  1.00  0.00    -0.508 OA
ATOM     19  H   UNL     1      61.079  41.557   9.684  1.00  0.00     0.293 HD
ENDBRANCH  15  18
ENDBRANCH   1  12
BRANCH   2  20
ATOM     20  O   UNL     1      67.352  43.462   7.410  1.00  0.00    -0.502 OA
ATOM     21  H   UNL     1      68.239  43.024   7.190  1.00  0.00     0.293 HD
ENDBRANCH   2  20
BRANCH   6  22
ATOM     22  O   UNL     1      70.507  47.737   7.769  1.00  0.00    -0.507 OA
ATOM     23  H   UNL     1      71.394  47.730   8.249  1.00  0.00     0.293 HD
ENDBRANCH   6  22
BRANCH   8  24
ATOM     24  O   UNL     1      67.631  50.747  10.125  1.00  0.00    -0.508 OA
ATOM     25  H   UNL     1      68.196  51.062  10.905  1.00  0.00     0.293 HD
ENDBRANCH   8  24
TORSDOF 5
ENDMDL
MODEL 9
REMARK VINA RESULT:    -5.452      1.693      2.005
REMARK INTER + INTRA:          -6.703
REMARK INTER:                  -6.607
REMARK INTRA:                  -0.096
REMARK UNBOUND:                -0.294
REMARK SMILES O=c1c(O)c(-c2ccc(O)cc2)oc2cc(O)cc(O)c12
REMARK SMILES IDX 5 1 3 2 2 3 1 4 21 5 19 6 18 7 16 8 15 9 14 10 13 11 6 12
REMARK SMILES IDX 7 13 8 14 9 15 12 16 11 17 10 18 4 20 20 22 17 24
REMARK H PARENT 10 19 4 21 20 23 17 25
REMARK Flexibility Score: inf
ROOT
ATOM      1  C   UNL     1      67.443  47.443   8.110  1.00  0.00     0.180 A 
ATOM      2  C   UNL     1      66.786  48.421   8.878  1.00  0.00     0.208 A 
ATOM      3  C   UNL     1      65.491  48.156   9.352  1.00  0.00     0.238 A 
ATOM      4  O   UNL     1      64.939  49.004  10.102  1.00  0.00    -0.285 OA
ATOM      5  C   UNL     1      64.847  46.944   9.007  1.00  0.00     0.111 A 
ATOM      6  C   UNL     1      63.519  46.590   9.394  1.00  0.00     0.134 A 
ATOM      7  C   UNL     1      63.024  45.317   9.083  1.00  0.00     0.093 A 
ATOM      8  C   UNL     1      63.783  44.410   8.345  1.00  0.00     0.123 A 
ATOM      9  C   UNL     1      65.061  44.766   7.913  1.00  0.00     0.094 A 
ATOM     10  C   UNL     1      65.598  46.014   8.241  1.00  0.00     0.146 A 
ATOM     11  O   UNL     1      66.825  46.303   7.830  1.00  0.00    -0.452 OA
ENDROOT
BRANCH   1  12
ATOM     12  C   UNL     1      68.814  47.643   7.587  1.00  0.00     0.021 A 
ATOM     13  C   UNL     1      69.852  46.808   8.032  1.00  0.00     0.016 A 
ATOM     14  C   UNL     1      71.158  46.994   7.569  1.00  0.00     0.047 A 
ATOM     15  C   UNL     1      71.445  48.026   6.668  1.00  0.00     0.115 A 
ATOM     16  C   UNL     1      69.113  48.691   6.698  1.00  0.00     0.016 A 
ATOM     17  C   UNL     1      70.421  48.875   6.238  1.00  0.00     0.047 A 
BRANCH  15  18
ATOM     18  O   UNL     1      72.742  48.221   6.199  1.00  0.00    -0.508 OA
ATOM     19  H   UNL     1      72.959  48.182   5.210  1.00  0.00     0.293 HD
ENDBRANCH  15  18
ENDBRANCH   1  12
BRANCH   2  20
ATOM     20  O   UNL     1      67.409  49.642   9.145  1.00  0.00    -0.502 OA
ATOM     21  H   UNL     1      67.096  50.514   8.735  1.00  0.00     0.293 HD
ENDBRANCH   2  20
BRANCH   6  22
ATOM     22  O   UNL     1      62.641  47.452  10.058  1.00  0.00    -0.507 OA
ATOM     23  H   UNL     1      62.837  47.916  10.932  1.00  0.00     0.293 HD
ENDBRANCH   6  22
BRANCH   8  24
ATOM     24  O   UNL     1      63.252  43.159   8.038  1.00  0.00    -0.508 OA
ATOM     25  H   UNL     1      62.518  42.743   8.598  1.00  0.00     0.293 HD
ENDBRANCH   8  24
TORSDOF 5
ENDMDL
