MODEL 1
REMARK VINA RESULT:    -3.497      0.000      0.000
REMARK INTER + INTRA:          -8.284
REMARK INTER:                  -6.359
REMARK INTRA:                  -1.925
REMARK UNBOUND:                -1.925
REMARK SMILES CCCCCCCCCCCCCCCC(=O)[O-]
REMARK SMILES IDX 9 1 10 2 11 3 12 4 13 5 14 6 15 7 16 8 17 9 18 10 8 11 7 12
REMARK SMILES IDX 6 13 5 14 4 15 3 16 2 17 1 18
REMARK H PARENT
REMARK Flexibility Score: inf
ROOT
ATOM      1  C   UNL     1     -13.651 -76.732 -10.033  1.00  0.00     0.000 C 
ENDROOT
BRANCH   1   2
ATOM      2  C   UNL     1     -14.911 -76.251 -10.776  1.00  0.00     0.000 C 
BRANCH   2   3
ATOM      3  C   UNL     1     -14.860 -74.795 -11.278  1.00  0.00     0.000 C 
BRANCH   3   4
ATOM      4  C   UNL     1     -15.661 -73.826 -10.390  1.00  0.00     0.000 C 
BRANCH   4   5
ATOM      5  C   UNL     1     -14.757 -72.966  -9.493  1.00  0.00     0.000 C 
BRANCH   5   6
ATOM      6  C   UNL     1     -13.447 -72.556 -10.190  1.00  0.00     0.006 C 
BRANCH   6   7
ATOM      7  C   UNL     1     -12.209 -73.027  -9.417  1.00  0.00     0.053 C 
BRANCH   7   8
ATOM      8  C   UNL     1     -11.097 -73.422 -10.339  1.00  0.00     0.041 C 
ATOM      9  O   UNL     1     -11.340 -74.091 -11.377  1.00  0.00    -0.550 OA
ATOM     10  O   UNL     1      -9.794 -73.022 -10.068  1.00  0.00    -0.550 OA
ENDBRANCH   7   8
ENDBRANCH   6   7
ENDBRANCH   5   6
ENDBRANCH   4   5
ENDBRANCH   3   4
ENDBRANCH   2   3
ENDBRANCH   1   2
BRANCH   1  11
ATOM     11  C   UNL     1     -13.618 -76.297  -8.561  1.00  0.00     0.000 C 
BRANCH  11  12
ATOM     12  C   UNL     1     -14.062 -77.442  -7.639  1.00  0.00    -0.000 C 
BRANCH  12  13
ATOM     13  C   UNL     1     -15.206 -77.037  -6.696  1.00  0.00    -0.000 C 
BRANCH  13  14
ATOM     14  C   UNL     1     -16.410 -76.445  -7.445  1.00  0.00    -0.000 C 
BRANCH  14  15
ATOM     15  C   UNL     1     -17.198 -75.485  -6.541  1.00  0.00    -0.000 C 
BRANCH  15  16
ATOM     16  C   UNL     1     -17.421 -74.109  -7.189  1.00  0.00    -0.000 C 
BRANCH  16  17
ATOM     17  C   UNL     1     -17.659 -72.999  -6.154  1.00  0.00    -0.003 C 
ATOM     18  C   UNL     1     -17.567 -71.619  -6.799  1.00  0.00     0.004 C 
ENDBRANCH  16  17
ENDBRANCH  15  16
ENDBRANCH  14  15
ENDBRANCH  13  14
ENDBRANCH  12  13
ENDBRANCH  11  12
ENDBRANCH   1  11
TORSDOF 14
ENDMDL
MODEL 2
REMARK VINA RESULT:    -3.472      1.298      1.866
REMARK INTER + INTRA:          -8.239
REMARK INTER:                  -6.575
REMARK INTRA:                  -1.664
REMARK UNBOUND:                -1.925
REMARK SMILES CCCCCCCCCCCCCCCC(=O)[O-]
REMARK SMILES IDX 9 1 10 2 11 3 12 4 13 5 14 6 15 7 16 8 17 9 18 10 8 11 7 12
REMARK SMILES IDX 6 13 5 14 4 15 3 16 2 17 1 18
REMARK H PARENT
REMARK Flexibility Score: inf
ROOT
ATOM      1  C   UNL     1     -13.821 -76.952  -9.438  1.00  0.00     0.000 C 
ENDROOT
BRANCH   1   2
ATOM      2  C   UNL     1     -14.409 -75.733 -10.173  1.00  0.00     0.000 C 
BRANCH   2   3
ATOM      3  C   UNL     1     -14.590 -74.471  -9.308  1.00  0.00     0.000 C 
BRANCH   3   4
ATOM      4  C   UNL     1     -13.706 -73.298  -9.766  1.00  0.00     0.000 C 
BRANCH   4   5
ATOM      5  C   UNL     1     -12.275 -73.389  -9.214  1.00  0.00     0.000 C 
BRANCH   5   6
ATOM      6  C   UNL     1     -11.204 -73.203 -10.303  1.00  0.00     0.006 C 
BRANCH   6   7
ATOM      7  C   UNL     1     -10.249 -72.047  -9.982  1.00  0.00     0.053 C 
BRANCH   7   8
ATOM      8  C   UNL     1      -8.902 -72.543  -9.554  1.00  0.00     0.041 C 
ATOM      9  O   UNL     1      -7.892 -71.795  -9.643  1.00  0.00    -0.550 OA
ATOM     10  O   UNL     1      -8.767 -73.820  -9.025  1.00  0.00    -0.550 OA
ENDBRANCH   7   8
ENDBRANCH   6   7
ENDBRANCH   5   6
ENDBRANCH   4   5
ENDBRANCH   3   4
ENDBRANCH   2   3
ENDBRANCH   1   2
BRANCH   1  11
ATOM     11  C   UNL     1     -13.525 -76.676  -7.957  1.00  0.00     0.000 C 
BRANCH  11  12
ATOM     12  C   UNL     1     -14.419 -77.533  -7.048  1.00  0.00    -0.000 C 
BRANCH  12  13
ATOM     13  C   UNL     1     -15.587 -76.737  -6.443  1.00  0.00    -0.000 C 
BRANCH  13  14
ATOM     14  C   UNL     1     -16.869 -76.832  -7.284  1.00  0.00    -0.000 C 
BRANCH  14  15
ATOM     15  C   UNL     1     -17.582 -75.473  -7.353  1.00  0.00    -0.000 C 
BRANCH  15  16
ATOM     16  C   UNL     1     -17.408 -74.647  -6.069  1.00  0.00    -0.000 C 
BRANCH  16  17
ATOM     17  C   UNL     1     -17.470 -73.133  -6.326  1.00  0.00    -0.003 C 
ATOM     18  C   UNL     1     -17.644 -72.836  -7.814  1.00  0.00     0.004 C 
ENDBRANCH  16  17
ENDBRANCH  15  16
ENDBRANCH  14  15
ENDBRANCH  13  14
ENDBRANCH  12  13
ENDBRANCH  11  12
ENDBRANCH   1  11
TORSDOF 14
ENDMDL
MODEL 3
REMARK VINA RESULT:    -3.389     13.232     15.418
REMARK INTER + INTRA:          -8.088
REMARK INTER:                  -6.039
REMARK INTRA:                  -2.049
REMARK UNBOUND:                -1.925
REMARK SMILES CCCCCCCCCCCCCCCC(=O)[O-]
REMARK SMILES IDX 9 1 10 2 11 3 12 4 13 5 14 6 15 7 16 8 17 9 18 10 8 11 7 12
REMARK SMILES IDX 6 13 5 14 4 15 3 16 2 17 1 18
REMARK H PARENT
REMARK Flexibility Score: inf
ROOT
ATOM      1  C   UNL     1      -6.129 -64.268  -6.174  1.00  0.00     0.000 C 
ENDROOT
BRANCH   1   2
ATOM      2  C   UNL     1      -6.099 -62.729  -6.238  1.00  0.00     0.000 C 
BRANCH   2   3
ATOM      3  C   UNL     1      -4.809 -62.075  -5.710  1.00  0.00     0.000 C 
BRANCH   3   4
ATOM      4  C   UNL     1      -3.542 -62.869  -6.073  1.00  0.00     0.000 C 
BRANCH   4   5
ATOM      5  C   UNL     1      -3.015 -62.526  -7.475  1.00  0.00     0.000 C 
BRANCH   5   6
ATOM      6  C   UNL     1      -1.570 -63.004  -7.700  1.00  0.00     0.006 C 
BRANCH   6   7
ATOM      7  C   UNL     1      -1.181 -64.140  -6.745  1.00  0.00     0.053 C 
BRANCH   7   8
ATOM      8  C   UNL     1       0.304 -64.321  -6.674  1.00  0.00     0.041 C 
ATOM      9  O   UNL     1       1.072 -63.496  -7.235  1.00  0.00    -0.550 OA
ATOM     10  O   UNL     1       0.841 -65.384  -5.958  1.00  0.00    -0.550 OA
ENDBRANCH   7   8
ENDBRANCH   6   7
ENDBRANCH   5   6
ENDBRANCH   4   5
ENDBRANCH   3   4
ENDBRANCH   2   3
ENDBRANCH   1   2
BRANCH   1  11
ATOM     11  C   UNL     1      -6.714 -64.911  -7.439  1.00  0.00     0.000 C 
BRANCH  11  12
ATOM     12  C   UNL     1      -5.730 -65.922  -8.047  1.00  0.00    -0.000 C 
BRANCH  12  13
ATOM     13  C   UNL     1      -4.471 -66.117  -7.186  1.00  0.00    -0.000 C 
BRANCH  13  14
ATOM     14  C   UNL     1      -4.455 -67.468  -6.456  1.00  0.00    -0.000 C 
BRANCH  14  15
ATOM     15  C   UNL     1      -3.621 -67.385  -5.168  1.00  0.00    -0.000 C 
BRANCH  15  16
ATOM     16  C   UNL     1      -4.433 -66.875  -3.967  1.00  0.00    -0.000 C 
BRANCH  16  17
ATOM     17  C   UNL     1      -3.993 -65.477  -3.506  1.00  0.00    -0.003 C 
ATOM     18  C   UNL     1      -4.959 -64.913  -2.468  1.00  0.00     0.004 C 
ENDBRANCH  16  17
ENDBRANCH  15  16
ENDBRANCH  14  15
ENDBRANCH  13  14
ENDBRANCH  12  13
ENDBRANCH  11  12
ENDBRANCH   1  11
TORSDOF 14
ENDMDL
MODEL 4
REMARK VINA RESULT:    -3.360      2.933      5.519
REMARK INTER + INTRA:          -8.034
REMARK INTER:                  -6.118
REMARK INTRA:                  -1.917
REMARK UNBOUND:                -1.925
REMARK SMILES CCCCCCCCCCCCCCCC(=O)[O-]
REMARK SMILES IDX 9 1 10 2 11 3 12 4 13 5 14 6 15 7 16 8 17 9 18 10 8 11 7 12
REMARK SMILES IDX 6 13 5 14 4 15 3 16 2 17 1 18
REMARK H PARENT
REMARK Flexibility Score: inf
ROOT
ATOM      1  C   UNL     1     -13.628 -76.664  -8.186  1.00  0.00     0.000 C 
ENDROOT
BRANCH   1   2
ATOM      2  C   UNL     1     -14.621 -77.522  -7.380  1.00  0.00     0.000 C 
BRANCH   2   3
ATOM      3  C   UNL     1     -15.467 -76.752  -6.348  1.00  0.00     0.000 C 
BRANCH   3   4
ATOM      4  C   UNL     1     -16.826 -76.295  -6.908  1.00  0.00     0.000 C 
BRANCH   4   5
ATOM      5  C   UNL     1     -17.270 -74.938  -6.339  1.00  0.00     0.000 C 
BRANCH   5   6
ATOM      6  C   UNL     1     -17.825 -73.994  -7.419  1.00  0.00     0.006 C 
BRANCH   6   7
ATOM      7  C   UNL     1     -16.932 -72.764  -7.627  1.00  0.00     0.053 C 
BRANCH   7   8
ATOM      8  C   UNL     1     -17.693 -71.488  -7.443  1.00  0.00     0.041 C 
ATOM      9  O   UNL     1     -18.032 -71.111  -6.290  1.00  0.00    -0.550 OA
ATOM     10  O   UNL     1     -18.001 -70.697  -8.543  1.00  0.00    -0.550 OA
ENDBRANCH   7   8
ENDBRANCH   6   7
ENDBRANCH   5   6
ENDBRANCH   4   5
ENDBRANCH   3   4
ENDBRANCH   2   3
ENDBRANCH   1   2
BRANCH   1  11
ATOM     11  C   UNL     1     -13.660 -76.963  -9.691  1.00  0.00     0.000 C 
BRANCH  11  12
ATOM     12  C   UNL     1     -14.990 -76.515 -10.313  1.00  0.00    -0.000 C 
BRANCH  12  13
ATOM     13  C   UNL     1     -15.305 -75.035 -10.038  1.00  0.00    -0.000 C 
BRANCH  13  14
ATOM     14  C   UNL     1     -14.869 -74.112 -11.186  1.00  0.00    -0.000 C 
BRANCH  14  15
ATOM     15  C   UNL     1     -14.190 -72.846 -10.642  1.00  0.00    -0.000 C 
BRANCH  15  16
ATOM     16  C   UNL     1     -13.390 -73.106  -9.356  1.00  0.00    -0.000 C 
BRANCH  16  17
ATOM     17  C   UNL     1     -11.960 -73.590  -9.637  1.00  0.00    -0.003 C 
ATOM     18  C   UNL     1     -10.948 -72.468  -9.421  1.00  0.00     0.004 C 
ENDBRANCH  16  17
ENDBRANCH  15  16
ENDBRANCH  14  15
ENDBRANCH  13  14
ENDBRANCH  12  13
ENDBRANCH  11  12
ENDBRANCH   1  11
TORSDOF 14
ENDMDL
MODEL 5
REMARK VINA RESULT:    -3.358      1.238      1.903
REMARK INTER + INTRA:          -8.032
REMARK INTER:                  -6.011
REMARK INTRA:                  -2.021
REMARK UNBOUND:                -1.925
REMARK SMILES CCCCCCCCCCCCCCCC(=O)[O-]
REMARK SMILES IDX 9 1 10 2 11 3 12 4 13 5 14 6 15 7 16 8 17 9 18 10 8 11 7 12
REMARK SMILES IDX 6 13 5 14 4 15 3 16 2 17 1 18
REMARK H PARENT
REMARK Flexibility Score: inf
ROOT
ATOM      1  C   UNL     1     -14.106 -78.125  -9.086  1.00  0.00     0.000 C 
ENDROOT
BRANCH   1   2
ATOM      2  C   UNL     1     -14.010 -77.510 -10.495  1.00  0.00     0.000 C 
BRANCH   2   3
ATOM      3  C   UNL     1     -14.963 -76.329 -10.762  1.00  0.00     0.000 C 
BRANCH   3   4
ATOM      4  C   UNL     1     -14.318 -75.217 -11.608  1.00  0.00     0.000 C 
BRANCH   4   5
ATOM      5  C   UNL     1     -12.944 -74.789 -11.068  1.00  0.00     0.000 C 
BRANCH   5   6
ATOM      6  C   UNL     1     -13.037 -74.074  -9.709  1.00  0.00     0.006 C 
BRANCH   6   7
ATOM      7  C   UNL     1     -12.526 -72.629  -9.780  1.00  0.00     0.053 C 
BRANCH   7   8
ATOM      8  C   UNL     1     -11.033 -72.574  -9.895  1.00  0.00     0.041 C 
ATOM      9  O   UNL     1     -10.322 -73.467  -9.365  1.00  0.00    -0.550 OA
ATOM     10  O   UNL     1     -10.429 -71.552 -10.618  1.00  0.00    -0.550 OA
ENDBRANCH   7   8
ENDBRANCH   6   7
ENDBRANCH   5   6
ENDBRANCH   4   5
ENDBRANCH   3   4
ENDBRANCH   2   3
ENDBRANCH   1   2
BRANCH   1  11
ATOM     11  C   UNL     1     -13.629 -77.171  -7.981  1.00  0.00     0.000 C 
BRANCH  11  12
ATOM     12  C   UNL     1     -14.680 -77.049  -6.869  1.00  0.00    -0.000 C 
BRANCH  12  13
ATOM     13  C   UNL     1     -16.039 -76.551  -7.389  1.00  0.00    -0.000 C 
BRANCH  13  14
ATOM     14  C   UNL     1     -16.803 -75.717  -6.350  1.00  0.00    -0.000 C 
BRANCH  14  15
ATOM     15  C   UNL     1     -17.317 -74.409  -6.968  1.00  0.00    -0.000 C 
BRANCH  15  16
ATOM     16  C   UNL     1     -16.853 -74.215  -8.420  1.00  0.00    -0.000 C 
BRANCH  16  17
ATOM     17  C   UNL     1     -16.332 -72.795  -8.690  1.00  0.00    -0.003 C 
ATOM     18  C   UNL     1     -16.418 -72.453 -10.176  1.00  0.00     0.004 C 
ENDBRANCH  16  17
ENDBRANCH  15  16
ENDBRANCH  14  15
ENDBRANCH  13  14
ENDBRANCH  12  13
ENDBRANCH  11  12
ENDBRANCH   1  11
TORSDOF 14
ENDMDL
MODEL 6
REMARK VINA RESULT:    -3.338     13.154     15.405
REMARK INTER + INTRA:          -7.996
REMARK INTER:                  -6.173
REMARK INTRA:                  -1.823
REMARK UNBOUND:                -1.925
REMARK SMILES CCCCCCCCCCCCCCCC(=O)[O-]
REMARK SMILES IDX 9 1 10 2 11 3 12 4 13 5 14 6 15 7 16 8 17 9 18 10 8 11 7 12
REMARK SMILES IDX 6 13 5 14 4 15 3 16 2 17 1 18
REMARK H PARENT
REMARK Flexibility Score: inf
ROOT
ATOM      1  C   UNL     1      -6.653 -62.337  -4.908  1.00  0.00     0.000 C 
ENDROOT
BRANCH   1   2
ATOM      2  C   UNL     1      -6.962 -63.650  -5.652  1.00  0.00     0.000 C 
BRANCH   2   3
ATOM      3  C   UNL     1      -5.823 -64.184  -6.540  1.00  0.00     0.000 C 
BRANCH   3   4
ATOM      4  C   UNL     1      -4.647 -63.199  -6.665  1.00  0.00     0.000 C 
BRANCH   4   5
ATOM      5  C   UNL     1      -3.314 -63.813  -6.206  1.00  0.00     0.000 C 
BRANCH   5   6
ATOM      6  C   UNL     1      -2.116 -63.317  -7.034  1.00  0.00     0.006 C 
BRANCH   6   7
ATOM      7  C   UNL     1      -0.796 -63.418  -6.259  1.00  0.00     0.053 C 
BRANCH   7   8
ATOM      8  C   UNL     1       0.051 -64.551  -6.751  1.00  0.00     0.041 C 
ATOM      9  O   UNL     1      -0.051 -64.949  -7.942  1.00  0.00    -0.550 OA
ATOM     10  O   UNL     1       0.978 -65.145  -5.904  1.00  0.00    -0.550 OA
ENDBRANCH   7   8
ENDBRANCH   6   7
ENDBRANCH   5   6
ENDBRANCH   4   5
ENDBRANCH   3   4
ENDBRANCH   2   3
ENDBRANCH   1   2
BRANCH   1  11
ATOM     11  C   UNL     1      -6.048 -62.564  -3.515  1.00  0.00     0.000 C 
BRANCH  11  12
ATOM     12  C   UNL     1      -6.869 -63.590  -2.721  1.00  0.00    -0.000 C 
BRANCH  12  13
ATOM     13  C   UNL     1      -5.991 -64.658  -2.047  1.00  0.00    -0.000 C 
BRANCH  13  14
ATOM     14  C   UNL     1      -4.746 -65.010  -2.873  1.00  0.00    -0.000 C 
BRANCH  14  15
ATOM     15  C   UNL     1      -4.709 -66.512  -3.196  1.00  0.00    -0.000 C 
BRANCH  15  16
ATOM     16  C   UNL     1      -3.938 -66.822  -4.488  1.00  0.00    -0.000 C 
BRANCH  16  17
ATOM     17  C   UNL     1      -4.590 -67.943  -5.312  1.00  0.00    -0.003 C 
ATOM     18  C   UNL     1      -4.504 -67.647  -6.806  1.00  0.00     0.004 C 
ENDBRANCH  16  17
ENDBRANCH  15  16
ENDBRANCH  14  15
ENDBRANCH  13  14
ENDBRANCH  12  13
ENDBRANCH  11  12
ENDBRANCH   1  11
TORSDOF 14
ENDMDL
MODEL 7
REMARK VINA RESULT:    -3.314     15.843     18.001
REMARK INTER + INTRA:          -7.951
REMARK INTER:                  -5.549
REMARK INTRA:                  -2.402
REMARK UNBOUND:                -1.925
REMARK SMILES CCCCCCCCCCCCCCCC(=O)[O-]
REMARK SMILES IDX 9 1 10 2 11 3 12 4 13 5 14 6 15 7 16 8 17 9 18 10 8 11 7 12
REMARK SMILES IDX 6 13 5 14 4 15 3 16 2 17 1 18
REMARK H PARENT
REMARK Flexibility Score: inf
ROOT
ATOM      1  C   UNL     1      -8.563 -65.725   1.876  1.00  0.00     0.000 C 
ENDROOT
BRANCH   1   2
ATOM      2  C   UNL     1      -8.089 -65.275   3.271  1.00  0.00     0.000 C 
BRANCH   2   3
ATOM      3  C   UNL     1      -8.459 -63.830   3.655  1.00  0.00     0.000 C 
BRANCH   3   4
ATOM      4  C   UNL     1      -7.264 -63.032   4.206  1.00  0.00     0.000 C 
BRANCH   4   5
ATOM      5  C   UNL     1      -7.415 -61.519   3.983  1.00  0.00     0.000 C 
BRANCH   5   6
ATOM      6  C   UNL     1      -8.434 -61.179   2.881  1.00  0.00     0.006 C 
BRANCH   6   7
ATOM      7  C   UNL     1      -8.540 -59.668   2.637  1.00  0.00     0.053 C 
BRANCH   7   8
ATOM      8  C   UNL     1      -9.896 -59.281   2.134  1.00  0.00     0.041 C 
ATOM      9  O   UNL     1     -10.646 -60.143   1.604  1.00  0.00    -0.550 OA
ATOM     10  O   UNL     1     -10.346 -57.975   2.281  1.00  0.00    -0.550 OA
ENDBRANCH   7   8
ENDBRANCH   6   7
ENDBRANCH   5   6
ENDBRANCH   4   5
ENDBRANCH   3   4
ENDBRANCH   2   3
ENDBRANCH   1   2
BRANCH   1  11
ATOM     11  C   UNL     1      -8.992 -64.553   0.982  1.00  0.00     0.000 C 
BRANCH  11  12
ATOM     12  C   UNL     1      -8.750 -64.876  -0.500  1.00  0.00    -0.000 C 
BRANCH  12  13
ATOM     13  C   UNL     1      -8.076 -63.720  -1.257  1.00  0.00    -0.000 C 
BRANCH  13  14
ATOM     14  C   UNL     1      -7.603 -62.595  -0.324  1.00  0.00    -0.000 C 
BRANCH  14  15
ATOM     15  C   UNL     1      -6.070 -62.564  -0.237  1.00  0.00    -0.000 C 
BRANCH  15  16
ATOM     16  C   UNL     1      -5.540 -63.115   1.096  1.00  0.00    -0.000 C 
BRANCH  16  17
ATOM     17  C   UNL     1      -4.881 -64.494   0.947  1.00  0.00    -0.003 C 
ATOM     18  C   UNL     1      -4.603 -64.814  -0.520  1.00  0.00     0.004 C 
ENDBRANCH  16  17
ENDBRANCH  15  16
ENDBRANCH  14  15
ENDBRANCH  13  14
ENDBRANCH  12  13
ENDBRANCH  11  12
ENDBRANCH   1  11
TORSDOF 14
ENDMDL
MODEL 8
REMARK VINA RESULT:    -3.284     14.756     16.721
REMARK INTER + INTRA:          -7.898
REMARK INTER:                  -5.977
REMARK INTRA:                  -1.920
REMARK UNBOUND:                -1.925
REMARK SMILES CCCCCCCCCCCCCCCC(=O)[O-]
REMARK SMILES IDX 9 1 10 2 11 3 12 4 13 5 14 6 15 7 16 8 17 9 18 10 8 11 7 12
REMARK SMILES IDX 6 13 5 14 4 15 3 16 2 17 1 18
REMARK H PARENT
REMARK Flexibility Score: inf
ROOT
ATOM      1  C   UNL     1      -7.903 -65.282   1.641  1.00  0.00     0.000 C 
ENDROOT
BRANCH   1   2
ATOM      2  C   UNL     1      -8.648 -64.017   1.177  1.00  0.00     0.000 C 
BRANCH   2   3
ATOM      3  C   UNL     1      -9.160 -64.053  -0.276  1.00  0.00     0.000 C 
BRANCH   3   4
ATOM      4  C   UNL     1      -8.075 -64.470  -1.284  1.00  0.00     0.000 C 
BRANCH   4   5
ATOM      5  C   UNL     1      -7.220 -63.283  -1.754  1.00  0.00     0.000 C 
BRANCH   5   6
ATOM      6  C   UNL     1      -5.813 -63.707  -2.208  1.00  0.00     0.006 C 
BRANCH   6   7
ATOM      7  C   UNL     1      -5.623 -65.229  -2.157  1.00  0.00     0.053 C 
BRANCH   7   8
ATOM      8  C   UNL     1      -4.498 -65.677  -3.037  1.00  0.00     0.041 C 
ATOM      9  O   UNL     1      -4.530 -66.813  -3.580  1.00  0.00    -0.550 OA
ATOM     10  O   UNL     1      -3.427 -64.827  -3.285  1.00  0.00    -0.550 OA
ENDBRANCH   7   8
ENDBRANCH   6   7
ENDBRANCH   5   6
ENDBRANCH   4   5
ENDBRANCH   3   4
ENDBRANCH   2   3
ENDBRANCH   1   2
BRANCH   1  11
ATOM     11  C   UNL     1      -6.698 -64.974   2.541  1.00  0.00     0.000 C 
BRANCH  11  12
ATOM     12  C   UNL     1      -5.664 -64.114   1.800  1.00  0.00    -0.000 C 
BRANCH  12  13
ATOM     13  C   UNL     1      -4.526 -64.948   1.190  1.00  0.00    -0.000 C 
BRANCH  13  14
ATOM     14  C   UNL     1      -4.250 -66.240   1.974  1.00  0.00    -0.000 C 
BRANCH  14  15
ATOM     15  C   UNL     1      -2.771 -66.330   2.378  1.00  0.00    -0.000 C 
BRANCH  15  16
ATOM     16  C   UNL     1      -2.559 -66.171   3.892  1.00  0.00    -0.000 C 
BRANCH  16  17
ATOM     17  C   UNL     1      -2.616 -64.705   4.348  1.00  0.00    -0.003 C 
ATOM     18  C   UNL     1      -3.878 -64.431   5.161  1.00  0.00     0.004 C 
ENDBRANCH  16  17
ENDBRANCH  15  16
ENDBRANCH  14  15
ENDBRANCH  13  14
ENDBRANCH  12  13
ENDBRANCH  11  12
ENDBRANCH   1  11
TORSDOF 14
ENDMDL
MODEL 9
REMARK VINA RESULT:    -3.278     13.182     15.041
REMARK INTER + INTRA:          -7.886
REMARK INTER:                  -6.483
REMARK INTRA:                  -1.403
REMARK UNBOUND:                -1.925
REMARK SMILES CCCCCCCCCCCCCCCC(=O)[O-]
REMARK SMILES IDX 9 1 10 2 11 3 12 4 13 5 14 6 15 7 16 8 17 9 18 10 8 11 7 12
REMARK SMILES IDX 6 13 5 14 4 15 3 16 2 17 1 18
REMARK H PARENT
REMARK Flexibility Score: inf
ROOT
ATOM      1  C   UNL     1      -3.975 -65.137  -4.177  1.00  0.00     0.000 C 
ENDROOT
BRANCH   1   2
ATOM      2  C   UNL     1      -5.183 -64.403  -3.565  1.00  0.00     0.000 C 
BRANCH   2   3
ATOM      3  C   UNL     1      -5.702 -64.987  -2.238  1.00  0.00     0.000 C 
BRANCH   3   4
ATOM      4  C   UNL     1      -5.302 -64.143  -1.014  1.00  0.00     0.000 C 
BRANCH   4   5
ATOM      5  C   UNL     1      -6.513 -63.726  -0.165  1.00  0.00     0.000 C 
BRANCH   5   6
ATOM      6  C   UNL     1      -7.853 -63.974  -0.879  1.00  0.00     0.006 C 
BRANCH   6   7
ATOM      7  C   UNL     1      -8.784 -64.880  -0.063  1.00  0.00     0.053 C 
BRANCH   7   8
ATOM      8  C   UNL     1      -9.488 -64.121   1.019  1.00  0.00     0.041 C 
ATOM      9  O   UNL     1      -9.870 -62.938   0.819  1.00  0.00    -0.550 OA
ATOM     10  O   UNL     1      -9.753 -64.732   2.238  1.00  0.00    -0.550 OA
ENDBRANCH   7   8
ENDBRANCH   6   7
ENDBRANCH   5   6
ENDBRANCH   4   5
ENDBRANCH   3   4
ENDBRANCH   2   3
ENDBRANCH   1   2
BRANCH   1  11
ATOM     11  C   UNL     1      -4.133 -66.664  -4.166  1.00  0.00     0.000 C 
BRANCH  11  12
ATOM     12  C   UNL     1      -3.580 -67.283  -5.459  1.00  0.00    -0.000 C 
BRANCH  12  13
ATOM     13  C   UNL     1      -4.679 -67.896  -6.341  1.00  0.00    -0.000 C 
BRANCH  13  14
ATOM     14  C   UNL     1      -4.698 -67.308  -7.760  1.00  0.00    -0.000 C 
BRANCH  14  15
ATOM     15  C   UNL     1      -4.864 -65.782  -7.718  1.00  0.00    -0.000 C 
BRANCH  15  16
ATOM     16  C   UNL     1      -6.297 -65.350  -7.368  1.00  0.00    -0.000 C 
BRANCH  16  17
ATOM     17  C   UNL     1      -6.432 -63.829  -7.200  1.00  0.00    -0.003 C 
ATOM     18  C   UNL     1      -7.575 -63.482  -6.249  1.00  0.00     0.004 C 
ENDBRANCH  16  17
ENDBRANCH  15  16
ENDBRANCH  14  15
ENDBRANCH  13  14
ENDBRANCH  12  13
ENDBRANCH  11  12
ENDBRANCH   1  11
TORSDOF 14
ENDMDL
