MODEL 1
REMARK VINA RESULT:    -5.400      0.000      0.000
REMARK INTER + INTRA:          -6.850
REMARK INTER:                  -6.505
REMARK INTRA:                  -0.345
REMARK UNBOUND:                -0.345
REMARK SMILES O=c1c(O)c(-c2ccc(O)cc2O)oc2cc(O)cc(O)c12
REMARK SMILES IDX 5 1 3 2 2 3 1 4 22 5 20 6 19 7 17 8 16 9 15 10 14 11 6 12
REMARK SMILES IDX 8 13 7 14 9 15 11 16 12 17 10 18 13 20 4 22 21 24 18 26
REMARK H PARENT 10 19 13 21 4 23 21 25 18 27
REMARK Flexibility Score: inf
ROOT
ATOM      1  C   UNL     1     121.220 127.547 130.602  1.00  0.00     0.184 A 
ATOM      2  C   UNL     1     120.788 128.882 130.615  1.00  0.00     0.208 A 
ATOM      3  C   UNL     1     121.630 129.874 130.087  1.00  0.00     0.238 A 
ATOM      4  O   UNL     1     121.213 131.060 130.046  1.00  0.00    -0.285 OA
ATOM      5  C   UNL     1     122.904 129.519 129.581  1.00  0.00     0.111 A 
ATOM      6  C   UNL     1     123.856 130.447 129.059  1.00  0.00     0.134 A 
ATOM      7  C   UNL     1     125.035 129.970 128.472  1.00  0.00     0.093 A 
ATOM      8  C   UNL     1     125.326 128.604 128.448  1.00  0.00     0.123 A 
ATOM      9  C   UNL     1     124.430 127.696 129.006  1.00  0.00     0.094 A 
ATOM     10  C   UNL     1     123.229 128.137 129.566  1.00  0.00     0.146 A 
ATOM     11  O   UNL     1     122.397 127.236 130.074  1.00  0.00    -0.451 OA
ENDROOT
BRANCH   1  12
ATOM     12  C   UNL     1     120.386 126.463 131.164  1.00  0.00     0.063 A 
ATOM     13  C   UNL     1     120.051 124.765 132.875  1.00  0.00     0.047 A 
ATOM     14  C   UNL     1     120.790 125.829 132.353  1.00  0.00     0.020 A 
ATOM     15  C   UNL     1     118.904 124.314 132.215  1.00  0.00     0.119 A 
ATOM     16  C   UNL     1     118.495 124.935 131.033  1.00  0.00     0.093 A 
ATOM     17  C   UNL     1     119.220 126.011 130.503  1.00  0.00     0.130 A 
BRANCH  15  18
ATOM     18  O   UNL     1     118.163 123.251 132.724  1.00  0.00    -0.508 OA
ATOM     19  H   UNL     1     117.695 123.312 133.622  1.00  0.00     0.293 HD
ENDBRANCH  15  18
BRANCH  17  20
ATOM     20  O   UNL     1     118.746 126.617 129.338  1.00  0.00    -0.507 OA
ATOM     21  H   UNL     1     117.872 126.359 128.898  1.00  0.00     0.293 HD
ENDBRANCH  17  20
ENDBRANCH   1  12
BRANCH   2  22
ATOM     22  O   UNL     1     119.528 129.203 131.125  1.00  0.00    -0.502 OA
ATOM     23  H   UNL     1     119.283 130.141 131.419  1.00  0.00     0.293 HD
ENDBRANCH   2  22
BRANCH   6  24
ATOM     24  O   UNL     1     123.705 131.836 129.115  1.00  0.00    -0.507 OA
ATOM     25  H   UNL     1     122.961 132.315 129.598  1.00  0.00     0.293 HD
ENDBRANCH   6  24
BRANCH   8  26
ATOM     26  O   UNL     1     126.509 128.140 127.876  1.00  0.00    -0.508 OA
ATOM     27  H   UNL     1     127.355 128.034 128.422  1.00  0.00     0.293 HD
ENDBRANCH   8  26
TORSDOF 6
ENDMDL
MODEL 2
REMARK VINA RESULT:    -5.308      2.010      6.697
REMARK INTER + INTRA:          -6.739
REMARK INTER:                  -6.354
REMARK INTRA:                  -0.385
REMARK UNBOUND:                -0.345
REMARK SMILES O=c1c(O)c(-c2ccc(O)cc2O)oc2cc(O)cc(O)c12
REMARK SMILES IDX 5 1 3 2 2 3 1 4 22 5 20 6 19 7 17 8 16 9 15 10 14 11 6 12
REMARK SMILES IDX 8 13 7 14 9 15 11 16 12 17 10 18 13 20 4 22 21 24 18 26
REMARK H PARENT 10 19 13 21 4 23 21 25 18 27
REMARK Flexibility Score: inf
ROOT
ATOM      1  C   UNL     1     120.683 128.494 129.835  1.00  0.00     0.184 A 
ATOM      2  C   UNL     1     119.604 128.010 129.078  1.00  0.00     0.208 A 
ATOM      3  C   UNL     1     118.946 126.845 129.500  1.00  0.00     0.238 A 
ATOM      4  O   UNL     1     117.943 126.450 128.851  1.00  0.00    -0.285 OA
ATOM      5  C   UNL     1     119.393 126.164 130.658  1.00  0.00     0.111 A 
ATOM      6  C   UNL     1     118.826 124.951 131.155  1.00  0.00     0.134 A 
ATOM      7  C   UNL     1     119.270 124.432 132.378  1.00  0.00     0.093 A 
ATOM      8  C   UNL     1     120.305 125.045 133.088  1.00  0.00     0.123 A 
ATOM      9  C   UNL     1     120.904 126.196 132.582  1.00  0.00     0.094 A 
ATOM     10  C   UNL     1     120.459 126.759 131.384  1.00  0.00     0.146 A 
ATOM     11  O   UNL     1     121.048 127.864 130.945  1.00  0.00    -0.451 OA
ENDROOT
BRANCH   1  12
ATOM     12  C   UNL     1     121.428 129.704 129.428  1.00  0.00     0.063 A 
ATOM     13  C   UNL     1     122.978 130.776 127.887  1.00  0.00     0.047 A 
ATOM     14  C   UNL     1     122.220 129.666 128.265  1.00  0.00     0.020 A 
ATOM     15  C   UNL     1     122.963 131.936 128.668  1.00  0.00     0.119 A 
ATOM     16  C   UNL     1     122.183 131.984 129.825  1.00  0.00     0.093 A 
ATOM     17  C   UNL     1     121.408 130.882 130.210  1.00  0.00     0.130 A 
BRANCH  15  18
ATOM     18  O   UNL     1     123.720 133.048 128.303  1.00  0.00    -0.508 OA
ATOM     19  H   UNL     1     123.667 133.918 128.821  1.00  0.00     0.293 HD
ENDBRANCH  15  18
BRANCH  17  20
ATOM     20  O   UNL     1     120.619 130.998 131.356  1.00  0.00    -0.507 OA
ATOM     21  H   UNL     1     120.975 130.842 132.290  1.00  0.00     0.293 HD
ENDBRANCH  17  20
ENDBRANCH   1  12
BRANCH   2  22
ATOM     22  O   UNL     1     119.188 128.701 127.938  1.00  0.00    -0.502 OA
ATOM     23  H   UNL     1     118.692 128.248 127.179  1.00  0.00     0.293 HD
ENDBRANCH   2  22
BRANCH   6  24
ATOM     24  O   UNL     1     117.851 124.210 130.481  1.00  0.00    -0.507 OA
ATOM     25  H   UNL     1     117.037 124.603 130.033  1.00  0.00     0.293 HD
ENDBRANCH   6  24
BRANCH   8  26
ATOM     26  O   UNL     1     120.751 124.512 134.296  1.00  0.00    -0.508 OA
ATOM     27  H   UNL     1     120.618 123.534 134.525  1.00  0.00     0.293 HD
ENDBRANCH   8  26
TORSDOF 6
ENDMDL
MODEL 3
REMARK VINA RESULT:    -5.251      1.681      6.834
REMARK INTER + INTRA:          -6.670
REMARK INTER:                  -6.328
REMARK INTRA:                  -0.342
REMARK UNBOUND:                -0.345
REMARK SMILES O=c1c(O)c(-c2ccc(O)cc2O)oc2cc(O)cc(O)c12
REMARK SMILES IDX 5 1 3 2 2 3 1 4 22 5 20 6 19 7 17 8 16 9 15 10 14 11 6 12
REMARK SMILES IDX 8 13 7 14 9 15 11 16 12 17 10 18 13 20 4 22 21 24 18 26
REMARK H PARENT 10 19 13 21 4 23 21 25 18 27
REMARK Flexibility Score: inf
ROOT
ATOM      1  C   UNL     1     122.057 127.612 130.114  1.00  0.00     0.184 A 
ATOM      2  C   UNL     1     122.201 126.863 131.292  1.00  0.00     0.208 A 
ATOM      3  C   UNL     1     121.107 126.124 131.767  1.00  0.00     0.238 A 
ATOM      4  O   UNL     1     121.260 125.408 132.790  1.00  0.00    -0.285 OA
ATOM      5  C   UNL     1     119.874 126.167 131.072  1.00  0.00     0.111 A 
ATOM      6  C   UNL     1     118.686 125.489 131.485  1.00  0.00     0.134 A 
ATOM      7  C   UNL     1     117.559 125.504 130.654  1.00  0.00     0.093 A 
ATOM      8  C   UNL     1     117.555 126.225 129.457  1.00  0.00     0.123 A 
ATOM      9  C   UNL     1     118.690 126.936 129.074  1.00  0.00     0.094 A 
ATOM     10  C   UNL     1     119.842 126.912 129.863  1.00  0.00     0.146 A 
ATOM     11  O   UNL     1     120.905 127.592 129.454  1.00  0.00    -0.451 OA
ENDROOT
BRANCH   1  12
ATOM     12  C   UNL     1     123.168 128.426 129.578  1.00  0.00     0.063 A 
ATOM     13  C   UNL     1     124.078 130.623 129.058  1.00  0.00     0.047 A 
ATOM     14  C   UNL     1     123.069 129.830 129.607  1.00  0.00     0.020 A 
ATOM     15  C   UNL     1     125.196 130.027 128.465  1.00  0.00     0.119 A 
ATOM     16  C   UNL     1     125.303 128.635 128.429  1.00  0.00     0.093 A 
ATOM     17  C   UNL     1     124.304 127.828 128.986  1.00  0.00     0.130 A 
BRANCH  15  18
ATOM     18  O   UNL     1     126.207 130.809 127.909  1.00  0.00    -0.508 OA
ATOM     19  H   UNL     1     127.160 130.471 127.837  1.00  0.00     0.293 HD
ENDBRANCH  15  18
BRANCH  17  20
ATOM     20  O   UNL     1     124.480 126.443 128.954  1.00  0.00    -0.507 OA
ATOM     21  H   UNL     1     125.040 125.942 129.632  1.00  0.00     0.293 HD
ENDBRANCH  17  20
ENDBRANCH   1  12
BRANCH   2  22
ATOM     22  O   UNL     1     123.429 126.843 131.959  1.00  0.00    -0.502 OA
ATOM     23  H   UNL     1     123.538 126.443 132.884  1.00  0.00     0.293 HD
ENDBRANCH   2  22
BRANCH   6  24
ATOM     24  O   UNL     1     118.554 124.816 132.702  1.00  0.00    -0.507 OA
ATOM     25  H   UNL     1     118.893 125.157 133.589  1.00  0.00     0.293 HD
ENDBRANCH   6  24
BRANCH   8  26
ATOM     26  O   UNL     1     116.423 126.246 128.644  1.00  0.00    -0.508 OA
ATOM     27  H   UNL     1     116.427 125.834 127.719  1.00  0.00     0.293 HD
ENDBRANCH   8  26
TORSDOF 6
ENDMDL
MODEL 4
REMARK VINA RESULT:    -5.183      1.896      6.911
REMARK INTER + INTRA:          -6.588
REMARK INTER:                  -6.182
REMARK INTRA:                  -0.406
REMARK UNBOUND:                -0.345
REMARK SMILES O=c1c(O)c(-c2ccc(O)cc2O)oc2cc(O)cc(O)c12
REMARK SMILES IDX 5 1 3 2 2 3 1 4 22 5 20 6 19 7 17 8 16 9 15 10 14 11 6 12
REMARK SMILES IDX 8 13 7 14 9 15 11 16 12 17 10 18 13 20 4 22 21 24 18 26
REMARK H PARENT 10 19 13 21 4 23 21 25 18 27
REMARK Flexibility Score: inf
ROOT
ATOM      1  C   UNL     1     121.165 128.415 130.463  1.00  0.00     0.184 A 
ATOM      2  C   UNL     1     121.868 127.509 131.273  1.00  0.00     0.208 A 
ATOM      3  C   UNL     1     121.219 126.345 131.711  1.00  0.00     0.238 A 
ATOM      4  O   UNL     1     121.872 125.508 132.387  1.00  0.00    -0.285 OA
ATOM      5  C   UNL     1     119.867 126.116 131.357  1.00  0.00     0.111 A 
ATOM      6  C   UNL     1     119.098 124.989 131.779  1.00  0.00     0.134 A 
ATOM      7  C   UNL     1     117.807 124.804 131.267  1.00  0.00     0.093 A 
ATOM      8  C   UNL     1     117.235 125.739 130.400  1.00  0.00     0.123 A 
ATOM      9  C   UNL     1     117.956 126.870 130.029  1.00  0.00     0.094 A 
ATOM     10  C   UNL     1     119.259 127.065 130.493  1.00  0.00     0.146 A 
ATOM     11  O   UNL     1     119.915 128.151 130.103  1.00  0.00    -0.451 OA
ENDROOT
BRANCH   1  12
ATOM     12  C   UNL     1     121.790 129.669 129.989  1.00  0.00     0.063 A 
ATOM     13  C   UNL     1     122.261 132.029 130.354  1.00  0.00     0.047 A 
ATOM     14  C   UNL     1     121.729 130.818 130.800  1.00  0.00     0.020 A 
ATOM     15  C   UNL     1     122.854 132.114 129.090  1.00  0.00     0.119 A 
ATOM     16  C   UNL     1     122.918 130.980 128.277  1.00  0.00     0.093 A 
ATOM     17  C   UNL     1     122.398 129.756 128.716  1.00  0.00     0.130 A 
BRANCH  15  18
ATOM     18  O   UNL     1     123.383 133.318 128.633  1.00  0.00    -0.508 OA
ATOM     19  H   UNL     1     124.043 133.350 127.863  1.00  0.00     0.293 HD
ENDBRANCH  15  18
BRANCH  17  20
ATOM     20  O   UNL     1     122.522 128.647 127.876  1.00  0.00    -0.507 OA
ATOM     21  H   UNL     1     123.204 128.591 127.132  1.00  0.00     0.293 HD
ENDBRANCH  17  20
ENDBRANCH   1  12
BRANCH   2  22
ATOM     22  O   UNL     1     123.199 127.764 131.610  1.00  0.00    -0.502 OA
ATOM     23  H   UNL     1     123.510 128.665 131.953  1.00  0.00     0.293 HD
ENDBRANCH   2  22
BRANCH   6  24
ATOM     24  O   UNL     1     119.540 124.046 132.710  1.00  0.00    -0.507 OA
ATOM     25  H   UNL     1     119.829 123.105 132.485  1.00  0.00     0.293 HD
ENDBRANCH   6  24
BRANCH   8  26
ATOM     26  O   UNL     1     115.944 125.553 129.909  1.00  0.00    -0.508 OA
ATOM     27  H   UNL     1     115.702 124.747 129.347  1.00  0.00     0.293 HD
ENDBRANCH   8  26
TORSDOF 6
ENDMDL
MODEL 5
REMARK VINA RESULT:    -5.172     14.354     17.680
REMARK INTER + INTRA:          -6.575
REMARK INTER:                  -6.230
REMARK INTRA:                  -0.345
REMARK UNBOUND:                -0.345
REMARK SMILES O=c1c(O)c(-c2ccc(O)cc2O)oc2cc(O)cc(O)c12
REMARK SMILES IDX 5 1 3 2 2 3 1 4 22 5 20 6 19 7 17 8 16 9 15 10 14 11 6 12
REMARK SMILES IDX 8 13 7 14 9 15 11 16 12 17 10 18 13 20 4 22 21 24 18 26
REMARK H PARENT 10 19 13 21 4 23 21 25 18 27
REMARK Flexibility Score: inf
ROOT
ATOM      1  C   UNL     1     135.133 137.885 134.763  1.00  0.00     0.184 A 
ATOM      2  C   UNL     1     135.644 138.600 133.668  1.00  0.00     0.208 A 
ATOM      3  C   UNL     1     135.721 137.965 132.419  1.00  0.00     0.238 A 
ATOM      4  O   UNL     1     136.123 138.629 131.429  1.00  0.00    -0.285 OA
ATOM      5  C   UNL     1     135.313 136.616 132.289  1.00  0.00     0.111 A 
ATOM      6  C   UNL     1     135.384 135.860 131.078  1.00  0.00     0.134 A 
ATOM      7  C   UNL     1     134.838 134.571 131.036  1.00  0.00     0.093 A 
ATOM      8  C   UNL     1     134.282 133.987 132.177  1.00  0.00     0.123 A 
ATOM      9  C   UNL     1     134.259 134.694 133.376  1.00  0.00     0.094 A 
ATOM     10  C   UNL     1     134.763 135.995 133.441  1.00  0.00     0.146 A 
ATOM     11  O   UNL     1     134.709 136.638 134.601  1.00  0.00    -0.451 OA
ENDROOT
BRANCH   1  12
ATOM     12  C   UNL     1     135.049 138.494 136.108  1.00  0.00     0.063 A 
ATOM     13  C   UNL     1     135.833 138.577 138.411  1.00  0.00     0.047 A 
ATOM     14  C   UNL     1     135.927 138.059 137.117  1.00  0.00     0.020 A 
ATOM     15  C   UNL     1     134.856 139.530 138.717  1.00  0.00     0.119 A 
ATOM     16  C   UNL     1     133.977 139.967 137.723  1.00  0.00     0.093 A 
ATOM     17  C   UNL     1     134.068 139.465 136.419  1.00  0.00     0.130 A 
BRANCH  15  18
ATOM     18  O   UNL     1     134.749 140.049 140.006  1.00  0.00    -0.508 OA
ATOM     19  H   UNL     1     134.766 141.048 140.178  1.00  0.00     0.293 HD
ENDBRANCH  15  18
BRANCH  17  20
ATOM     20  O   UNL     1     133.188 139.964 135.457  1.00  0.00    -0.507 OA
ATOM     21  H   UNL     1     132.212 139.703 135.413  1.00  0.00     0.293 HD
ENDBRANCH  17  20
ENDBRANCH   1  12
BRANCH   2  22
ATOM     22  O   UNL     1     136.043 139.929 133.828  1.00  0.00    -0.502 OA
ATOM     23  H   UNL     1     136.919 140.281 133.459  1.00  0.00     0.293 HD
ENDBRANCH   2  22
BRANCH   6  24
ATOM     24  O   UNL     1     135.999 136.315 129.909  1.00  0.00    -0.507 OA
ATOM     25  H   UNL     1     136.902 136.764 129.870  1.00  0.00     0.293 HD
ENDBRANCH   6  24
BRANCH   8  26
ATOM     26  O   UNL     1     133.755 132.697 132.128  1.00  0.00    -0.508 OA
ATOM     27  H   UNL     1     133.549 132.242 131.248  1.00  0.00     0.293 HD
ENDBRANCH   8  26
TORSDOF 6
ENDMDL
MODEL 6
REMARK VINA RESULT:    -5.167     13.488     15.624
REMARK INTER + INTRA:          -6.569
REMARK INTER:                  -6.167
REMARK INTRA:                  -0.402
REMARK UNBOUND:                -0.345
REMARK SMILES O=c1c(O)c(-c2ccc(O)cc2O)oc2cc(O)cc(O)c12
REMARK SMILES IDX 5 1 3 2 2 3 1 4 22 5 20 6 19 7 17 8 16 9 15 10 14 11 6 12
REMARK SMILES IDX 8 13 7 14 9 15 11 16 12 17 10 18 13 20 4 22 21 24 18 26
REMARK H PARENT 10 19 13 21 4 23 21 25 18 27
REMARK Flexibility Score: inf
ROOT
ATOM      1  C   UNL     1     135.108 134.047 134.407  1.00  0.00     0.184 A 
ATOM      2  C   UNL     1     135.165 135.171 135.245  1.00  0.00     0.208 A 
ATOM      3  C   UNL     1     135.362 136.437 134.672  1.00  0.00     0.238 A 
ATOM      4  O   UNL     1     135.352 137.447 135.422  1.00  0.00    -0.285 OA
ATOM      5  C   UNL     1     135.528 136.557 133.271  1.00  0.00     0.111 A 
ATOM      6  C   UNL     1     135.773 137.787 132.586  1.00  0.00     0.134 A 
ATOM      7  C   UNL     1     135.799 137.803 131.186  1.00  0.00     0.093 A 
ATOM      8  C   UNL     1     135.652 136.626 130.449  1.00  0.00     0.123 A 
ATOM      9  C   UNL     1     135.470 135.414 131.109  1.00  0.00     0.094 A 
ATOM     10  C   UNL     1     135.403 135.369 132.504  1.00  0.00     0.146 A 
ATOM     11  O   UNL     1     135.214 134.195 133.092  1.00  0.00    -0.451 OA
ENDROOT
BRANCH   1  12
ATOM     12  C   UNL     1     134.924 132.686 134.955  1.00  0.00     0.063 A 
ATOM     13  C   UNL     1     135.861 130.766 136.122  1.00  0.00     0.047 A 
ATOM     14  C   UNL     1     135.987 132.071 135.642  1.00  0.00     0.020 A 
ATOM     15  C   UNL     1     134.675 130.053 135.916  1.00  0.00     0.119 A 
ATOM     16  C   UNL     1     133.615 130.653 135.234  1.00  0.00     0.093 A 
ATOM     17  C   UNL     1     133.724 131.966 134.757  1.00  0.00     0.130 A 
BRANCH  15  18
ATOM     18  O   UNL     1     134.540 128.749 136.386  1.00  0.00    -0.508 OA
ATOM     19  H   UNL     1     134.831 128.489 137.323  1.00  0.00     0.293 HD
ENDBRANCH  15  18
BRANCH  17  20
ATOM     20  O   UNL     1     132.619 132.528 134.114  1.00  0.00    -0.507 OA
ATOM     21  H   UNL     1     132.535 133.518 133.925  1.00  0.00     0.293 HD
ENDBRANCH  17  20
ENDBRANCH   1  12
BRANCH   2  22
ATOM     22  O   UNL     1     135.002 135.021 136.625  1.00  0.00    -0.502 OA
ATOM     23  H   UNL     1     135.788 134.941 137.259  1.00  0.00     0.293 HD
ENDBRANCH   2  22
BRANCH   6  24
ATOM     24  O   UNL     1     136.023 139.002 133.229  1.00  0.00    -0.507 OA
ATOM     25  H   UNL     1     136.922 139.458 133.271  1.00  0.00     0.293 HD
ENDBRANCH   6  24
BRANCH   8  26
ATOM     26  O   UNL     1     135.695 136.650 129.056  1.00  0.00    -0.508 OA
ATOM     27  H   UNL     1     134.853 136.566 128.499  1.00  0.00     0.293 HD
ENDBRANCH   8  26
TORSDOF 6
ENDMDL
MODEL 7
REMARK VINA RESULT:    -4.973      9.389     13.061
REMARK INTER + INTRA:          -6.335
REMARK INTER:                  -5.932
REMARK INTRA:                  -0.403
REMARK UNBOUND:                -0.345
REMARK SMILES O=c1c(O)c(-c2ccc(O)cc2O)oc2cc(O)cc(O)c12
REMARK SMILES IDX 5 1 3 2 2 3 1 4 22 5 20 6 19 7 17 8 16 9 15 10 14 11 6 12
REMARK SMILES IDX 8 13 7 14 9 15 11 16 12 17 10 18 13 20 4 22 21 24 18 26
REMARK H PARENT 10 19 13 21 4 23 21 25 18 27
REMARK Flexibility Score: inf
ROOT
ATOM      1  C   UNL     1     131.993 134.381 129.690  1.00  0.00     0.184 A 
ATOM      2  C   UNL     1     133.140 134.512 130.488  1.00  0.00     0.208 A 
ATOM      3  C   UNL     1     133.663 135.793 130.722  1.00  0.00     0.238 A 
ATOM      4  O   UNL     1     134.655 135.909 131.487  1.00  0.00    -0.285 OA
ATOM      5  C   UNL     1     133.048 136.923 130.130  1.00  0.00     0.111 A 
ATOM      6  C   UNL     1     133.516 138.265 130.267  1.00  0.00     0.134 A 
ATOM      7  C   UNL     1     132.758 139.318 129.739  1.00  0.00     0.093 A 
ATOM      8  C   UNL     1     131.584 139.071 129.024  1.00  0.00     0.123 A 
ATOM      9  C   UNL     1     131.149 137.762 128.836  1.00  0.00     0.094 A 
ATOM     10  C   UNL     1     131.863 136.693 129.382  1.00  0.00     0.146 A 
ATOM     11  O   UNL     1     131.407 135.462 129.191  1.00  0.00    -0.451 OA
ENDROOT
BRANCH   1  12
ATOM     12  C   UNL     1     131.410 133.055 129.391  1.00  0.00     0.063 A 
ATOM     13  C   UNL     1     131.502 130.975 128.130  1.00  0.00     0.047 A 
ATOM     14  C   UNL     1     132.059 132.209 128.473  1.00  0.00     0.020 A 
ATOM     15  C   UNL     1     130.286 130.572 128.692  1.00  0.00     0.119 A 
ATOM     16  C   UNL     1     129.632 131.406 129.602  1.00  0.00     0.093 A 
ATOM     17  C   UNL     1     130.186 132.641 129.964  1.00  0.00     0.130 A 
BRANCH  15  18
ATOM     18  O   UNL     1     129.719 129.346 128.352  1.00  0.00    -0.508 OA
ATOM     19  H   UNL     1     129.074 128.870 128.974  1.00  0.00     0.293 HD
ENDBRANCH  15  18
BRANCH  17  20
ATOM     20  O   UNL     1     129.507 133.417 130.905  1.00  0.00    -0.507 OA
ATOM     21  H   UNL     1     128.676 133.950 130.686  1.00  0.00     0.293 HD
ENDBRANCH  17  20
ENDBRANCH   1  12
BRANCH   2  22
ATOM     22  O   UNL     1     133.728 133.378 131.055  1.00  0.00    -0.502 OA
ATOM     23  H   UNL     1     134.546 133.431 131.650  1.00  0.00     0.293 HD
ENDBRANCH   2  22
BRANCH   6  24
ATOM     24  O   UNL     1     134.722 138.613 130.883  1.00  0.00    -0.507 OA
ATOM     25  H   UNL     1     135.635 138.321 130.569  1.00  0.00     0.293 HD
ENDBRANCH   6  24
BRANCH   8  26
ATOM     26  O   UNL     1     130.844 140.125 128.489  1.00  0.00    -0.508 OA
ATOM     27  H   UNL     1     130.015 139.961 127.930  1.00  0.00     0.293 HD
ENDBRANCH   8  26
TORSDOF 6
ENDMDL
MODEL 8
REMARK VINA RESULT:    -4.941      1.737      6.617
REMARK INTER + INTRA:          -6.297
REMARK INTER:                  -5.894
REMARK INTRA:                  -0.403
REMARK UNBOUND:                -0.345
REMARK SMILES O=c1c(O)c(-c2ccc(O)cc2O)oc2cc(O)cc(O)c12
REMARK SMILES IDX 5 1 3 2 2 3 1 4 22 5 20 6 19 7 17 8 16 9 15 10 14 11 6 12
REMARK SMILES IDX 8 13 7 14 9 15 11 16 12 17 10 18 13 20 4 22 21 24 18 26
REMARK H PARENT 10 19 13 21 4 23 21 25 18 27
REMARK Flexibility Score: inf
ROOT
ATOM      1  C   UNL     1     121.034 127.668 129.614  1.00  0.00     0.184 A 
ATOM      2  C   UNL     1     120.052 128.203 128.765  1.00  0.00     0.208 A 
ATOM      3  C   UNL     1     118.741 127.709 128.845  1.00  0.00     0.238 A 
ATOM      4  O   UNL     1     117.854 128.234 128.124  1.00  0.00    -0.285 OA
ATOM      5  C   UNL     1     118.436 126.667 129.754  1.00  0.00     0.111 A 
ATOM      6  C   UNL     1     117.149 126.062 129.892  1.00  0.00     0.134 A 
ATOM      7  C   UNL     1     116.933 125.124 130.909  1.00  0.00     0.093 A 
ATOM      8  C   UNL     1     117.973 124.721 131.751  1.00  0.00     0.123 A 
ATOM      9  C   UNL     1     119.245 125.263 131.587  1.00  0.00     0.094 A 
ATOM     10  C   UNL     1     119.484 126.228 130.606  1.00  0.00     0.146 A 
ATOM     11  O   UNL     1     120.708 126.728 130.493  1.00  0.00    -0.451 OA
ENDROOT
BRANCH   1  12
ATOM     12  C   UNL     1     122.436 128.133 129.560  1.00  0.00     0.063 A 
ATOM     13  C   UNL     1     124.589 128.130 128.425  1.00  0.00     0.047 A 
ATOM     14  C   UNL     1     123.246 127.752 128.474  1.00  0.00     0.020 A 
ATOM     15  C   UNL     1     125.145 128.887 129.461  1.00  0.00     0.119 A 
ATOM     16  C   UNL     1     124.350 129.270 130.544  1.00  0.00     0.093 A 
ATOM     17  C   UNL     1     122.998 128.907 130.601  1.00  0.00     0.130 A 
BRANCH  15  18
ATOM     18  O   UNL     1     126.485 129.266 129.425  1.00  0.00    -0.508 OA
ATOM     19  H   UNL     1     126.997 129.322 128.551  1.00  0.00     0.293 HD
ENDBRANCH  15  18
BRANCH  17  20
ATOM     20  O   UNL     1     122.242 129.347 131.689  1.00  0.00    -0.507 OA
ATOM     21  H   UNL     1     121.231 129.355 131.692  1.00  0.00     0.293 HD
ENDBRANCH  17  20
ENDBRANCH   1  12
BRANCH   2  22
ATOM     22  O   UNL     1     120.384 129.227 127.875  1.00  0.00    -0.502 OA
ATOM     23  H   UNL     1     120.532 130.183 128.178  1.00  0.00     0.293 HD
ENDBRANCH   2  22
BRANCH   6  24
ATOM     24  O   UNL     1     116.068 126.326 129.047  1.00  0.00    -0.507 OA
ATOM     25  H   UNL     1     115.734 127.248 128.808  1.00  0.00     0.293 HD
ENDBRANCH   6  24
BRANCH   8  26
ATOM     26  O   UNL     1     117.751 123.776 132.750  1.00  0.00    -0.508 OA
ATOM     27  H   UNL     1     118.406 123.023 132.922  1.00  0.00     0.293 HD
ENDBRANCH   8  26
TORSDOF 6
ENDMDL
