MODEL 1
REMARK VINA RESULT:     1.173      0.000      0.000
REMARK INTER + INTRA:           1.644
REMARK INTER:                   2.271
REMARK INTRA:                  -0.627
REMARK UNBOUND:                -0.627
REMARK SMILES CCCCCCCCCCCCCCCCCC(=O)[O-]
REMARK SMILES IDX 10 1 11 2 12 3 13 4 14 5 15 6 16 7 17 8 18 9 19 10 20 11
REMARK SMILES IDX 9 12 8 13 7 14 6 15 5 16 4 17 3 18 2 19 1 20
REMARK H PARENT
REMARK Flexibility Score: inf
ROOT
ATOM      1  C   UNL     1       3.903  44.491  11.149  1.00  0.00     0.000 C 
ENDROOT
BRANCH   1   2
ATOM      2  C   UNL     1       4.471  43.691   9.960  1.00  0.00     0.000 C 
BRANCH   2   3
ATOM      3  C   UNL     1       6.010  43.642   9.875  1.00  0.00     0.000 C 
BRANCH   3   4
ATOM      4  C   UNL     1       6.717  45.002  10.016  1.00  0.00     0.000 C 
BRANCH   4   5
ATOM      5  C   UNL     1       7.874  44.971  11.029  1.00  0.00     0.000 C 
BRANCH   5   6
ATOM      6  C   UNL     1       8.699  43.672  10.959  1.00  0.00     0.000 C 
BRANCH   6   7
ATOM      7  C   UNL     1       8.662  42.801  12.228  1.00  0.00     0.006 C 
BRANCH   7   8
ATOM      8  C   UNL     1       7.350  42.018  12.379  1.00  0.00     0.053 C 
BRANCH   8   9
ATOM      9  C   UNL     1       6.588  42.504  13.571  1.00  0.00     0.041 C 
ATOM     10  O   UNL     1       6.704  41.917  14.680  1.00  0.00    -0.550 OA
ATOM     11  O   UNL     1       5.780  43.627  13.469  1.00  0.00    -0.550 OA
ENDBRANCH   8   9
ENDBRANCH   7   8
ENDBRANCH   6   7
ENDBRANCH   5   6
ENDBRANCH   4   5
ENDBRANCH   3   4
ENDBRANCH   2   3
ENDBRANCH   1   2
BRANCH   1  12
ATOM     12  C   UNL     1       2.784  43.786  11.938  1.00  0.00     0.000 C 
BRANCH  12  13
ATOM     13  C   UNL     1       1.705  43.178  11.028  1.00  0.00    -0.000 C 
BRANCH  13  14
ATOM     14  C   UNL     1       0.280  43.349  11.589  1.00  0.00    -0.000 C 
BRANCH  14  15
ATOM     15  C   UNL     1       0.183  43.451  13.126  1.00  0.00    -0.000 C 
BRANCH  15  16
ATOM     16  C   UNL     1      -0.330  44.801  13.661  1.00  0.00    -0.000 C 
BRANCH  16  17
ATOM     17  C   UNL     1      -1.328  44.696  14.829  1.00  0.00    -0.000 C 
BRANCH  17  18
ATOM     18  C   UNL     1      -2.548  43.804  14.521  1.00  0.00    -0.000 C 
BRANCH  18  19
ATOM     19  C   UNL     1      -2.276  42.318  14.800  1.00  0.00    -0.003 C 
ATOM     20  C   UNL     1      -3.535  41.479  14.600  1.00  0.00     0.004 C 
ENDBRANCH  18  19
ENDBRANCH  17  18
ENDBRANCH  16  17
ENDBRANCH  15  16
ENDBRANCH  14  15
ENDBRANCH  13  14
ENDBRANCH  12  13
ENDBRANCH   1  12
TORSDOF 16
ENDMDL
MODEL 2
REMARK VINA RESULT:     3.241      1.090      2.622
REMARK INTER + INTRA:           5.646
REMARK INTER:                   5.735
REMARK INTRA:                  -0.089
REMARK UNBOUND:                -0.627
REMARK SMILES CCCCCCCCCCCCCCCCCC(=O)[O-]
REMARK SMILES IDX 10 1 11 2 12 3 13 4 14 5 15 6 16 7 17 8 18 9 19 10 20 11
REMARK SMILES IDX 9 12 8 13 7 14 6 15 5 16 4 17 3 18 2 19 1 20
REMARK H PARENT
REMARK Flexibility Score: inf
ROOT
ATOM      1  C   UNL     1       1.831  43.720  12.233  1.00  0.00     0.000 C 
ENDROOT
BRANCH   1   2
ATOM      2  C   UNL     1       1.933  43.133  10.810  1.00  0.00     0.000 C 
BRANCH   2   3
ATOM      3  C   UNL     1       3.112  43.657   9.966  1.00  0.00     0.000 C 
BRANCH   3   4
ATOM      4  C   UNL     1       3.871  44.851  10.571  1.00  0.00     0.000 C 
BRANCH   4   5
ATOM      5  C   UNL     1       5.216  45.119   9.876  1.00  0.00     0.000 C 
BRANCH   5   6
ATOM      6  C   UNL     1       6.424  44.947  10.816  1.00  0.00     0.000 C 
BRANCH   6   7
ATOM      7  C   UNL     1       7.346  43.757  10.492  1.00  0.00     0.006 C 
BRANCH   7   8
ATOM      8  C   UNL     1       6.979  42.485  11.268  1.00  0.00     0.053 C 
BRANCH   8   9
ATOM      9  C   UNL     1       6.788  42.796  12.719  1.00  0.00     0.041 C 
ATOM     10  O   UNL     1       7.287  42.044  13.599  1.00  0.00    -0.550 OA
ATOM     11  O   UNL     1       6.097  43.936  13.101  1.00  0.00    -0.550 OA
ENDBRANCH   8   9
ENDBRANCH   7   8
ENDBRANCH   6   7
ENDBRANCH   5   6
ENDBRANCH   4   5
ENDBRANCH   3   4
ENDBRANCH   2   3
ENDBRANCH   1   2
BRANCH   1  12
ATOM     12  C   UNL     1       0.399  43.996  12.726  1.00  0.00     0.000 C 
BRANCH  12  13
ATOM     13  C   UNL     1       0.336  45.121  13.774  1.00  0.00    -0.000 C 
BRANCH  13  14
ATOM     14  C   UNL     1      -0.657  44.824  14.914  1.00  0.00    -0.000 C 
BRANCH  14  15
ATOM     15  C   UNL     1      -2.146  44.810  14.507  1.00  0.00    -0.000 C 
BRANCH  15  16
ATOM     16  C   UNL     1      -2.929  43.554  14.932  1.00  0.00    -0.000 C 
BRANCH  16  17
ATOM     17  C   UNL     1      -2.367  42.228  14.388  1.00  0.00    -0.000 C 
BRANCH  17  18
ATOM     18  C   UNL     1      -3.245  41.003  14.716  1.00  0.00    -0.000 C 
BRANCH  18  19
ATOM     19  C   UNL     1      -4.746  41.318  14.641  1.00  0.00    -0.003 C 
ATOM     20  C   UNL     1      -5.583  40.133  15.116  1.00  0.00     0.004 C 
ENDBRANCH  18  19
ENDBRANCH  17  18
ENDBRANCH  16  17
ENDBRANCH  15  16
ENDBRANCH  14  15
ENDBRANCH  13  14
ENDBRANCH  12  13
ENDBRANCH   1  12
TORSDOF 16
ENDMDL
MODEL 3
REMARK VINA RESULT:     3.668      1.683      2.884
REMARK INTER + INTRA:           6.472
REMARK INTER:                   6.866
REMARK INTRA:                  -0.394
REMARK UNBOUND:                -0.627
REMARK SMILES CCCCCCCCCCCCCCCCCC(=O)[O-]
REMARK SMILES IDX 10 1 11 2 12 3 13 4 14 5 15 6 16 7 17 8 18 9 19 10 20 11
REMARK SMILES IDX 9 12 8 13 7 14 6 15 5 16 4 17 3 18 2 19 1 20
REMARK H PARENT
REMARK Flexibility Score: inf
ROOT
ATOM      1  C   UNL     1       0.880  42.891  11.172  1.00  0.00     0.000 C 
ENDROOT
BRANCH   1   2
ATOM      2  C   UNL     1       1.633  42.520   9.878  1.00  0.00     0.000 C 
BRANCH   2   3
ATOM      3  C   UNL     1       3.149  42.799   9.895  1.00  0.00     0.000 C 
BRANCH   3   4
ATOM      4  C   UNL     1       3.540  44.288   9.875  1.00  0.00     0.000 C 
BRANCH   4   5
ATOM      5  C   UNL     1       4.790  44.587  10.719  1.00  0.00     0.000 C 
BRANCH   5   6
ATOM      6  C   UNL     1       4.869  43.735  12.000  1.00  0.00     0.000 C 
BRANCH   6   7
ATOM      7  C   UNL     1       6.142  43.933  12.844  1.00  0.00     0.006 C 
BRANCH   7   8
ATOM      8  C   UNL     1       7.073  42.714  12.819  1.00  0.00     0.053 C 
BRANCH   8   9
ATOM      9  C   UNL     1       7.609  42.495  11.439  1.00  0.00     0.041 C 
ATOM     10  O   UNL     1       8.191  43.431  10.828  1.00  0.00    -0.550 OA
ATOM     11  O   UNL     1       7.504  41.247  10.843  1.00  0.00    -0.550 OA
ENDBRANCH   8   9
ENDBRANCH   7   8
ENDBRANCH   6   7
ENDBRANCH   5   6
ENDBRANCH   4   5
ENDBRANCH   3   4
ENDBRANCH   2   3
ENDBRANCH   1   2
BRANCH   1  12
ATOM     12  C   UNL     1       1.527  44.011  12.007  1.00  0.00     0.000 C 
BRANCH  12  13
ATOM     13  C   UNL     1       0.817  44.237  13.353  1.00  0.00    -0.000 C 
BRANCH  13  14
ATOM     14  C   UNL     1      -0.719  44.180  13.238  1.00  0.00    -0.000 C 
BRANCH  14  15
ATOM     15  C   UNL     1      -1.494  44.799  14.420  1.00  0.00    -0.000 C 
BRANCH  15  16
ATOM     16  C   UNL     1      -2.501  43.857  15.107  1.00  0.00    -0.000 C 
BRANCH  16  17
ATOM     17  C   UNL     1      -2.255  42.357  14.859  1.00  0.00    -0.000 C 
BRANCH  17  18
ATOM     18  C   UNL     1      -3.426  41.648  14.148  1.00  0.00    -0.000 C 
BRANCH  18  19
ATOM     19  C   UNL     1      -4.556  41.264  15.114  1.00  0.00    -0.003 C 
ATOM     20  C   UNL     1      -5.337  40.059  14.598  1.00  0.00     0.004 C 
ENDBRANCH  18  19
ENDBRANCH  17  18
ENDBRANCH  16  17
ENDBRANCH  15  16
ENDBRANCH  14  15
ENDBRANCH  13  14
ENDBRANCH  12  13
ENDBRANCH   1  12
TORSDOF 16
ENDMDL
MODEL 4
REMARK VINA RESULT:     4.120      3.156      8.019
REMARK INTER + INTRA:           7.346
REMARK INTER:                   7.303
REMARK INTRA:                   0.043
REMARK UNBOUND:                -0.627
REMARK SMILES CCCCCCCCCCCCCCCCCC(=O)[O-]
REMARK SMILES IDX 10 1 11 2 12 3 13 4 14 5 15 6 16 7 17 8 18 9 19 10 20 11
REMARK SMILES IDX 9 12 8 13 7 14 6 15 5 16 4 17 3 18 2 19 1 20
REMARK H PARENT
REMARK Flexibility Score: inf
ROOT
ATOM      1  C   UNL     1       1.294  43.029  10.292  1.00  0.00     0.000 C 
ENDROOT
BRANCH   1   2
ATOM      2  C   UNL     1       0.959  43.216  11.786  1.00  0.00     0.000 C 
BRANCH   2   3
ATOM      3  C   UNL     1       1.667  44.398  12.476  1.00  0.00     0.000 C 
BRANCH   3   4
ATOM      4  C   UNL     1       0.946  44.962  13.714  1.00  0.00     0.000 C 
BRANCH   4   5
ATOM      5  C   UNL     1      -0.582  45.001  13.547  1.00  0.00     0.000 C 
BRANCH   5   6
ATOM      6  C   UNL     1      -1.330  45.124  14.888  1.00  0.00     0.000 C 
BRANCH   6   7
ATOM      7  C   UNL     1      -2.507  44.149  15.076  1.00  0.00     0.006 C 
BRANCH   7   8
ATOM      8  C   UNL     1      -2.482  42.981  14.080  1.00  0.00     0.053 C 
BRANCH   8   9
ATOM      9  C   UNL     1      -2.927  41.718  14.746  1.00  0.00     0.041 C 
ATOM     10  O   UNL     1      -2.093  40.989  15.347  1.00  0.00    -0.550 OA
ATOM     11  O   UNL     1      -4.268  41.364  14.740  1.00  0.00    -0.550 OA
ENDBRANCH   8   9
ENDBRANCH   7   8
ENDBRANCH   6   7
ENDBRANCH   5   6
ENDBRANCH   4   5
ENDBRANCH   3   4
ENDBRANCH   2   3
ENDBRANCH   1   2
BRANCH   1  12
ATOM     12  C   UNL     1       2.768  43.269   9.917  1.00  0.00     0.000 C 
BRANCH  12  13
ATOM     13  C   UNL     1       3.501  44.171  10.925  1.00  0.00    -0.000 C 
BRANCH  13  14
ATOM     14  C   UNL     1       4.976  44.412  10.552  1.00  0.00    -0.000 C 
BRANCH  14  15
ATOM     15  C   UNL     1       5.691  43.222   9.876  1.00  0.00    -0.000 C 
BRANCH  15  16
ATOM     16  C   UNL     1       6.837  42.598  10.693  1.00  0.00    -0.000 C 
BRANCH  16  17
ATOM     17  C   UNL     1       7.073  43.243  12.072  1.00  0.00    -0.000 C 
BRANCH  17  18
ATOM     18  C   UNL     1       7.396  42.223  13.184  1.00  0.00    -0.000 C 
BRANCH  18  19
ATOM     19  C   UNL     1       6.341  42.216  14.300  1.00  0.00    -0.003 C 
ATOM     20  C   UNL     1       5.244  43.242  14.029  1.00  0.00     0.004 C 
ENDBRANCH  18  19
ENDBRANCH  17  18
ENDBRANCH  16  17
ENDBRANCH  15  16
ENDBRANCH  14  15
ENDBRANCH  13  14
ENDBRANCH  12  13
ENDBRANCH   1  12
TORSDOF 16
ENDMDL
