MODEL 1
REMARK VINA RESULT:     5.256      0.000      0.000
REMARK INTER + INTRA:          10.790
REMARK INTER:                  11.401
REMARK INTRA:                  -0.611
REMARK UNBOUND:                -0.611
REMARK SMILES CCCCCCCCCCCCCCCCCCCCCC(=O)[O-]
REMARK SMILES IDX 12 1 11 2 10 3 9 4 8 5 7 6 6 7 5 8 4 9 3 10 2 11 1 12 13 13
REMARK SMILES IDX 14 14 15 15 16 16 17 17 18 18 19 19 20 20 21 21 22 22 23 23
REMARK SMILES IDX 24 24
REMARK H PARENT
REMARK Flexibility Score: inf
ROOT
ATOM      1  C   UNL     1     -27.830 -19.611 -19.207  1.00  0.00     0.000 C 
ENDROOT
BRANCH   1   2
ATOM      2  C   UNL     1     -26.629 -20.482 -18.801  1.00  0.00     0.000 C 
BRANCH   2   3
ATOM      3  C   UNL     1     -27.035 -21.922 -18.450  1.00  0.00     0.000 C 
BRANCH   3   4
ATOM      4  C   UNL     1     -27.493 -22.067 -16.989  1.00  0.00    -0.000 C 
BRANCH   4   5
ATOM      5  C   UNL     1     -29.025 -22.060 -16.841  1.00  0.00    -0.000 C 
BRANCH   5   6
ATOM      6  C   UNL     1     -29.500 -22.124 -15.373  1.00  0.00    -0.000 C 
BRANCH   6   7
ATOM      7  C   UNL     1     -31.035 -22.095 -15.258  1.00  0.00    -0.000 C 
BRANCH   7   8
ATOM      8  C   UNL     1     -31.551 -20.828 -14.560  1.00  0.00    -0.000 C 
BRANCH   8   9
ATOM      9  C   UNL     1     -30.861 -20.570 -13.213  1.00  0.00    -0.000 C 
BRANCH   9  10
ATOM     10  C   UNL     1     -30.484 -19.088 -13.066  1.00  0.00    -0.000 C 
BRANCH  10  11
ATOM     11  C   UNL     1     -29.408 -18.856 -11.995  1.00  0.00    -0.003 C 
ATOM     12  C   UNL     1     -28.913 -17.411 -11.956  1.00  0.00     0.004 C 
ENDBRANCH  10  11
ENDBRANCH   9  10
ENDBRANCH   8   9
ENDBRANCH   7   8
ENDBRANCH   6   7
ENDBRANCH   5   6
ENDBRANCH   4   5
ENDBRANCH   3   4
ENDBRANCH   2   3
ENDBRANCH   1   2
BRANCH   1  13
ATOM     13  C   UNL     1     -28.321 -19.895 -20.638  1.00  0.00     0.000 C 
BRANCH  13  14
ATOM     14  C   UNL     1     -28.744 -21.353 -20.905  1.00  0.00     0.000 C 
BRANCH  14  15
ATOM     15  C   UNL     1     -27.732 -22.123 -21.769  1.00  0.00     0.000 C 
BRANCH  15  16
ATOM     16  C   UNL     1     -27.492 -21.463 -23.138  1.00  0.00     0.000 C 
BRANCH  16  17
ATOM     17  C   UNL     1     -28.705 -21.539 -24.090  1.00  0.00     0.000 C 
BRANCH  17  18
ATOM     18  C   UNL     1     -29.101 -20.156 -24.637  1.00  0.00     0.000 C 
BRANCH  18  19
ATOM     19  C   UNL     1     -30.455 -20.164 -25.370  1.00  0.00     0.000 C 
BRANCH  19  20
ATOM     20  C   UNL     1     -31.540 -21.045 -24.726  1.00  0.00     0.006 C 
BRANCH  20  21
ATOM     21  C   UNL     1     -31.495 -21.022 -23.192  1.00  0.00     0.053 C 
BRANCH  21  22
ATOM     22  C   UNL     1     -32.429 -19.982 -22.656  1.00  0.00     0.041 C 
ATOM     23  O   UNL     1     -33.654 -20.240 -22.518  1.00  0.00    -0.550 OA
ATOM     24  O   UNL     1     -31.942 -18.737 -22.282  1.00  0.00    -0.550 OA
ENDBRANCH  21  22
ENDBRANCH  20  21
ENDBRANCH  19  20
ENDBRANCH  18  19
ENDBRANCH  17  18
ENDBRANCH  16  17
ENDBRANCH  15  16
ENDBRANCH  14  15
ENDBRANCH  13  14
ENDBRANCH   1  13
TORSDOF 20
ENDMDL
MODEL 2
REMARK VINA RESULT:     6.605      1.686      2.512
REMARK INTER + INTRA:          13.716
REMARK INTER:                  14.110
REMARK INTRA:                  -0.394
REMARK UNBOUND:                -0.611
REMARK SMILES CCCCCCCCCCCCCCCCCCCCCC(=O)[O-]
REMARK SMILES IDX 12 1 11 2 10 3 9 4 8 5 7 6 6 7 5 8 4 9 3 10 2 11 1 12 13 13
REMARK SMILES IDX 14 14 15 15 16 16 17 17 18 18 19 19 20 20 21 21 22 22 23 23
REMARK SMILES IDX 24 24
REMARK H PARENT
REMARK Flexibility Score: inf
ROOT
ATOM      1  C   UNL     1     -28.466 -20.241 -19.386  1.00  0.00     0.000 C 
ENDROOT
BRANCH   1   2
ATOM      2  C   UNL     1     -27.864 -21.338 -18.490  1.00  0.00     0.000 C 
BRANCH   2   3
ATOM      3  C   UNL     1     -28.928 -22.063 -17.651  1.00  0.00     0.000 C 
BRANCH   3   4
ATOM      4  C   UNL     1     -28.587 -22.078 -16.151  1.00  0.00    -0.000 C 
BRANCH   4   5
ATOM      5  C   UNL     1     -29.836 -22.125 -15.255  1.00  0.00    -0.000 C 
BRANCH   5   6
ATOM      6  C   UNL     1     -30.640 -20.806 -15.252  1.00  0.00    -0.000 C 
BRANCH   6   7
ATOM      7  C   UNL     1     -31.111 -20.417 -13.840  1.00  0.00    -0.000 C 
BRANCH   7   8
ATOM      8  C   UNL     1     -30.463 -19.117 -13.338  1.00  0.00    -0.000 C 
BRANCH   8   9
ATOM      9  C   UNL     1     -29.462 -19.356 -12.199  1.00  0.00    -0.000 C 
BRANCH   9  10
ATOM     10  C   UNL     1     -29.472 -18.183 -11.207  1.00  0.00    -0.000 C 
BRANCH  10  11
ATOM     11  C   UNL     1     -29.509 -16.817 -11.908  1.00  0.00    -0.003 C 
ATOM     12  C   UNL     1     -28.219 -16.019 -11.719  1.00  0.00     0.004 C 
ENDBRANCH  10  11
ENDBRANCH   9  10
ENDBRANCH   8   9
ENDBRANCH   7   8
ENDBRANCH   6   7
ENDBRANCH   5   6
ENDBRANCH   4   5
ENDBRANCH   3   4
ENDBRANCH   2   3
ENDBRANCH   1   2
BRANCH   1  13
ATOM     13  C   UNL     1     -27.926 -20.282 -20.828  1.00  0.00     0.000 C 
BRANCH  13  14
ATOM     14  C   UNL     1     -27.179 -21.575 -21.208  1.00  0.00     0.000 C 
BRANCH  14  15
ATOM     15  C   UNL     1     -27.229 -21.877 -22.715  1.00  0.00     0.000 C 
BRANCH  15  16
ATOM     16  C   UNL     1     -28.667 -21.975 -23.255  1.00  0.00     0.000 C 
BRANCH  16  17
ATOM     17  C   UNL     1     -29.748 -22.021 -22.154  1.00  0.00     0.000 C 
BRANCH  17  18
ATOM     18  C   UNL     1     -31.169 -21.887 -22.729  1.00  0.00     0.000 C 
BRANCH  18  19
ATOM     19  C   UNL     1     -31.701 -20.443 -22.689  1.00  0.00     0.000 C 
BRANCH  19  20
ATOM     20  C   UNL     1     -31.939 -19.797 -24.066  1.00  0.00     0.006 C 
BRANCH  20  21
ATOM     21  C   UNL     1     -30.674 -19.756 -24.933  1.00  0.00     0.053 C 
BRANCH  21  22
ATOM     22  C   UNL     1     -30.683 -20.874 -25.928  1.00  0.00     0.041 C 
ATOM     23  O   UNL     1     -29.784 -20.950 -26.806  1.00  0.00    -0.550 OA
ATOM     24  O   UNL     1     -31.668 -21.850 -25.868  1.00  0.00    -0.550 OA
ENDBRANCH  21  22
ENDBRANCH  20  21
ENDBRANCH  19  20
ENDBRANCH  18  19
ENDBRANCH  17  18
ENDBRANCH  16  17
ENDBRANCH  15  16
ENDBRANCH  14  15
ENDBRANCH  13  14
ENDBRANCH   1  13
TORSDOF 20
ENDMDL
MODEL 3
REMARK VINA RESULT:     7.224      3.246      9.338
REMARK INTER + INTRA:          15.059
REMARK INTER:                  14.060
REMARK INTRA:                   0.999
REMARK UNBOUND:                -0.611
REMARK SMILES CCCCCCCCCCCCCCCCCCCCCC(=O)[O-]
REMARK SMILES IDX 12 1 11 2 10 3 9 4 8 5 7 6 6 7 5 8 4 9 3 10 2 11 1 12 13 13
REMARK SMILES IDX 14 14 15 15 16 16 17 17 18 18 19 19 20 20 21 21 22 22 23 23
REMARK SMILES IDX 24 24
REMARK H PARENT
REMARK Flexibility Score: inf
ROOT
ATOM      1  C   UNL     1     -28.083 -20.512 -18.741  1.00  0.00     0.000 C 
ENDROOT
BRANCH   1   2
ATOM      2  C   UNL     1     -28.804 -21.331 -19.827  1.00  0.00     0.000 C 
BRANCH   2   3
ATOM      3  C   UNL     1     -27.831 -21.950 -20.842  1.00  0.00     0.000 C 
BRANCH   3   4
ATOM      4  C   UNL     1     -27.719 -21.121 -22.133  1.00  0.00    -0.000 C 
BRANCH   4   5
ATOM      5  C   UNL     1     -28.060 -21.933 -23.395  1.00  0.00    -0.000 C 
BRANCH   5   6
ATOM      6  C   UNL     1     -29.569 -21.952 -23.724  1.00  0.00    -0.000 C 
BRANCH   6   7
ATOM      7  C   UNL     1     -30.436 -21.670 -22.484  1.00  0.00    -0.000 C 
BRANCH   7   8
ATOM      8  C   UNL     1     -31.444 -20.533 -22.713  1.00  0.00    -0.000 C 
BRANCH   8   9
ATOM      9  C   UNL     1     -31.868 -20.405 -24.183  1.00  0.00    -0.000 C 
BRANCH   9  10
ATOM     10  C   UNL     1     -31.024 -19.344 -24.906  1.00  0.00    -0.000 C 
BRANCH  10  11
ATOM     11  C   UNL     1     -30.261 -19.917 -26.110  1.00  0.00    -0.003 C 
ATOM     12  C   UNL     1     -30.756 -21.304 -26.520  1.00  0.00     0.004 C 
ENDBRANCH  10  11
ENDBRANCH   9  10
ENDBRANCH   8   9
ENDBRANCH   7   8
ENDBRANCH   6   7
ENDBRANCH   5   6
ENDBRANCH   4   5
ENDBRANCH   3   4
ENDBRANCH   2   3
ENDBRANCH   1   2
BRANCH   1  13
ATOM     13  C   UNL     1     -26.905 -21.270 -18.101  1.00  0.00     0.000 C 
BRANCH  13  14
ATOM     14  C   UNL     1     -27.270 -22.125 -16.873  1.00  0.00     0.000 C 
BRANCH  14  15
ATOM     15  C   UNL     1     -28.777 -22.124 -16.567  1.00  0.00     0.000 C 
BRANCH  15  16
ATOM     16  C   UNL     1     -29.080 -22.088 -15.059  1.00  0.00     0.000 C 
BRANCH  16  17
ATOM     17  C   UNL     1     -30.584 -21.993 -14.725  1.00  0.00     0.000 C 
BRANCH  17  18
ATOM     18  C   UNL     1     -31.133 -20.568 -14.918  1.00  0.00     0.000 C 
BRANCH  18  19
ATOM     19  C   UNL     1     -30.749 -19.614 -13.772  1.00  0.00     0.000 C 
BRANCH  19  20
ATOM     20  C   UNL     1     -29.397 -19.913 -13.101  1.00  0.00     0.006 C 
BRANCH  20  21
ATOM     21  C   UNL     1     -29.239 -19.220 -11.741  1.00  0.00     0.053 C 
BRANCH  21  22
ATOM     22  C   UNL     1     -29.134 -17.737 -11.917  1.00  0.00     0.041 C 
ATOM     23  O   UNL     1     -28.116 -17.120 -11.508  1.00  0.00    -0.550 OA
ATOM     24  O   UNL     1     -30.149 -17.041 -12.559  1.00  0.00    -0.550 OA
ENDBRANCH  21  22
ENDBRANCH  20  21
ENDBRANCH  19  20
ENDBRANCH  18  19
ENDBRANCH  17  18
ENDBRANCH  16  17
ENDBRANCH  15  16
ENDBRANCH  14  15
ENDBRANCH  13  14
ENDBRANCH   1  13
TORSDOF 20
ENDMDL
MODEL 4
REMARK VINA RESULT:     8.018      3.534      9.678
REMARK INTER + INTRA:          16.781
REMARK INTER:                  17.550
REMARK INTRA:                  -0.769
REMARK UNBOUND:                -0.611
REMARK SMILES CCCCCCCCCCCCCCCCCCCCCC(=O)[O-]
REMARK SMILES IDX 12 1 11 2 10 3 9 4 8 5 7 6 6 7 5 8 4 9 3 10 2 11 1 12 13 13
REMARK SMILES IDX 14 14 15 15 16 16 17 17 18 18 19 19 20 20 21 21 22 22 23 23
REMARK SMILES IDX 24 24
REMARK H PARENT
REMARK Flexibility Score: inf
ROOT
ATOM      1  C   UNL     1     -27.783 -21.757 -17.748  1.00  0.00     0.000 C 
ENDROOT
BRANCH   1   2
ATOM      2  C   UNL     1     -27.804 -22.121 -19.243  1.00  0.00     0.000 C 
BRANCH   2   3
ATOM      3  C   UNL     1     -29.017 -21.531 -19.977  1.00  0.00     0.000 C 
BRANCH   3   4
ATOM      4  C   UNL     1     -28.833 -21.514 -21.504  1.00  0.00    -0.000 C 
BRANCH   4   5
ATOM      5  C   UNL     1     -27.465 -22.062 -21.946  1.00  0.00    -0.000 C 
BRANCH   5   6
ATOM      6  C   UNL     1     -27.156 -21.812 -23.438  1.00  0.00    -0.000 C 
BRANCH   6   7
ATOM      7  C   UNL     1     -28.023 -20.686 -24.030  1.00  0.00    -0.000 C 
BRANCH   7   8
ATOM      8  C   UNL     1     -29.458 -21.142 -24.332  1.00  0.00    -0.000 C 
BRANCH   8   9
ATOM      9  C   UNL     1     -30.319 -20.025 -24.940  1.00  0.00    -0.000 C 
BRANCH   9  10
ATOM     10  C   UNL     1     -31.761 -20.098 -24.414  1.00  0.00    -0.000 C 
BRANCH  10  11
ATOM     11  C   UNL     1     -31.937 -19.375 -23.070  1.00  0.00    -0.003 C 
ATOM     12  C   UNL     1     -32.743 -20.190 -22.060  1.00  0.00     0.004 C 
ENDBRANCH  10  11
ENDBRANCH   9  10
ENDBRANCH   8   9
ENDBRANCH   7   8
ENDBRANCH   6   7
ENDBRANCH   5   6
ENDBRANCH   4   5
ENDBRANCH   3   4
ENDBRANCH   2   3
ENDBRANCH   1   2
BRANCH   1  13
ATOM     13  C   UNL     1     -29.189 -21.510 -17.171  1.00  0.00     0.000 C 
BRANCH  13  14
ATOM     14  C   UNL     1     -29.440 -22.125 -15.781  1.00  0.00     0.000 C 
BRANCH  14  15
ATOM     15  C   UNL     1     -30.925 -22.118 -15.381  1.00  0.00     0.000 C 
BRANCH  15  16
ATOM     16  C   UNL     1     -31.167 -21.488 -13.998  1.00  0.00     0.000 C 
BRANCH  16  17
ATOM     17  C   UNL     1     -31.001 -19.954 -13.971  1.00  0.00     0.000 C 
BRANCH  17  18
ATOM     18  C   UNL     1     -29.671 -19.525 -13.326  1.00  0.00     0.000 C 
BRANCH  18  19
ATOM     19  C   UNL     1     -29.792 -19.267 -11.813  1.00  0.00     0.000 C 
BRANCH  19  20
ATOM     20  C   UNL     1     -29.053 -18.016 -11.305  1.00  0.00     0.006 C 
BRANCH  20  21
ATOM     21  C   UNL     1     -28.928 -16.921 -12.373  1.00  0.00     0.053 C 
BRANCH  21  22
ATOM     22  C   UNL     1     -29.407 -15.608 -11.837  1.00  0.00     0.041 C 
ATOM     23  O   UNL     1     -28.581 -14.712 -11.521  1.00  0.00    -0.550 OA
ATOM     24  O   UNL     1     -30.768 -15.363 -11.713  1.00  0.00    -0.550 OA
ENDBRANCH  21  22
ENDBRANCH  20  21
ENDBRANCH  19  20
ENDBRANCH  18  19
ENDBRANCH  17  18
ENDBRANCH  16  17
ENDBRANCH  15  16
ENDBRANCH  14  15
ENDBRANCH  13  14
ENDBRANCH   1  13
TORSDOF 20
ENDMDL
