MODEL 1
REMARK VINA RESULT:    -4.045      0.000      0.000
REMARK INTER + INTRA:          -7.591
REMARK INTER:                  -6.410
REMARK INTRA:                  -1.181
REMARK UNBOUND:                -1.181
REMARK SMILES CCCCCCCCCCCC(=O)[O-]
REMARK SMILES IDX 7 1 8 2 9 3 10 4 11 5 12 6 13 7 14 8 6 9 5 10 4 11 3 12 2 13
REMARK SMILES IDX 1 14
REMARK H PARENT
REMARK Flexibility Score: inf
ROOT
ATOM      1  C   UNL     1      15.621  13.048  -6.669  1.00  0.00     0.000 C 
ENDROOT
BRANCH   1   2
ATOM      2  C   UNL     1      16.815  12.143  -7.014  1.00  0.00     0.000 C 
BRANCH   2   3
ATOM      3  C   UNL     1      17.636  11.739  -5.776  1.00  0.00     0.000 C 
BRANCH   3   4
ATOM      4  C   UNL     1      18.914  12.571  -5.543  1.00  0.00     0.006 C 
BRANCH   4   5
ATOM      5  C   UNL     1      19.004  13.227  -4.157  1.00  0.00     0.053 C 
BRANCH   5   6
ATOM      6  C   UNL     1      18.645  14.681  -4.198  1.00  0.00     0.041 C 
ATOM      7  O   UNL     1      17.477  15.035  -4.503  1.00  0.00    -0.550 OA
ATOM      8  O   UNL     1      19.611  15.644  -3.935  1.00  0.00    -0.550 OA
ENDBRANCH   5   6
ENDBRANCH   4   5
ENDBRANCH   3   4
ENDBRANCH   2   3
ENDBRANCH   1   2
BRANCH   1   9
ATOM      9  C   UNL     1      14.725  13.333  -7.887  1.00  0.00     0.000 C 
BRANCH   9  10
ATOM     10  C   UNL     1      15.372  12.895  -9.209  1.00  0.00    -0.000 C 
BRANCH  10  11
ATOM     11  C   UNL     1      15.965  14.101  -9.954  1.00  0.00    -0.000 C 
BRANCH  11  12
ATOM     12  C   UNL     1      17.499  14.052 -10.034  1.00  0.00    -0.000 C 
BRANCH  12  13
ATOM     13  C   UNL     1      18.160  15.337  -9.514  1.00  0.00    -0.003 C 
ATOM     14  C   UNL     1      18.296  15.308  -7.994  1.00  0.00     0.004 C 
ENDBRANCH  12  13
ENDBRANCH  11  12
ENDBRANCH  10  11
ENDBRANCH   9  10
ENDBRANCH   1   9
TORSDOF 10
ENDMDL
MODEL 2
REMARK VINA RESULT:    -4.003      1.506      2.858
REMARK INTER + INTRA:          -7.524
REMARK INTER:                  -6.241
REMARK INTRA:                  -1.283
REMARK UNBOUND:                -1.181
REMARK SMILES CCCCCCCCCCCC(=O)[O-]
REMARK SMILES IDX 7 1 8 2 9 3 10 4 11 5 12 6 13 7 14 8 6 9 5 10 4 11 3 12 2 13
REMARK SMILES IDX 1 14
REMARK H PARENT
REMARK Flexibility Score: inf
ROOT
ATOM      1  C   UNL     1      18.042  11.221  -7.221  1.00  0.00     0.000 C 
ENDROOT
BRANCH   1   2
ATOM      2  C   UNL     1      17.912  11.715  -5.770  1.00  0.00     0.000 C 
BRANCH   2   3
ATOM      3  C   UNL     1      19.202  12.370  -5.245  1.00  0.00     0.000 C 
BRANCH   3   4
ATOM      4  C   UNL     1      19.005  13.740  -4.564  1.00  0.00     0.006 C 
BRANCH   4   5
ATOM      5  C   UNL     1      17.546  14.219  -4.505  1.00  0.00     0.053 C 
BRANCH   5   6
ATOM      6  C   UNL     1      17.285  15.343  -5.460  1.00  0.00     0.041 C 
ATOM      7  O   UNL     1      18.012  15.492  -6.477  1.00  0.00    -0.550 OA
ATOM      8  O   UNL     1      16.260  16.247  -5.209  1.00  0.00    -0.550 OA
ENDBRANCH   5   6
ENDBRANCH   4   5
ENDBRANCH   3   4
ENDBRANCH   2   3
ENDBRANCH   1   2
BRANCH   1   9
ATOM      9  C   UNL     1      19.196  11.902  -7.975  1.00  0.00     0.000 C 
BRANCH   9  10
ATOM     10  C   UNL     1      18.741  13.149  -8.746  1.00  0.00    -0.000 C 
BRANCH  10  11
ATOM     11  C   UNL     1      17.518  12.837  -9.622  1.00  0.00    -0.000 C 
BRANCH  11  12
ATOM     12  C   UNL     1      16.328  13.764  -9.330  1.00  0.00    -0.000 C 
BRANCH  12  13
ATOM     13  C   UNL     1      15.087  12.999  -8.847  1.00  0.00    -0.003 C 
ATOM     14  C   UNL     1      14.890  13.166  -7.343  1.00  0.00     0.004 C 
ENDBRANCH  12  13
ENDBRANCH  11  12
ENDBRANCH  10  11
ENDBRANCH   9  10
ENDBRANCH   1   9
TORSDOF 10
ENDMDL
MODEL 3
REMARK VINA RESULT:    -3.955      1.478      3.272
REMARK INTER + INTRA:          -7.449
REMARK INTER:                  -5.976
REMARK INTRA:                  -1.473
REMARK UNBOUND:                -1.181
REMARK SMILES CCCCCCCCCCCC(=O)[O-]
REMARK SMILES IDX 7 1 8 2 9 3 10 4 11 5 12 6 13 7 14 8 6 9 5 10 4 11 3 12 2 13
REMARK SMILES IDX 1 14
REMARK H PARENT
REMARK Flexibility Score: inf
ROOT
ATOM      1  C   UNL     1      15.942  13.907  -9.740  1.00  0.00     0.000 C 
ENDROOT
BRANCH   1   2
ATOM      2  C   UNL     1      15.239  12.785  -8.957  1.00  0.00     0.000 C 
BRANCH   2   3
ATOM      3  C   UNL     1      14.793  13.227  -7.552  1.00  0.00     0.000 C 
BRANCH   3   4
ATOM      4  C   UNL     1      15.895  13.177  -6.474  1.00  0.00     0.006 C 
BRANCH   4   5
ATOM      5  C   UNL     1      16.379  14.554  -5.993  1.00  0.00     0.053 C 
BRANCH   5   6
ATOM      6  C   UNL     1      17.536  14.445  -5.048  1.00  0.00     0.041 C 
ATOM      7  O   UNL     1      17.943  13.314  -4.674  1.00  0.00    -0.550 OA
ATOM      8  O   UNL     1      18.141  15.593  -4.552  1.00  0.00    -0.550 OA
ENDBRANCH   5   6
ENDBRANCH   4   5
ENDBRANCH   3   4
ENDBRANCH   2   3
ENDBRANCH   1   2
BRANCH   1   9
ATOM      9  C   UNL     1      17.423  13.597 -10.015  1.00  0.00     0.000 C 
BRANCH   9  10
ATOM     10  C   UNL     1      18.371  14.575  -9.306  1.00  0.00    -0.000 C 
BRANCH  10  11
ATOM     11  C   UNL     1      19.255  13.840  -8.287  1.00  0.00    -0.000 C 
BRANCH  11  12
ATOM     12  C   UNL     1      19.451  12.355  -8.635  1.00  0.00    -0.000 C 
BRANCH  12  13
ATOM     13  C   UNL     1      19.636  11.476  -7.389  1.00  0.00    -0.003 C 
ATOM     14  C   UNL     1      18.343  10.746  -7.035  1.00  0.00     0.004 C 
ENDBRANCH  12  13
ENDBRANCH  11  12
ENDBRANCH  10  11
ENDBRANCH   9  10
ENDBRANCH   1   9
TORSDOF 10
ENDMDL
MODEL 4
REMARK VINA RESULT:    -3.930      2.135      4.389
REMARK INTER + INTRA:          -7.408
REMARK INTER:                  -6.254
REMARK INTRA:                  -1.154
REMARK UNBOUND:                -1.181
REMARK SMILES CCCCCCCCCCCC(=O)[O-]
REMARK SMILES IDX 7 1 8 2 9 3 10 4 11 5 12 6 13 7 14 8 6 9 5 10 4 11 3 12 2 13
REMARK SMILES IDX 1 14
REMARK H PARENT
REMARK Flexibility Score: inf
ROOT
ATOM      1  C   UNL     1      15.010  13.551  -7.715  1.00  0.00     0.000 C 
ENDROOT
BRANCH   1   2
ATOM      2  C   UNL     1      15.003  12.758  -9.032  1.00  0.00     0.000 C 
BRANCH   2   3
ATOM      3  C   UNL     1      15.910  13.382 -10.109  1.00  0.00     0.000 C 
BRANCH   3   4
ATOM      4  C   UNL     1      17.118  14.171  -9.564  1.00  0.00     0.006 C 
BRANCH   4   5
ATOM      5  C   UNL     1      18.470  13.460  -9.729  1.00  0.00     0.053 C 
BRANCH   5   6
ATOM      6  C   UNL     1      18.970  12.894  -8.436  1.00  0.00     0.041 C 
ATOM      7  O   UNL     1      19.684  13.594  -7.673  1.00  0.00    -0.550 OA
ATOM      8  O   UNL     1      18.677  11.580  -8.091  1.00  0.00    -0.550 OA
ENDBRANCH   5   6
ENDBRANCH   4   5
ENDBRANCH   3   4
ENDBRANCH   2   3
ENDBRANCH   1   2
BRANCH   1   9
ATOM      9  C   UNL     1      15.504  12.712  -6.524  1.00  0.00     0.000 C 
BRANCH   9  10
ATOM     10  C   UNL     1      16.664  13.380  -5.773  1.00  0.00    -0.000 C 
BRANCH  10  11
ATOM     11  C   UNL     1      16.580  14.910  -5.884  1.00  0.00    -0.000 C 
BRANCH  11  12
ATOM     12  C   UNL     1      17.535  15.628  -4.917  1.00  0.00    -0.000 C 
BRANCH  12  13
ATOM     13  C   UNL     1      18.548  14.672  -4.268  1.00  0.00    -0.003 C 
ATOM     14  C   UNL     1      19.867  15.384  -3.979  1.00  0.00     0.004 C 
ENDBRANCH  12  13
ENDBRANCH  11  12
ENDBRANCH  10  11
ENDBRANCH   9  10
ENDBRANCH   1   9
TORSDOF 10
ENDMDL
MODEL 5
REMARK VINA RESULT:    -3.868      2.612      5.061
REMARK INTER + INTRA:          -7.311
REMARK INTER:                  -5.969
REMARK INTRA:                  -1.342
REMARK UNBOUND:                -1.181
REMARK SMILES CCCCCCCCCCCC(=O)[O-]
REMARK SMILES IDX 7 1 8 2 9 3 10 4 11 5 12 6 13 7 14 8 6 9 5 10 4 11 3 12 2 13
REMARK SMILES IDX 1 14
REMARK H PARENT
REMARK Flexibility Score: inf
ROOT
ATOM      1  C   UNL     1      18.069  11.718  -5.656  1.00  0.00     0.000 C 
ENDROOT
BRANCH   1   2
ATOM      2  C   UNL     1      17.821  11.488  -7.156  1.00  0.00     0.000 C 
BRANCH   2   3
ATOM      3  C   UNL     1      18.464  12.572  -8.041  1.00  0.00     0.000 C 
BRANCH   3   4
ATOM      4  C   UNL     1      17.677  12.914  -9.323  1.00  0.00     0.006 C 
BRANCH   4   5
ATOM      5  C   UNL     1      16.464  13.831  -9.102  1.00  0.00     0.053 C 
BRANCH   5   6
ATOM      6  C   UNL     1      15.184  13.058  -9.013  1.00  0.00     0.041 C 
ATOM      7  O   UNL     1      14.806  12.347  -9.979  1.00  0.00    -0.550 OA
ATOM      8  O   UNL     1      14.392  13.152  -7.875  1.00  0.00    -0.550 OA
ENDBRANCH   5   6
ENDBRANCH   4   5
ENDBRANCH   3   4
ENDBRANCH   2   3
ENDBRANCH   1   2
BRANCH   1   9
ATOM      9  C   UNL     1      19.496  12.213  -5.363  1.00  0.00     0.000 C 
BRANCH   9  10
ATOM     10  C   UNL     1      19.577  13.050  -4.078  1.00  0.00    -0.000 C 
BRANCH  10  11
ATOM     11  C   UNL     1      18.573  14.213  -4.118  1.00  0.00    -0.000 C 
BRANCH  11  12
ATOM     12  C   UNL     1      18.882  15.225  -5.233  1.00  0.00    -0.000 C 
BRANCH  12  13
ATOM     13  C   UNL     1      17.677  15.479  -6.150  1.00  0.00    -0.003 C 
ATOM     14  C   UNL     1      16.366  15.161  -5.436  1.00  0.00     0.004 C 
ENDBRANCH  12  13
ENDBRANCH  11  12
ENDBRANCH  10  11
ENDBRANCH   9  10
ENDBRANCH   1   9
TORSDOF 10
ENDMDL
MODEL 6
REMARK VINA RESULT:    -3.845      2.130      4.414
REMARK INTER + INTRA:          -7.274
REMARK INTER:                  -5.989
REMARK INTRA:                  -1.285
REMARK UNBOUND:                -1.181
REMARK SMILES CCCCCCCCCCCC(=O)[O-]
REMARK SMILES IDX 7 1 8 2 9 3 10 4 11 5 12 6 13 7 14 8 6 9 5 10 4 11 3 12 2 13
REMARK SMILES IDX 1 14
REMARK H PARENT
REMARK Flexibility Score: inf
ROOT
ATOM      1  C   UNL     1      14.591  13.445  -7.825  1.00  0.00     0.000 C 
ENDROOT
BRANCH   1   2
ATOM      2  C   UNL     1      15.095  12.786  -9.120  1.00  0.00     0.000 C 
BRANCH   2   3
ATOM      3  C   UNL     1      16.242  13.571  -9.782  1.00  0.00     0.000 C 
BRANCH   3   4
ATOM      4  C   UNL     1      17.655  13.020  -9.499  1.00  0.00     0.006 C 
BRANCH   4   5
ATOM      5  C   UNL     1      18.795  14.010  -9.784  1.00  0.00     0.053 C 
BRANCH   5   6
ATOM      6  C   UNL     1      18.517  15.367  -9.214  1.00  0.00     0.041 C 
ATOM      7  O   UNL     1      18.640  15.571  -7.978  1.00  0.00    -0.550 OA
ATOM      8  O   UNL     1      18.089  16.397 -10.043  1.00  0.00    -0.550 OA
ENDBRANCH   5   6
ENDBRANCH   4   5
ENDBRANCH   3   4
ENDBRANCH   2   3
ENDBRANCH   1   2
BRANCH   1   9
ATOM      9  C   UNL     1      15.324  12.928  -6.576  1.00  0.00     0.000 C 
BRANCH   9  10
ATOM     10  C   UNL     1      16.302  13.961  -5.997  1.00  0.00    -0.000 C 
BRANCH  10  11
ATOM     11  C   UNL     1      17.578  13.278  -5.481  1.00  0.00    -0.000 C 
BRANCH  11  12
ATOM     12  C   UNL     1      17.710  11.825  -5.965  1.00  0.00    -0.000 C 
BRANCH  12  13
ATOM     13  C   UNL     1      19.160  11.440  -6.291  1.00  0.00    -0.003 C 
ATOM     14  C   UNL     1      19.212  10.359  -7.367  1.00  0.00     0.004 C 
ENDBRANCH  12  13
ENDBRANCH  11  12
ENDBRANCH  10  11
ENDBRANCH   9  10
ENDBRANCH   1   9
TORSDOF 10
ENDMDL
MODEL 7
REMARK VINA RESULT:    -3.753      1.419      2.682
REMARK INTER + INTRA:          -7.128
REMARK INTER:                  -5.758
REMARK INTRA:                  -1.371
REMARK UNBOUND:                -1.181
REMARK SMILES CCCCCCCCCCCC(=O)[O-]
REMARK SMILES IDX 7 1 8 2 9 3 10 4 11 5 12 6 13 7 14 8 6 9 5 10 4 11 3 12 2 13
REMARK SMILES IDX 1 14
REMARK H PARENT
REMARK Flexibility Score: inf
ROOT
ATOM      1  C   UNL     1      17.385  12.013  -5.959  1.00  0.00     0.000 C 
ENDROOT
BRANCH   1   2
ATOM      2  C   UNL     1      16.080  12.760  -6.277  1.00  0.00     0.000 C 
BRANCH   2   3
ATOM      3  C   UNL     1      16.244  14.291  -6.241  1.00  0.00     0.000 C 
BRANCH   3   4
ATOM      4  C   UNL     1      17.060  14.829  -5.048  1.00  0.00     0.006 C 
BRANCH   4   5
ATOM      5  C   UNL     1      18.524  15.162  -5.375  1.00  0.00     0.053 C 
BRANCH   5   6
ATOM      6  C   UNL     1      19.429  14.932  -4.204  1.00  0.00     0.041 C 
ATOM      7  O   UNL     1      20.124  15.877  -3.747  1.00  0.00    -0.550 OA
ATOM      8  O   UNL     1      19.530  13.667  -3.639  1.00  0.00    -0.550 OA
ENDBRANCH   5   6
ENDBRANCH   4   5
ENDBRANCH   3   4
ENDBRANCH   2   3
ENDBRANCH   1   2
BRANCH   1   9
ATOM      9  C   UNL     1      17.913  11.209  -7.159  1.00  0.00     0.000 C 
BRANCH   9  10
ATOM     10  C   UNL     1      19.132  11.868  -7.820  1.00  0.00    -0.000 C 
BRANCH  10  11
ATOM     11  C   UNL     1      18.745  12.519  -9.157  1.00  0.00    -0.000 C 
BRANCH  11  12
ATOM     12  C   UNL     1      18.511  14.033  -9.034  1.00  0.00    -0.000 C 
BRANCH  12  13
ATOM     13  C   UNL     1      17.242  14.496  -9.765  1.00  0.00    -0.003 C 
ATOM     14  C   UNL     1      16.269  13.337  -9.964  1.00  0.00     0.004 C 
ENDBRANCH  12  13
ENDBRANCH  11  12
ENDBRANCH  10  11
ENDBRANCH   9  10
ENDBRANCH   1   9
TORSDOF 10
ENDMDL
MODEL 8
REMARK VINA RESULT:    -3.724      9.451     10.999
REMARK INTER + INTRA:          -7.082
REMARK INTER:                  -6.578
REMARK INTRA:                  -0.504
REMARK UNBOUND:                -1.181
REMARK SMILES CCCCCCCCCCCC(=O)[O-]
REMARK SMILES IDX 7 1 8 2 9 3 10 4 11 5 12 6 13 7 14 8 6 9 5 10 4 11 3 12 2 13
REMARK SMILES IDX 1 14
REMARK H PARENT
REMARK Flexibility Score: inf
ROOT
ATOM      1  C   UNL     1      16.877   3.069  -4.309  1.00  0.00     0.000 C 
ENDROOT
BRANCH   1   2
ATOM      2  C   UNL     1      17.724   2.518  -3.150  1.00  0.00     0.000 C 
BRANCH   2   3
ATOM      3  C   UNL     1      18.598   3.596  -2.483  1.00  0.00     0.000 C 
BRANCH   3   4
ATOM      4  C   UNL     1      17.978   4.254  -1.233  1.00  0.00     0.006 C 
BRANCH   4   5
ATOM      5  C   UNL     1      16.508   3.884  -0.981  1.00  0.00     0.053 C 
BRANCH   5   6
ATOM      6  C   UNL     1      16.310   3.253   0.362  1.00  0.00     0.041 C 
ATOM      7  O   UNL     1      17.274   3.158   1.166  1.00  0.00    -0.550 OA
ATOM      8  O   UNL     1      15.068   2.738   0.713  1.00  0.00    -0.550 OA
ENDBRANCH   5   6
ENDBRANCH   4   5
ENDBRANCH   3   4
ENDBRANCH   2   3
ENDBRANCH   1   2
BRANCH   1   9
ATOM      9  C   UNL     1      16.871   2.136  -5.531  1.00  0.00     0.000 C 
BRANCH   9  10
ATOM     10  C   UNL     1      16.839   2.905  -6.860  1.00  0.00    -0.000 C 
BRANCH  10  11
ATOM     11  C   UNL     1      17.260   4.369  -6.656  1.00  0.00    -0.000 C 
BRANCH  11  12
ATOM     12  C   UNL     1      16.165   5.364  -7.072  1.00  0.00    -0.000 C 
BRANCH  12  13
ATOM     13  C   UNL     1      14.814   5.070  -6.401  1.00  0.00    -0.003 C 
ATOM     14  C   UNL     1      13.765   6.103  -6.804  1.00  0.00     0.004 C 
ENDBRANCH  12  13
ENDBRANCH  11  12
ENDBRANCH  10  11
ENDBRANCH   9  10
ENDBRANCH   1   9
TORSDOF 10
ENDMDL
MODEL 9
REMARK VINA RESULT:    -3.667      2.277      4.936
REMARK INTER + INTRA:          -6.991
REMARK INTER:                  -5.839
REMARK INTRA:                  -1.152
REMARK UNBOUND:                -1.181
REMARK SMILES CCCCCCCCCCCC(=O)[O-]
REMARK SMILES IDX 7 1 8 2 9 3 10 4 11 5 12 6 13 7 14 8 6 9 5 10 4 11 3 12 2 13
REMARK SMILES IDX 1 14
REMARK H PARENT
REMARK Flexibility Score: inf
ROOT
ATOM      1  C   UNL     1      16.420  13.551  -5.745  1.00  0.00     0.000 C 
ENDROOT
BRANCH   1   2
ATOM      2  C   UNL     1      16.281  12.628  -6.967  1.00  0.00     0.000 C 
BRANCH   2   3
ATOM      3  C   UNL     1      15.125  13.040  -7.897  1.00  0.00     0.000 C 
BRANCH   3   4
ATOM      4  C   UNL     1      15.560  13.542  -9.290  1.00  0.00     0.006 C 
BRANCH   4   5
ATOM      5  C   UNL     1      17.025  13.245  -9.646  1.00  0.00     0.053 C 
BRANCH   5   6
ATOM      6  C   UNL     1      17.869  14.482  -9.629  1.00  0.00     0.041 C 
ATOM      7  O   UNL     1      17.433  15.553 -10.125  1.00  0.00    -0.550 OA
ATOM      8  O   UNL     1      19.152  14.442  -9.095  1.00  0.00    -0.550 OA
ENDBRANCH   5   6
ENDBRANCH   4   5
ENDBRANCH   3   4
ENDBRANCH   2   3
ENDBRANCH   1   2
BRANCH   1   9
ATOM      9  C   UNL     1      17.001  14.928  -6.108  1.00  0.00     0.000 C 
BRANCH   9  10
ATOM     10  C   UNL     1      18.442  15.111  -5.607  1.00  0.00    -0.000 C 
BRANCH  10  11
ATOM     11  C   UNL     1      18.544  14.798  -4.106  1.00  0.00    -0.000 C 
BRANCH  11  12
ATOM     12  C   UNL     1      19.571  13.698  -3.799  1.00  0.00    -0.000 C 
BRANCH  12  13
ATOM     13  C   UNL     1      20.125  13.035  -5.069  1.00  0.00    -0.003 C 
ATOM     14  C   UNL     1      19.700  11.571  -5.155  1.00  0.00     0.004 C 
ENDBRANCH  12  13
ENDBRANCH  11  12
ENDBRANCH  10  11
ENDBRANCH   9  10
ENDBRANCH   1   9
TORSDOF 10
ENDMDL
