MODEL 1
REMARK VINA RESULT:    -7.458      0.000      0.000
REMARK INTER + INTRA:          -9.255
REMARK INTER:                  -8.984
REMARK INTRA:                  -0.271
REMARK UNBOUND:                -0.271
REMARK SMILES O=c1c(O)c(-c2ccc(O)c(O)c2)oc2cc(O)cc(O)c12
REMARK SMILES IDX 5 1 3 2 2 3 1 4 22 5 20 6 19 7 17 8 16 9 15 10 14 11 6 12
REMARK SMILES IDX 7 13 8 14 9 15 13 16 11 17 10 18 12 20 4 22 21 24 18 26
REMARK H PARENT 10 19 12 21 4 23 21 25 18 27
REMARK Flexibility Score: inf
ROOT
ATOM      1  C   UNL     1      12.072   6.853   7.274  1.00  0.00     0.180 A 
ATOM      2  C   UNL     1      11.152   6.855   6.210  1.00  0.00     0.208 A 
ATOM      3  C   UNL     1      10.024   6.024   6.284  1.00  0.00     0.238 A 
ATOM      4  O   UNL     1       9.234   5.989   5.305  1.00  0.00    -0.285 OA
ATOM      5  C   UNL     1       9.821   5.212   7.426  1.00  0.00     0.111 A 
ATOM      6  C   UNL     1       8.692   4.361   7.626  1.00  0.00     0.134 A 
ATOM      7  C   UNL     1       8.659   3.505   8.733  1.00  0.00     0.093 A 
ATOM      8  C   UNL     1       9.681   3.517   9.683  1.00  0.00     0.123 A 
ATOM      9  C   UNL     1      10.760   4.387   9.529  1.00  0.00     0.094 A 
ATOM     10  C   UNL     1      10.838   5.227   8.415  1.00  0.00     0.146 A 
ATOM     11  O   UNL     1      11.888   6.032   8.301  1.00  0.00    -0.452 OA
ENDROOT
BRANCH   1  12
ATOM     12  C   UNL     1      13.272   7.721   7.278  1.00  0.00     0.025 A 
ATOM     13  C   UNL     1      14.541   7.146   7.111  1.00  0.00     0.016 A 
ATOM     14  C   UNL     1      15.688   7.943   7.133  1.00  0.00     0.051 A 
ATOM     15  C   UNL     1      15.588   9.322   7.339  1.00  0.00     0.157 A 
ATOM     16  C   UNL     1      13.174   9.105   7.507  1.00  0.00     0.062 A 
ATOM     17  C   UNL     1      14.325   9.907   7.531  1.00  0.00     0.158 A 
BRANCH  15  18
ATOM     18  O   UNL     1      16.750  10.092   7.355  1.00  0.00    -0.504 OA
ATOM     19  H   UNL     1      16.792  11.011   6.931  1.00  0.00     0.293 HD
ENDBRANCH  15  18
BRANCH  17  20
ATOM     20  O   UNL     1      14.218  11.279   7.751  1.00  0.00    -0.504 OA
ATOM     21  H   UNL     1      13.444  11.818   7.380  1.00  0.00     0.293 HD
ENDBRANCH  17  20
ENDBRANCH   1  12
BRANCH   2  22
ATOM     22  O   UNL     1      11.385   7.647   5.082  1.00  0.00    -0.502 OA
ATOM     23  H   UNL     1      10.684   8.272   4.703  1.00  0.00     0.293 HD
ENDBRANCH   2  22
BRANCH   6  24
ATOM     24  O   UNL     1       7.574   4.339   6.786  1.00  0.00    -0.507 OA
ATOM     25  H   UNL     1       7.186   3.508   6.368  1.00  0.00     0.293 HD
ENDBRANCH   6  24
BRANCH   8  26
ATOM     26  O   UNL     1       9.608   2.663  10.781  1.00  0.00    -0.508 OA
ATOM     27  H   UNL     1       9.968   1.716  10.741  1.00  0.00     0.293 HD
ENDBRANCH   8  26
TORSDOF 6
ENDMDL
MODEL 2
REMARK VINA RESULT:    -7.202     13.253     14.706
REMARK INTER + INTRA:          -8.947
REMARK INTER:                  -8.857
REMARK INTRA:                  -0.090
REMARK UNBOUND:                -0.271
REMARK SMILES O=c1c(O)c(-c2ccc(O)c(O)c2)oc2cc(O)cc(O)c12
REMARK SMILES IDX 5 1 3 2 2 3 1 4 22 5 20 6 19 7 17 8 16 9 15 10 14 11 6 12
REMARK SMILES IDX 7 13 8 14 9 15 13 16 11 17 10 18 12 20 4 22 21 24 18 26
REMARK H PARENT 10 19 12 21 4 23 21 25 18 27
REMARK Flexibility Score: inf
ROOT
ATOM      1  C   UNL     1       3.092  10.490  18.275  1.00  0.00     0.180 A 
ATOM      2  C   UNL     1       2.957   9.514  17.271  1.00  0.00     0.208 A 
ATOM      3  C   UNL     1       2.566   8.215  17.633  1.00  0.00     0.238 A 
ATOM      4  O   UNL     1       2.500   7.333  16.739  1.00  0.00    -0.285 OA
ATOM      5  C   UNL     1       2.301   7.912  18.991  1.00  0.00     0.111 A 
ATOM      6  C   UNL     1       1.860   6.640  19.467  1.00  0.00     0.134 A 
ATOM      7  C   UNL     1       1.754   6.417  20.845  1.00  0.00     0.093 A 
ATOM      8  C   UNL     1       2.009   7.436  21.761  1.00  0.00     0.123 A 
ATOM      9  C   UNL     1       2.383   8.701  21.305  1.00  0.00     0.094 A 
ATOM     10  C   UNL     1       2.532   8.944  19.937  1.00  0.00     0.146 A 
ATOM     11  O   UNL     1       2.900  10.158  19.546  1.00  0.00    -0.452 OA
ENDROOT
BRANCH   1  12
ATOM     12  C   UNL     1       3.476  11.887  17.967  1.00  0.00     0.025 A 
ATOM     13  C   UNL     1       2.588  12.930  18.270  1.00  0.00     0.016 A 
ATOM     14  C   UNL     1       2.920  14.253  17.970  1.00  0.00     0.051 A 
ATOM     15  C   UNL     1       4.135  14.553  17.346  1.00  0.00     0.157 A 
ATOM     16  C   UNL     1       4.688  12.188  17.321  1.00  0.00     0.062 A 
ATOM     17  C   UNL     1       5.023  13.516  17.016  1.00  0.00     0.158 A 
BRANCH  15  18
ATOM     18  O   UNL     1       4.440  15.883  17.060  1.00  0.00    -0.504 OA
ATOM     19  H   UNL     1       3.735  16.611  17.072  1.00  0.00     0.293 HD
ENDBRANCH  15  18
BRANCH  17  20
ATOM     20  O   UNL     1       6.230  13.807  16.383  1.00  0.00    -0.504 OA
ATOM     21  H   UNL     1       7.067  14.029  16.910  1.00  0.00     0.293 HD
ENDBRANCH  17  20
ENDBRANCH   1  12
BRANCH   2  22
ATOM     22  O   UNL     1       3.246   9.829  15.941  1.00  0.00    -0.502 OA
ATOM     23  H   UNL     1       4.143   9.628  15.517  1.00  0.00     0.293 HD
ENDBRANCH   2  22
BRANCH   6  24
ATOM     24  O   UNL     1       1.490   5.581  18.632  1.00  0.00    -0.507 OA
ATOM     25  H   UNL     1       2.113   4.856  18.313  1.00  0.00     0.293 HD
ENDBRANCH   6  24
BRANCH   8  26
ATOM     26  O   UNL     1       1.879   7.183  23.125  1.00  0.00    -0.508 OA
ATOM     27  H   UNL     1       1.599   6.273  23.471  1.00  0.00     0.293 HD
ENDBRANCH   8  26
TORSDOF 6
ENDMDL
MODEL 3
REMARK VINA RESULT:    -7.044      1.732      6.648
REMARK INTER + INTRA:          -8.757
REMARK INTER:                  -8.448
REMARK INTRA:                  -0.309
REMARK UNBOUND:                -0.271
REMARK SMILES O=c1c(O)c(-c2ccc(O)c(O)c2)oc2cc(O)cc(O)c12
REMARK SMILES IDX 5 1 3 2 2 3 1 4 22 5 20 6 19 7 17 8 16 9 15 10 14 11 6 12
REMARK SMILES IDX 7 13 8 14 9 15 13 16 11 17 10 18 12 20 4 22 21 24 18 26
REMARK H PARENT 10 19 12 21 4 23 21 25 18 27
REMARK Flexibility Score: inf
ROOT
ATOM      1  C   UNL     1      10.943   6.383   6.576  1.00  0.00     0.180 A 
ATOM      2  C   UNL     1      10.217   7.052   5.574  1.00  0.00     0.208 A 
ATOM      3  C   UNL     1      10.713   8.262   5.067  1.00  0.00     0.238 A 
ATOM      4  O   UNL     1      10.032   8.883   4.210  1.00  0.00    -0.285 OA
ATOM      5  C   UNL     1      11.936   8.783   5.557  1.00  0.00     0.111 A 
ATOM      6  C   UNL     1      12.552   9.982   5.087  1.00  0.00     0.134 A 
ATOM      7  C   UNL     1      13.694  10.470   5.733  1.00  0.00     0.093 A 
ATOM      8  C   UNL     1      14.280   9.771   6.788  1.00  0.00     0.123 A 
ATOM      9  C   UNL     1      13.719   8.567   7.217  1.00  0.00     0.094 A 
ATOM     10  C   UNL     1      12.559   8.073   6.615  1.00  0.00     0.146 A 
ATOM     11  O   UNL     1      12.052   6.929   7.061  1.00  0.00    -0.452 OA
ENDROOT
BRANCH   1  12
ATOM     12  C   UNL     1      10.496   5.089   7.141  1.00  0.00     0.025 A 
ATOM     13  C   UNL     1      10.781   3.899   6.454  1.00  0.00     0.016 A 
ATOM     14  C   UNL     1      10.351   2.670   6.957  1.00  0.00     0.051 A 
ATOM     15  C   UNL     1       9.615   2.610   8.145  1.00  0.00     0.157 A 
ATOM     16  C   UNL     1       9.738   5.030   8.325  1.00  0.00     0.062 A 
ATOM     17  C   UNL     1       9.304   3.796   8.831  1.00  0.00     0.158 A 
BRANCH  15  18
ATOM     18  O   UNL     1       9.201   1.368   8.624  1.00  0.00    -0.504 OA
ATOM     19  H   UNL     1       8.519   1.279   9.368  1.00  0.00     0.293 HD
ENDBRANCH  15  18
BRANCH  17  20
ATOM     20  O   UNL     1       8.559   3.745  10.009  1.00  0.00    -0.504 OA
ATOM     21  H   UNL     1       8.956   3.393  10.873  1.00  0.00     0.293 HD
ENDBRANCH  17  20
ENDBRANCH   1  12
BRANCH   2  22
ATOM     22  O   UNL     1       9.001   6.531   5.122  1.00  0.00    -0.502 OA
ATOM     23  H   UNL     1       8.818   5.536   5.077  1.00  0.00     0.293 HD
ENDBRANCH   2  22
BRANCH   6  24
ATOM     24  O   UNL     1      12.102  10.709   3.981  1.00  0.00    -0.507 OA
ATOM     25  H   UNL     1      11.217  10.566   3.521  1.00  0.00     0.293 HD
ENDBRANCH   6  24
BRANCH   8  26
ATOM     26  O   UNL     1      15.424  10.278   7.399  1.00  0.00    -0.508 OA
ATOM     27  H   UNL     1      16.296   9.761   7.405  1.00  0.00     0.293 HD
ENDBRANCH   8  26
TORSDOF 6
ENDMDL
MODEL 4
REMARK VINA RESULT:    -7.037      2.872      7.066
REMARK INTER + INTRA:          -8.749
REMARK INTER:                  -8.699
REMARK INTRA:                  -0.049
REMARK UNBOUND:                -0.271
REMARK SMILES O=c1c(O)c(-c2ccc(O)c(O)c2)oc2cc(O)cc(O)c12
REMARK SMILES IDX 5 1 3 2 2 3 1 4 22 5 20 6 19 7 17 8 16 9 15 10 14 11 6 12
REMARK SMILES IDX 7 13 8 14 9 15 13 16 11 17 10 18 12 20 4 22 21 24 18 26
REMARK H PARENT 10 19 12 21 4 23 21 25 18 27
REMARK Flexibility Score: inf
ROOT
ATOM      1  C   UNL     1      11.471   6.462   5.726  1.00  0.00     0.180 A 
ATOM      2  C   UNL     1      12.822   6.403   5.340  1.00  0.00     0.208 A 
ATOM      3  C   UNL     1      13.383   7.492   4.654  1.00  0.00     0.238 A 
ATOM      4  O   UNL     1      14.576   7.410   4.263  1.00  0.00    -0.285 OA
ATOM      5  C   UNL     1      12.590   8.632   4.375  1.00  0.00     0.111 A 
ATOM      6  C   UNL     1      13.066   9.809   3.721  1.00  0.00     0.134 A 
ATOM      7  C   UNL     1      12.162  10.823   3.382  1.00  0.00     0.093 A 
ATOM      8  C   UNL     1      10.815  10.733   3.730  1.00  0.00     0.123 A 
ATOM      9  C   UNL     1      10.351   9.614   4.422  1.00  0.00     0.094 A 
ATOM     10  C   UNL     1      11.222   8.569   4.743  1.00  0.00     0.146 A 
ATOM     11  O   UNL     1      10.738   7.517   5.392  1.00  0.00    -0.452 OA
ENDROOT
BRANCH   1  12
ATOM     12  C   UNL     1      10.818   5.364   6.473  1.00  0.00     0.025 A 
ATOM     13  C   UNL     1      10.791   4.073   5.923  1.00  0.00     0.016 A 
ATOM     14  C   UNL     1      10.162   3.026   6.601  1.00  0.00     0.051 A 
ATOM     15  C   UNL     1       9.535   3.255   7.829  1.00  0.00     0.157 A 
ATOM     16  C   UNL     1      10.169   5.597   7.699  1.00  0.00     0.062 A 
ATOM     17  C   UNL     1       9.535   4.548   8.381  1.00  0.00     0.158 A 
BRANCH  15  18
ATOM     18  O   UNL     1       8.917   2.191   8.483  1.00  0.00    -0.504 OA
ATOM     19  H   UNL     1       8.058   1.776   8.142  1.00  0.00     0.293 HD
ENDBRANCH  15  18
BRANCH  17  20
ATOM     20  O   UNL     1       8.900   4.786   9.599  1.00  0.00    -0.504 OA
ATOM     21  H   UNL     1       7.900   4.946   9.655  1.00  0.00     0.293 HD
ENDBRANCH  17  20
ENDBRANCH   1  12
BRANCH   2  22
ATOM     22  O   UNL     1      13.579   5.258   5.605  1.00  0.00    -0.502 OA
ATOM     23  H   UNL     1      14.298   4.923   4.974  1.00  0.00     0.293 HD
ENDBRANCH   2  22
BRANCH   6  24
ATOM     24  O   UNL     1      14.409  10.040   3.411  1.00  0.00    -0.507 OA
ATOM     25  H   UNL     1      15.123   9.330   3.383  1.00  0.00     0.293 HD
ENDBRANCH   6  24
BRANCH   8  26
ATOM     26  O   UNL     1       9.946  11.768   3.390  1.00  0.00    -0.508 OA
ATOM     27  H   UNL     1      10.246  12.544   2.811  1.00  0.00     0.293 HD
ENDBRANCH   8  26
TORSDOF 6
ENDMDL
MODEL 5
REMARK VINA RESULT:    -6.887      1.758      3.363
REMARK INTER + INTRA:          -8.567
REMARK INTER:                  -8.265
REMARK INTRA:                  -0.302
REMARK UNBOUND:                -0.271
REMARK SMILES O=c1c(O)c(-c2ccc(O)c(O)c2)oc2cc(O)cc(O)c12
REMARK SMILES IDX 5 1 3 2 2 3 1 4 22 5 20 6 19 7 17 8 16 9 15 10 14 11 6 12
REMARK SMILES IDX 7 13 8 14 9 15 13 16 11 17 10 18 12 20 4 22 21 24 18 26
REMARK H PARENT 10 19 12 21 4 23 21 25 18 27
REMARK Flexibility Score: inf
ROOT
ATOM      1  C   UNL     1      12.948   7.061   7.290  1.00  0.00     0.180 A 
ATOM      2  C   UNL     1      12.332   6.607   8.469  1.00  0.00     0.208 A 
ATOM      3  C   UNL     1      11.306   5.654   8.377  1.00  0.00     0.238 A 
ATOM      4  O   UNL     1      10.721   5.292   9.431  1.00  0.00    -0.285 OA
ATOM      5  C   UNL     1      10.918   5.156   7.109  1.00  0.00     0.111 A 
ATOM      6  C   UNL     1       9.917   4.160   6.901  1.00  0.00     0.134 A 
ATOM      7  C   UNL     1       9.525   3.837   5.597  1.00  0.00     0.093 A 
ATOM      8  C   UNL     1      10.141   4.425   4.493  1.00  0.00     0.123 A 
ATOM      9  C   UNL     1      11.161   5.357   4.684  1.00  0.00     0.094 A 
ATOM     10  C   UNL     1      11.550   5.726   5.974  1.00  0.00     0.146 A 
ATOM     11  O   UNL     1      12.518   6.624   6.112  1.00  0.00    -0.452 OA
ENDROOT
BRANCH   1  12
ATOM     12  C   UNL     1      14.054   8.046   7.309  1.00  0.00     0.025 A 
ATOM     13  C   UNL     1      13.799   9.379   6.953  1.00  0.00     0.016 A 
ATOM     14  C   UNL     1      14.830  10.321   6.943  1.00  0.00     0.051 A 
ATOM     15  C   UNL     1      16.136   9.942   7.272  1.00  0.00     0.157 A 
ATOM     16  C   UNL     1      15.371   7.662   7.618  1.00  0.00     0.062 A 
ATOM     17  C   UNL     1      16.410   8.606   7.608  1.00  0.00     0.158 A 
BRANCH  15  18
ATOM     18  O   UNL     1      17.145  10.904   7.255  1.00  0.00    -0.504 OA
ATOM     19  H   UNL     1      17.592  11.229   8.104  1.00  0.00     0.293 HD
ENDBRANCH  15  18
BRANCH  17  20
ATOM     20  O   UNL     1      17.711   8.219   7.923  1.00  0.00    -0.504 OA
ATOM     21  H   UNL     1      18.019   8.123   8.885  1.00  0.00     0.293 HD
ENDBRANCH  17  20
ENDBRANCH   1  12
BRANCH   2  22
ATOM     22  O   UNL     1      12.715   7.129   9.708  1.00  0.00    -0.502 OA
ATOM     23  H   UNL     1      12.074   7.635  10.306  1.00  0.00     0.293 HD
ENDBRANCH   2  22
BRANCH   6  24
ATOM     24  O   UNL     1       9.304   3.443   7.933  1.00  0.00    -0.507 OA
ATOM     25  H   UNL     1       8.907   2.522   7.836  1.00  0.00     0.293 HD
ENDBRANCH   6  24
BRANCH   8  26
ATOM     26  O   UNL     1       9.735   4.070   3.208  1.00  0.00    -0.508 OA
ATOM     27  H   UNL     1       8.905   3.511   3.050  1.00  0.00     0.293 HD
ENDBRANCH   8  26
TORSDOF 6
ENDMDL
MODEL 6
REMARK VINA RESULT:    -6.854      1.905      6.864
REMARK INTER + INTRA:          -8.528
REMARK INTER:                  -8.197
REMARK INTRA:                  -0.331
REMARK UNBOUND:                -0.271
REMARK SMILES O=c1c(O)c(-c2ccc(O)c(O)c2)oc2cc(O)cc(O)c12
REMARK SMILES IDX 5 1 3 2 2 3 1 4 22 5 20 6 19 7 17 8 16 9 15 10 14 11 6 12
REMARK SMILES IDX 7 13 8 14 9 15 13 16 11 17 10 18 12 20 4 22 21 24 18 26
REMARK H PARENT 10 19 12 21 4 23 21 25 18 27
REMARK Flexibility Score: inf
ROOT
ATOM      1  C   UNL     1      11.584   6.939   6.453  1.00  0.00     0.180 A 
ATOM      2  C   UNL     1      11.106   7.711   5.378  1.00  0.00     0.208 A 
ATOM      3  C   UNL     1      11.867   8.802   4.933  1.00  0.00     0.238 A 
ATOM      4  O   UNL     1      11.408   9.521   4.007  1.00  0.00    -0.285 OA
ATOM      5  C   UNL     1      13.103   9.101   5.556  1.00  0.00     0.111 A 
ATOM      6  C   UNL     1      13.976  10.159   5.160  1.00  0.00     0.134 A 
ATOM      7  C   UNL     1      15.111  10.443   5.930  1.00  0.00     0.093 A 
ATOM      8  C   UNL     1      15.440   9.668   7.041  1.00  0.00     0.123 A 
ATOM      9  C   UNL     1      14.625   8.594   7.402  1.00  0.00     0.094 A 
ATOM     10  C   UNL     1      13.467   8.308   6.675  1.00  0.00     0.146 A 
ATOM     11  O   UNL     1      12.714   7.284   7.058  1.00  0.00    -0.452 OA
ENDROOT
BRANCH   1  12
ATOM     12  C   UNL     1      10.849   5.759   6.962  1.00  0.00     0.025 A 
ATOM     13  C   UNL     1      10.009   5.896   8.077  1.00  0.00     0.016 A 
ATOM     14  C   UNL     1       9.322   4.792   8.588  1.00  0.00     0.051 A 
ATOM     15  C   UNL     1       9.478   3.531   8.004  1.00  0.00     0.157 A 
ATOM     16  C   UNL     1      11.021   4.486   6.389  1.00  0.00     0.062 A 
ATOM     17  C   UNL     1      10.334   3.375   6.901  1.00  0.00     0.158 A 
BRANCH  15  18
ATOM     18  O   UNL     1       8.778   2.448   8.534  1.00  0.00    -0.504 OA
ATOM     19  H   UNL     1       8.842   1.519   8.135  1.00  0.00     0.293 HD
ENDBRANCH  15  18
BRANCH  17  20
ATOM     20  O   UNL     1      10.504   2.118   6.322  1.00  0.00    -0.504 OA
ATOM     21  H   UNL     1      11.423   1.761   6.089  1.00  0.00     0.293 HD
ENDBRANCH  17  20
ENDBRANCH   1  12
BRANCH   2  22
ATOM     22  O   UNL     1       9.872   7.412   4.793  1.00  0.00    -0.502 OA
ATOM     23  H   UNL     1       9.525   7.900   3.977  1.00  0.00     0.293 HD
ENDBRANCH   2  22
BRANCH   6  24
ATOM     24  O   UNL     1      13.790  10.936   4.013  1.00  0.00    -0.507 OA
ATOM     25  H   UNL     1      12.898  11.114   3.578  1.00  0.00     0.293 HD
ENDBRANCH   6  24
BRANCH   8  26
ATOM     26  O   UNL     1      16.584   9.969   7.775  1.00  0.00    -0.508 OA
ATOM     27  H   UNL     1      16.528  10.345   8.715  1.00  0.00     0.293 HD
ENDBRANCH   8  26
TORSDOF 6
ENDMDL
MODEL 7
REMARK VINA RESULT:    -6.835      2.167      7.210
REMARK INTER + INTRA:          -8.505
REMARK INTER:                  -8.254
REMARK INTRA:                  -0.251
REMARK UNBOUND:                -0.271
REMARK SMILES O=c1c(O)c(-c2ccc(O)c(O)c2)oc2cc(O)cc(O)c12
REMARK SMILES IDX 5 1 3 2 2 3 1 4 22 5 20 6 19 7 17 8 16 9 15 10 14 11 6 12
REMARK SMILES IDX 7 13 8 14 9 15 13 16 11 17 10 18 12 20 4 22 21 24 18 26
REMARK H PARENT 10 19 12 21 4 23 21 25 18 27
REMARK Flexibility Score: inf
ROOT
ATOM      1  C   UNL     1      11.473   7.069   7.262  1.00  0.00     0.180 A 
ATOM      2  C   UNL     1      12.480   7.585   8.098  1.00  0.00     0.208 A 
ATOM      3  C   UNL     1      13.103   8.792   7.747  1.00  0.00     0.238 A 
ATOM      4  O   UNL     1      14.041   9.220   8.469  1.00  0.00    -0.285 OA
ATOM      5  C   UNL     1      12.704   9.476   6.573  1.00  0.00     0.111 A 
ATOM      6  C   UNL     1      13.240  10.727   6.142  1.00  0.00     0.134 A 
ATOM      7  C   UNL     1      12.862  11.248   4.899  1.00  0.00     0.093 A 
ATOM      8  C   UNL     1      11.921  10.599   4.101  1.00  0.00     0.123 A 
ATOM      9  C   UNL     1      11.347   9.405   4.540  1.00  0.00     0.094 A 
ATOM     10  C   UNL     1      11.729   8.842   5.760  1.00  0.00     0.146 A 
ATOM     11  O   UNL     1      11.167   7.700   6.135  1.00  0.00    -0.452 OA
ENDROOT
BRANCH   1  12
ATOM     12  C   UNL     1      10.753   5.814   7.580  1.00  0.00     0.025 A 
ATOM     13  C   UNL     1       9.814   5.802   8.623  1.00  0.00     0.016 A 
ATOM     14  C   UNL     1       9.138   4.625   8.954  1.00  0.00     0.051 A 
ATOM     15  C   UNL     1       9.402   3.440   8.261  1.00  0.00     0.157 A 
ATOM     16  C   UNL     1      11.033   4.617   6.898  1.00  0.00     0.062 A 
ATOM     17  C   UNL     1      10.356   3.433   7.230  1.00  0.00     0.158 A 
BRANCH  15  18
ATOM     18  O   UNL     1       8.711   2.281   8.612  1.00  0.00    -0.504 OA
ATOM     19  H   UNL     1       7.735   2.145   8.378  1.00  0.00     0.293 HD
ENDBRANCH  15  18
BRANCH  17  20
ATOM     20  O   UNL     1      10.634   2.252   6.544  1.00  0.00    -0.504 OA
ATOM     21  H   UNL     1       9.942   1.516   6.452  1.00  0.00     0.293 HD
ENDBRANCH  17  20
ENDBRANCH   1  12
BRANCH   2  22
ATOM     22  O   UNL     1      12.875   6.881   9.239  1.00  0.00    -0.502 OA
ATOM     23  H   UNL     1      12.901   7.306  10.158  1.00  0.00     0.293 HD
ENDBRANCH   2  22
BRANCH   6  24
ATOM     24  O   UNL     1      14.117  11.504   6.905  1.00  0.00    -0.507 OA
ATOM     25  H   UNL     1      13.833  12.222   7.553  1.00  0.00     0.293 HD
ENDBRANCH   6  24
BRANCH   8  26
ATOM     26  O   UNL     1      11.558  11.153   2.876  1.00  0.00    -0.508 OA
ATOM     27  H   UNL     1      12.134  11.848   2.416  1.00  0.00     0.293 HD
ENDBRANCH   8  26
TORSDOF 6
ENDMDL
MODEL 8
REMARK VINA RESULT:    -6.743      2.355      3.163
REMARK INTER + INTRA:          -8.394
REMARK INTER:                  -8.104
REMARK INTRA:                  -0.290
REMARK UNBOUND:                -0.271
REMARK SMILES O=c1c(O)c(-c2ccc(O)c(O)c2)oc2cc(O)cc(O)c12
REMARK SMILES IDX 5 1 3 2 2 3 1 4 22 5 20 6 19 7 17 8 16 9 15 10 14 11 6 12
REMARK SMILES IDX 7 13 8 14 9 15 13 16 11 17 10 18 12 20 4 22 21 24 18 26
REMARK H PARENT 10 19 12 21 4 23 21 25 18 27
REMARK Flexibility Score: inf
ROOT
ATOM      1  C   UNL     1      14.143   6.972   6.853  1.00  0.00     0.180 A 
ATOM      2  C   UNL     1      13.406   5.980   6.181  1.00  0.00     0.208 A 
ATOM      3  C   UNL     1      12.133   5.635   6.661  1.00  0.00     0.238 A 
ATOM      4  O   UNL     1      11.502   4.710   6.089  1.00  0.00    -0.285 OA
ATOM      5  C   UNL     1      11.607   6.295   7.799  1.00  0.00     0.111 A 
ATOM      6  C   UNL     1      10.312   6.054   8.349  1.00  0.00     0.134 A 
ATOM      7  C   UNL     1       9.946   6.671   9.551  1.00  0.00     0.093 A 
ATOM      8  C   UNL     1      10.801   7.569  10.189  1.00  0.00     0.123 A 
ATOM      9  C   UNL     1      12.046   7.858   9.628  1.00  0.00     0.094 A 
ATOM     10  C   UNL     1      12.453   7.231   8.448  1.00  0.00     0.146 A 
ATOM     11  O   UNL     1      13.650   7.526   7.954  1.00  0.00    -0.452 OA
ENDROOT
BRANCH   1  12
ATOM     12  C   UNL     1      15.481   7.407   6.390  1.00  0.00     0.025 A 
ATOM     13  C   UNL     1      16.608   6.636   6.715  1.00  0.00     0.016 A 
ATOM     14  C   UNL     1      17.883   7.037   6.308  1.00  0.00     0.051 A 
ATOM     15  C   UNL     1      18.053   8.223   5.586  1.00  0.00     0.157 A 
ATOM     16  C   UNL     1      15.657   8.609   5.682  1.00  0.00     0.062 A 
ATOM     17  C   UNL     1      16.936   9.015   5.274  1.00  0.00     0.158 A 
BRANCH  15  18
ATOM     18  O   UNL     1      19.337   8.597   5.191  1.00  0.00    -0.504 OA
ATOM     19  H   UNL     1      19.720   8.338   4.290  1.00  0.00     0.293 HD
ENDBRANCH  15  18
BRANCH  17  20
ATOM     20  O   UNL     1      17.100  10.205   4.566  1.00  0.00    -0.504 OA
ATOM     21  H   UNL     1      18.000  10.476   4.185  1.00  0.00     0.293 HD
ENDBRANCH  17  20
ENDBRANCH   1  12
BRANCH   2  22
ATOM     22  O   UNL     1      13.954   5.326   5.074  1.00  0.00    -0.502 OA
ATOM     23  H   UNL     1      13.391   5.010   4.295  1.00  0.00     0.293 HD
ENDBRANCH   2  22
BRANCH   6  24
ATOM     24  O   UNL     1       9.346   5.245   7.743  1.00  0.00    -0.507 OA
ATOM     25  H   UNL     1       9.454   4.791   6.849  1.00  0.00     0.293 HD
ENDBRANCH   6  24
BRANCH   8  26
ATOM     26  O   UNL     1      10.399   8.176  11.376  1.00  0.00    -0.508 OA
ATOM     27  H   UNL     1      11.002   8.821  11.873  1.00  0.00     0.293 HD
ENDBRANCH   8  26
TORSDOF 6
ENDMDL
MODEL 9
REMARK VINA RESULT:    -6.569      1.681      7.087
REMARK INTER + INTRA:          -8.185
REMARK INTER:                  -7.913
REMARK INTRA:                  -0.272
REMARK UNBOUND:                -0.271
REMARK SMILES O=c1c(O)c(-c2ccc(O)c(O)c2)oc2cc(O)cc(O)c12
REMARK SMILES IDX 5 1 3 2 2 3 1 4 22 5 20 6 19 7 17 8 16 9 15 10 14 11 6 12
REMARK SMILES IDX 7 13 8 14 9 15 13 16 11 17 10 18 12 20 4 22 21 24 18 26
REMARK H PARENT 10 19 12 21 4 23 21 25 18 27
REMARK Flexibility Score: inf
ROOT
ATOM      1  C   UNL     1      12.501   7.063   7.133  1.00  0.00     0.180 A 
ATOM      2  C   UNL     1      13.479   6.550   6.263  1.00  0.00     0.208 A 
ATOM      3  C   UNL     1      14.564   7.365   5.902  1.00  0.00     0.238 A 
ATOM      4  O   UNL     1      15.407   6.920   5.081  1.00  0.00    -0.285 OA
ATOM      5  C   UNL     1      14.665   8.676   6.427  1.00  0.00     0.111 A 
ATOM      6  C   UNL     1      15.742   9.575   6.161  1.00  0.00     0.134 A 
ATOM      7  C   UNL     1      15.673  10.893   6.628  1.00  0.00     0.093 A 
ATOM      8  C   UNL     1      14.600  11.326   7.407  1.00  0.00     0.123 A 
ATOM      9  C   UNL     1      13.571  10.438   7.723  1.00  0.00     0.094 A 
ATOM     10  C   UNL     1      13.594   9.127   7.241  1.00  0.00     0.146 A 
ATOM     11  O   UNL     1      12.589   8.319   7.556  1.00  0.00    -0.452 OA
ENDROOT
BRANCH   1  12
ATOM     12  C   UNL     1      11.342   6.255   7.578  1.00  0.00     0.025 A 
ATOM     13  C   UNL     1      11.361   5.662   8.849  1.00  0.00     0.016 A 
ATOM     14  C   UNL     1      10.288   4.878   9.282  1.00  0.00     0.051 A 
ATOM     15  C   UNL     1       9.189   4.661   8.446  1.00  0.00     0.157 A 
ATOM     16  C   UNL     1      10.245   6.019   6.730  1.00  0.00     0.062 A 
ATOM     17  C   UNL     1       9.168   5.231   7.161  1.00  0.00     0.158 A 
BRANCH  15  18
ATOM     18  O   UNL     1       8.132   3.876   8.905  1.00  0.00    -0.504 OA
ATOM     19  H   UNL     1       8.257   2.905   9.164  1.00  0.00     0.293 HD
ENDBRANCH  15  18
BRANCH  17  20
ATOM     20  O   UNL     1       8.081   5.007   6.318  1.00  0.00    -0.504 OA
ATOM     21  H   UNL     1       8.158   5.115   5.312  1.00  0.00     0.293 HD
ENDBRANCH  17  20
ENDBRANCH   1  12
BRANCH   2  22
ATOM     22  O   UNL     1      13.347   5.261   5.739  1.00  0.00    -0.502 OA
ATOM     23  H   UNL     1      12.840   5.071   4.883  1.00  0.00     0.293 HD
ENDBRANCH   2  22
BRANCH   6  24
ATOM     24  O   UNL     1      16.904   9.217   5.471  1.00  0.00    -0.507 OA
ATOM     25  H   UNL     1      17.072   8.313   5.059  1.00  0.00     0.293 HD
ENDBRANCH   6  24
BRANCH   8  26
ATOM     26  O   UNL     1      14.572  12.640   7.868  1.00  0.00    -0.508 OA
ATOM     27  H   UNL     1      14.495  12.854   8.856  1.00  0.00     0.293 HD
ENDBRANCH   8  26
TORSDOF 6
ENDMDL
