MODEL 1
REMARK VINA RESULT:    -0.405      0.000      0.000
REMARK INTER + INTRA:          -0.599
REMARK INTER:                  -0.476
REMARK INTRA:                  -0.123
REMARK UNBOUND:                -0.123
REMARK SMILES O=C([O-])C=Cc1ccc(O)c(O)c1
REMARK SMILES IDX 6 1 13 2 7 3 11 4 8 5 9 6 5 7 4 8 2 9 1 10 3 11 12 12 10 14
REMARK H PARENT 12 13 10 15
REMARK Flexibility Score: inf
ROOT
ATOM      1  C   UNL     1       7.708   4.397  18.011  1.00  0.00    -0.022 A 
ATOM      2  C   UNL     1       6.956   5.588  17.964  1.00  0.00     0.058 A 
ATOM      3  C   UNL     1       9.107   4.482  18.037  1.00  0.00     0.012 A 
ATOM      4  C   UNL     1       7.589   6.838  17.920  1.00  0.00     0.157 A 
ATOM      5  C   UNL     1       9.744   5.722  17.989  1.00  0.00     0.051 A 
ATOM      6  C   UNL     1       9.002   6.905  17.927  1.00  0.00     0.157 A 
ENDROOT
BRANCH   1   7
ATOM      7  C   UNL     1       7.075   3.056  18.072  1.00  0.00     0.010 C 
ATOM      8  C   UNL     1       6.192   2.692  19.011  1.00  0.00     0.025 C 
BRANCH   8   9
ATOM      9  C   UNL     1       5.580   1.353  19.026  1.00  0.00     0.064 C 
ATOM     10  O   UNL     1       5.585   0.680  20.089  1.00  0.00    -0.545 OA
ATOM     11  O   UNL     1       4.998   0.818  17.882  1.00  0.00    -0.545 OA
ENDBRANCH   8   9
ENDBRANCH   1   7
BRANCH   4  12
ATOM     12  O   UNL     1       6.781   7.976  17.875  1.00  0.00    -0.504 OA
ATOM     13  H   UNL     1       6.036   8.114  17.209  1.00  0.00     0.293 HD
ENDBRANCH   4  12
BRANCH   6  14
ATOM     14  O   UNL     1       9.701   8.113  17.875  1.00  0.00    -0.504 OA
ATOM     15  H   UNL     1       9.271   9.007  17.685  1.00  0.00     0.293 HD
ENDBRANCH   6  14
TORSDOF 4
ENDMDL
MODEL 2
REMARK VINA RESULT:    -0.300      0.964      1.946
REMARK INTER + INTRA:          -0.476
REMARK INTER:                  -0.353
REMARK INTRA:                  -0.123
REMARK UNBOUND:                -0.123
REMARK SMILES O=C([O-])C=Cc1ccc(O)c(O)c1
REMARK SMILES IDX 6 1 13 2 7 3 11 4 8 5 9 6 5 7 4 8 2 9 1 10 3 11 12 12 10 14
REMARK H PARENT 12 13 10 15
REMARK Flexibility Score: inf
ROOT
ATOM      1  C   UNL     1       7.053   4.708  18.559  1.00  0.00    -0.022 A 
ATOM      2  C   UNL     1       8.439   4.554  18.357  1.00  0.00     0.058 A 
ATOM      3  C   UNL     1       6.501   5.995  18.501  1.00  0.00     0.012 A 
ATOM      4  C   UNL     1       9.261   5.665  18.127  1.00  0.00     0.157 A 
ATOM      5  C   UNL     1       7.314   7.107  18.277  1.00  0.00     0.051 A 
ATOM      6  C   UNL     1       8.692   6.959  18.092  1.00  0.00     0.157 A 
ENDROOT
BRANCH   1   7
ATOM      7  C   UNL     1       6.147   3.556  18.792  1.00  0.00     0.010 C 
ATOM      8  C   UNL     1       6.536   2.276  18.715  1.00  0.00     0.025 C 
BRANCH   8   9
ATOM      9  C   UNL     1       5.604   1.164  18.966  1.00  0.00     0.064 C 
ATOM     10  O   UNL     1       5.557   0.641  20.110  1.00  0.00    -0.545 OA
ATOM     11  O   UNL     1       4.776   0.680  17.960  1.00  0.00    -0.545 OA
ENDBRANCH   8   9
ENDBRANCH   1   7
BRANCH   4  12
ATOM     12  O   UNL     1      10.625   5.437  17.934  1.00  0.00    -0.504 OA
ATOM     13  H   UNL     1      11.019   4.542  17.683  1.00  0.00     0.293 HD
ENDBRANCH   4  12
BRANCH   6  14
ATOM     14  O   UNL     1       9.449   8.112  17.877  1.00  0.00    -0.504 OA
ATOM     15  H   UNL     1       9.098   9.051  18.004  1.00  0.00     0.293 HD
ENDBRANCH   6  14
TORSDOF 4
ENDMDL
MODEL 3
REMARK VINA RESULT:     0.181      1.608      5.561
REMARK INTER + INTRA:           0.089
REMARK INTER:                   0.214
REMARK INTRA:                  -0.125
REMARK UNBOUND:                -0.123
REMARK SMILES O=C([O-])C=Cc1ccc(O)c(O)c1
REMARK SMILES IDX 6 1 13 2 7 3 11 4 8 5 9 6 5 7 4 8 2 9 1 10 3 11 12 12 10 14
REMARK H PARENT 12 13 10 15
REMARK Flexibility Score: inf
ROOT
ATOM      1  C   UNL     1       8.332   4.032  18.291  1.00  0.00    -0.022 A 
ATOM      2  C   UNL     1       7.161   3.336  18.651  1.00  0.00     0.058 A 
ATOM      3  C   UNL     1       9.462   3.298  17.902  1.00  0.00     0.012 A 
ATOM      4  C   UNL     1       7.126   1.935  18.647  1.00  0.00     0.157 A 
ATOM      5  C   UNL     1       9.436   1.903  17.899  1.00  0.00     0.051 A 
ATOM      6  C   UNL     1       8.281   1.209  18.271  1.00  0.00     0.157 A 
ENDROOT
BRANCH   1   7
ATOM      7  C   UNL     1       8.405   5.514  18.271  1.00  0.00     0.010 C 
ATOM      8  C   UNL     1       7.398   6.303  17.875  1.00  0.00     0.025 C 
BRANCH   8   9
ATOM      9  C   UNL     1       7.511   7.771  17.882  1.00  0.00     0.064 C 
ATOM     10  O   UNL     1       8.650   8.306  17.879  1.00  0.00    -0.545 OA
ATOM     11  O   UNL     1       6.379   8.578  17.894  1.00  0.00    -0.545 OA
ENDBRANCH   8   9
ENDBRANCH   1   7
BRANCH   4  12
ATOM     12  O   UNL     1       5.931   1.312  19.015  1.00  0.00    -0.504 OA
ATOM     13  H   UNL     1       5.330   1.637  19.757  1.00  0.00     0.293 HD
ENDBRANCH   4  12
BRANCH   6  14
ATOM     14  O   UNL     1       8.323  -0.186  18.252  1.00  0.00    -0.504 OA
ATOM     15  H   UNL     1       8.654  -0.752  19.021  1.00  0.00     0.293 HD
ENDBRANCH   6  14
TORSDOF 4
ENDMDL
MODEL 4
REMARK VINA RESULT:     0.908      2.294      5.670
REMARK INTER + INTRA:           0.943
REMARK INTER:                   1.067
REMARK INTRA:                  -0.124
REMARK UNBOUND:                -0.123
REMARK SMILES O=C([O-])C=Cc1ccc(O)c(O)c1
REMARK SMILES IDX 6 1 13 2 7 3 11 4 8 5 9 6 5 7 4 8 2 9 1 10 3 11 12 12 10 14
REMARK H PARENT 12 13 10 15
REMARK Flexibility Score: inf
ROOT
ATOM      1  C   UNL     1       7.596   4.134  18.398  1.00  0.00    -0.022 A 
ATOM      2  C   UNL     1       8.946   3.792  18.188  1.00  0.00     0.058 A 
ATOM      3  C   UNL     1       6.656   3.105  18.558  1.00  0.00     0.012 A 
ATOM      4  C   UNL     1       9.348   2.452  18.113  1.00  0.00     0.157 A 
ATOM      5  C   UNL     1       7.047   1.768  18.482  1.00  0.00     0.051 A 
ATOM      6  C   UNL     1       8.384   1.426  18.257  1.00  0.00     0.157 A 
ENDROOT
BRANCH   1   7
ATOM      7  C   UNL     1       7.134   5.540  18.496  1.00  0.00     0.010 C 
ATOM      8  C   UNL     1       7.928   6.562  18.841  1.00  0.00     0.025 C 
BRANCH   8   9
ATOM      9  C   UNL     1       7.429   7.945  18.913  1.00  0.00     0.064 C 
ATOM     10  O   UNL     1       6.982   8.499  17.875  1.00  0.00    -0.545 OA
ATOM     11  O   UNL     1       7.444   8.652  20.111  1.00  0.00    -0.545 OA
ENDBRANCH   8   9
ENDBRANCH   1   7
BRANCH   4  12
ATOM     12  O   UNL     1      10.702   2.188  17.903  1.00  0.00    -0.504 OA
ATOM     13  H   UNL     1      11.210   2.465  17.076  1.00  0.00     0.293 HD
ENDBRANCH   4  12
BRANCH   6  14
ATOM     14  O   UNL     1       8.707   0.070  18.185  1.00  0.00    -0.504 OA
ATOM     15  H   UNL     1       9.597  -0.315  18.469  1.00  0.00     0.293 HD
ENDBRANCH   6  14
TORSDOF 4
ENDMDL
MODEL 5
REMARK VINA RESULT:     1.373      1.272      5.963
REMARK INTER + INTRA:           1.490
REMARK INTER:                   1.644
REMARK INTRA:                  -0.154
REMARK UNBOUND:                -0.123
REMARK SMILES O=C([O-])C=Cc1ccc(O)c(O)c1
REMARK SMILES IDX 6 1 13 2 7 3 11 4 8 5 9 6 5 7 4 8 2 9 1 10 3 11 12 12 10 14
REMARK H PARENT 12 13 10 15
REMARK Flexibility Score: inf
ROOT
ATOM      1  C   UNL     1       7.285   4.238  18.451  1.00  0.00    -0.022 A 
ATOM      2  C   UNL     1       7.945   3.039  18.114  1.00  0.00     0.058 A 
ATOM      3  C   UNL     1       6.064   4.166  19.135  1.00  0.00     0.012 A 
ATOM      4  C   UNL     1       7.385   1.794  18.430  1.00  0.00     0.157 A 
ATOM      5  C   UNL     1       5.497   2.931  19.451  1.00  0.00     0.051 A 
ATOM      6  C   UNL     1       6.142   1.740  19.103  1.00  0.00     0.157 A 
ENDROOT
BRANCH   1   7
ATOM      7  C   UNL     1       7.851   5.574  18.145  1.00  0.00     0.010 C 
ATOM      8  C   UNL     1       7.185   6.723  18.321  1.00  0.00     0.025 C 
BRANCH   8   9
ATOM      9  C   UNL     1       7.792   8.029  18.014  1.00  0.00     0.064 C 
ATOM     10  O   UNL     1       9.040   8.116  17.876  1.00  0.00    -0.545 OA
ATOM     11  O   UNL     1       7.008   9.169  17.875  1.00  0.00    -0.545 OA
ENDBRANCH   8   9
ENDBRANCH   1   7
BRANCH   4  12
ATOM     12  O   UNL     1       8.095   0.649  18.066  1.00  0.00    -0.504 OA
ATOM     13  H   UNL     1       8.897   0.297  18.568  1.00  0.00     0.293 HD
ENDBRANCH   4  12
BRANCH   6  14
ATOM     14  O   UNL     1       5.519   0.537  19.443  1.00  0.00    -0.504 OA
ATOM     15  H   UNL     1       5.965  -0.367  19.381  1.00  0.00     0.293 HD
ENDBRANCH   6  14
TORSDOF 4
ENDMDL
