MODEL 1
REMARK VINA RESULT:    -7.155      0.000      0.000
REMARK INTER + INTRA:          -8.832
REMARK INTER:                  -8.619
REMARK INTRA:                  -0.213
REMARK UNBOUND:                -0.213
REMARK SMILES O=c1c(O)c(-c2ccc(O)c(O)c2)oc2cc(O)cc(O)c12
REMARK SMILES IDX 5 1 3 2 2 3 1 4 22 5 20 6 19 7 17 8 16 9 15 10 14 11 6 12
REMARK SMILES IDX 7 13 8 14 9 15 13 16 11 17 10 18 12 20 4 22 21 24 18 26
REMARK H PARENT 10 19 12 21 4 23 21 25 18 27
REMARK Flexibility Score: inf
ROOT
ATOM      1  C   UNL     1      23.054  16.358   4.011  1.00  0.00     0.180 A 
ATOM      2  C   UNL     1      24.096  15.446   3.773  1.00  0.00     0.208 A 
ATOM      3  C   UNL     1      23.777  14.122   3.432  1.00  0.00     0.238 A 
ATOM      4  O   UNL     1      24.713  13.293   3.293  1.00  0.00    -0.285 OA
ATOM      5  C   UNL     1      22.421  13.740   3.278  1.00  0.00     0.111 A 
ATOM      6  C   UNL     1      21.983  12.437   2.891  1.00  0.00     0.134 A 
ATOM      7  C   UNL     1      20.614  12.145   2.874  1.00  0.00     0.093 A 
ATOM      8  C   UNL     1      19.666  13.124   3.167  1.00  0.00     0.123 A 
ATOM      9  C   UNL     1      20.080  14.416   3.494  1.00  0.00     0.094 A 
ATOM     10  C   UNL     1      21.440  14.728   3.556  1.00  0.00     0.146 A 
ATOM     11  O   UNL     1      21.792  15.963   3.893  1.00  0.00    -0.452 OA
ENDROOT
BRANCH   1  12
ATOM     12  C   UNL     1      23.310  17.767   4.390  1.00  0.00     0.025 A 
ATOM     13  C   UNL     1      23.870  18.679   3.480  1.00  0.00     0.016 A 
ATOM     14  C   UNL     1      24.125  19.998   3.868  1.00  0.00     0.051 A 
ATOM     15  C   UNL     1      23.837  20.419   5.173  1.00  0.00     0.157 A 
ATOM     16  C   UNL     1      23.043  18.189   5.703  1.00  0.00     0.062 A 
ATOM     17  C   UNL     1      23.296  19.508   6.095  1.00  0.00     0.158 A 
BRANCH  15  18
ATOM     18  O   UNL     1      24.090  21.736   5.556  1.00  0.00    -0.504 OA
ATOM     19  H   UNL     1      24.930  22.222   5.262  1.00  0.00     0.293 HD
ENDBRANCH  15  18
BRANCH  17  20
ATOM     20  O   UNL     1      23.006  19.893   7.402  1.00  0.00    -0.504 OA
ATOM     21  H   UNL     1      23.200  19.295   8.197  1.00  0.00     0.293 HD
ENDBRANCH  17  20
ENDBRANCH   1  12
BRANCH   2  22
ATOM     22  O   UNL     1      25.427  15.862   3.855  1.00  0.00    -0.502 OA
ATOM     23  H   UNL     1      25.925  16.250   3.063  1.00  0.00     0.293 HD
ENDBRANCH   2  22
BRANCH   6  24
ATOM     24  O   UNL     1      22.843  11.409   2.491  1.00  0.00    -0.507 OA
ATOM     25  H   UNL     1      23.440  10.882   3.108  1.00  0.00     0.293 HD
ENDBRANCH   6  24
BRANCH   8  26
ATOM     26  O   UNL     1      18.311  12.803   3.125  1.00  0.00    -0.508 OA
ATOM     27  H   UNL     1      17.937  12.009   3.632  1.00  0.00     0.293 HD
ENDBRANCH   8  26
TORSDOF 6
ENDMDL
MODEL 2
REMARK VINA RESULT:    -6.623      1.272      2.900
REMARK INTER + INTRA:          -8.192
REMARK INTER:                  -7.892
REMARK INTRA:                  -0.301
REMARK UNBOUND:                -0.213
REMARK SMILES O=c1c(O)c(-c2ccc(O)c(O)c2)oc2cc(O)cc(O)c12
REMARK SMILES IDX 5 1 3 2 2 3 1 4 22 5 20 6 19 7 17 8 16 9 15 10 14 11 6 12
REMARK SMILES IDX 7 13 8 14 9 15 13 16 11 17 10 18 12 20 4 22 21 24 18 26
REMARK H PARENT 10 19 12 21 4 23 21 25 18 27
REMARK Flexibility Score: inf
ROOT
ATOM      1  C   UNL     1      22.791  16.639   3.868  1.00  0.00     0.180 A 
ATOM      2  C   UNL     1      21.499  16.306   3.429  1.00  0.00     0.208 A 
ATOM      3  C   UNL     1      21.239  14.992   3.010  1.00  0.00     0.238 A 
ATOM      4  O   UNL     1      20.101  14.719   2.549  1.00  0.00    -0.285 OA
ATOM      5  C   UNL     1      22.260  14.013   3.088  1.00  0.00     0.111 A 
ATOM      6  C   UNL     1      22.097  12.639   2.733  1.00  0.00     0.134 A 
ATOM      7  C   UNL     1      23.205  11.784   2.749  1.00  0.00     0.093 A 
ATOM      8  C   UNL     1      24.456  12.236   3.169  1.00  0.00     0.123 A 
ATOM      9  C   UNL     1      24.616  13.562   3.571  1.00  0.00     0.094 A 
ATOM     10  C   UNL     1      23.537  14.449   3.529  1.00  0.00     0.146 A 
ATOM     11  O   UNL     1      23.737  15.708   3.898  1.00  0.00    -0.452 OA
ENDROOT
BRANCH   1  12
ATOM     12  C   UNL     1      23.146  18.007   4.312  1.00  0.00     0.025 A 
ATOM     13  C   UNL     1      23.834  18.895   3.466  1.00  0.00     0.016 A 
ATOM     14  C   UNL     1      24.179  20.173   3.916  1.00  0.00     0.051 A 
ATOM     15  C   UNL     1      23.855  20.576   5.218  1.00  0.00     0.157 A 
ATOM     16  C   UNL     1      22.842  18.409   5.622  1.00  0.00     0.062 A 
ATOM     17  C   UNL     1      23.186  19.688   6.076  1.00  0.00     0.158 A 
BRANCH  15  18
ATOM     18  O   UNL     1      24.199  21.852   5.662  1.00  0.00    -0.504 OA
ATOM     19  H   UNL     1      24.550  22.011   6.599  1.00  0.00     0.293 HD
ENDBRANCH  15  18
BRANCH  17  20
ATOM     20  O   UNL     1      22.856  20.056   7.379  1.00  0.00    -0.504 OA
ATOM     21  H   UNL     1      22.349  20.909   7.586  1.00  0.00     0.293 HD
ENDBRANCH  17  20
ENDBRANCH   1  12
BRANCH   2  22
ATOM     22  O   UNL     1      20.485  17.269   3.433  1.00  0.00    -0.502 OA
ATOM     23  H   UNL     1      19.584  17.110   2.998  1.00  0.00     0.293 HD
ENDBRANCH   2  22
BRANCH   6  24
ATOM     24  O   UNL     1      20.872  12.061   2.384  1.00  0.00    -0.507 OA
ATOM     25  H   UNL     1      20.752  11.120   2.043  1.00  0.00     0.293 HD
ENDBRANCH   6  24
BRANCH   8  26
ATOM     26  O   UNL     1      25.534  11.353   3.189  1.00  0.00    -0.508 OA
ATOM     27  H   UNL     1      25.665  10.693   3.946  1.00  0.00     0.293 HD
ENDBRANCH   8  26
TORSDOF 6
ENDMDL
MODEL 3
REMARK VINA RESULT:    -5.205      1.453      6.833
REMARK INTER + INTRA:          -6.484
REMARK INTER:                  -6.942
REMARK INTRA:                   0.458
REMARK UNBOUND:                -0.213
REMARK SMILES O=c1c(O)c(-c2ccc(O)c(O)c2)oc2cc(O)cc(O)c12
REMARK SMILES IDX 5 1 3 2 2 3 1 4 22 5 20 6 19 7 17 8 16 9 15 10 14 11 6 12
REMARK SMILES IDX 7 13 8 14 9 15 13 16 11 17 10 18 12 20 4 22 21 24 18 26
REMARK H PARENT 10 19 12 21 4 23 21 25 18 27
REMARK Flexibility Score: inf
ROOT
ATOM      1  C   UNL     1      22.026  16.268   4.384  1.00  0.00     0.180 A 
ATOM      2  C   UNL     1      23.430  16.243   4.434  1.00  0.00     0.208 A 
ATOM      3  C   UNL     1      24.115  17.376   4.903  1.00  0.00     0.238 A 
ATOM      4  O   UNL     1      25.373  17.375   4.876  1.00  0.00    -0.285 OA
ATOM      5  C   UNL     1      23.386  18.498   5.369  1.00  0.00     0.111 A 
ATOM      6  C   UNL     1      23.974  19.682   5.908  1.00  0.00     0.134 A 
ATOM      7  C   UNL     1      23.158  20.770   6.239  1.00  0.00     0.093 A 
ATOM      8  C   UNL     1      21.771  20.695   6.111  1.00  0.00     0.123 A 
ATOM      9  C   UNL     1      21.181  19.523   5.638  1.00  0.00     0.094 A 
ATOM     10  C   UNL     1      21.971  18.434   5.263  1.00  0.00     0.146 A 
ATOM     11  O   UNL     1      21.371  17.346   4.796  1.00  0.00    -0.452 OA
ENDROOT
BRANCH   1  12
ATOM     12  C   UNL     1      21.235  15.119   3.888  1.00  0.00     0.025 A 
ATOM     13  C   UNL     1      19.876  14.969   4.217  1.00  0.00     0.016 A 
ATOM     14  C   UNL     1      19.156  13.863   3.757  1.00  0.00     0.051 A 
ATOM     15  C   UNL     1      19.785  12.886   2.974  1.00  0.00     0.157 A 
ATOM     16  C   UNL     1      21.865  14.126   3.120  1.00  0.00     0.062 A 
ATOM     17  C   UNL     1      21.147  13.017   2.657  1.00  0.00     0.158 A 
BRANCH  15  18
ATOM     18  O   UNL     1      19.062  11.785   2.514  1.00  0.00    -0.504 OA
ATOM     19  H   UNL     1      18.052  11.809   2.435  1.00  0.00     0.293 HD
ENDBRANCH  15  18
BRANCH  17  20
ATOM     20  O   UNL     1      21.803  12.059   1.887  1.00  0.00    -0.504 OA
ATOM     21  H   UNL     1      22.086  12.238   0.930  1.00  0.00     0.293 HD
ENDBRANCH  17  20
ENDBRANCH   1  12
BRANCH   2  22
ATOM     22  O   UNL     1      24.128  15.098   4.042  1.00  0.00    -0.502 OA
ATOM     23  H   UNL     1      23.674  14.313   3.591  1.00  0.00     0.293 HD
ENDBRANCH   2  22
BRANCH   6  24
ATOM     24  O   UNL     1      25.342  19.831   6.162  1.00  0.00    -0.507 OA
ATOM     25  H   UNL     1      25.734  20.365   6.921  1.00  0.00     0.293 HD
ENDBRANCH   6  24
BRANCH   8  26
ATOM     26  O   UNL     1      20.988  21.791   6.466  1.00  0.00    -0.508 OA
ATOM     27  H   UNL     1      21.398  22.631   6.858  1.00  0.00     0.293 HD
ENDBRANCH   8  26
TORSDOF 6
ENDMDL
MODEL 4
REMARK VINA RESULT:    -4.977      3.537      7.863
REMARK INTER + INTRA:          -6.209
REMARK INTER:                  -6.312
REMARK INTRA:                   0.104
REMARK UNBOUND:                -0.213
REMARK SMILES O=c1c(O)c(-c2ccc(O)c(O)c2)oc2cc(O)cc(O)c12
REMARK SMILES IDX 5 1 3 2 2 3 1 4 22 5 20 6 19 7 17 8 16 9 15 10 14 11 6 12
REMARK SMILES IDX 7 13 8 14 9 15 13 16 11 17 10 18 12 20 4 22 21 24 18 26
REMARK H PARENT 10 19 12 21 4 23 21 25 18 27
REMARK Flexibility Score: inf
ROOT
ATOM      1  C   UNL     1      23.576  19.334   7.515  1.00  0.00     0.180 A 
ATOM      2  C   UNL     1      24.728  20.005   7.958  1.00  0.00     0.208 A 
ATOM      3  C   UNL     1      24.784  20.459   9.286  1.00  0.00     0.238 A 
ATOM      4  O   UNL     1      25.787  21.122   9.655  1.00  0.00    -0.285 OA
ATOM      5  C   UNL     1      23.711  20.186  10.170  1.00  0.00     0.111 A 
ATOM      6  C   UNL     1      23.679  20.558  11.549  1.00  0.00     0.134 A 
ATOM      7  C   UNL     1      22.520  20.329  12.299  1.00  0.00     0.093 A 
ATOM      8  C   UNL     1      21.416  19.686  11.741  1.00  0.00     0.123 A 
ATOM      9  C   UNL     1      21.456  19.268  10.410  1.00  0.00     0.094 A 
ATOM     10  C   UNL     1      22.584  19.516   9.624  1.00  0.00     0.146 A 
ATOM     11  O   UNL     1      22.572  19.123   8.357  1.00  0.00    -0.452 OA
ENDROOT
BRANCH   1  12
ATOM     12  C   UNL     1      23.436  18.840   6.126  1.00  0.00     0.025 A 
ATOM     13  C   UNL     1      23.871  19.605   5.030  1.00  0.00     0.016 A 
ATOM     14  C   UNL     1      23.707  19.128   3.726  1.00  0.00     0.051 A 
ATOM     15  C   UNL     1      23.095  17.888   3.499  1.00  0.00     0.157 A 
ATOM     16  C   UNL     1      22.805  17.608   5.891  1.00  0.00     0.062 A 
ATOM     17  C   UNL     1      22.639  17.127   4.588  1.00  0.00     0.158 A 
BRANCH  15  18
ATOM     18  O   UNL     1      22.934  17.414   2.197  1.00  0.00    -0.504 OA
ATOM     19  H   UNL     1      22.891  16.422   1.995  1.00  0.00     0.293 HD
ENDBRANCH  15  18
BRANCH  17  20
ATOM     20  O   UNL     1      22.019  15.893   4.395  1.00  0.00    -0.504 OA
ATOM     21  H   UNL     1      21.317  15.538   5.033  1.00  0.00     0.293 HD
ENDBRANCH  17  20
ENDBRANCH   1  12
BRANCH   2  22
ATOM     22  O   UNL     1      25.808  20.196   7.092  1.00  0.00    -0.502 OA
ATOM     23  H   UNL     1      25.691  20.290   6.090  1.00  0.00     0.293 HD
ENDBRANCH   2  22
BRANCH   6  24
ATOM     24  O   UNL     1      24.760  21.126  12.231  1.00  0.00    -0.507 OA
ATOM     25  H   UNL     1      25.345  20.642  12.894  1.00  0.00     0.293 HD
ENDBRANCH   6  24
BRANCH   8  26
ATOM     26  O   UNL     1      20.285  19.460  12.523  1.00  0.00    -0.508 OA
ATOM     27  H   UNL     1      19.867  18.540  12.597  1.00  0.00     0.293 HD
ENDBRANCH   8  26
TORSDOF 6
ENDMDL
MODEL 5
REMARK VINA RESULT:    -4.911      2.648      4.412
REMARK INTER + INTRA:          -6.129
REMARK INTER:                  -6.044
REMARK INTRA:                  -0.085
REMARK UNBOUND:                -0.213
REMARK SMILES O=c1c(O)c(-c2ccc(O)c(O)c2)oc2cc(O)cc(O)c12
REMARK SMILES IDX 5 1 3 2 2 3 1 4 22 5 20 6 19 7 17 8 16 9 15 10 14 11 6 12
REMARK SMILES IDX 7 13 8 14 9 15 13 16 11 17 10 18 12 20 4 22 21 24 18 26
REMARK H PARENT 10 19 12 21 4 23 21 25 18 27
REMARK Flexibility Score: inf
ROOT
ATOM      1  C   UNL     1      23.697  18.529   5.660  1.00  0.00     0.180 A 
ATOM      2  C   UNL     1      22.394  18.703   5.163  1.00  0.00     0.208 A 
ATOM      3  C   UNL     1      21.973  17.929   4.070  1.00  0.00     0.238 A 
ATOM      4  O   UNL     1      20.833  18.141   3.584  1.00  0.00    -0.285 OA
ATOM      5  C   UNL     1      22.841  16.952   3.523  1.00  0.00     0.111 A 
ATOM      6  C   UNL     1      22.503  16.079   2.444  1.00  0.00     0.134 A 
ATOM      7  C   UNL     1      23.478  15.224   1.916  1.00  0.00     0.093 A 
ATOM      8  C   UNL     1      24.758  15.163   2.467  1.00  0.00     0.123 A 
ATOM      9  C   UNL     1      25.082  15.971   3.557  1.00  0.00     0.094 A 
ATOM     10  C   UNL     1      24.143  16.862   4.082  1.00  0.00     0.146 A 
ATOM     11  O   UNL     1      24.499  17.629   5.105  1.00  0.00    -0.452 OA
ENDROOT
BRANCH   1  12
ATOM     12  C   UNL     1      24.218  19.319   6.800  1.00  0.00     0.025 A 
ATOM     13  C   UNL     1      25.379  20.102   6.677  1.00  0.00     0.016 A 
ATOM     14  C   UNL     1      25.865  20.819   7.774  1.00  0.00     0.051 A 
ATOM     15  C   UNL     1      25.208  20.754   9.010  1.00  0.00     0.157 A 
ATOM     16  C   UNL     1      23.575  19.240   8.046  1.00  0.00     0.062 A 
ATOM     17  C   UNL     1      24.059  19.957   9.146  1.00  0.00     0.158 A 
BRANCH  15  18
ATOM     18  O   UNL     1      25.694  21.473  10.101  1.00  0.00    -0.504 OA
ATOM     19  H   UNL     1      25.352  22.401  10.320  1.00  0.00     0.293 HD
ENDBRANCH  15  18
BRANCH  17  20
ATOM     20  O   UNL     1      23.386  19.865  10.363  1.00  0.00    -0.504 OA
ATOM     21  H   UNL     1      22.398  19.647  10.417  1.00  0.00     0.293 HD
ENDBRANCH  17  20
ENDBRANCH   1  12
BRANCH   2  22
ATOM     22  O   UNL     1      21.528  19.618   5.766  1.00  0.00    -0.502 OA
ATOM     23  H   UNL     1      20.666  19.335   6.218  1.00  0.00     0.293 HD
ENDBRANCH   2  22
BRANCH   6  24
ATOM     24  O   UNL     1      21.228  15.993   1.875  1.00  0.00    -0.507 OA
ATOM     25  H   UNL     1      21.034  15.690   0.934  1.00  0.00     0.293 HD
ENDBRANCH   6  24
BRANCH   8  26
ATOM     26  O   UNL     1      25.698  14.289   1.927  1.00  0.00    -0.508 OA
ATOM     27  H   UNL     1      25.682  14.032   0.947  1.00  0.00     0.293 HD
ENDBRANCH   8  26
TORSDOF 6
ENDMDL
MODEL 6
REMARK VINA RESULT:    -4.722      5.648      9.210
REMARK INTER + INTRA:          -5.901
REMARK INTER:                  -6.192
REMARK INTRA:                   0.291
REMARK UNBOUND:                -0.213
REMARK SMILES O=c1c(O)c(-c2ccc(O)c(O)c2)oc2cc(O)cc(O)c12
REMARK SMILES IDX 5 1 3 2 2 3 1 4 22 5 20 6 19 7 17 8 16 9 15 10 14 11 6 12
REMARK SMILES IDX 7 13 8 14 9 15 13 16 11 17 10 18 12 20 4 22 21 24 18 26
REMARK H PARENT 10 19 12 21 4 23 21 25 18 27
REMARK Flexibility Score: inf
ROOT
ATOM      1  C   UNL     1      21.248  19.786  10.707  1.00  0.00     0.180 A 
ATOM      2  C   UNL     1      22.315  20.243  11.499  1.00  0.00     0.208 A 
ATOM      3  C   UNL     1      23.578  20.411  10.909  1.00  0.00     0.238 A 
ATOM      4  O   UNL     1      24.545  20.749  11.639  1.00  0.00    -0.285 OA
ATOM      5  C   UNL     1      23.746  20.174   9.522  1.00  0.00     0.111 A 
ATOM      6  C   UNL     1      24.970  20.356   8.809  1.00  0.00     0.134 A 
ATOM      7  C   UNL     1      25.044  19.989   7.460  1.00  0.00     0.093 A 
ATOM      8  C   UNL     1      23.925  19.508   6.782  1.00  0.00     0.123 A 
ATOM      9  C   UNL     1      22.709  19.378   7.454  1.00  0.00     0.094 A 
ATOM     10  C   UNL     1      22.613  19.700   8.810  1.00  0.00     0.146 A 
ATOM     11  O   UNL     1      21.443  19.540   9.417  1.00  0.00    -0.452 OA
ENDROOT
BRANCH   1  12
ATOM     12  C   UNL     1      19.892  19.570  11.260  1.00  0.00     0.025 A 
ATOM     13  C   UNL     1      19.695  19.267  12.619  1.00  0.00     0.016 A 
ATOM     14  C   UNL     1      18.407  19.043  13.113  1.00  0.00     0.051 A 
ATOM     15  C   UNL     1      17.300  19.106  12.256  1.00  0.00     0.157 A 
ATOM     16  C   UNL     1      18.781  19.611  10.402  1.00  0.00     0.062 A 
ATOM     17  C   UNL     1      17.490  19.388  10.893  1.00  0.00     0.158 A 
BRANCH  15  18
ATOM     18  O   UNL     1      16.016  18.884  12.753  1.00  0.00    -0.504 OA
ATOM     19  H   UNL     1      15.486  18.057  12.503  1.00  0.00     0.293 HD
ENDBRANCH  15  18
BRANCH  17  20
ATOM     20  O   UNL     1      16.410  19.450  10.013  1.00  0.00    -0.504 OA
ATOM     21  H   UNL     1      15.873  18.629   9.761  1.00  0.00     0.293 HD
ENDBRANCH  17  20
ENDBRANCH   1  12
BRANCH   2  22
ATOM     22  O   UNL     1      22.111  20.545  12.848  1.00  0.00    -0.502 OA
ATOM     23  H   UNL     1      21.242  20.935  13.192  1.00  0.00     0.293 HD
ENDBRANCH   2  22
BRANCH   6  24
ATOM     24  O   UNL     1      26.125  20.913   9.366  1.00  0.00    -0.507 OA
ATOM     25  H   UNL     1      26.316  20.982  10.353  1.00  0.00     0.293 HD
ENDBRANCH   6  24
BRANCH   8  26
ATOM     26  O   UNL     1      24.031  19.168   5.435  1.00  0.00    -0.508 OA
ATOM     27  H   UNL     1      24.803  19.493   4.865  1.00  0.00     0.293 HD
ENDBRANCH   8  26
TORSDOF 6
ENDMDL
MODEL 7
REMARK VINA RESULT:    -4.663      4.640      8.158
REMARK INTER + INTRA:          -5.831
REMARK INTER:                  -5.753
REMARK INTRA:                  -0.078
REMARK UNBOUND:                -0.213
REMARK SMILES O=c1c(O)c(-c2ccc(O)c(O)c2)oc2cc(O)cc(O)c12
REMARK SMILES IDX 5 1 3 2 2 3 1 4 22 5 20 6 19 7 17 8 16 9 15 10 14 11 6 12
REMARK SMILES IDX 7 13 8 14 9 15 13 16 11 17 10 18 12 20 4 22 21 24 18 26
REMARK H PARENT 10 19 12 21 4 23 21 25 18 27
REMARK Flexibility Score: inf
ROOT
ATOM      1  C   UNL     1      22.674  19.714   8.745  1.00  0.00     0.180 A 
ATOM      2  C   UNL     1      23.601  20.047   9.748  1.00  0.00     0.208 A 
ATOM      3  C   UNL     1      23.160  20.146  11.078  1.00  0.00     0.238 A 
ATOM      4  O   UNL     1      23.978  20.516  11.958  1.00  0.00    -0.285 OA
ATOM      5  C   UNL     1      21.811  19.855  11.396  1.00  0.00     0.111 A 
ATOM      6  C   UNL     1      21.264  19.877  12.716  1.00  0.00     0.134 A 
ATOM      7  C   UNL     1      19.891  19.676  12.899  1.00  0.00     0.093 A 
ATOM      8  C   UNL     1      19.056  19.389  11.820  1.00  0.00     0.123 A 
ATOM      9  C   UNL     1      19.587  19.309  10.533  1.00  0.00     0.094 A 
ATOM     10  C   UNL     1      20.947  19.543  10.313  1.00  0.00     0.146 A 
ATOM     11  O   UNL     1      21.408  19.480   9.070  1.00  0.00    -0.452 OA
ENDROOT
BRANCH   1  12
ATOM     12  C   UNL     1      23.059  19.606   7.320  1.00  0.00     0.025 A 
ATOM     13  C   UNL     1      22.907  18.403   6.609  1.00  0.00     0.016 A 
ATOM     14  C   UNL     1      23.301  18.319   5.271  1.00  0.00     0.051 A 
ATOM     15  C   UNL     1      23.863  19.429   4.627  1.00  0.00     0.157 A 
ATOM     16  C   UNL     1      23.642  20.710   6.676  1.00  0.00     0.062 A 
ATOM     17  C   UNL     1      24.037  20.629   5.336  1.00  0.00     0.158 A 
BRANCH  15  18
ATOM     18  O   UNL     1      24.252  19.342   3.291  1.00  0.00    -0.504 OA
ATOM     19  H   UNL     1      23.598  19.074   2.564  1.00  0.00     0.293 HD
ENDBRANCH  15  18
BRANCH  17  20
ATOM     20  O   UNL     1      24.600  21.750   4.727  1.00  0.00    -0.504 OA
ATOM     21  H   UNL     1      24.999  22.511   5.264  1.00  0.00     0.293 HD
ENDBRANCH  17  20
ENDBRANCH   1  12
BRANCH   2  22
ATOM     22  O   UNL     1      24.944  20.255   9.423  1.00  0.00    -0.502 OA
ATOM     23  H   UNL     1      25.658  20.395  10.128  1.00  0.00     0.293 HD
ENDBRANCH   2  22
BRANCH   6  24
ATOM     24  O   UNL     1      22.025  20.067  13.874  1.00  0.00    -0.507 OA
ATOM     25  H   UNL     1      21.654  20.333  14.772  1.00  0.00     0.293 HD
ENDBRANCH   6  24
BRANCH   8  26
ATOM     26  O   UNL     1      17.697  19.177  12.041  1.00  0.00    -0.508 OA
ATOM     27  H   UNL     1      16.993  19.551  11.415  1.00  0.00     0.293 HD
ENDBRANCH   8  26
TORSDOF 6
ENDMDL
MODEL 8
REMARK VINA RESULT:    -4.583      2.799      5.126
REMARK INTER + INTRA:          -5.735
REMARK INTER:                  -5.500
REMARK INTRA:                  -0.235
REMARK UNBOUND:                -0.213
REMARK SMILES O=c1c(O)c(-c2ccc(O)c(O)c2)oc2cc(O)cc(O)c12
REMARK SMILES IDX 5 1 3 2 2 3 1 4 22 5 20 6 19 7 17 8 16 9 15 10 14 11 6 12
REMARK SMILES IDX 7 13 8 14 9 15 13 16 11 17 10 18 12 20 4 22 21 24 18 26
REMARK H PARENT 10 19 12 21 4 23 21 25 18 27
REMARK Flexibility Score: inf
ROOT
ATOM      1  C   UNL     1      23.107  19.043   6.931  1.00  0.00     0.180 A 
ATOM      2  C   UNL     1      23.752  19.877   6.002  1.00  0.00     0.208 A 
ATOM      3  C   UNL     1      23.929  19.421   4.685  1.00  0.00     0.238 A 
ATOM      4  O   UNL     1      24.571  20.141   3.879  1.00  0.00    -0.285 OA
ATOM      5  C   UNL     1      23.408  18.161   4.300  1.00  0.00     0.111 A 
ATOM      6  C   UNL     1      23.489  17.618   2.982  1.00  0.00     0.134 A 
ATOM      7  C   UNL     1      23.033  16.316   2.742  1.00  0.00     0.093 A 
ATOM      8  C   UNL     1      22.442  15.562   3.755  1.00  0.00     0.123 A 
ATOM      9  C   UNL     1      22.308  16.103   5.034  1.00  0.00     0.094 A 
ATOM     10  C   UNL     1      22.788  17.385   5.314  1.00  0.00     0.146 A 
ATOM     11  O   UNL     1      22.660  17.853   6.550  1.00  0.00    -0.452 OA
ENDROOT
BRANCH   1  12
ATOM     12  C   UNL     1      22.898  19.448   8.341  1.00  0.00     0.025 A 
ATOM     13  C   UNL     1      23.973  19.550   9.240  1.00  0.00     0.016 A 
ATOM     14  C   UNL     1      23.747  19.910  10.572  1.00  0.00     0.051 A 
ATOM     15  C   UNL     1      22.446  20.159  11.026  1.00  0.00     0.157 A 
ATOM     16  C   UNL     1      21.593  19.678   8.806  1.00  0.00     0.062 A 
ATOM     17  C   UNL     1      21.363  20.038  10.139  1.00  0.00     0.158 A 
BRANCH  15  18
ATOM     18  O   UNL     1      22.225  20.519  12.355  1.00  0.00    -0.504 OA
ATOM     19  H   UNL     1      21.289  20.663  12.717  1.00  0.00     0.293 HD
ENDBRANCH  15  18
BRANCH  17  20
ATOM     20  O   UNL     1      20.056  20.272  10.561  1.00  0.00    -0.504 OA
ATOM     21  H   UNL     1      19.692  21.208  10.695  1.00  0.00     0.293 HD
ENDBRANCH  17  20
ENDBRANCH   1  12
BRANCH   2  22
ATOM     22  O   UNL     1      24.190  21.148   6.382  1.00  0.00    -0.502 OA
ATOM     23  H   UNL     1      23.958  21.983   5.857  1.00  0.00     0.293 HD
ENDBRANCH   2  22
BRANCH   6  24
ATOM     24  O   UNL     1      23.979  18.318   1.875  1.00  0.00    -0.507 OA
ATOM     25  H   UNL     1      24.538  17.917   1.138  1.00  0.00     0.293 HD
ENDBRANCH   6  24
BRANCH   8  26
ATOM     26  O   UNL     1      21.984  14.276   3.477  1.00  0.00    -0.508 OA
ATOM     27  H   UNL     1      21.199  13.873   3.975  1.00  0.00     0.293 HD
ENDBRANCH   8  26
TORSDOF 6
ENDMDL
