MODEL 1
REMARK VINA RESULT:    -4.090      0.000      0.000
REMARK INTER + INTRA:         -12.657
REMARK INTER:                  -8.873
REMARK INTRA:                  -3.784
REMARK UNBOUND:                -3.784
REMARK SMILES CCCCCCCCCCCCCCCCCCCCCC(=O)[O-]
REMARK SMILES IDX 12 1 11 2 10 3 9 4 8 5 7 6 6 7 5 8 4 9 3 10 2 11 1 12 13 13
REMARK SMILES IDX 14 14 15 15 16 16 17 17 18 18 19 19 20 20 21 21 22 22 23 23
REMARK SMILES IDX 24 24
REMARK H PARENT
REMARK Flexibility Score: inf
ROOT
ATOM      1  C   UNL     1      18.629  29.838  45.461  1.00  0.00     0.000 C 
ENDROOT
BRANCH   1   2
ATOM      2  C   UNL     1      18.733  30.800  44.266  1.00  0.00     0.000 C 
BRANCH   2   3
ATOM      3  C   UNL     1      19.971  31.710  44.348  1.00  0.00     0.000 C 
BRANCH   3   4
ATOM      4  C   UNL     1      19.644  33.175  44.017  1.00  0.00    -0.000 C 
BRANCH   4   5
ATOM      5  C   UNL     1      18.804  33.852  45.110  1.00  0.00    -0.000 C 
BRANCH   5   6
ATOM      6  C   UNL     1      19.568  35.025  45.739  1.00  0.00    -0.000 C 
BRANCH   6   7
ATOM      7  C   UNL     1      19.340  35.141  47.256  1.00  0.00    -0.000 C 
BRANCH   7   8
ATOM      8  C   UNL     1      19.830  33.910  48.051  1.00  0.00    -0.000 C 
BRANCH   8   9
ATOM      9  C   UNL     1      21.352  33.712  47.935  1.00  0.00    -0.000 C 
BRANCH   9  10
ATOM     10  C   UNL     1      21.721  32.292  47.454  1.00  0.00    -0.000 C 
BRANCH  10  11
ATOM     11  C   UNL     1      23.127  32.196  46.836  1.00  0.00    -0.003 C 
ATOM     12  C   UNL     1      24.207  32.835  47.706  1.00  0.00     0.004 C 
ENDBRANCH  10  11
ENDBRANCH   9  10
ENDBRANCH   8   9
ENDBRANCH   7   8
ENDBRANCH   6   7
ENDBRANCH   5   6
ENDBRANCH   4   5
ENDBRANCH   3   4
ENDBRANCH   2   3
ENDBRANCH   1   2
BRANCH   1  13
ATOM     13  C   UNL     1      18.130  30.532  46.742  1.00  0.00     0.000 C 
BRANCH  13  14
ATOM     14  C   UNL     1      18.871  30.055  48.001  1.00  0.00     0.000 C 
BRANCH  14  15
ATOM     15  C   UNL     1      20.063  29.137  47.674  1.00  0.00     0.000 C 
BRANCH  15  16
ATOM     16  C   UNL     1      20.975  28.880  48.895  1.00  0.00     0.000 C 
BRANCH  16  17
ATOM     17  C   UNL     1      20.284  29.127  50.249  1.00  0.00     0.000 C 
BRANCH  17  18
ATOM     18  C   UNL     1      21.173  29.788  51.319  1.00  0.00     0.000 C 
BRANCH  18  19
ATOM     19  C   UNL     1      22.317  30.646  50.735  1.00  0.00     0.000 C 
BRANCH  19  20
ATOM     20  C   UNL     1      22.270  32.107  51.213  1.00  0.00     0.006 C 
BRANCH  20  21
ATOM     21  C   UNL     1      20.835  32.590  51.468  1.00  0.00     0.053 C 
BRANCH  21  22
ATOM     22  C   UNL     1      20.789  34.054  51.782  1.00  0.00     0.041 C 
ATOM     23  O   UNL     1      19.864  34.520  52.500  1.00  0.00    -0.550 OA
ATOM     24  O   UNL     1      21.748  34.910  51.253  1.00  0.00    -0.550 OA
ENDBRANCH  21  22
ENDBRANCH  20  21
ENDBRANCH  19  20
ENDBRANCH  18  19
ENDBRANCH  17  18
ENDBRANCH  16  17
ENDBRANCH  15  16
ENDBRANCH  14  15
ENDBRANCH  13  14
ENDBRANCH   1  13
TORSDOF 20
ENDMDL
MODEL 2
REMARK VINA RESULT:    -3.930      1.334      2.340
REMARK INTER + INTRA:         -12.309
REMARK INTER:                  -8.198
REMARK INTRA:                  -4.110
REMARK UNBOUND:                -3.784
REMARK SMILES CCCCCCCCCCCCCCCCCCCCCC(=O)[O-]
REMARK SMILES IDX 12 1 11 2 10 3 9 4 8 5 7 6 6 7 5 8 4 9 3 10 2 11 1 12 13 13
REMARK SMILES IDX 14 14 15 15 16 16 17 17 18 18 19 19 20 20 21 21 22 22 23 23
REMARK SMILES IDX 24 24
REMARK H PARENT
REMARK Flexibility Score: inf
ROOT
ATOM      1  C   UNL     1      19.410  31.366  43.876  1.00  0.00     0.000 C 
ENDROOT
BRANCH   1   2
ATOM      2  C   UNL     1      20.476  32.388  44.303  1.00  0.00     0.000 C 
BRANCH   2   3
ATOM      3  C   UNL     1      20.023  33.841  44.076  1.00  0.00     0.000 C 
BRANCH   3   4
ATOM      4  C   UNL     1      20.091  34.684  45.360  1.00  0.00    -0.000 C 
BRANCH   4   5
ATOM      5  C   UNL     1      19.033  34.269  46.393  1.00  0.00    -0.000 C 
BRANCH   5   6
ATOM      6  C   UNL     1      19.689  33.598  47.608  1.00  0.00    -0.000 C 
BRANCH   6   7
ATOM      7  C   UNL     1      20.913  34.370  48.129  1.00  0.00    -0.000 C 
BRANCH   7   8
ATOM      8  C   UNL     1      22.164  33.485  48.325  1.00  0.00    -0.000 C 
BRANCH   8   9
ATOM      9  C   UNL     1      22.098  32.191  47.494  1.00  0.00    -0.000 C 
BRANCH   9  10
ATOM     10  C   UNL     1      23.028  31.092  48.051  1.00  0.00    -0.000 C 
BRANCH  10  11
ATOM     11  C   UNL     1      22.961  30.946  49.582  1.00  0.00    -0.003 C 
ATOM     12  C   UNL     1      24.124  30.142  50.158  1.00  0.00     0.004 C 
ENDBRANCH  10  11
ENDBRANCH   9  10
ENDBRANCH   8   9
ENDBRANCH   7   8
ENDBRANCH   6   7
ENDBRANCH   5   6
ENDBRANCH   4   5
ENDBRANCH   3   4
ENDBRANCH   2   3
ENDBRANCH   1   2
BRANCH   1  13
ATOM     13  C   UNL     1      18.543  30.883  45.053  1.00  0.00     0.000 C 
BRANCH  13  14
ATOM     14  C   UNL     1      19.357  30.133  46.120  1.00  0.00     0.000 C 
BRANCH  14  15
ATOM     15  C   UNL     1      18.708  30.199  47.514  1.00  0.00     0.000 C 
BRANCH  15  16
ATOM     16  C   UNL     1      19.630  29.658  48.631  1.00  0.00     0.000 C 
BRANCH  16  17
ATOM     17  C   UNL     1      19.321  30.236  50.025  1.00  0.00     0.000 C 
BRANCH  17  18
ATOM     18  C   UNL     1      18.339  31.422  50.032  1.00  0.00     0.000 C 
BRANCH  18  19
ATOM     19  C   UNL     1      18.643  32.475  51.119  1.00  0.00     0.000 C 
BRANCH  19  20
ATOM     20  C   UNL     1      20.148  32.630  51.396  1.00  0.00     0.006 C 
BRANCH  20  21
ATOM     21  C   UNL     1      20.500  34.022  51.939  1.00  0.00     0.053 C 
BRANCH  21  22
ATOM     22  C   UNL     1      21.975  34.278  51.900  1.00  0.00     0.041 C 
ATOM     23  O   UNL     1      22.412  35.427  51.621  1.00  0.00    -0.550 OA
ATOM     24  O   UNL     1      22.868  33.240  52.139  1.00  0.00    -0.550 OA
ENDBRANCH  21  22
ENDBRANCH  20  21
ENDBRANCH  19  20
ENDBRANCH  18  19
ENDBRANCH  17  18
ENDBRANCH  16  17
ENDBRANCH  15  16
ENDBRANCH  14  15
ENDBRANCH  13  14
ENDBRANCH   1  13
TORSDOF 20
ENDMDL
MODEL 3
REMARK VINA RESULT:    -3.919      9.511     12.814
REMARK INTER + INTRA:         -12.286
REMARK INTER:                  -9.198
REMARK INTRA:                  -3.088
REMARK UNBOUND:                -3.784
REMARK SMILES CCCCCCCCCCCCCCCCCCCCCC(=O)[O-]
REMARK SMILES IDX 12 1 11 2 10 3 9 4 8 5 7 6 6 7 5 8 4 9 3 10 2 11 1 12 13 13
REMARK SMILES IDX 14 14 15 15 16 16 17 17 18 18 19 19 20 20 21 21 22 22 23 23
REMARK SMILES IDX 24 24
REMARK H PARENT
REMARK Flexibility Score: inf
ROOT
ATOM      1  C   UNL     1      29.526  40.080  44.833  1.00  0.00     0.000 C 
ENDROOT
BRANCH   1   2
ATOM      2  C   UNL     1      30.629  39.984  45.899  1.00  0.00     0.000 C 
BRANCH   2   3
ATOM      3  C   UNL     1      30.348  40.879  47.119  1.00  0.00     0.000 C 
BRANCH   3   4
ATOM      4  C   UNL     1      30.894  40.278  48.424  1.00  0.00    -0.000 C 
BRANCH   4   5
ATOM      5  C   UNL     1      31.556  38.909  48.210  1.00  0.00    -0.000 C 
BRANCH   5   6
ATOM      6  C   UNL     1      33.051  38.964  48.554  1.00  0.00    -0.000 C 
BRANCH   6   7
ATOM      7  C   UNL     1      33.330  38.711  50.045  1.00  0.00    -0.000 C 
BRANCH   7   8
ATOM      8  C   UNL     1      34.241  37.490  50.305  1.00  0.00    -0.000 C 
BRANCH   8   9
ATOM      9  C   UNL     1      34.244  36.505  49.123  1.00  0.00    -0.000 C 
BRANCH   9  10
ATOM     10  C   UNL     1      33.691  35.118  49.518  1.00  0.00    -0.000 C 
BRANCH  10  11
ATOM     11  C   UNL     1      32.279  35.168  50.126  1.00  0.00    -0.003 C 
ATOM     12  C   UNL     1      32.271  34.961  51.639  1.00  0.00     0.004 C 
ENDBRANCH  10  11
ENDBRANCH   9  10
ENDBRANCH   8   9
ENDBRANCH   7   8
ENDBRANCH   6   7
ENDBRANCH   5   6
ENDBRANCH   4   5
ENDBRANCH   3   4
ENDBRANCH   2   3
ENDBRANCH   1   2
BRANCH   1  13
ATOM     13  C   UNL     1      28.742  38.765  44.668  1.00  0.00     0.000 C 
BRANCH  13  14
ATOM     14  C   UNL     1      29.350  37.607  45.475  1.00  0.00     0.000 C 
BRANCH  14  15
ATOM     15  C   UNL     1      28.301  36.853  46.313  1.00  0.00     0.000 C 
BRANCH  15  16
ATOM     16  C   UNL     1      28.261  37.320  47.785  1.00  0.00     0.000 C 
BRANCH  16  17
ATOM     17  C   UNL     1      26.838  37.578  48.315  1.00  0.00     0.000 C 
BRANCH  17  18
ATOM     18  C   UNL     1      26.096  38.746  47.641  1.00  0.00     0.000 C 
BRANCH  18  19
ATOM     19  C   UNL     1      26.781  40.116  47.839  1.00  0.00     0.000 C 
BRANCH  19  20
ATOM     20  C   UNL     1      26.572  41.066  46.647  1.00  0.00     0.006 C 
BRANCH  20  21
ATOM     21  C   UNL     1      26.823  42.533  47.020  1.00  0.00     0.053 C 
BRANCH  21  22
ATOM     22  C   UNL     1      26.840  43.419  45.813  1.00  0.00     0.041 C 
ATOM     23  O   UNL     1      26.126  44.457  45.777  1.00  0.00    -0.550 OA
ATOM     24  O   UNL     1      27.620  43.081  44.713  1.00  0.00    -0.550 OA
ENDBRANCH  21  22
ENDBRANCH  20  21
ENDBRANCH  19  20
ENDBRANCH  18  19
ENDBRANCH  17  18
ENDBRANCH  16  17
ENDBRANCH  15  16
ENDBRANCH  14  15
ENDBRANCH  13  14
ENDBRANCH   1  13
TORSDOF 20
ENDMDL
MODEL 4
REMARK VINA RESULT:    -3.849      9.649     12.438
REMARK INTER + INTRA:         -12.133
REMARK INTER:                  -8.525
REMARK INTRA:                  -3.607
REMARK UNBOUND:                -3.784
REMARK SMILES CCCCCCCCCCCCCCCCCCCCCC(=O)[O-]
REMARK SMILES IDX 12 1 11 2 10 3 9 4 8 5 7 6 6 7 5 8 4 9 3 10 2 11 1 12 13 13
REMARK SMILES IDX 14 14 15 15 16 16 17 17 18 18 19 19 20 20 21 21 22 22 23 23
REMARK SMILES IDX 24 24
REMARK H PARENT
REMARK Flexibility Score: inf
ROOT
ATOM      1  C   UNL     1      28.468  38.582  45.253  1.00  0.00     0.000 C 
ENDROOT
BRANCH   1   2
ATOM      2  C   UNL     1      29.827  38.963  44.645  1.00  0.00     0.000 C 
BRANCH   2   3
ATOM      3  C   UNL     1      30.525  40.093  45.422  1.00  0.00     0.000 C 
BRANCH   3   4
ATOM      4  C   UNL     1      29.542  40.912  46.274  1.00  0.00    -0.000 C 
BRANCH   4   5
ATOM      5  C   UNL     1      30.233  41.631  47.442  1.00  0.00    -0.000 C 
BRANCH   5   6
ATOM      6  C   UNL     1      29.413  42.845  47.899  1.00  0.00    -0.000 C 
BRANCH   6   7
ATOM      7  C   UNL     1      28.874  42.697  49.332  1.00  0.00    -0.000 C 
BRANCH   7   8
ATOM      8  C   UNL     1      27.332  42.628  49.408  1.00  0.00    -0.000 C 
BRANCH   8   9
ATOM      9  C   UNL     1      26.688  42.460  48.020  1.00  0.00    -0.000 C 
BRANCH   9  10
ATOM     10  C   UNL     1      26.000  43.755  47.535  1.00  0.00    -0.000 C 
BRANCH  10  11
ATOM     11  C   UNL     1      25.881  43.853  46.004  1.00  0.00    -0.003 C 
ATOM     12  C   UNL     1      27.187  43.533  45.281  1.00  0.00     0.004 C 
ENDBRANCH  10  11
ENDBRANCH   9  10
ENDBRANCH   8   9
ENDBRANCH   7   8
ENDBRANCH   6   7
ENDBRANCH   5   6
ENDBRANCH   4   5
ENDBRANCH   3   4
ENDBRANCH   2   3
ENDBRANCH   1   2
BRANCH   1  13
ATOM     13  C   UNL     1      28.479  37.190  45.912  1.00  0.00     0.000 C 
BRANCH  13  14
ATOM     14  C   UNL     1      27.509  37.089  47.100  1.00  0.00     0.000 C 
BRANCH  14  15
ATOM     15  C   UNL     1      26.885  38.447  47.472  1.00  0.00     0.000 C 
BRANCH  15  16
ATOM     16  C   UNL     1      27.393  38.990  48.826  1.00  0.00     0.000 C 
BRANCH  16  17
ATOM     17  C   UNL     1      28.470  38.108  49.484  1.00  0.00     0.000 C 
BRANCH  17  18
ATOM     18  C   UNL     1      29.876  38.733  49.538  1.00  0.00     0.000 C 
BRANCH  18  19
ATOM     19  C   UNL     1      30.871  38.116  48.532  1.00  0.00     0.000 C 
BRANCH  19  20
ATOM     20  C   UNL     1      32.326  38.542  48.794  1.00  0.00     0.006 C 
BRANCH  20  21
ATOM     21  C   UNL     1      32.981  37.719  49.911  1.00  0.00     0.053 C 
BRANCH  21  22
ATOM     22  C   UNL     1      33.311  36.329  49.457  1.00  0.00     0.041 C 
ATOM     23  O   UNL     1      34.308  36.125  48.713  1.00  0.00    -0.550 OA
ATOM     24  O   UNL     1      32.499  35.265  49.829  1.00  0.00    -0.550 OA
ENDBRANCH  21  22
ENDBRANCH  20  21
ENDBRANCH  19  20
ENDBRANCH  18  19
ENDBRANCH  17  18
ENDBRANCH  16  17
ENDBRANCH  15  16
ENDBRANCH  14  15
ENDBRANCH  13  14
ENDBRANCH   1  13
TORSDOF 20
ENDMDL
MODEL 5
REMARK VINA RESULT:    -3.838      9.822     12.617
REMARK INTER + INTRA:         -12.111
REMARK INTER:                  -8.196
REMARK INTRA:                  -3.915
REMARK UNBOUND:                -3.784
REMARK SMILES CCCCCCCCCCCCCCCCCCCCCC(=O)[O-]
REMARK SMILES IDX 12 1 11 2 10 3 9 4 8 5 7 6 6 7 5 8 4 9 3 10 2 11 1 12 13 13
REMARK SMILES IDX 14 14 15 15 16 16 17 17 18 18 19 19 20 20 21 21 22 22 23 23
REMARK SMILES IDX 24 24
REMARK H PARENT
REMARK Flexibility Score: inf
ROOT
ATOM      1  C   UNL     1      27.261  40.924  45.157  1.00  0.00     0.000 C 
ENDROOT
BRANCH   1   2
ATOM      2  C   UNL     1      27.658  42.405  45.043  1.00  0.00     0.000 C 
BRANCH   2   3
ATOM      3  C   UNL     1      27.762  43.094  46.415  1.00  0.00     0.000 C 
BRANCH   3   4
ATOM      4  C   UNL     1      26.394  43.240  47.102  1.00  0.00    -0.000 C 
BRANCH   4   5
ATOM      5  C   UNL     1      26.514  43.378  48.627  1.00  0.00    -0.000 C 
BRANCH   5   6
ATOM      6  C   UNL     1      27.557  42.400  49.185  1.00  0.00    -0.000 C 
BRANCH   6   7
ATOM      7  C   UNL     1      26.949  41.361  50.143  1.00  0.00    -0.000 C 
BRANCH   7   8
ATOM      8  C   UNL     1      26.997  39.916  49.599  1.00  0.00    -0.000 C 
BRANCH   8   9
ATOM      9  C   UNL     1      25.861  39.634  48.598  1.00  0.00    -0.000 C 
BRANCH   9  10
ATOM     10  C   UNL     1      26.306  38.684  47.465  1.00  0.00    -0.000 C 
BRANCH  10  11
ATOM     11  C   UNL     1      26.614  37.255  47.945  1.00  0.00    -0.003 C 
ATOM     12  C   UNL     1      27.799  36.623  47.220  1.00  0.00     0.004 C 
ENDBRANCH  10  11
ENDBRANCH   9  10
ENDBRANCH   8   9
ENDBRANCH   7   8
ENDBRANCH   6   7
ENDBRANCH   5   6
ENDBRANCH   4   5
ENDBRANCH   3   4
ENDBRANCH   2   3
ENDBRANCH   1   2
BRANCH   1  13
ATOM     13  C   UNL     1      28.008  40.029  44.151  1.00  0.00     0.000 C 
BRANCH  13  14
ATOM     14  C   UNL     1      29.096  39.171  44.816  1.00  0.00     0.000 C 
BRANCH  14  15
ATOM     15  C   UNL     1      30.473  39.859  44.819  1.00  0.00     0.000 C 
BRANCH  15  16
ATOM     16  C   UNL     1      30.910  40.323  46.226  1.00  0.00     0.000 C 
BRANCH  16  17
ATOM     17  C   UNL     1      29.914  39.950  47.340  1.00  0.00     0.000 C 
BRANCH  17  18
ATOM     18  C   UNL     1      30.473  39.006  48.420  1.00  0.00     0.000 C 
BRANCH  18  19
ATOM     19  C   UNL     1      31.395  39.706  49.442  1.00  0.00     0.000 C 
BRANCH  19  20
ATOM     20  C   UNL     1      30.786  41.001  50.007  1.00  0.00     0.006 C 
BRANCH  20  21
ATOM     21  C   UNL     1      31.746  42.193  49.893  1.00  0.00     0.053 C 
BRANCH  21  22
ATOM     22  C   UNL     1      31.096  43.369  49.230  1.00  0.00     0.041 C 
ATOM     23  O   UNL     1      30.910  43.371  47.983  1.00  0.00    -0.550 OA
ATOM     24  O   UNL     1      30.728  44.476  49.984  1.00  0.00    -0.550 OA
ENDBRANCH  21  22
ENDBRANCH  20  21
ENDBRANCH  19  20
ENDBRANCH  18  19
ENDBRANCH  17  18
ENDBRANCH  16  17
ENDBRANCH  15  16
ENDBRANCH  14  15
ENDBRANCH  13  14
ENDBRANCH   1  13
TORSDOF 20
ENDMDL
MODEL 6
REMARK VINA RESULT:    -3.837      9.607     12.519
REMARK INTER + INTRA:         -12.107
REMARK INTER:                  -8.624
REMARK INTRA:                  -3.483
REMARK UNBOUND:                -3.784
REMARK SMILES CCCCCCCCCCCCCCCCCCCCCC(=O)[O-]
REMARK SMILES IDX 12 1 11 2 10 3 9 4 8 5 7 6 6 7 5 8 4 9 3 10 2 11 1 12 13 13
REMARK SMILES IDX 14 14 15 15 16 16 17 17 18 18 19 19 20 20 21 21 22 22 23 23
REMARK SMILES IDX 24 24
REMARK H PARENT
REMARK Flexibility Score: inf
ROOT
ATOM      1  C   UNL     1      27.703  40.813  45.224  1.00  0.00     0.000 C 
ENDROOT
BRANCH   1   2
ATOM      2  C   UNL     1      27.992  42.184  44.594  1.00  0.00     0.000 C 
BRANCH   2   3
ATOM      3  C   UNL     1      27.205  43.321  45.271  1.00  0.00     0.000 C 
BRANCH   3   4
ATOM      4  C   UNL     1      26.359  42.824  46.454  1.00  0.00    -0.000 C 
BRANCH   4   5
ATOM      5  C   UNL     1      26.835  43.395  47.798  1.00  0.00    -0.000 C 
BRANCH   5   6
ATOM      6  C   UNL     1      28.327  43.110  48.017  1.00  0.00    -0.000 C 
BRANCH   6   7
ATOM      7  C   UNL     1      28.578  41.994  49.045  1.00  0.00    -0.000 C 
BRANCH   7   8
ATOM      8  C   UNL     1      27.285  41.447  49.690  1.00  0.00    -0.000 C 
BRANCH   8   9
ATOM      9  C   UNL     1      27.085  39.947  49.410  1.00  0.00    -0.000 C 
BRANCH   9  10
ATOM     10  C   UNL     1      25.918  39.686  48.433  1.00  0.00    -0.000 C 
BRANCH  10  11
ATOM     11  C   UNL     1      26.135  38.461  47.528  1.00  0.00    -0.003 C 
ATOM     12  C   UNL     1      26.444  37.187  48.310  1.00  0.00     0.004 C 
ENDBRANCH  10  11
ENDBRANCH   9  10
ENDBRANCH   8   9
ENDBRANCH   7   8
ENDBRANCH   6   7
ENDBRANCH   5   6
ENDBRANCH   4   5
ENDBRANCH   3   4
ENDBRANCH   2   3
ENDBRANCH   1   2
BRANCH   1  13
ATOM     13  C   UNL     1      28.612  39.700  44.670  1.00  0.00     0.000 C 
BRANCH  13  14
ATOM     14  C   UNL     1      30.098  39.936  44.987  1.00  0.00     0.000 C 
BRANCH  14  15
ATOM     15  C   UNL     1      30.402  39.853  46.494  1.00  0.00     0.000 C 
BRANCH  15  16
ATOM     16  C   UNL     1      29.803  38.593  47.159  1.00  0.00     0.000 C 
BRANCH  16  17
ATOM     17  C   UNL     1      30.426  38.257  48.527  1.00  0.00     0.000 C 
BRANCH  17  18
ATOM     18  C   UNL     1      31.073  39.449  49.255  1.00  0.00     0.000 C 
BRANCH  18  19
ATOM     19  C   UNL     1      32.525  39.187  49.711  1.00  0.00     0.000 C 
BRANCH  19  20
ATOM     20  C   UNL     1      33.348  38.414  48.666  1.00  0.00     0.006 C 
BRANCH  20  21
ATOM     21  C   UNL     1      34.120  37.241  49.286  1.00  0.00     0.053 C 
BRANCH  21  22
ATOM     22  C   UNL     1      33.230  36.363  50.110  1.00  0.00     0.041 C 
ATOM     23  O   UNL     1      32.430  35.567  49.550  1.00  0.00    -0.550 OA
ATOM     24  O   UNL     1      33.261  36.448  51.497  1.00  0.00    -0.550 OA
ENDBRANCH  21  22
ENDBRANCH  20  21
ENDBRANCH  19  20
ENDBRANCH  18  19
ENDBRANCH  17  18
ENDBRANCH  16  17
ENDBRANCH  15  16
ENDBRANCH  14  15
ENDBRANCH  13  14
ENDBRANCH   1  13
TORSDOF 20
ENDMDL
MODEL 7
REMARK VINA RESULT:    -3.831      1.204      3.925
REMARK INTER + INTRA:         -12.093
REMARK INTER:                  -8.876
REMARK INTRA:                  -3.218
REMARK UNBOUND:                -3.784
REMARK SMILES CCCCCCCCCCCCCCCCCCCCCC(=O)[O-]
REMARK SMILES IDX 12 1 11 2 10 3 9 4 8 5 7 6 6 7 5 8 4 9 3 10 2 11 1 12 13 13
REMARK SMILES IDX 14 14 15 15 16 16 17 17 18 18 19 19 20 20 21 21 22 22 23 23
REMARK SMILES IDX 24 24
REMARK H PARENT
REMARK Flexibility Score: inf
ROOT
ATOM      1  C   UNL     1      20.704  32.196  45.031  1.00  0.00     0.000 C 
ENDROOT
BRANCH   1   2
ATOM      2  C   UNL     1      19.903  31.575  43.875  1.00  0.00     0.000 C 
BRANCH   2   3
ATOM      3  C   UNL     1      18.641  30.840  44.361  1.00  0.00     0.000 C 
BRANCH   3   4
ATOM      4  C   UNL     1      18.852  30.147  45.717  1.00  0.00    -0.000 C 
BRANCH   4   5
ATOM      5  C   UNL     1      17.959  30.732  46.821  1.00  0.00    -0.000 C 
BRANCH   5   6
ATOM      6  C   UNL     1      18.254  30.067  48.173  1.00  0.00    -0.000 C 
BRANCH   6   7
ATOM      7  C   UNL     1      19.119  30.944  49.093  1.00  0.00    -0.000 C 
BRANCH   7   8
ATOM      8  C   UNL     1      19.938  30.137  50.126  1.00  0.00    -0.000 C 
BRANCH   8   9
ATOM      9  C   UNL     1      21.442  30.452  50.050  1.00  0.00    -0.000 C 
BRANCH   9  10
ATOM     10  C   UNL     1      21.850  31.023  48.675  1.00  0.00    -0.000 C 
BRANCH  10  11
ATOM     11  C   UNL     1      23.369  31.206  48.510  1.00  0.00    -0.003 C 
ATOM     12  C   UNL     1      23.768  31.670  47.111  1.00  0.00     0.004 C 
ENDBRANCH  10  11
ENDBRANCH   9  10
ENDBRANCH   8   9
ENDBRANCH   7   8
ENDBRANCH   6   7
ENDBRANCH   5   6
ENDBRANCH   4   5
ENDBRANCH   3   4
ENDBRANCH   2   3
ENDBRANCH   1   2
BRANCH   1  13
ATOM     13  C   UNL     1      21.249  33.596  44.693  1.00  0.00     0.000 C 
BRANCH  13  14
ATOM     14  C   UNL     1      20.140  34.655  44.591  1.00  0.00     0.000 C 
BRANCH  14  15
ATOM     15  C   UNL     1      18.959  34.369  45.536  1.00  0.00     0.000 C 
BRANCH  15  16
ATOM     16  C   UNL     1      19.087  35.097  46.893  1.00  0.00     0.000 C 
BRANCH  16  17
ATOM     17  C   UNL     1      19.611  34.202  48.031  1.00  0.00     0.000 C 
BRANCH  17  18
ATOM     18  C   UNL     1      21.085  34.434  48.412  1.00  0.00     0.000 C 
BRANCH  18  19
ATOM     19  C   UNL     1      21.280  34.980  49.843  1.00  0.00     0.000 C 
BRANCH  19  20
ATOM     20  C   UNL     1      22.346  34.205  50.637  1.00  0.00     0.006 C 
BRANCH  20  21
ATOM     21  C   UNL     1      21.746  33.442  51.826  1.00  0.00     0.053 C 
BRANCH  21  22
ATOM     22  C   UNL     1      20.353  33.900  52.134  1.00  0.00     0.041 C 
ATOM     23  O   UNL     1      19.363  33.217  51.756  1.00  0.00    -0.550 OA
ATOM     24  O   UNL     1      20.147  35.097  52.808  1.00  0.00    -0.550 OA
ENDBRANCH  21  22
ENDBRANCH  20  21
ENDBRANCH  19  20
ENDBRANCH  18  19
ENDBRANCH  17  18
ENDBRANCH  16  17
ENDBRANCH  15  16
ENDBRANCH  14  15
ENDBRANCH  13  14
ENDBRANCH   1  13
TORSDOF 20
ENDMDL
MODEL 8
REMARK VINA RESULT:    -3.709      2.338      3.893
REMARK INTER + INTRA:         -11.829
REMARK INTER:                  -7.776
REMARK INTRA:                  -4.053
REMARK UNBOUND:                -3.784
REMARK SMILES CCCCCCCCCCCCCCCCCCCCCC(=O)[O-]
REMARK SMILES IDX 12 1 11 2 10 3 9 4 8 5 7 6 6 7 5 8 4 9 3 10 2 11 1 12 13 13
REMARK SMILES IDX 14 14 15 15 16 16 17 17 18 18 19 19 20 20 21 21 22 22 23 23
REMARK SMILES IDX 24 24
REMARK H PARENT
REMARK Flexibility Score: inf
ROOT
ATOM      1  C   UNL     1      18.904  31.949  44.202  1.00  0.00     0.000 C 
ENDROOT
BRANCH   1   2
ATOM      2  C   UNL     1      20.409  32.237  44.313  1.00  0.00     0.000 C 
BRANCH   2   3
ATOM      3  C   UNL     1      20.721  33.369  45.308  1.00  0.00     0.000 C 
BRANCH   3   4
ATOM      4  C   UNL     1      19.468  34.173  45.692  1.00  0.00    -0.000 C 
BRANCH   4   5
ATOM      5  C   UNL     1      19.410  34.492  47.193  1.00  0.00    -0.000 C 
BRANCH   5   6
ATOM      6  C   UNL     1      20.787  34.303  47.846  1.00  0.00    -0.000 C 
BRANCH   6   7
ATOM      7  C   UNL     1      20.721  34.283  49.383  1.00  0.00    -0.000 C 
BRANCH   7   8
ATOM      8  C   UNL     1      19.712  33.257  49.945  1.00  0.00    -0.000 C 
BRANCH   8   9
ATOM      9  C   UNL     1      20.306  32.429  51.099  1.00  0.00    -0.000 C 
BRANCH   9  10
ATOM     10  C   UNL     1      21.534  33.113  51.736  1.00  0.00    -0.000 C 
BRANCH  10  11
ATOM     11  C   UNL     1      22.810  32.254  51.692  1.00  0.00    -0.003 C 
ATOM     12  C   UNL     1      22.525  30.756  51.771  1.00  0.00     0.004 C 
ENDBRANCH  10  11
ENDBRANCH   9  10
ENDBRANCH   8   9
ENDBRANCH   7   8
ENDBRANCH   6   7
ENDBRANCH   5   6
ENDBRANCH   4   5
ENDBRANCH   3   4
ENDBRANCH   2   3
ENDBRANCH   1   2
BRANCH   1  13
ATOM     13  C   UNL     1      18.597  30.454  43.993  1.00  0.00     0.000 C 
BRANCH  13  14
ATOM     14  C   UNL     1      18.663  29.648  45.300  1.00  0.00     0.000 C 
BRANCH  14  15
ATOM     15  C   UNL     1      17.875  30.311  46.445  1.00  0.00     0.000 C 
BRANCH  15  16
ATOM     16  C   UNL     1      18.775  30.730  47.629  1.00  0.00     0.000 C 
BRANCH  16  17
ATOM     17  C   UNL     1      19.430  29.544  48.361  1.00  0.00     0.000 C 
BRANCH  17  18
ATOM     18  C   UNL     1      20.946  29.681  48.591  1.00  0.00     0.000 C 
BRANCH  18  19
ATOM     19  C   UNL     1      21.599  30.819  47.776  1.00  0.00     0.000 C 
BRANCH  19  20
ATOM     20  C   UNL     1      23.086  31.019  48.116  1.00  0.00     0.006 C 
BRANCH  20  21
ATOM     21  C   UNL     1      23.798  29.693  48.413  1.00  0.00     0.053 C 
BRANCH  21  22
ATOM     22  C   UNL     1      25.061  29.902  49.193  1.00  0.00     0.041 C 
ATOM     23  O   UNL     1      25.400  31.061  49.551  1.00  0.00    -0.550 OA
ATOM     24  O   UNL     1      25.878  28.819  49.494  1.00  0.00    -0.550 OA
ENDBRANCH  21  22
ENDBRANCH  20  21
ENDBRANCH  19  20
ENDBRANCH  18  19
ENDBRANCH  17  18
ENDBRANCH  16  17
ENDBRANCH  15  16
ENDBRANCH  14  15
ENDBRANCH  13  14
ENDBRANCH   1  13
TORSDOF 20
ENDMDL
MODEL 9
REMARK VINA RESULT:    -3.385      1.842      4.741
REMARK INTER + INTRA:         -11.127
REMARK INTER:                  -7.446
REMARK INTRA:                  -3.682
REMARK UNBOUND:                -3.784
REMARK SMILES CCCCCCCCCCCCCCCCCCCCCC(=O)[O-]
REMARK SMILES IDX 12 1 11 2 10 3 9 4 8 5 7 6 6 7 5 8 4 9 3 10 2 11 1 12 13 13
REMARK SMILES IDX 14 14 15 15 16 16 17 17 18 18 19 19 20 20 21 21 22 22 23 23
REMARK SMILES IDX 24 24
REMARK H PARENT
REMARK Flexibility Score: inf
ROOT
ATOM      1  C   UNL     1      20.733  32.819  44.933  1.00  0.00     0.000 C 
ENDROOT
BRANCH   1   2
ATOM      2  C   UNL     1      20.055  31.933  43.875  1.00  0.00     0.000 C 
BRANCH   2   3
ATOM      3  C   UNL     1      18.920  31.077  44.463  1.00  0.00     0.000 C 
BRANCH   3   4
ATOM      4  C   UNL     1      19.183  30.679  45.924  1.00  0.00    -0.000 C 
BRANCH   4   5
ATOM      5  C   UNL     1      17.961  30.909  46.826  1.00  0.00    -0.000 C 
BRANCH   5   6
ATOM      6  C   UNL     1      18.253  30.468  48.267  1.00  0.00    -0.000 C 
BRANCH   6   7
ATOM      7  C   UNL     1      19.622  29.782  48.416  1.00  0.00    -0.000 C 
BRANCH   7   8
ATOM      8  C   UNL     1      19.720  28.859  49.651  1.00  0.00    -0.000 C 
BRANCH   8   9
ATOM      9  C   UNL     1      20.918  29.214  50.550  1.00  0.00    -0.000 C 
BRANCH   9  10
ATOM     10  C   UNL     1      20.869  30.680  51.034  1.00  0.00    -0.000 C 
BRANCH  10  11
ATOM     11  C   UNL     1      22.246  31.244  51.426  1.00  0.00    -0.003 C 
ATOM     12  C   UNL     1      23.403  30.331  51.028  1.00  0.00     0.004 C 
ENDBRANCH  10  11
ENDBRANCH   9  10
ENDBRANCH   8   9
ENDBRANCH   7   8
ENDBRANCH   6   7
ENDBRANCH   5   6
ENDBRANCH   4   5
ENDBRANCH   3   4
ENDBRANCH   2   3
ENDBRANCH   1   2
BRANCH   1  13
ATOM     13  C   UNL     1      20.701  34.314  44.566  1.00  0.00     0.000 C 
BRANCH  13  14
ATOM     14  C   UNL     1      19.687  35.108  45.405  1.00  0.00     0.000 C 
BRANCH  14  15
ATOM     15  C   UNL     1      19.134  34.296  46.589  1.00  0.00     0.000 C 
BRANCH  15  16
ATOM     16  C   UNL     1      19.726  34.736  47.948  1.00  0.00     0.000 C 
BRANCH  16  17
ATOM     17  C   UNL     1      20.395  33.592  48.733  1.00  0.00     0.000 C 
BRANCH  17  18
ATOM     18  C   UNL     1      21.925  33.511  48.582  1.00  0.00     0.000 C 
BRANCH  18  19
ATOM     19  C   UNL     1      22.406  32.302  47.750  1.00  0.00     0.000 C 
BRANCH  19  20
ATOM     20  C   UNL     1      23.827  32.491  47.191  1.00  0.00     0.006 C 
BRANCH  20  21
ATOM     21  C   UNL     1      24.907  32.061  48.192  1.00  0.00     0.053 C 
BRANCH  21  22
ATOM     22  C   UNL     1      25.432  33.224  48.977  1.00  0.00     0.041 C 
ATOM     23  O   UNL     1      26.076  34.141  48.399  1.00  0.00    -0.550 OA
ATOM     24  O   UNL     1      25.239  33.279  50.352  1.00  0.00    -0.550 OA
ENDBRANCH  21  22
ENDBRANCH  20  21
ENDBRANCH  19  20
ENDBRANCH  18  19
ENDBRANCH  17  18
ENDBRANCH  16  17
ENDBRANCH  15  16
ENDBRANCH  14  15
ENDBRANCH  13  14
ENDBRANCH   1  13
TORSDOF 20
ENDMDL
