MODEL 1
REMARK VINA RESULT:    63.731      0.000      0.000
REMARK INTER + INTRA:          69.655
REMARK INTER:                  69.319
REMARK INTRA:                   0.336
REMARK UNBOUND:                 0.336
REMARK SMILES C[C@H]1[C@@H](C)CC[C@@]2(C(=O)[O-])CC[C@@]3(C)C(=CC[C@H]4[C@]5(C)CC[C@H](O)C(C)(C)[C@@H]5CC[C@]43C)[C@@H]12
REMARK SMILES IDX 7 1 6 2 11 3 33 4 5 5 12 6 15 7 2 8 3 9 13 10 16 11 1 12
REMARK SMILES IDX 4 13 14 14 31 15 17 16 18 17 30 18 32 19 19 20 29 21 28 22
REMARK SMILES IDX 21 23 20 24 25 25 22 26 23 27 26 28 27 29 8 30 9 31 10 32
REMARK SMILES IDX 24 33
REMARK H PARENT 24 34
REMARK Flexibility Score: inf
ROOT
ATOM      1  C   UNL     1      12.597  22.661   4.982  1.00  0.00     0.017 C 
ATOM      2  C   UNL     1      12.191  23.820   5.913  1.00  0.00     0.014 C 
ATOM      3  C   UNL     1      11.377  22.220   4.160  1.00  0.00     0.014 C 
ATOM      4  C   UNL     1      13.800  23.030   4.025  1.00  0.00     0.030 C 
ATOM      5  C   UNL     1      13.373  24.390   6.693  1.00  0.00     0.004 C 
ATOM      6  C   UNL     1      10.932  23.243   3.096  1.00  0.00     0.013 C 
ATOM      7  C   UNL     1      13.441  23.259   2.532  1.00  0.00    -0.063 C 
ATOM      8  C   UNL     1      14.856  24.071   4.635  1.00  0.00    -0.003 C 
ATOM      9  C   UNL     1      14.404  25.054   5.774  1.00  0.00    -0.011 C 
ATOM     10  C   UNL     1      12.049  23.740   2.074  1.00  0.00    -0.006 C 
ATOM     11  C   UNL     1      14.285  22.777   1.601  1.00  0.00    -0.027 C 
ATOM     12  C   UNL     1      15.732  24.758   3.566  1.00  0.00     0.008 C 
ATOM     13  C   UNL     1      13.938  26.466   5.351  1.00  0.00     0.008 C 
ATOM     14  C   UNL     1      12.095  25.281   2.144  1.00  0.00     0.017 C 
ATOM     15  C   UNL     1      11.697  23.223   0.552  1.00  0.00    -0.020 C 
ATOM     16  C   UNL     1      14.254  23.215   0.147  1.00  0.00     0.032 C 
ATOM     17  C   UNL     1      12.855  23.617  -0.448  1.00  0.00     0.006 C 
ATOM     18  C   UNL     1      11.522  21.658   0.522  1.00  0.00     0.008 C 
ATOM     19  C   UNL     1      10.352  23.861   0.118  1.00  0.00     0.012 C 
ATOM     20  C   UNL     1      12.689  23.070  -1.953  1.00  0.00    -0.025 C 
ATOM     21  C   UNL     1      12.281  20.838  -0.543  1.00  0.00     0.005 C 
ATOM     22  C   UNL     1      12.501  21.483  -1.965  1.00  0.00     0.003 C 
ATOM     23  C   UNL     1      11.567  23.866  -2.723  1.00  0.00     0.010 C 
ATOM     24  C   UNL     1      14.000  23.430  -2.751  1.00  0.00     0.012 C 
ATOM     25  C   UNL     1      11.680  20.820  -3.174  1.00  0.00    -0.006 C 
ATOM     26  C   UNL     1      10.515  23.043  -3.454  1.00  0.00     0.033 C 
ATOM     27  C   UNL     1      11.165  21.896  -4.192  1.00  0.00     0.120 C 
ATOM     28  C   UNL     1      10.481  19.936  -2.686  1.00  0.00     0.014 C 
ATOM     29  C   UNL     1      12.629  19.876  -3.956  1.00  0.00     0.014 C 
ENDROOT
BRANCH   1  30
ATOM     30  C   UNL     1      13.016  21.518   5.891  1.00  0.00     0.048 C 
ATOM     31  O   UNL     1      12.457  20.393   5.801  1.00  0.00    -0.550 OA
ATOM     32  O   UNL     1      12.427  20.260   5.826  1.00  0.00    -0.550 OA
ENDBRANCH   1  30
BRANCH  27  33
ATOM     33  O   UNL     1      10.253  21.366  -5.125  1.00  0.00    -0.393 OA
ATOM     34  H   UNL     1      10.311  21.910  -5.955  1.00  0.00     0.210 HD
ENDBRANCH  27  33
TORSDOF 2
ENDMDL
MODEL 2
REMARK VINA RESULT:    64.772      1.802      8.073
REMARK INTER + INTRA:          70.788
REMARK INTER:                  69.893
REMARK INTRA:                   0.895
REMARK UNBOUND:                 0.336
REMARK SMILES C[C@H]1[C@@H](C)CC[C@@]2(C(=O)[O-])CC[C@@]3(C)C(=CC[C@H]4[C@]5(C)CC[C@H](O)C(C)(C)[C@@H]5CC[C@]43C)[C@@H]12
REMARK SMILES IDX 7 1 6 2 11 3 33 4 5 5 12 6 15 7 2 8 3 9 13 10 16 11 1 12
REMARK SMILES IDX 4 13 14 14 31 15 17 16 18 17 30 18 32 19 19 20 29 21 28 22
REMARK SMILES IDX 21 23 20 24 25 25 22 26 23 27 26 28 27 29 8 30 9 31 10 32
REMARK SMILES IDX 24 33
REMARK H PARENT 24 34
REMARK Flexibility Score: inf
ROOT
ATOM      1  C   UNL     1      12.226  23.904  -3.030  1.00  0.00     0.017 C 
ATOM      2  C   UNL     1      11.012  23.956  -3.978  1.00  0.00     0.014 C 
ATOM      3  C   UNL     1      11.991  24.861  -1.852  1.00  0.00     0.014 C 
ATOM      4  C   UNL     1      12.535  22.447  -2.501  1.00  0.00     0.030 C 
ATOM      5  C   UNL     1      11.118  22.954  -5.125  1.00  0.00     0.004 C 
ATOM      6  C   UNL     1      10.896  24.395  -0.872  1.00  0.00     0.013 C 
ATOM      7  C   UNL     1      12.171  22.167  -1.018  1.00  0.00    -0.063 C 
ATOM      8  C   UNL     1      12.173  21.264  -3.522  1.00  0.00    -0.003 C 
ATOM      9  C   UNL     1      11.084  21.504  -4.629  1.00  0.00    -0.011 C 
ATOM     10  C   UNL     1      11.051  22.925  -0.277  1.00  0.00    -0.006 C 
ATOM     11  C   UNL     1      13.027  21.426  -0.289  1.00  0.00    -0.027 C 
ATOM     12  C   UNL     1      12.042  19.884  -2.845  1.00  0.00     0.008 C 
ATOM     13  C   UNL     1       9.637  21.063  -4.311  1.00  0.00     0.008 C 
ATOM     14  C   UNL     1       9.750  22.155  -0.585  1.00  0.00     0.017 C 
ATOM     15  C   UNL     1      11.332  22.995   1.343  1.00  0.00    -0.020 C 
ATOM     16  C   UNL     1      12.651  20.788   1.037  1.00  0.00     0.032 C 
ATOM     17  C   UNL     1      11.597  21.549   1.922  1.00  0.00     0.006 C 
ATOM     18  C   UNL     1      12.588  23.894   1.652  1.00  0.00     0.008 C 
ATOM     19  C   UNL     1      10.101  23.646   2.025  1.00  0.00     0.012 C 
ATOM     20  C   UNL     1      11.999  21.487   3.479  1.00  0.00    -0.025 C 
ATOM     21  C   UNL     1      13.693  23.347   2.581  1.00  0.00     0.005 C 
ATOM     22  C   UNL     1      13.267  22.413   3.778  1.00  0.00     0.003 C 
ATOM     23  C   UNL     1      10.749  21.775   4.397  1.00  0.00     0.010 C 
ATOM     24  C   UNL     1      12.368  19.995   3.829  1.00  0.00     0.012 C 
ATOM     25  C   UNL     1      13.430  23.033   5.248  1.00  0.00    -0.006 C 
ATOM     26  C   UNL     1      10.928  22.810   5.500  1.00  0.00     0.033 C 
ATOM     27  C   UNL     1      12.253  22.612   6.196  1.00  0.00     0.120 C 
ATOM     28  C   UNL     1      13.572  24.594   5.241  1.00  0.00     0.014 C 
ATOM     29  C   UNL     1      14.735  22.480   5.875  1.00  0.00     0.014 C 
ENDROOT
BRANCH   1  30
ATOM     30  C   UNL     1      13.412  24.402  -3.839  1.00  0.00     0.048 C 
ATOM     31  O   UNL     1      13.233  25.111  -4.865  1.00  0.00    -0.550 OA
ATOM     32  O   UNL     1      13.262  25.187  -4.977  1.00  0.00    -0.550 OA
ENDBRANCH   1  30
BRANCH  27  33
ATOM     33  O   UNL     1      12.253  23.327   7.409  1.00  0.00    -0.393 OA
ATOM     34  H   UNL     1      12.981  22.965   7.981  1.00  0.00     0.210 HD
ENDBRANCH  27  33
TORSDOF 2
ENDMDL
