MODEL 1
REMARK VINA RESULT:    -4.898      0.000      0.000
REMARK INTER + INTRA:          -9.593
REMARK INTER:                  -8.334
REMARK INTRA:                  -1.259
REMARK UNBOUND:                -1.259
REMARK SMILES CCCCCCCCCCCCCC(=O)[O-]
REMARK SMILES IDX 8 1 9 2 10 3 11 4 12 5 13 6 14 7 15 8 16 9 7 10 6 11 5 12
REMARK SMILES IDX 4 13 3 14 2 15 1 16
REMARK H PARENT
REMARK Flexibility Score: inf
ROOT
ATOM      1  C   UNL     1      27.903  10.957  30.806  1.00  0.00     0.000 C 
ENDROOT
BRANCH   1   2
ATOM      2  C   UNL     1      28.136  12.453  31.072  1.00  0.00     0.000 C 
BRANCH   2   3
ATOM      3  C   UNL     1      27.743  12.868  32.500  1.00  0.00     0.000 C 
BRANCH   3   4
ATOM      4  C   UNL     1      28.360  11.958  33.579  1.00  0.00     0.000 C 
BRANCH   4   5
ATOM      5  C   UNL     1      27.359  11.382  34.597  1.00  0.00     0.006 C 
BRANCH   5   6
ATOM      6  C   UNL     1      25.997  12.088  34.564  1.00  0.00     0.053 C 
BRANCH   6   7
ATOM      7  C   UNL     1      25.898  13.085  35.675  1.00  0.00     0.041 C 
ATOM      8  O   UNL     1      26.691  14.062  35.722  1.00  0.00    -0.550 OA
ATOM      9  O   UNL     1      24.899  12.963  36.633  1.00  0.00    -0.550 OA
ENDBRANCH   6   7
ENDBRANCH   5   6
ENDBRANCH   4   5
ENDBRANCH   3   4
ENDBRANCH   2   3
ENDBRANCH   1   2
BRANCH   1  10
ATOM     10  C   UNL     1      27.484  10.668  29.356  1.00  0.00     0.000 C 
BRANCH  10  11
ATOM     11  C   UNL     1      25.990  10.322  29.276  1.00  0.00    -0.000 C 
BRANCH  11  12
ATOM     12  C   UNL     1      25.491   9.558  30.514  1.00  0.00    -0.000 C 
BRANCH  12  13
ATOM     13  C   UNL     1      24.034   9.903  30.871  1.00  0.00    -0.000 C 
BRANCH  13  14
ATOM     14  C   UNL     1      23.924  11.151  31.759  1.00  0.00    -0.000 C 
BRANCH  14  15
ATOM     15  C   UNL     1      22.470  11.497  32.115  1.00  0.00    -0.003 C 
ATOM     16  C   UNL     1      22.392  12.241  33.444  1.00  0.00     0.004 C 
ENDBRANCH  14  15
ENDBRANCH  13  14
ENDBRANCH  12  13
ENDBRANCH  11  12
ENDBRANCH  10  11
ENDBRANCH   1  10
TORSDOF 12
ENDMDL
MODEL 2
REMARK VINA RESULT:    -4.787      1.229      1.793
REMARK INTER + INTRA:          -9.405
REMARK INTER:                  -8.003
REMARK INTRA:                  -1.402
REMARK UNBOUND:                -1.259
REMARK SMILES CCCCCCCCCCCCCC(=O)[O-]
REMARK SMILES IDX 8 1 9 2 10 3 11 4 12 5 13 6 14 7 15 8 16 9 7 10 6 11 5 12
REMARK SMILES IDX 4 13 3 14 2 15 1 16
REMARK H PARENT
REMARK Flexibility Score: inf
ROOT
ATOM      1  C   UNL     1      27.259  12.986  30.315  1.00  0.00     0.000 C 
ENDROOT
BRANCH   1   2
ATOM      2  C   UNL     1      28.505  12.507  31.077  1.00  0.00     0.000 C 
BRANCH   2   3
ATOM      3  C   UNL     1      28.286  12.460  32.599  1.00  0.00     0.000 C 
BRANCH   3   4
ATOM      4  C   UNL     1      27.233  13.474  33.084  1.00  0.00     0.000 C 
BRANCH   4   5
ATOM      5  C   UNL     1      27.533  14.126  34.446  1.00  0.00     0.006 C 
BRANCH   5   6
ATOM      6  C   UNL     1      27.483  13.130  35.611  1.00  0.00     0.053 C 
BRANCH   6   7
ATOM      7  C   UNL     1      26.184  12.390  35.611  1.00  0.00     0.041 C 
ATOM      8  O   UNL     1      25.126  12.965  35.980  1.00  0.00    -0.550 OA
ATOM      9  O   UNL     1      26.130  11.077  35.158  1.00  0.00    -0.550 OA
ENDBRANCH   6   7
ENDBRANCH   5   6
ENDBRANCH   4   5
ENDBRANCH   3   4
ENDBRANCH   2   3
ENDBRANCH   1   2
BRANCH   1  10
ATOM     10  C   UNL     1      26.765  11.964  29.279  1.00  0.00     0.000 C 
BRANCH  10  11
ATOM     11  C   UNL     1      27.253  10.550  29.629  1.00  0.00    -0.000 C 
BRANCH  11  12
ATOM     12  C   UNL     1      26.178   9.477  29.391  1.00  0.00    -0.000 C 
BRANCH  12  13
ATOM     13  C   UNL     1      25.192   9.359  30.568  1.00  0.00    -0.000 C 
BRANCH  13  14
ATOM     14  C   UNL     1      23.812   9.950  30.241  1.00  0.00    -0.000 C 
BRANCH  14  15
ATOM     15  C   UNL     1      23.227  10.762  31.407  1.00  0.00    -0.003 C 
ATOM     16  C   UNL     1      24.318  11.537  32.139  1.00  0.00     0.004 C 
ENDBRANCH  14  15
ENDBRANCH  13  14
ENDBRANCH  12  13
ENDBRANCH  11  12
ENDBRANCH  10  11
ENDBRANCH   1  10
TORSDOF 12
ENDMDL
MODEL 3
REMARK VINA RESULT:    -4.766      2.022      4.276
REMARK INTER + INTRA:          -9.368
REMARK INTER:                  -7.940
REMARK INTRA:                  -1.428
REMARK UNBOUND:                -1.259
REMARK SMILES CCCCCCCCCCCCCC(=O)[O-]
REMARK SMILES IDX 8 1 9 2 10 3 11 4 12 5 13 6 14 7 15 8 16 9 7 10 6 11 5 12
REMARK SMILES IDX 4 13 3 14 2 15 1 16
REMARK H PARENT
REMARK Flexibility Score: inf
ROOT
ATOM      1  C   UNL     1      26.156   9.791  31.083  1.00  0.00     0.000 C 
ENDROOT
BRANCH   1   2
ATOM      2  C   UNL     1      24.837  10.204  30.409  1.00  0.00     0.000 C 
BRANCH   2   3
ATOM      3  C   UNL     1      23.818  10.777  31.408  1.00  0.00     0.000 C 
BRANCH   3   4
ATOM      4  C   UNL     1      24.422  11.855  32.328  1.00  0.00     0.000 C 
BRANCH   4   5
ATOM      5  C   UNL     1      23.586  12.191  33.576  1.00  0.00     0.006 C 
BRANCH   5   6
ATOM      6  C   UNL     1      22.078  12.220  33.298  1.00  0.00     0.053 C 
BRANCH   6   7
ATOM      7  C   UNL     1      21.355  12.915  34.408  1.00  0.00     0.041 C 
ATOM      8  O   UNL     1      20.885  14.070  34.233  1.00  0.00    -0.550 OA
ATOM      9  O   UNL     1      21.156  12.268  35.621  1.00  0.00    -0.550 OA
ENDBRANCH   6   7
ENDBRANCH   5   6
ENDBRANCH   4   5
ENDBRANCH   3   4
ENDBRANCH   2   3
ENDBRANCH   1   2
BRANCH   1  10
ATOM     10  C   UNL     1      27.390  10.398  30.396  1.00  0.00     0.000 C 
BRANCH  10  11
ATOM     11  C   UNL     1      27.213  11.909  30.187  1.00  0.00    -0.000 C 
BRANCH  11  12
ATOM     12  C   UNL     1      28.112  12.745  31.111  1.00  0.00    -0.000 C 
BRANCH  12  13
ATOM     13  C   UNL     1      28.168  12.186  32.544  1.00  0.00    -0.000 C 
BRANCH  13  14
ATOM     14  C   UNL     1      27.625  13.177  33.585  1.00  0.00    -0.000 C 
BRANCH  14  15
ATOM     15  C   UNL     1      27.345  12.514  34.942  1.00  0.00    -0.003 C 
ATOM     16  C   UNL     1      27.014  11.035  34.773  1.00  0.00     0.004 C 
ENDBRANCH  14  15
ENDBRANCH  13  14
ENDBRANCH  12  13
ENDBRANCH  11  12
ENDBRANCH  10  11
ENDBRANCH   1  10
TORSDOF 12
ENDMDL
MODEL 4
REMARK VINA RESULT:    -4.766      2.225      4.537
REMARK INTER + INTRA:          -9.368
REMARK INTER:                  -7.969
REMARK INTRA:                  -1.399
REMARK UNBOUND:                -1.259
REMARK SMILES CCCCCCCCCCCCCC(=O)[O-]
REMARK SMILES IDX 8 1 9 2 10 3 11 4 12 5 13 6 14 7 15 8 16 9 7 10 6 11 5 12
REMARK SMILES IDX 4 13 3 14 2 15 1 16
REMARK H PARENT
REMARK Flexibility Score: inf
ROOT
ATOM      1  C   UNL     1      26.079  11.788  31.088  1.00  0.00     0.000 C 
ENDROOT
BRANCH   1   2
ATOM      2  C   UNL     1      25.268  10.530  31.438  1.00  0.00     0.000 C 
BRANCH   2   3
ATOM      3  C   UNL     1      23.762  10.816  31.571  1.00  0.00     0.000 C 
BRANCH   3   4
ATOM      4  C   UNL     1      23.446  11.881  32.638  1.00  0.00     0.000 C 
BRANCH   4   5
ATOM      5  C   UNL     1      21.981  11.920  33.108  1.00  0.00     0.006 C 
BRANCH   5   6
ATOM      6  C   UNL     1      21.692  13.075  34.076  1.00  0.00     0.053 C 
BRANCH   6   7
ATOM      7  C   UNL     1      20.822  12.610  35.200  1.00  0.00     0.041 C 
ATOM      8  O   UNL     1      20.043  13.416  35.774  1.00  0.00    -0.550 OA
ATOM      9  O   UNL     1      20.834  11.275  35.584  1.00  0.00    -0.550 OA
ENDBRANCH   6   7
ENDBRANCH   5   6
ENDBRANCH   4   5
ENDBRANCH   3   4
ENDBRANCH   2   3
ENDBRANCH   1   2
BRANCH   1  10
ATOM     10  C   UNL     1      27.578  11.500  30.916  1.00  0.00     0.000 C 
BRANCH  10  11
ATOM     11  C   UNL     1      28.426  12.577  31.609  1.00  0.00    -0.000 C 
BRANCH  11  12
ATOM     12  C   UNL     1      28.016  12.805  33.073  1.00  0.00    -0.000 C 
BRANCH  12  13
ATOM     13  C   UNL     1      28.076  11.514  33.910  1.00  0.00    -0.000 C 
BRANCH  13  14
ATOM     14  C   UNL     1      26.808  11.298  34.750  1.00  0.00    -0.000 C 
BRANCH  14  15
ATOM     15  C   UNL     1      26.130  12.619  35.145  1.00  0.00    -0.003 C 
ATOM     16  C   UNL     1      24.859  12.365  35.949  1.00  0.00     0.004 C 
ENDBRANCH  14  15
ENDBRANCH  13  14
ENDBRANCH  12  13
ENDBRANCH  11  12
ENDBRANCH  10  11
ENDBRANCH   1  10
TORSDOF 12
ENDMDL
MODEL 5
REMARK VINA RESULT:    -4.693      1.949      4.393
REMARK INTER + INTRA:          -9.245
REMARK INTER:                  -7.819
REMARK INTRA:                  -1.426
REMARK UNBOUND:                -1.259
REMARK SMILES CCCCCCCCCCCCCC(=O)[O-]
REMARK SMILES IDX 8 1 9 2 10 3 11 4 12 5 13 6 14 7 15 8 16 9 7 10 6 11 5 12
REMARK SMILES IDX 4 13 3 14 2 15 1 16
REMARK H PARENT
REMARK Flexibility Score: inf
ROOT
ATOM      1  C   UNL     1      27.351  10.731  30.079  1.00  0.00     0.000 C 
ENDROOT
BRANCH   1   2
ATOM      2  C   UNL     1      26.268   9.770  30.596  1.00  0.00     0.000 C 
BRANCH   2   3
ATOM      3  C   UNL     1      25.214  10.480  31.463  1.00  0.00     0.000 C 
BRANCH   3   4
ATOM      4  C   UNL     1      23.897  10.743  30.709  1.00  0.00     0.000 C 
BRANCH   4   5
ATOM      5  C   UNL     1      22.659  10.935  31.604  1.00  0.00     0.006 C 
BRANCH   5   6
ATOM      6  C   UNL     1      22.918  11.872  32.791  1.00  0.00     0.053 C 
BRANCH   6   7
ATOM      7  C   UNL     1      21.640  12.174  33.507  1.00  0.00     0.041 C 
ATOM      8  O   UNL     1      20.795  11.262  33.708  1.00  0.00    -0.550 OA
ATOM      9  O   UNL     1      21.402  13.453  33.995  1.00  0.00    -0.550 OA
ENDBRANCH   6   7
ENDBRANCH   5   6
ENDBRANCH   4   5
ENDBRANCH   3   4
ENDBRANCH   2   3
ENDBRANCH   1   2
BRANCH   1  10
ATOM     10  C   UNL     1      27.206  12.152  30.646  1.00  0.00     0.000 C 
BRANCH  10  11
ATOM     11  C   UNL     1      28.405  12.514  31.534  1.00  0.00    -0.000 C 
BRANCH  11  12
ATOM     12  C   UNL     1      28.001  12.797  32.990  1.00  0.00    -0.000 C 
BRANCH  12  13
ATOM     13  C   UNL     1      28.126  11.554  33.890  1.00  0.00    -0.000 C 
BRANCH  13  14
ATOM     14  C   UNL     1      26.833  11.253  34.662  1.00  0.00    -0.000 C 
BRANCH  14  15
ATOM     15  C   UNL     1      25.908  12.476  34.762  1.00  0.00    -0.003 C 
ATOM     16  C   UNL     1      24.939  12.337  35.932  1.00  0.00     0.004 C 
ENDBRANCH  14  15
ENDBRANCH  13  14
ENDBRANCH  12  13
ENDBRANCH  11  12
ENDBRANCH  10  11
ENDBRANCH   1  10
TORSDOF 12
ENDMDL
MODEL 6
REMARK VINA RESULT:    -4.677      2.723      4.743
REMARK INTER + INTRA:          -9.218
REMARK INTER:                  -8.143
REMARK INTRA:                  -1.075
REMARK UNBOUND:                -1.259
REMARK SMILES CCCCCCCCCCCCCC(=O)[O-]
REMARK SMILES IDX 8 1 9 2 10 3 11 4 12 5 13 6 14 7 15 8 16 9 7 10 6 11 5 12
REMARK SMILES IDX 4 13 3 14 2 15 1 16
REMARK H PARENT
REMARK Flexibility Score: inf
ROOT
ATOM      1  C   UNL     1      27.262  11.655  34.880  1.00  0.00     0.000 C 
ENDROOT
BRANCH   1   2
ATOM      2  C   UNL     1      27.675  13.121  34.668  1.00  0.00     0.000 C 
BRANCH   2   3
ATOM      3  C   UNL     1      27.504  13.577  33.209  1.00  0.00     0.000 C 
BRANCH   3   4
ATOM      4  C   UNL     1      28.288  12.704  32.212  1.00  0.00     0.000 C 
BRANCH   4   5
ATOM      5  C   UNL     1      27.450  12.105  31.068  1.00  0.00     0.006 C 
BRANCH   5   6
ATOM      6  C   UNL     1      27.549  10.576  30.990  1.00  0.00     0.053 C 
BRANCH   6   7
ATOM      7  C   UNL     1      26.188   9.960  31.057  1.00  0.00     0.041 C 
ATOM      8  O   UNL     1      25.973   8.838  30.528  1.00  0.00    -0.550 OA
ATOM      9  O   UNL     1      25.166  10.602  31.746  1.00  0.00    -0.550 OA
ENDBRANCH   6   7
ENDBRANCH   5   6
ENDBRANCH   4   5
ENDBRANCH   3   4
ENDBRANCH   2   3
ENDBRANCH   1   2
BRANCH   1  10
ATOM     10  C   UNL     1      25.738  11.464  34.899  1.00  0.00     0.000 C 
BRANCH  10  11
ATOM     11  C   UNL     1      25.077  12.424  35.900  1.00  0.00    -0.000 C 
BRANCH  11  12
ATOM     12  C   UNL     1      23.552  12.507  35.723  1.00  0.00    -0.000 C 
BRANCH  12  13
ATOM     13  C   UNL     1      23.129  12.505  34.243  1.00  0.00    -0.000 C 
BRANCH  13  14
ATOM     14  C   UNL     1      21.625  12.248  34.061  1.00  0.00    -0.000 C 
BRANCH  14  15
ATOM     15  C   UNL     1      20.895  12.045  35.398  1.00  0.00    -0.003 C 
ATOM     16  C   UNL     1      19.920  13.186  35.670  1.00  0.00     0.004 C 
ENDBRANCH  14  15
ENDBRANCH  13  14
ENDBRANCH  12  13
ENDBRANCH  11  12
ENDBRANCH  10  11
ENDBRANCH   1  10
TORSDOF 12
ENDMDL
MODEL 7
REMARK VINA RESULT:    -4.626      1.130      2.361
REMARK INTER + INTRA:          -9.130
REMARK INTER:                  -8.204
REMARK INTRA:                  -0.926
REMARK UNBOUND:                -1.259
REMARK SMILES CCCCCCCCCCCCCC(=O)[O-]
REMARK SMILES IDX 8 1 9 2 10 3 11 4 12 5 13 6 14 7 15 8 16 9 7 10 6 11 5 12
REMARK SMILES IDX 4 13 3 14 2 15 1 16
REMARK H PARENT
REMARK Flexibility Score: inf
ROOT
ATOM      1  C   UNL     1      26.085  10.289  31.507  1.00  0.00     0.000 C 
ENDROOT
BRANCH   1   2
ATOM      2  C   UNL     1      27.441  10.463  30.803  1.00  0.00     0.000 C 
BRANCH   2   3
ATOM      3  C   UNL     1      28.014  11.881  30.967  1.00  0.00     0.000 C 
BRANCH   3   4
ATOM      4  C   UNL     1      27.485  12.600  32.221  1.00  0.00     0.000 C 
BRANCH   4   5
ATOM      5  C   UNL     1      28.270  12.320  33.515  1.00  0.00     0.006 C 
BRANCH   5   6
ATOM      6  C   UNL     1      27.364  11.971  34.703  1.00  0.00     0.053 C 
BRANCH   6   7
ATOM      7  C   UNL     1      26.878  13.217  35.372  1.00  0.00     0.041 C 
ATOM      8  O   UNL     1      27.543  14.283  35.289  1.00  0.00    -0.550 OA
ATOM      9  O   UNL     1      25.664  13.215  36.049  1.00  0.00    -0.550 OA
ENDBRANCH   6   7
ENDBRANCH   5   6
ENDBRANCH   4   5
ENDBRANCH   3   4
ENDBRANCH   2   3
ENDBRANCH   1   2
BRANCH   1  10
ATOM     10  C   UNL     1      24.940   9.989  30.528  1.00  0.00     0.000 C 
BRANCH  10  11
ATOM     11  C   UNL     1      23.584  10.382  31.132  1.00  0.00    -0.000 C 
BRANCH  11  12
ATOM     12  C   UNL     1      23.696  11.541  32.136  1.00  0.00    -0.000 C 
BRANCH  12  13
ATOM     13  C   UNL     1      22.349  11.878  32.801  1.00  0.00    -0.000 C 
BRANCH  13  14
ATOM     14  C   UNL     1      22.521  12.542  34.175  1.00  0.00    -0.000 C 
BRANCH  14  15
ATOM     15  C   UNL     1      21.178  12.851  34.853  1.00  0.00    -0.003 C 
ATOM     16  C   UNL     1      20.569  14.138  34.305  1.00  0.00     0.004 C 
ENDBRANCH  14  15
ENDBRANCH  13  14
ENDBRANCH  12  13
ENDBRANCH  11  12
ENDBRANCH  10  11
ENDBRANCH   1  10
TORSDOF 12
ENDMDL
MODEL 8
REMARK VINA RESULT:    -4.498      2.561      5.237
REMARK INTER + INTRA:          -8.913
REMARK INTER:                  -7.782
REMARK INTRA:                  -1.130
REMARK UNBOUND:                -1.259
REMARK SMILES CCCCCCCCCCCCCC(=O)[O-]
REMARK SMILES IDX 8 1 9 2 10 3 11 4 12 5 13 6 14 7 15 8 16 9 7 10 6 11 5 12
REMARK SMILES IDX 4 13 3 14 2 15 1 16
REMARK H PARENT
REMARK Flexibility Score: inf
ROOT
ATOM      1  C   UNL     1      26.097  13.426  35.694  1.00  0.00     0.000 C 
ENDROOT
BRANCH   1   2
ATOM      2  C   UNL     1      25.216  12.166  35.673  1.00  0.00     0.000 C 
BRANCH   2   3
ATOM      3  C   UNL     1      23.716  12.496  35.606  1.00  0.00     0.000 C 
BRANCH   3   4
ATOM      4  C   UNL     1      23.187  12.593  34.163  1.00  0.00     0.000 C 
BRANCH   4   5
ATOM      5  C   UNL     1      21.656  12.517  34.022  1.00  0.00     0.006 C 
BRANCH   5   6
ATOM      6  C   UNL     1      20.913  13.120  35.221  1.00  0.00     0.053 C 
BRANCH   6   7
ATOM      7  C   UNL     1      20.042  12.091  35.868  1.00  0.00     0.041 C 
ATOM      8  O   UNL     1      18.927  12.418  36.353  1.00  0.00    -0.550 OA
ATOM      9  O   UNL     1      20.439  10.760  35.894  1.00  0.00    -0.550 OA
ENDBRANCH   6   7
ENDBRANCH   5   6
ENDBRANCH   4   5
ENDBRANCH   3   4
ENDBRANCH   2   3
ENDBRANCH   1   2
BRANCH   1  10
ATOM     10  C   UNL     1      27.481  13.195  35.066  1.00  0.00     0.000 C 
BRANCH  10  11
ATOM     11  C   UNL     1      27.421  13.343  33.538  1.00  0.00    -0.000 C 
BRANCH  11  12
ATOM     12  C   UNL     1      28.342  12.352  32.810  1.00  0.00    -0.000 C 
BRANCH  12  13
ATOM     13  C   UNL     1      27.607  11.560  31.713  1.00  0.00    -0.000 C 
BRANCH  13  14
ATOM     14  C   UNL     1      26.435  10.735  32.268  1.00  0.00    -0.000 C 
BRANCH  14  15
ATOM     15  C   UNL     1      25.094  11.105  31.617  1.00  0.00    -0.003 C 
ATOM     16  C   UNL     1      24.555   9.952  30.776  1.00  0.00     0.004 C 
ENDBRANCH  14  15
ENDBRANCH  13  14
ENDBRANCH  12  13
ENDBRANCH  11  12
ENDBRANCH  10  11
ENDBRANCH   1  10
TORSDOF 12
ENDMDL
MODEL 9
REMARK VINA RESULT:    -4.480      1.816      3.427
REMARK INTER + INTRA:          -8.881
REMARK INTER:                  -8.070
REMARK INTRA:                  -0.811
REMARK UNBOUND:                -1.259
REMARK SMILES CCCCCCCCCCCCCC(=O)[O-]
REMARK SMILES IDX 8 1 9 2 10 3 11 4 12 5 13 6 14 7 15 8 16 9 7 10 6 11 5 12
REMARK SMILES IDX 4 13 3 14 2 15 1 16
REMARK H PARENT
REMARK Flexibility Score: inf
ROOT
ATOM      1  C   UNL     1      25.370  10.853  32.177  1.00  0.00     0.000 C 
ENDROOT
BRANCH   1   2
ATOM      2  C   UNL     1      25.841  11.152  30.744  1.00  0.00     0.000 C 
BRANCH   2   3
ATOM      3  C   UNL     1      27.112  12.018  30.709  1.00  0.00     0.000 C 
BRANCH   3   4
ATOM      4  C   UNL     1      27.980  11.860  31.971  1.00  0.00     0.000 C 
BRANCH   4   5
ATOM      5  C   UNL     1      27.908  13.034  32.964  1.00  0.00     0.006 C 
BRANCH   5   6
ATOM      6  C   UNL     1      27.925  12.580  34.430  1.00  0.00     0.053 C 
BRANCH   6   7
ATOM      7  C   UNL     1      27.084  13.489  35.268  1.00  0.00     0.041 C 
ATOM      8  O   UNL     1      27.494  14.643  35.560  1.00  0.00    -0.550 OA
ATOM      9  O   UNL     1      25.824  13.080  35.689  1.00  0.00    -0.550 OA
ENDBRANCH   6   7
ENDBRANCH   5   6
ENDBRANCH   4   5
ENDBRANCH   3   4
ENDBRANCH   2   3
ENDBRANCH   1   2
BRANCH   1  10
ATOM     10  C   UNL     1      24.294  11.835  32.666  1.00  0.00     0.000 C 
BRANCH  10  11
ATOM     11  C   UNL     1      22.915  11.464  32.100  1.00  0.00    -0.000 C 
BRANCH  11  12
ATOM     12  C   UNL     1      21.761  11.895  33.020  1.00  0.00    -0.000 C 
BRANCH  12  13
ATOM     13  C   UNL     1      22.253  12.629  34.280  1.00  0.00    -0.000 C 
BRANCH  13  14
ATOM     14  C   UNL     1      21.344  12.389  35.495  1.00  0.00    -0.000 C 
BRANCH  14  15
ATOM     15  C   UNL     1      20.054  13.222  35.440  1.00  0.00    -0.003 C 
ATOM     16  C   UNL     1      18.978  12.627  36.344  1.00  0.00     0.004 C 
ENDBRANCH  14  15
ENDBRANCH  13  14
ENDBRANCH  12  13
ENDBRANCH  11  12
ENDBRANCH  10  11
ENDBRANCH   1  10
TORSDOF 12
ENDMDL
