MODEL 1
REMARK VINA RESULT:    -3.718      0.000      0.000
REMARK INTER + INTRA:          -3.827
REMARK INTER:                  -3.827
REMARK INTRA:                   0.000
REMARK UNBOUND:                 0.000
REMARK SMILES CC1(C)[C@@H]2CC[C@@](C)(C2)[C@@H]1O
REMARK SMILES IDX 1 1 2 2 4 3 5 4 6 5 7 6 9 7 10 8 8 9 3 10 11 11
REMARK H PARENT 11 12
REMARK Flexibility Score: inf
ROOT
ATOM      1  C   UNL     1     166.987 157.467 171.117  1.00  0.00     0.014 C 
ATOM      2  C   UNL     1     167.877 157.941 169.939  1.00  0.00    -0.006 C 
ATOM      3  C   UNL     1     168.654 159.268 170.245  1.00  0.00    -0.002 C 
ATOM      4  C   UNL     1     167.711 160.348 170.816  1.00  0.00     0.005 C 
ATOM      5  C   UNL     1     166.810 160.682 169.617  1.00  0.00     0.010 C 
ATOM      6  C   UNL     1     167.428 159.834 168.478  1.00  0.00    -0.006 C 
ATOM      7  C   UNL     1     168.894 159.841 168.857  1.00  0.00     0.013 C 
ATOM      8  C   UNL     1     167.066 158.338 168.660  1.00  0.00     0.126 C 
ATOM      9  C   UNL     1     167.144 160.379 167.076  1.00  0.00     0.014 C 
ATOM     10  C   UNL     1     168.875 156.800 169.627  1.00  0.00     0.014 C 
ENDROOT
BRANCH   8  11
ATOM     11  O   UNL     1     165.678 158.161 168.793  1.00  0.00    -0.392 OA
ATOM     12  H   UNL     1     165.516 157.182 168.779  1.00  0.00     0.211 HD
ENDBRANCH   8  11
TORSDOF 1
ENDMDL
MODEL 2
REMARK VINA RESULT:    -3.718      8.880      9.968
REMARK INTER + INTRA:          -3.827
REMARK INTER:                  -3.827
REMARK INTRA:                   0.000
REMARK UNBOUND:                 0.000
REMARK SMILES CC1(C)[C@@H]2CC[C@@](C)(C2)[C@@H]1O
REMARK SMILES IDX 1 1 2 2 4 3 5 4 6 5 7 6 9 7 10 8 8 9 3 10 11 11
REMARK H PARENT 11 12
REMARK Flexibility Score: inf
ROOT
ATOM      1  C   UNL     1     157.578 164.316 171.202  1.00  0.00     0.014 C 
ATOM      2  C   UNL     1     158.001 163.403 170.023  1.00  0.00    -0.006 C 
ATOM      3  C   UNL     1     159.327 162.612 170.296  1.00  0.00    -0.002 C 
ATOM      4  C   UNL     1     160.437 163.548 170.818  1.00  0.00     0.005 C 
ATOM      5  C   UNL     1     160.744 164.427 169.595  1.00  0.00     0.010 C 
ATOM      6  C   UNL     1     159.851 163.804 168.494  1.00  0.00    -0.006 C 
ATOM      7  C   UNL     1     159.850 162.344 168.894  1.00  0.00     0.013 C 
ATOM      8  C   UNL     1     158.366 164.189 168.719  1.00  0.00     0.126 C 
ATOM      9  C   UNL     1     160.353 164.060 167.071  1.00  0.00     0.014 C 
ATOM     10  C   UNL     1     156.837 162.416 169.763  1.00  0.00     0.014 C 
ENDROOT
BRANCH   8  11
ATOM     11  O   UNL     1     158.213 165.581 168.837  1.00  0.00    -0.392 OA
ATOM     12  H   UNL     1     158.854 165.990 168.199  1.00  0.00     0.211 HD
ENDBRANCH   8  11
TORSDOF 1
ENDMDL
MODEL 3
REMARK VINA RESULT:    -3.709     12.279     14.045
REMARK INTER + INTRA:          -3.817
REMARK INTER:                  -3.817
REMARK INTRA:                   0.000
REMARK UNBOUND:                 0.000
REMARK SMILES CC1(C)[C@@H]2CC[C@@](C)(C2)[C@@H]1O
REMARK SMILES IDX 1 1 2 2 4 3 5 4 6 5 7 6 9 7 10 8 8 9 3 10 11 11
REMARK H PARENT 11 12
REMARK Flexibility Score: inf
ROOT
ATOM      1  C   UNL     1     164.375 173.605 171.245  1.00  0.00     0.014 C 
ATOM      2  C   UNL     1     163.435 173.196 170.081  1.00  0.00    -0.006 C 
ATOM      3  C   UNL     1     162.635 171.879 170.365  1.00  0.00    -0.002 C 
ATOM      4  C   UNL     1     163.567 170.756 170.866  1.00  0.00     0.005 C 
ATOM      5  C   UNL     1     164.421 170.444 169.626  1.00  0.00     0.010 C 
ATOM      6  C   UNL     1     163.788 171.347 168.540  1.00  0.00    -0.006 C 
ATOM      7  C   UNL     1     162.335 171.363 168.966  1.00  0.00     0.013 C 
ATOM      8  C   UNL     1     164.194 172.827 168.762  1.00  0.00     0.126 C 
ATOM      9  C   UNL     1     164.012 170.847 167.110  1.00  0.00     0.014 C 
ATOM     10  C   UNL     1     162.457 174.372 169.843  1.00  0.00     0.014 C 
ENDROOT
BRANCH   8  11
ATOM     11  O   UNL     1     165.590 172.964 168.856  1.00  0.00    -0.392 OA
ATOM     12  H   UNL     1     165.882 172.368 169.593  1.00  0.00     0.211 HD
ENDBRANCH   8  11
TORSDOF 1
ENDMDL
MODEL 4
REMARK VINA RESULT:    -3.699      8.829      9.910
REMARK INTER + INTRA:          -3.807
REMARK INTER:                  -3.807
REMARK INTRA:                   0.000
REMARK UNBOUND:                 0.000
REMARK SMILES CC1(C)[C@@H]2CC[C@@](C)(C2)[C@@H]1O
REMARK SMILES IDX 1 1 2 2 4 3 5 4 6 5 7 6 9 7 10 8 8 9 3 10 11 11
REMARK H PARENT 11 12
REMARK Flexibility Score: inf
ROOT
ATOM      1  C   UNL     1     173.580 166.898 171.269  1.00  0.00     0.014 C 
ATOM      2  C   UNL     1     173.184 167.806 170.075  1.00  0.00    -0.006 C 
ATOM      3  C   UNL     1     171.859 168.607 170.319  1.00  0.00    -0.002 C 
ATOM      4  C   UNL     1     170.733 167.682 170.827  1.00  0.00     0.005 C 
ATOM      5  C   UNL     1     170.443 166.796 169.604  1.00  0.00     0.010 C 
ATOM      6  C   UNL     1     171.360 167.405 168.516  1.00  0.00    -0.006 C 
ATOM      7  C   UNL     1     171.363 168.868 168.905  1.00  0.00     0.013 C 
ATOM      8  C   UNL     1     172.838 167.012 168.771  1.00  0.00     0.126 C 
ATOM      9  C   UNL     1     170.882 167.142 167.085  1.00  0.00     0.014 C 
ATOM     10  C   UNL     1     174.359 168.783 169.829  1.00  0.00     0.014 C 
ENDROOT
BRANCH   8  11
ATOM     11  O   UNL     1     172.980 165.620 168.902  1.00  0.00    -0.392 OA
ATOM     12  H   UNL     1     172.944 165.246 167.983  1.00  0.00     0.211 HD
ENDBRANCH   8  11
TORSDOF 1
ENDMDL
MODEL 5
REMARK VINA RESULT:    -3.636      1.419      2.193
REMARK INTER + INTRA:          -3.742
REMARK INTER:                  -3.742
REMARK INTRA:                   0.000
REMARK UNBOUND:                 0.000
REMARK SMILES CC1(C)[C@@H]2CC[C@@](C)(C2)[C@@H]1O
REMARK SMILES IDX 1 1 2 2 4 3 5 4 6 5 7 6 9 7 10 8 8 9 3 10 11 11
REMARK H PARENT 11 12
REMARK Flexibility Score: inf
ROOT
ATOM      1  C   UNL     1     168.528 158.189 171.262  1.00  0.00     0.014 C 
ATOM      2  C   UNL     1     168.427 159.539 170.506  1.00  0.00    -0.006 C 
ATOM      3  C   UNL     1     167.035 160.240 170.672  1.00  0.00    -0.002 C 
ATOM      4  C   UNL     1     165.879 159.256 170.394  1.00  0.00     0.005 C 
ATOM      5  C   UNL     1     166.013 158.991 168.886  1.00  0.00     0.010 C 
ATOM      6  C   UNL     1     167.157 159.947 168.471  1.00  0.00    -0.006 C 
ATOM      7  C   UNL     1     166.946 161.105 169.425  1.00  0.00     0.013 C 
ATOM      8  C   UNL     1     168.524 159.396 168.950  1.00  0.00     0.126 C 
ATOM      9  C   UNL     1     167.127 160.345 166.993  1.00  0.00     0.014 C 
ATOM     10  C   UNL     1     169.552 160.456 171.045  1.00  0.00     0.014 C 
ENDROOT
BRANCH   8  11
ATOM     11  O   UNL     1     168.721 158.073 168.515  1.00  0.00    -0.392 OA
ATOM     12  H   UNL     1     168.291 158.004 167.623  1.00  0.00     0.211 HD
ENDBRANCH   8  11
TORSDOF 1
ENDMDL
MODEL 6
REMARK VINA RESULT:    -3.625     12.129     13.476
REMARK INTER + INTRA:          -3.731
REMARK INTER:                  -3.731
REMARK INTRA:                   0.000
REMARK UNBOUND:                 0.000
REMARK SMILES CC1(C)[C@@H]2CC[C@@](C)(C2)[C@@H]1O
REMARK SMILES IDX 1 1 2 2 4 3 5 4 6 5 7 6 9 7 10 8 8 9 3 10 11 11
REMARK H PARENT 11 12
REMARK Flexibility Score: inf
ROOT
ATOM      1  C   UNL     1     162.606 173.075 171.263  1.00  0.00     0.014 C 
ATOM      2  C   UNL     1     162.737 171.718 170.522  1.00  0.00    -0.006 C 
ATOM      3  C   UNL     1     164.134 171.036 170.721  1.00  0.00    -0.002 C 
ATOM      4  C   UNL     1     165.284 172.030 170.456  1.00  0.00     0.005 C 
ATOM      5  C   UNL     1     165.176 172.279 168.943  1.00  0.00     0.010 C 
ATOM      6  C   UNL     1     164.051 171.305 168.516  1.00  0.00    -0.006 C 
ATOM      7  C   UNL     1     164.257 170.160 169.485  1.00  0.00     0.013 C 
ATOM      8  C   UNL     1     162.668 171.846 168.963  1.00  0.00     0.126 C 
ATOM      9  C   UNL     1     164.113 170.894 167.042  1.00  0.00     0.014 C 
ATOM     10  C   UNL     1     161.613 170.794 171.049  1.00  0.00     0.014 C 
ENDROOT
BRANCH   8  11
ATOM     11  O   UNL     1     162.465 173.162 168.512  1.00  0.00    -0.392 OA
ATOM     12  H   UNL     1     161.487 173.326 168.556  1.00  0.00     0.211 HD
ENDBRANCH   8  11
TORSDOF 1
ENDMDL
MODEL 7
REMARK VINA RESULT:    -3.619      8.826     10.063
REMARK INTER + INTRA:          -3.725
REMARK INTER:                  -3.725
REMARK INTRA:                   0.000
REMARK UNBOUND:                 0.000
REMARK SMILES CC1(C)[C@@H]2CC[C@@](C)(C2)[C@@H]1O
REMARK SMILES IDX 1 1 2 2 4 3 5 4 6 5 7 6 9 7 10 8 8 9 3 10 11 11
REMARK H PARENT 11 12
REMARK Flexibility Score: inf
ROOT
ATOM      1  C   UNL     1     173.012 168.643 171.312  1.00  0.00     0.014 C 
ATOM      2  C   UNL     1     171.661 168.508 170.564  1.00  0.00    -0.006 C 
ATOM      3  C   UNL     1     170.996 167.099 170.734  1.00  0.00    -0.002 C 
ATOM      4  C   UNL     1     172.007 165.967 170.450  1.00  0.00     0.005 C 
ATOM      5  C   UNL     1     172.259 166.108 168.940  1.00  0.00     0.010 C 
ATOM      6  C   UNL     1     171.272 167.228 168.532  1.00  0.00    -0.006 C 
ATOM      7  C   UNL     1     170.126 166.988 169.492  1.00  0.00     0.013 C 
ATOM      8  C   UNL     1     171.792 168.609 169.007  1.00  0.00     0.126 C 
ATOM      9  C   UNL     1     170.866 167.188 167.056  1.00  0.00     0.014 C 
ATOM     10  C   UNL     1     170.719 169.609 171.109  1.00  0.00     0.014 C 
ENDROOT
BRANCH   8  11
ATOM     11  O   UNL     1     173.107 168.838 168.564  1.00  0.00    -0.392 OA
ATOM     12  H   UNL     1     173.647 169.029 169.375  1.00  0.00     0.211 HD
ENDBRANCH   8  11
TORSDOF 1
ENDMDL
MODEL 8
REMARK VINA RESULT:    -3.610      8.103      9.179
REMARK INTER + INTRA:          -3.716
REMARK INTER:                  -3.716
REMARK INTRA:                   0.000
REMARK UNBOUND:                 0.000
REMARK SMILES CC1(C)[C@@H]2CC[C@@](C)(C2)[C@@H]1O
REMARK SMILES IDX 1 1 2 2 4 3 5 4 6 5 7 6 9 7 10 8 8 9 3 10 11 11
REMARK H PARENT 11 12
REMARK Flexibility Score: inf
ROOT
ATOM      1  C   UNL     1     158.221 162.619 171.284  1.00  0.00     0.014 C 
ATOM      2  C   UNL     1     159.573 162.732 170.533  1.00  0.00    -0.006 C 
ATOM      3  C   UNL     1     160.278 164.118 170.733  1.00  0.00    -0.002 C 
ATOM      4  C   UNL     1     159.300 165.284 170.480  1.00  0.00     0.005 C 
ATOM      5  C   UNL     1     159.038 165.186 168.968  1.00  0.00     0.010 C 
ATOM      6  C   UNL     1     159.992 164.048 168.530  1.00  0.00    -0.006 C 
ATOM      7  C   UNL     1     161.147 164.233 169.491  1.00  0.00     0.013 C 
ATOM      8  C   UNL     1     159.433 162.672 168.975  1.00  0.00     0.126 C 
ATOM      9  C   UNL     1     160.393 164.110 167.053  1.00  0.00     0.014 C 
ATOM     10  C   UNL     1     160.484 161.592 171.049  1.00  0.00     0.014 C 
ENDROOT
BRANCH   8  11
ATOM     11  O   UNL     1     158.111 162.491 168.533  1.00  0.00    -0.392 OA
ATOM     12  H   UNL     1     158.109 162.698 167.562  1.00  0.00     0.211 HD
ENDBRANCH   8  11
TORSDOF 1
ENDMDL
MODEL 9
REMARK VINA RESULT:    -3.593      0.908      3.301
REMARK INTER + INTRA:          -3.698
REMARK INTER:                  -3.698
REMARK INTRA:                   0.000
REMARK UNBOUND:                 0.000
REMARK SMILES CC1(C)[C@@H]2CC[C@@](C)(C2)[C@@H]1O
REMARK SMILES IDX 1 1 2 2 4 3 5 4 6 5 7 6 9 7 10 8 8 9 3 10 11 11
REMARK H PARENT 11 12
REMARK Flexibility Score: inf
ROOT
ATOM      1  C   UNL     1     167.351 160.144 167.504  1.00  0.00     0.014 C 
ATOM      2  C   UNL     1     167.155 160.208 169.041  1.00  0.00    -0.006 C 
ATOM      3  C   UNL     1     168.473 159.935 169.845  1.00  0.00    -0.002 C 
ATOM      4  C   UNL     1     169.184 158.663 169.337  1.00  0.00     0.005 C 
ATOM      5  C   UNL     1     168.220 157.543 169.762  1.00  0.00     0.010 C 
ATOM      6  C   UNL     1     167.138 158.309 170.561  1.00  0.00    -0.006 C 
ATOM      7  C   UNL     1     167.951 159.427 171.179  1.00  0.00     0.013 C 
ATOM      8  C   UNL     1     166.208 159.094 169.600  1.00  0.00     0.126 C 
ATOM      9  C   UNL     1     166.392 157.443 171.580  1.00  0.00     0.014 C 
ATOM     10  C   UNL     1     166.608 161.616 169.378  1.00  0.00     0.014 C 
ENDROOT
BRANCH   8  11
ATOM     11  O   UNL     1     165.676 158.254 168.606  1.00  0.00    -0.392 OA
ATOM     12  H   UNL     1     164.819 158.666 168.320  1.00  0.00     0.211 HD
ENDBRANCH   8  11
TORSDOF 1
ENDMDL
