MODEL 1
REMARK VINA RESULT:    -3.551      0.000      0.000
REMARK INTER + INTRA:          -7.756
REMARK INTER:                  -6.457
REMARK INTRA:                  -1.299
REMARK UNBOUND:                -1.299
REMARK SMILES CCCCCCCCCCCCCCCC(=O)[O-]
REMARK SMILES IDX 9 1 10 2 11 3 12 4 13 5 14 6 15 7 16 8 17 9 18 10 8 11 7 12
REMARK SMILES IDX 6 13 5 14 4 15 3 16 2 17 1 18
REMARK H PARENT
REMARK Flexibility Score: inf
ROOT
ATOM      1  C   UNL     1      15.803  -8.566   6.114  1.00  0.00     0.000 C 
ENDROOT
BRANCH   1   2
ATOM      2  C   UNL     1      14.359  -8.980   6.450  1.00  0.00     0.000 C 
BRANCH   2   3
ATOM      3  C   UNL     1      13.269  -8.288   5.611  1.00  0.00     0.000 C 
BRANCH   3   4
ATOM      4  C   UNL     1      11.951  -8.103   6.377  1.00  0.00     0.000 C 
BRANCH   4   5
ATOM      5  C   UNL     1      10.805  -7.746   5.417  1.00  0.00     0.000 C 
BRANCH   5   6
ATOM      6  C   UNL     1       9.748  -8.858   5.316  1.00  0.00     0.006 C 
BRANCH   6   7
ATOM      7  C   UNL     1       9.352  -9.422   6.686  1.00  0.00     0.053 C 
BRANCH   7   8
ATOM      8  C   UNL     1       8.039  -8.854   7.124  1.00  0.00     0.041 C 
ATOM      9  O   UNL     1       7.380  -8.111   6.348  1.00  0.00    -0.550 OA
ATOM     10  O   UNL     1       7.519  -9.182   8.370  1.00  0.00    -0.550 OA
ENDBRANCH   7   8
ENDBRANCH   6   7
ENDBRANCH   5   6
ENDBRANCH   4   5
ENDBRANCH   3   4
ENDBRANCH   2   3
ENDBRANCH   1   2
BRANCH   1  11
ATOM     11  C   UNL     1      15.918  -7.090   5.697  1.00  0.00     0.000 C 
BRANCH  11  12
ATOM     12  C   UNL     1      16.733  -6.898   4.406  1.00  0.00    -0.000 C 
BRANCH  12  13
ATOM     13  C   UNL     1      18.020  -7.742   4.315  1.00  0.00    -0.000 C 
BRANCH  13  14
ATOM     14  C   UNL     1      19.299  -6.969   4.698  1.00  0.00    -0.000 C 
BRANCH  14  15
ATOM     15  C   UNL     1      20.217  -7.787   5.625  1.00  0.00    -0.000 C 
BRANCH  15  16
ATOM     16  C   UNL     1      19.431  -8.694   6.584  1.00  0.00    -0.000 C 
BRANCH  16  17
ATOM     17  C   UNL     1      19.560  -8.258   8.051  1.00  0.00    -0.003 C 
ATOM     18  C   UNL     1      18.709  -7.023   8.333  1.00  0.00     0.004 C 
ENDBRANCH  16  17
ENDBRANCH  15  16
ENDBRANCH  14  15
ENDBRANCH  13  14
ENDBRANCH  12  13
ENDBRANCH  11  12
ENDBRANCH   1  11
TORSDOF 14
ENDMDL
MODEL 2
REMARK VINA RESULT:    -3.508      4.197      9.405
REMARK INTER + INTRA:          -7.677
REMARK INTER:                  -6.807
REMARK INTRA:                  -0.870
REMARK UNBOUND:                -1.299
REMARK SMILES CCCCCCCCCCCCCCCC(=O)[O-]
REMARK SMILES IDX 9 1 10 2 11 3 12 4 13 5 14 6 15 7 16 8 17 9 18 10 8 11 7 12
REMARK SMILES IDX 6 13 5 14 4 15 3 16 2 17 1 18
REMARK H PARENT
REMARK Flexibility Score: inf
ROOT
ATOM      1  C   UNL     1      12.900  -8.237   5.837  1.00  0.00     0.000 C 
ENDROOT
BRANCH   1   2
ATOM      2  C   UNL     1      13.939  -8.637   6.900  1.00  0.00     0.000 C 
BRANCH   2   3
ATOM      3  C   UNL     1      14.856  -9.810   6.506  1.00  0.00     0.000 C 
BRANCH   3   4
ATOM      4  C   UNL     1      15.758  -9.488   5.305  1.00  0.00     0.000 C 
BRANCH   4   5
ATOM      5  C   UNL     1      17.207  -9.248   5.758  1.00  0.00     0.000 C 
BRANCH   5   6
ATOM      6  C   UNL     1      17.490  -7.773   6.085  1.00  0.00     0.006 C 
BRANCH   6   7
ATOM      7  C   UNL     1      18.965  -7.513   6.412  1.00  0.00     0.053 C 
BRANCH   7   8
ATOM      8  C   UNL     1      19.203  -7.644   7.884  1.00  0.00     0.041 C 
ATOM      9  O   UNL     1      18.915  -6.693   8.659  1.00  0.00    -0.550 OA
ATOM     10  O   UNL     1      19.698  -8.832   8.406  1.00  0.00    -0.550 OA
ENDBRANCH   7   8
ENDBRANCH   6   7
ENDBRANCH   5   6
ENDBRANCH   4   5
ENDBRANCH   3   4
ENDBRANCH   2   3
ENDBRANCH   1   2
BRANCH   1  11
ATOM     11  C   UNL     1      11.463  -8.215   6.386  1.00  0.00     0.000 C 
BRANCH  11  12
ATOM     12  C   UNL     1      10.414  -8.583   5.322  1.00  0.00    -0.000 C 
BRANCH  12  13
ATOM     13  C   UNL     1       9.321  -9.563   5.795  1.00  0.00    -0.000 C 
BRANCH  13  14
ATOM     14  C   UNL     1       8.867  -9.333   7.252  1.00  0.00    -0.000 C 
BRANCH  14  15
ATOM     15  C   UNL     1       7.368  -8.994   7.346  1.00  0.00    -0.000 C 
BRANCH  15  16
ATOM     16  C   UNL     1       6.666  -9.032   5.980  1.00  0.00    -0.000 C 
BRANCH  16  17
ATOM     17  C   UNL     1       6.068  -7.674   5.584  1.00  0.00    -0.003 C 
ATOM     18  C   UNL     1       6.400  -6.604   6.620  1.00  0.00     0.004 C 
ENDBRANCH  16  17
ENDBRANCH  15  16
ENDBRANCH  14  15
ENDBRANCH  13  14
ENDBRANCH  12  13
ENDBRANCH  11  12
ENDBRANCH   1  11
TORSDOF 14
ENDMDL
MODEL 3
REMARK VINA RESULT:    -3.384      1.451      2.779
REMARK INTER + INTRA:          -7.453
REMARK INTER:                  -6.665
REMARK INTRA:                  -0.787
REMARK UNBOUND:                -1.299
REMARK SMILES CCCCCCCCCCCCCCCC(=O)[O-]
REMARK SMILES IDX 9 1 10 2 11 3 12 4 13 5 14 6 15 7 16 8 17 9 18 10 8 11 7 12
REMARK SMILES IDX 6 13 5 14 4 15 3 16 2 17 1 18
REMARK H PARENT
REMARK Flexibility Score: inf
ROOT
ATOM      1  C   UNL     1      12.681  -7.915   5.407  1.00  0.00     0.000 C 
ENDROOT
BRANCH   1   2
ATOM      2  C   UNL     1      11.181  -7.814   5.737  1.00  0.00     0.000 C 
BRANCH   2   3
ATOM      3  C   UNL     1      10.260  -8.675   4.854  1.00  0.00     0.000 C 
BRANCH   3   4
ATOM      4  C   UNL     1       9.396  -9.653   5.664  1.00  0.00     0.000 C 
BRANCH   4   5
ATOM      5  C   UNL     1       8.823  -8.969   6.916  1.00  0.00     0.000 C 
BRANCH   5   6
ATOM      6  C   UNL     1       7.286  -8.986   6.949  1.00  0.00     0.006 C 
BRANCH   6   7
ATOM      7  C   UNL     1       6.662  -8.416   5.670  1.00  0.00     0.053 C 
BRANCH   7   8
ATOM      8  C   UNL     1       6.074  -7.065   5.933  1.00  0.00     0.041 C 
ATOM      9  O   UNL     1       5.310  -6.531   5.087  1.00  0.00    -0.550 OA
ATOM     10  O   UNL     1       6.332  -6.417   7.135  1.00  0.00    -0.550 OA
ENDBRANCH   7   8
ENDBRANCH   6   7
ENDBRANCH   5   6
ENDBRANCH   4   5
ENDBRANCH   3   4
ENDBRANCH   2   3
ENDBRANCH   1   2
BRANCH   1  11
ATOM     11  C   UNL     1      13.498  -8.567   6.536  1.00  0.00     0.000 C 
BRANCH  11  12
ATOM     12  C   UNL     1      15.013  -8.355   6.373  1.00  0.00    -0.000 C 
BRANCH  12  13
ATOM     13  C   UNL     1      15.422  -7.432   5.208  1.00  0.00    -0.000 C 
BRANCH  13  14
ATOM     14  C   UNL     1      16.937  -7.146   5.143  1.00  0.00    -0.000 C 
BRANCH  14  15
ATOM     15  C   UNL     1      17.740  -8.052   6.093  1.00  0.00    -0.000 C 
BRANCH  15  16
ATOM     16  C   UNL     1      19.029  -7.386   6.598  1.00  0.00    -0.000 C 
BRANCH  16  17
ATOM     17  C   UNL     1      19.084  -7.288   8.130  1.00  0.00    -0.003 C 
ATOM     18  C   UNL     1      19.568  -8.598   8.747  1.00  0.00     0.004 C 
ENDBRANCH  16  17
ENDBRANCH  15  16
ENDBRANCH  14  15
ENDBRANCH  13  14
ENDBRANCH  12  13
ENDBRANCH  11  12
ENDBRANCH   1  11
TORSDOF 14
ENDMDL
MODEL 4
REMARK VINA RESULT:    -3.360      3.932      8.860
REMARK INTER + INTRA:          -7.409
REMARK INTER:                  -6.326
REMARK INTRA:                  -1.083
REMARK UNBOUND:                -1.299
REMARK SMILES CCCCCCCCCCCCCCCC(=O)[O-]
REMARK SMILES IDX 9 1 10 2 11 3 12 4 13 5 14 6 15 7 16 8 17 9 18 10 8 11 7 12
REMARK SMILES IDX 6 13 5 14 4 15 3 16 2 17 1 18
REMARK H PARENT
REMARK Flexibility Score: inf
ROOT
ATOM      1  C   UNL     1      14.136  -8.618   6.924  1.00  0.00     0.000 C 
ENDROOT
BRANCH   1   2
ATOM      2  C   UNL     1      15.427  -8.075   6.286  1.00  0.00     0.000 C 
BRANCH   2   3
ATOM      3  C   UNL     1      16.142  -9.048   5.331  1.00  0.00     0.000 C 
BRANCH   3   4
ATOM      4  C   UNL     1      16.854  -8.334   4.171  1.00  0.00     0.000 C 
BRANCH   4   5
ATOM      5  C   UNL     1      17.755  -7.205   4.695  1.00  0.00     0.000 C 
BRANCH   5   6
ATOM      6  C   UNL     1      19.193  -7.675   4.970  1.00  0.00     0.006 C 
BRANCH   6   7
ATOM      7  C   UNL     1      19.786  -7.050   6.239  1.00  0.00     0.053 C 
BRANCH   7   8
ATOM      8  C   UNL     1      19.196  -7.688   7.457  1.00  0.00     0.041 C 
ATOM      9  O   UNL     1      19.592  -8.823   7.833  1.00  0.00    -0.550 OA
ATOM     10  O   UNL     1      18.243  -7.008   8.206  1.00  0.00    -0.550 OA
ENDBRANCH   7   8
ENDBRANCH   6   7
ENDBRANCH   5   6
ENDBRANCH   4   5
ENDBRANCH   3   4
ENDBRANCH   2   3
ENDBRANCH   1   2
BRANCH   1  11
ATOM     11  C   UNL     1      12.976  -8.733   5.920  1.00  0.00     0.000 C 
BRANCH  11  12
ATOM     12  C   UNL     1      11.769  -7.860   6.302  1.00  0.00    -0.000 C 
BRANCH  12  13
ATOM     13  C   UNL     1      10.545  -7.997   5.375  1.00  0.00    -0.000 C 
BRANCH  13  14
ATOM     14  C   UNL     1      10.155  -9.459   5.071  1.00  0.00    -0.000 C 
BRANCH  14  15
ATOM     15  C   UNL     1       8.780  -9.828   5.657  1.00  0.00    -0.000 C 
BRANCH  15  16
ATOM     16  C   UNL     1       8.760  -9.785   7.193  1.00  0.00    -0.000 C 
BRANCH  16  17
ATOM     17  C   UNL     1       7.781  -8.737   7.743  1.00  0.00    -0.003 C 
ATOM     18  C   UNL     1       7.024  -8.046   6.613  1.00  0.00     0.004 C 
ENDBRANCH  16  17
ENDBRANCH  15  16
ENDBRANCH  14  15
ENDBRANCH  13  14
ENDBRANCH  12  13
ENDBRANCH  11  12
ENDBRANCH   1  11
TORSDOF 14
ENDMDL
MODEL 5
REMARK VINA RESULT:    -3.344      1.329      2.621
REMARK INTER + INTRA:          -7.381
REMARK INTER:                  -6.196
REMARK INTRA:                  -1.185
REMARK UNBOUND:                -1.299
REMARK SMILES CCCCCCCCCCCCCCCC(=O)[O-]
REMARK SMILES IDX 9 1 10 2 11 3 12 4 13 5 14 6 15 7 16 8 17 9 18 10 8 11 7 12
REMARK SMILES IDX 6 13 5 14 4 15 3 16 2 17 1 18
REMARK H PARENT
REMARK Flexibility Score: inf
ROOT
ATOM      1  C   UNL     1      12.903  -8.576   6.706  1.00  0.00     0.000 C 
ENDROOT
BRANCH   1   2
ATOM      2  C   UNL     1      12.204  -7.931   5.496  1.00  0.00     0.000 C 
BRANCH   2   3
ATOM      3  C   UNL     1      10.674  -8.103   5.458  1.00  0.00     0.000 C 
BRANCH   3   4
ATOM      4  C   UNL     1      10.240  -9.510   5.020  1.00  0.00     0.000 C 
BRANCH   4   5
ATOM      5  C   UNL     1       9.049 -10.001   5.859  1.00  0.00     0.000 C 
BRANCH   5   6
ATOM      6  C   UNL     1       8.849  -9.178   7.141  1.00  0.00     0.006 C 
BRANCH   6   7
ATOM      7  C   UNL     1       7.388  -8.762   7.353  1.00  0.00     0.053 C 
BRANCH   7   8
ATOM      8  C   UNL     1       6.841  -8.129   6.112  1.00  0.00     0.041 C 
ATOM      9  O   UNL     1       7.269  -7.007   5.732  1.00  0.00    -0.550 OA
ATOM     10  O   UNL     1       5.893  -8.799   5.349  1.00  0.00    -0.550 OA
ENDBRANCH   7   8
ENDBRANCH   6   7
ENDBRANCH   5   6
ENDBRANCH   4   5
ENDBRANCH   3   4
ENDBRANCH   2   3
ENDBRANCH   1   2
BRANCH   1  11
ATOM     11  C   UNL     1      14.429  -8.666   6.537  1.00  0.00     0.000 C 
BRANCH  11  12
ATOM     12  C   UNL     1      14.954  -7.779   5.394  1.00  0.00    -0.000 C 
BRANCH  12  13
ATOM     13  C   UNL     1      16.270  -7.034   5.698  1.00  0.00    -0.000 C 
BRANCH  13  14
ATOM     14  C   UNL     1      16.643  -7.018   7.196  1.00  0.00    -0.000 C 
BRANCH  14  15
ATOM     15  C   UNL     1      18.121  -7.381   7.430  1.00  0.00    -0.000 C 
BRANCH  15  16
ATOM     16  C   UNL     1      18.756  -8.083   6.220  1.00  0.00    -0.000 C 
BRANCH  16  17
ATOM     17  C   UNL     1      20.018  -7.365   5.715  1.00  0.00    -0.003 C 
ATOM     18  C   UNL     1      19.732  -6.592   4.430  1.00  0.00     0.004 C 
ENDBRANCH  16  17
ENDBRANCH  15  16
ENDBRANCH  14  15
ENDBRANCH  13  14
ENDBRANCH  12  13
ENDBRANCH  11  12
ENDBRANCH   1  11
TORSDOF 14
ENDMDL
MODEL 6
REMARK VINA RESULT:    -3.053      5.033      9.776
REMARK INTER + INTRA:          -6.850
REMARK INTER:                  -6.146
REMARK INTRA:                  -0.704
REMARK UNBOUND:                -1.299
REMARK SMILES CCCCCCCCCCCCCCCC(=O)[O-]
REMARK SMILES IDX 9 1 10 2 11 3 12 4 13 5 14 6 15 7 16 8 17 9 18 10 8 11 7 12
REMARK SMILES IDX 6 13 5 14 4 15 3 16 2 17 1 18
REMARK H PARENT
REMARK Flexibility Score: inf
ROOT
ATOM      1  C   UNL     1      14.364  -7.940   5.062  1.00  0.00     0.000 C 
ENDROOT
BRANCH   1   2
ATOM      2  C   UNL     1      15.239  -9.066   5.640  1.00  0.00     0.000 C 
BRANCH   2   3
ATOM      3  C   UNL     1      16.755  -8.800   5.602  1.00  0.00     0.000 C 
BRANCH   3   4
ATOM      4  C   UNL     1      17.098  -7.312   5.439  1.00  0.00     0.000 C 
BRANCH   4   5
ATOM      5  C   UNL     1      18.052  -7.096   4.254  1.00  0.00     0.000 C 
BRANCH   5   6
ATOM      6  C   UNL     1      19.476  -7.600   4.541  1.00  0.00     0.006 C 
BRANCH   6   7
ATOM      7  C   UNL     1      20.180  -6.788   5.635  1.00  0.00     0.053 C 
BRANCH   7   8
ATOM      8  C   UNL     1      21.236  -5.913   5.036  1.00  0.00     0.041 C 
ATOM      9  O   UNL     1      20.971  -4.722   4.723  1.00  0.00    -0.550 OA
ATOM     10  O   UNL     1      22.528  -6.397   4.869  1.00  0.00    -0.550 OA
ENDBRANCH   7   8
ENDBRANCH   6   7
ENDBRANCH   5   6
ENDBRANCH   4   5
ENDBRANCH   3   4
ENDBRANCH   2   3
ENDBRANCH   1   2
BRANCH   1  11
ATOM     11  C   UNL     1      12.920  -8.389   4.780  1.00  0.00     0.000 C 
BRANCH  11  12
ATOM     12  C   UNL     1      11.933  -7.941   5.871  1.00  0.00    -0.000 C 
BRANCH  12  13
ATOM     13  C   UNL     1      10.604  -8.721   5.909  1.00  0.00    -0.000 C 
BRANCH  13  14
ATOM     14  C   UNL     1       9.417  -7.958   5.283  1.00  0.00    -0.000 C 
BRANCH  14  15
ATOM     15  C   UNL     1       8.099  -8.748   5.387  1.00  0.00    -0.000 C 
BRANCH  15  16
ATOM     16  C   UNL     1       7.165  -8.200   6.477  1.00  0.00    -0.000 C 
BRANCH  16  17
ATOM     17  C   UNL     1       7.603  -8.608   7.891  1.00  0.00    -0.003 C 
ATOM     18  C   UNL     1       7.725 -10.125   8.013  1.00  0.00     0.004 C 
ENDBRANCH  16  17
ENDBRANCH  15  16
ENDBRANCH  14  15
ENDBRANCH  13  14
ENDBRANCH  12  13
ENDBRANCH  11  12
ENDBRANCH   1  11
TORSDOF 14
ENDMDL
MODEL 7
REMARK VINA RESULT:    -2.832      3.940      8.235
REMARK INTER + INTRA:          -6.449
REMARK INTER:                  -5.707
REMARK INTRA:                  -0.743
REMARK UNBOUND:                -1.299
REMARK SMILES CCCCCCCCCCCCCCCC(=O)[O-]
REMARK SMILES IDX 9 1 10 2 11 3 12 4 13 5 14 6 15 7 16 8 17 9 18 10 8 11 7 12
REMARK SMILES IDX 6 13 5 14 4 15 3 16 2 17 1 18
REMARK H PARENT
REMARK Flexibility Score: inf
ROOT
ATOM      1  C   UNL     1      16.525  -6.555   4.183  1.00  0.00     0.000 C 
ENDROOT
BRANCH   1   2
ATOM      2  C   UNL     1      17.712  -7.519   4.016  1.00  0.00     0.000 C 
BRANCH   2   3
ATOM      3  C   UNL     1      18.975  -7.144   4.814  1.00  0.00     0.000 C 
BRANCH   3   4
ATOM      4  C   UNL     1      20.091  -8.194   4.697  1.00  0.00     0.000 C 
BRANCH   4   5
ATOM      5  C   UNL     1      19.879  -9.332   5.707  1.00  0.00     0.000 C 
BRANCH   5   6
ATOM      6  C   UNL     1      18.897  -8.955   6.828  1.00  0.00     0.006 C 
BRANCH   6   7
ATOM      7  C   UNL     1      19.594  -8.299   8.027  1.00  0.00     0.053 C 
BRANCH   7   8
ATOM      8  C   UNL     1      18.891  -7.036   8.411  1.00  0.00     0.041 C 
ATOM      9  O   UNL     1      17.634  -6.970   8.362  1.00  0.00    -0.550 OA
ATOM     10  O   UNL     1      19.620  -5.945   8.870  1.00  0.00    -0.550 OA
ENDBRANCH   7   8
ENDBRANCH   6   7
ENDBRANCH   5   6
ENDBRANCH   4   5
ENDBRANCH   3   4
ENDBRANCH   2   3
ENDBRANCH   1   2
BRANCH   1  11
ATOM     11  C   UNL     1      15.168  -7.225   3.908  1.00  0.00     0.000 C 
BRANCH  11  12
ATOM     12  C   UNL     1      14.959  -8.507   4.733  1.00  0.00    -0.000 C 
BRANCH  12  13
ATOM     13  C   UNL     1      14.785  -8.286   6.249  1.00  0.00    -0.000 C 
BRANCH  13  14
ATOM     14  C   UNL     1      13.355  -8.565   6.759  1.00  0.00    -0.000 C 
BRANCH  14  15
ATOM     15  C   UNL     1      12.282  -7.954   5.839  1.00  0.00    -0.000 C 
BRANCH  15  16
ATOM     16  C   UNL     1      10.960  -8.736   5.871  1.00  0.00    -0.000 C 
BRANCH  16  17
ATOM     17  C   UNL     1       9.811  -7.985   5.181  1.00  0.00    -0.003 C 
ATOM     18  C   UNL     1       8.458  -8.580   5.563  1.00  0.00     0.004 C 
ENDBRANCH  16  17
ENDBRANCH  15  16
ENDBRANCH  14  15
ENDBRANCH  13  14
ENDBRANCH  12  13
ENDBRANCH  11  12
ENDBRANCH   1  11
TORSDOF 14
ENDMDL
MODEL 8
REMARK VINA RESULT:    -2.826      4.422      9.342
REMARK INTER + INTRA:          -6.438
REMARK INTER:                  -5.561
REMARK INTRA:                  -0.877
REMARK UNBOUND:                -1.299
REMARK SMILES CCCCCCCCCCCCCCCC(=O)[O-]
REMARK SMILES IDX 9 1 10 2 11 3 12 4 13 5 14 6 15 7 16 8 17 9 18 10 8 11 7 12
REMARK SMILES IDX 6 13 5 14 4 15 3 16 2 17 1 18
REMARK H PARENT
REMARK Flexibility Score: inf
ROOT
ATOM      1  C   UNL     1      11.446  -7.655   4.700  1.00  0.00     0.000 C 
ENDROOT
BRANCH   1   2
ATOM      2  C   UNL     1      12.664  -8.108   3.876  1.00  0.00     0.000 C 
BRANCH   2   3
ATOM      3  C   UNL     1      13.944  -7.279   4.092  1.00  0.00     0.000 C 
BRANCH   3   4
ATOM      4  C   UNL     1      14.786  -7.777   5.276  1.00  0.00     0.000 C 
BRANCH   4   5
ATOM      5  C   UNL     1      16.147  -7.063   5.318  1.00  0.00     0.000 C 
BRANCH   5   6
ATOM      6  C   UNL     1      16.958  -7.408   6.577  1.00  0.00     0.006 C 
BRANCH   6   7
ATOM      7  C   UNL     1      18.036  -8.468   6.313  1.00  0.00     0.053 C 
BRANCH   7   8
ATOM      8  C   UNL     1      19.361  -8.002   6.828  1.00  0.00     0.041 C 
ATOM      9  O   UNL     1      19.419  -7.213   7.808  1.00  0.00    -0.550 OA
ATOM     10  O   UNL     1      20.535  -8.478   6.257  1.00  0.00    -0.550 OA
ENDBRANCH   7   8
ENDBRANCH   6   7
ENDBRANCH   5   6
ENDBRANCH   4   5
ENDBRANCH   3   4
ENDBRANCH   2   3
ENDBRANCH   1   2
BRANCH   1  11
ATOM     11  C   UNL     1      11.097  -8.631   5.836  1.00  0.00     0.000 C 
BRANCH  11  12
ATOM     12  C   UNL     1       9.804  -9.421   5.566  1.00  0.00    -0.000 C 
BRANCH  12  13
ATOM     13  C   UNL     1       9.123  -9.116   4.217  1.00  0.00    -0.000 C 
BRANCH  13  14
ATOM     14  C   UNL     1       7.763  -8.398   4.356  1.00  0.00    -0.000 C 
BRANCH  14  15
ATOM     15  C   UNL     1       6.985  -8.863   5.601  1.00  0.00    -0.000 C 
BRANCH  15  16
ATOM     16  C   UNL     1       6.881  -7.771   6.676  1.00  0.00    -0.000 C 
BRANCH  16  17
ATOM     17  C   UNL     1       7.453  -8.217   8.030  1.00  0.00    -0.003 C 
ATOM     18  C   UNL     1       7.436  -9.737   8.159  1.00  0.00     0.004 C 
ENDBRANCH  16  17
ENDBRANCH  15  16
ENDBRANCH  14  15
ENDBRANCH  13  14
ENDBRANCH  12  13
ENDBRANCH  11  12
ENDBRANCH   1  11
TORSDOF 14
ENDMDL
MODEL 9
REMARK VINA RESULT:    -2.577      4.731      9.481
REMARK INTER + INTRA:          -5.986
REMARK INTER:                  -5.290
REMARK INTRA:                  -0.696
REMARK UNBOUND:                -1.299
REMARK SMILES CCCCCCCCCCCCCCCC(=O)[O-]
REMARK SMILES IDX 9 1 10 2 11 3 12 4 13 5 14 6 15 7 16 8 17 9 18 10 8 11 7 12
REMARK SMILES IDX 6 13 5 14 4 15 3 16 2 17 1 18
REMARK H PARENT
REMARK Flexibility Score: inf
ROOT
ATOM      1  C   UNL     1      16.274  -7.271   6.231  1.00  0.00     0.000 C 
ENDROOT
BRANCH   1   2
ATOM      2  C   UNL     1      17.239  -8.465   6.334  1.00  0.00     0.000 C 
BRANCH   2   3
ATOM      3  C   UNL     1      18.725  -8.092   6.486  1.00  0.00     0.000 C 
BRANCH   3   4
ATOM      4  C   UNL     1      19.648  -8.928   5.587  1.00  0.00     0.000 C 
BRANCH   4   5
ATOM      5  C   UNL     1      21.113  -8.493   5.750  1.00  0.00     0.000 C 
BRANCH   5   6
ATOM      6  C   UNL     1      21.646  -7.733   4.525  1.00  0.00     0.006 C 
BRANCH   6   7
ATOM      7  C   UNL     1      21.976  -6.268   4.836  1.00  0.00     0.053 C 
BRANCH   7   8
ATOM      8  C   UNL     1      20.926  -5.366   4.270  1.00  0.00     0.041 C 
ATOM      9  O   UNL     1      19.827  -5.840   3.877  1.00  0.00    -0.550 OA
ATOM     10  O   UNL     1      21.141  -3.994   4.219  1.00  0.00    -0.550 OA
ENDBRANCH   7   8
ENDBRANCH   6   7
ENDBRANCH   5   6
ENDBRANCH   4   5
ENDBRANCH   3   4
ENDBRANCH   2   3
ENDBRANCH   1   2
BRANCH   1  11
ATOM     11  C   UNL     1      15.130  -7.512   5.231  1.00  0.00     0.000 C 
BRANCH  11  12
ATOM     12  C   UNL     1      13.945  -8.270   5.852  1.00  0.00    -0.000 C 
BRANCH  12  13
ATOM     13  C   UNL     1      12.847  -8.695   4.856  1.00  0.00    -0.000 C 
BRANCH  13  14
ATOM     14  C   UNL     1      11.927  -7.538   4.414  1.00  0.00    -0.000 C 
BRANCH  14  15
ATOM     15  C   UNL     1      10.676  -7.419   5.303  1.00  0.00    -0.000 C 
BRANCH  15  16
ATOM     16  C   UNL     1       9.874  -8.727   5.375  1.00  0.00    -0.000 C 
BRANCH  16  17
ATOM     17  C   UNL     1       9.343  -9.020   6.787  1.00  0.00    -0.003 C 
ATOM     18  C   UNL     1       7.817  -8.997   6.815  1.00  0.00     0.004 C 
ENDBRANCH  16  17
ENDBRANCH  15  16
ENDBRANCH  14  15
ENDBRANCH  13  14
ENDBRANCH  12  13
ENDBRANCH  11  12
ENDBRANCH   1  11
TORSDOF 14
ENDMDL
