MODEL 1
REMARK VINA RESULT:    -5.332      0.000      0.000
REMARK INTER + INTRA:          -6.691
REMARK INTER:                  -6.423
REMARK INTRA:                  -0.268
REMARK UNBOUND:                -0.268
REMARK SMILES O=c1c(O)c(-c2ccc(O)c(O)c2)oc2cc(O)cc(O)c12
REMARK SMILES IDX 5 1 3 2 2 3 1 4 22 5 20 6 19 7 17 8 16 9 15 10 14 11 6 12
REMARK SMILES IDX 7 13 8 14 9 15 13 16 11 17 10 18 12 20 4 22 21 24 18 26
REMARK H PARENT 10 19 12 21 4 23 21 25 18 27
REMARK Flexibility Score: inf
ROOT
ATOM      1  C   UNL     1      -7.312 -21.022 -17.753  1.00  0.00     0.180 A 
ATOM      2  C   UNL     1      -6.193 -21.703 -17.243  1.00  0.00     0.208 A 
ATOM      3  C   UNL     1      -5.766 -22.881 -17.877  1.00  0.00     0.238 A 
ATOM      4  O   UNL     1      -4.720 -23.444 -17.463  1.00  0.00    -0.285 OA
ATOM      5  C   UNL     1      -6.496 -23.395 -18.977  1.00  0.00     0.111 A 
ATOM      6  C   UNL     1      -6.182 -24.604 -19.667  1.00  0.00     0.134 A 
ATOM      7  C   UNL     1      -6.912 -24.958 -20.809  1.00  0.00     0.093 A 
ATOM      8  C   UNL     1      -7.986 -24.180 -21.247  1.00  0.00     0.123 A 
ATOM      9  C   UNL     1      -8.336 -23.028 -20.547  1.00  0.00     0.094 A 
ATOM     10  C   UNL     1      -7.603 -22.627 -19.428  1.00  0.00     0.146 A 
ATOM     11  O   UNL     1      -7.957 -21.510 -18.805  1.00  0.00    -0.452 OA
ENDROOT
BRANCH   1  12
ATOM     12  C   UNL     1      -7.813 -19.767 -17.147  1.00  0.00     0.025 A 
ATOM     13  C   UNL     1      -7.611 -18.522 -17.768  1.00  0.00     0.016 A 
ATOM     14  C   UNL     1      -8.115 -17.354 -17.191  1.00  0.00     0.051 A 
ATOM     15  C   UNL     1      -8.839 -17.413 -15.992  1.00  0.00     0.157 A 
ATOM     16  C   UNL     1      -8.558 -19.823 -15.958  1.00  0.00     0.062 A 
ATOM     17  C   UNL     1      -9.063 -18.656 -15.376  1.00  0.00     0.158 A 
BRANCH  15  18
ATOM     18  O   UNL     1      -9.339 -16.246 -15.418  1.00  0.00    -0.504 OA
ATOM     19  H   UNL     1     -10.239 -15.865 -15.686  1.00  0.00     0.293 HD
ENDBRANCH  15  18
BRANCH  17  20
ATOM     20  O   UNL     1      -9.786 -18.749 -14.187  1.00  0.00    -0.504 OA
ATOM     21  H   UNL     1     -10.759 -19.033 -14.169  1.00  0.00     0.293 HD
ENDBRANCH  17  20
ENDBRANCH   1  12
BRANCH   2  22
ATOM     22  O   UNL     1      -5.531 -21.221 -16.111  1.00  0.00    -0.502 OA
ATOM     23  H   UNL     1      -5.698 -21.592 -15.183  1.00  0.00     0.293 HD
ENDBRANCH   2  22
BRANCH   6  24
ATOM     24  O   UNL     1      -5.187 -25.501 -19.264  1.00  0.00    -0.507 OA
ATOM     25  H   UNL     1      -4.195 -25.339 -19.348  1.00  0.00     0.293 HD
ENDBRANCH   6  24
BRANCH   8  26
ATOM     26  O   UNL     1      -8.719 -24.549 -22.372  1.00  0.00    -0.508 OA
ATOM     27  H   UNL     1      -8.782 -25.515 -22.670  1.00  0.00     0.293 HD
ENDBRANCH   8  26
TORSDOF 6
ENDMDL
MODEL 2
REMARK VINA RESULT:    -5.207      3.378      6.827
REMARK INTER + INTRA:          -6.540
REMARK INTER:                  -6.221
REMARK INTRA:                  -0.320
REMARK UNBOUND:                -0.268
REMARK SMILES O=c1c(O)c(-c2ccc(O)c(O)c2)oc2cc(O)cc(O)c12
REMARK SMILES IDX 5 1 3 2 2 3 1 4 22 5 20 6 19 7 17 8 16 9 15 10 14 11 6 12
REMARK SMILES IDX 7 13 8 14 9 15 13 16 11 17 10 18 12 20 4 22 21 24 18 26
REMARK H PARENT 10 19 12 21 4 23 21 25 18 27
REMARK Flexibility Score: inf
ROOT
ATOM      1  C   UNL     1      -7.556 -18.592 -19.278  1.00  0.00     0.180 A 
ATOM      2  C   UNL     1      -7.339 -19.863 -18.718  1.00  0.00     0.208 A 
ATOM      3  C   UNL     1      -7.789 -20.117 -17.413  1.00  0.00     0.238 A 
ATOM      4  O   UNL     1      -7.659 -21.279 -16.945  1.00  0.00    -0.285 OA
ATOM      5  C   UNL     1      -8.399 -19.082 -16.662  1.00  0.00     0.111 A 
ATOM      6  C   UNL     1      -8.852 -19.215 -15.315  1.00  0.00     0.134 A 
ATOM      7  C   UNL     1      -9.537 -18.154 -14.709  1.00  0.00     0.093 A 
ATOM      8  C   UNL     1      -9.728 -16.944 -15.379  1.00  0.00     0.123 A 
ATOM      9  C   UNL     1      -9.241 -16.786 -16.673  1.00  0.00     0.094 A 
ATOM     10  C   UNL     1      -8.588 -17.838 -17.319  1.00  0.00     0.146 A 
ATOM     11  O   UNL     1      -8.160 -17.651 -18.562  1.00  0.00    -0.452 OA
ENDROOT
BRANCH   1  12
ATOM     12  C   UNL     1      -7.124 -18.253 -20.653  1.00  0.00     0.025 A 
ATOM     13  C   UNL     1      -5.861 -17.689 -20.906  1.00  0.00     0.016 A 
ATOM     14  C   UNL     1      -5.465 -17.401 -22.215  1.00  0.00     0.051 A 
ATOM     15  C   UNL     1      -6.319 -17.684 -23.290  1.00  0.00     0.157 A 
ATOM     16  C   UNL     1      -7.966 -18.555 -21.735  1.00  0.00     0.062 A 
ATOM     17  C   UNL     1      -7.574 -18.267 -23.047  1.00  0.00     0.158 A 
BRANCH  15  18
ATOM     18  O   UNL     1      -5.922 -17.394 -24.594  1.00  0.00    -0.504 OA
ATOM     19  H   UNL     1      -5.458 -16.523 -24.827  1.00  0.00     0.293 HD
ENDBRANCH  15  18
BRANCH  17  20
ATOM     20  O   UNL     1      -8.442 -18.568 -24.096  1.00  0.00    -0.504 OA
ATOM     21  H   UNL     1      -8.411 -18.074 -24.980  1.00  0.00     0.293 HD
ENDBRANCH  17  20
ENDBRANCH   1  12
BRANCH   2  22
ATOM     22  O   UNL     1      -6.668 -20.848 -19.447  1.00  0.00    -0.502 OA
ATOM     23  H   UNL     1      -6.029 -21.505 -19.015  1.00  0.00     0.293 HD
ENDBRANCH   2  22
BRANCH   6  24
ATOM     24  O   UNL     1      -8.635 -20.347 -14.522  1.00  0.00    -0.507 OA
ATOM     25  H   UNL     1      -7.750 -20.607 -14.116  1.00  0.00     0.293 HD
ENDBRANCH   6  24
BRANCH   8  26
ATOM     26  O   UNL     1     -10.394 -15.888 -14.762  1.00  0.00    -0.508 OA
ATOM     27  H   UNL     1     -10.154 -15.584 -13.826  1.00  0.00     0.293 HD
ENDBRANCH   8  26
TORSDOF 6
ENDMDL
MODEL 3
REMARK VINA RESULT:    -5.069      2.118      4.112
REMARK INTER + INTRA:          -6.374
REMARK INTER:                  -6.041
REMARK INTRA:                  -0.333
REMARK UNBOUND:                -0.268
REMARK SMILES O=c1c(O)c(-c2ccc(O)c(O)c2)oc2cc(O)cc(O)c12
REMARK SMILES IDX 5 1 3 2 2 3 1 4 22 5 20 6 19 7 17 8 16 9 15 10 14 11 6 12
REMARK SMILES IDX 7 13 8 14 9 15 13 16 11 17 10 18 12 20 4 22 21 24 18 26
REMARK H PARENT 10 19 12 21 4 23 21 25 18 27
REMARK Flexibility Score: inf
ROOT
ATOM      1  C   UNL     1      -6.794 -20.409 -16.746  1.00  0.00     0.180 A 
ATOM      2  C   UNL     1      -7.194 -21.467 -17.579  1.00  0.00     0.208 A 
ATOM      3  C   UNL     1      -6.250 -22.441 -17.943  1.00  0.00     0.238 A 
ATOM      4  O   UNL     1      -6.632 -23.426 -18.627  1.00  0.00    -0.285 OA
ATOM      5  C   UNL     1      -4.905 -22.313 -17.517  1.00  0.00     0.111 A 
ATOM      6  C   UNL     1      -3.854 -23.216 -17.863  1.00  0.00     0.134 A 
ATOM      7  C   UNL     1      -2.585 -23.049 -17.296  1.00  0.00     0.093 A 
ATOM      8  C   UNL     1      -2.311 -21.975 -16.446  1.00  0.00     0.123 A 
ATOM      9  C   UNL     1      -3.315 -21.057 -16.146  1.00  0.00     0.094 A 
ATOM     10  C   UNL     1      -4.602 -21.219 -16.666  1.00  0.00     0.146 A 
ATOM     11  O   UNL     1      -5.534 -20.333 -16.335  1.00  0.00    -0.452 OA
ENDROOT
BRANCH   1  12
ATOM     12  C   UNL     1      -7.736 -19.353 -16.308  1.00  0.00     0.025 A 
ATOM     13  C   UNL     1      -8.522 -19.505 -15.153  1.00  0.00     0.016 A 
ATOM     14  C   UNL     1      -9.384 -18.485 -14.745  1.00  0.00     0.051 A 
ATOM     15  C   UNL     1      -9.464 -17.292 -15.477  1.00  0.00     0.157 A 
ATOM     16  C   UNL     1      -7.803 -18.147 -17.025  1.00  0.00     0.062 A 
ATOM     17  C   UNL     1      -8.666 -17.123 -16.621  1.00  0.00     0.158 A 
BRANCH  15  18
ATOM     18  O   UNL     1     -10.327 -16.276 -15.069  1.00  0.00    -0.504 OA
ATOM     19  H   UNL     1     -10.976 -15.839 -15.713  1.00  0.00     0.293 HD
ENDBRANCH  15  18
BRANCH  17  20
ATOM     20  O   UNL     1      -8.717 -15.945 -17.366  1.00  0.00    -0.504 OA
ATOM     21  H   UNL     1      -7.887 -15.528 -17.772  1.00  0.00     0.293 HD
ENDBRANCH  17  20
ENDBRANCH   1  12
BRANCH   2  22
ATOM     22  O   UNL     1      -8.507 -21.534 -18.051  1.00  0.00    -0.502 OA
ATOM     23  H   UNL     1      -9.149 -22.267 -17.772  1.00  0.00     0.293 HD
ENDBRANCH   2  22
BRANCH   6  24
ATOM     24  O   UNL     1      -3.994 -24.271 -18.772  1.00  0.00    -0.507 OA
ATOM     25  H   UNL     1      -3.520 -25.158 -18.704  1.00  0.00     0.293 HD
ENDBRANCH   6  24
BRANCH   8  26
ATOM     26  O   UNL     1      -1.042 -21.805 -15.900  1.00  0.00    -0.508 OA
ATOM     27  H   UNL     1      -0.662 -20.883 -15.717  1.00  0.00     0.293 HD
ENDBRANCH   8  26
TORSDOF 6
ENDMDL
MODEL 4
REMARK VINA RESULT:    -5.059      8.849     11.645
REMARK INTER + INTRA:          -6.362
REMARK INTER:                  -6.128
REMARK INTRA:                  -0.234
REMARK UNBOUND:                -0.268
REMARK SMILES O=c1c(O)c(-c2ccc(O)c(O)c2)oc2cc(O)cc(O)c12
REMARK SMILES IDX 5 1 3 2 2 3 1 4 22 5 20 6 19 7 17 8 16 9 15 10 14 11 6 12
REMARK SMILES IDX 7 13 8 14 9 15 13 16 11 17 10 18 12 20 4 22 21 24 18 26
REMARK H PARENT 10 19 12 21 4 23 21 25 18 27
REMARK Flexibility Score: inf
ROOT
ATOM      1  C   UNL     1      -1.482 -23.054 -10.755  1.00  0.00     0.180 A 
ATOM      2  C   UNL     1      -1.668 -22.475 -12.021  1.00  0.00     0.208 A 
ATOM      3  C   UNL     1      -0.784 -21.470 -12.446  1.00  0.00     0.238 A 
ATOM      4  O   UNL     1      -0.910 -21.008 -13.610  1.00  0.00    -0.285 OA
ATOM      5  C   UNL     1       0.238 -21.015 -11.577  1.00  0.00     0.111 A 
ATOM      6  C   UNL     1       1.161 -19.970 -11.885  1.00  0.00     0.134 A 
ATOM      7  C   UNL     1       2.197 -19.678 -10.989  1.00  0.00     0.093 A 
ATOM      8  C   UNL     1       2.306 -20.349  -9.769  1.00  0.00     0.123 A 
ATOM      9  C   UNL     1       1.377 -21.331  -9.435  1.00  0.00     0.094 A 
ATOM     10  C   UNL     1       0.355 -21.672 -10.324  1.00  0.00     0.146 A 
ATOM     11  O   UNL     1      -0.495 -22.631  -9.974  1.00  0.00    -0.452 OA
ENDROOT
BRANCH   1  12
ATOM     12  C   UNL     1      -2.363 -24.130 -10.244  1.00  0.00     0.025 A 
ATOM     13  C   UNL     1      -3.691 -23.871  -9.863  1.00  0.00     0.016 A 
ATOM     14  C   UNL     1      -4.510 -24.906  -9.408  1.00  0.00     0.051 A 
ATOM     15  C   UNL     1      -4.020 -26.218  -9.340  1.00  0.00     0.157 A 
ATOM     16  C   UNL     1      -1.884 -25.449 -10.194  1.00  0.00     0.062 A 
ATOM     17  C   UNL     1      -2.701 -26.489  -9.738  1.00  0.00     0.158 A 
BRANCH  15  18
ATOM     18  O   UNL     1      -4.840 -27.248  -8.883  1.00  0.00    -0.504 OA
ATOM     19  H   UNL     1      -5.563 -27.086  -8.191  1.00  0.00     0.293 HD
ENDBRANCH  15  18
BRANCH  17  20
ATOM     20  O   UNL     1      -2.186 -27.785  -9.688  1.00  0.00    -0.504 OA
ATOM     21  H   UNL     1      -2.391 -28.417  -8.924  1.00  0.00     0.293 HD
ENDBRANCH  17  20
ENDBRANCH   1  12
BRANCH   2  22
ATOM     22  O   UNL     1      -2.728 -22.884 -12.834  1.00  0.00    -0.502 OA
ATOM     23  H   UNL     1      -2.645 -23.650 -13.493  1.00  0.00     0.293 HD
ENDBRANCH   2  22
BRANCH   6  24
ATOM     24  O   UNL     1       1.091 -19.176 -13.035  1.00  0.00    -0.507 OA
ATOM     25  H   UNL     1       0.571 -19.409 -13.866  1.00  0.00     0.293 HD
ENDBRANCH   6  24
BRANCH   8  26
ATOM     26  O   UNL     1       3.329 -20.040  -8.876  1.00  0.00    -0.508 OA
ATOM     27  H   UNL     1       3.377 -20.466  -7.958  1.00  0.00     0.293 HD
ENDBRANCH   8  26
TORSDOF 6
ENDMDL
MODEL 5
REMARK VINA RESULT:    -5.015      1.834      1.883
REMARK INTER + INTRA:          -6.309
REMARK INTER:                  -6.071
REMARK INTRA:                  -0.238
REMARK UNBOUND:                -0.268
REMARK SMILES O=c1c(O)c(-c2ccc(O)c(O)c2)oc2cc(O)cc(O)c12
REMARK SMILES IDX 5 1 3 2 2 3 1 4 22 5 20 6 19 7 17 8 16 9 15 10 14 11 6 12
REMARK SMILES IDX 7 13 8 14 9 15 13 16 11 17 10 18 12 20 4 22 21 24 18 26
REMARK H PARENT 10 19 12 21 4 23 21 25 18 27
REMARK Flexibility Score: inf
ROOT
ATOM      1  C   UNL     1      -7.389 -20.860 -19.007  1.00  0.00     0.180 A 
ATOM      2  C   UNL     1      -6.063 -20.826 -19.472  1.00  0.00     0.208 A 
ATOM      3  C   UNL     1      -5.666 -21.739 -20.462  1.00  0.00     0.238 A 
ATOM      4  O   UNL     1      -4.499 -21.654 -20.928  1.00  0.00    -0.285 OA
ATOM      5  C   UNL     1      -6.582 -22.711 -20.935  1.00  0.00     0.111 A 
ATOM      6  C   UNL     1      -6.274 -23.713 -21.903  1.00  0.00     0.134 A 
ATOM      7  C   UNL     1      -7.291 -24.554 -22.374  1.00  0.00     0.093 A 
ATOM      8  C   UNL     1      -8.589 -24.471 -21.863  1.00  0.00     0.123 A 
ATOM      9  C   UNL     1      -8.885 -23.533 -20.877  1.00  0.00     0.094 A 
ATOM     10  C   UNL     1      -7.902 -22.654 -20.416  1.00  0.00     0.146 A 
ATOM     11  O   UNL     1      -8.234 -21.761 -19.492  1.00  0.00    -0.452 OA
ENDROOT
BRANCH   1  12
ATOM     12  C   UNL     1      -7.885 -19.921 -17.975  1.00  0.00     0.025 A 
ATOM     13  C   UNL     1      -8.064 -18.554 -18.253  1.00  0.00     0.016 A 
ATOM     14  C   UNL     1      -8.558 -17.692 -17.271  1.00  0.00     0.051 A 
ATOM     15  C   UNL     1      -8.894 -18.184 -16.002  1.00  0.00     0.157 A 
ATOM     16  C   UNL     1      -8.244 -20.412 -16.710  1.00  0.00     0.062 A 
ATOM     17  C   UNL     1      -8.738 -19.552 -15.723  1.00  0.00     0.158 A 
BRANCH  15  18
ATOM     18  O   UNL     1      -9.384 -17.321 -15.024  1.00  0.00    -0.504 OA
ATOM     19  H   UNL     1      -8.772 -16.886 -14.343  1.00  0.00     0.293 HD
ENDBRANCH  15  18
BRANCH  17  20
ATOM     20  O   UNL     1      -9.070 -20.074 -14.473  1.00  0.00    -0.504 OA
ATOM     21  H   UNL     1      -9.599 -19.543 -13.791  1.00  0.00     0.293 HD
ENDBRANCH  17  20
ENDBRANCH   1  12
BRANCH   2  22
ATOM     22  O   UNL     1      -5.153 -19.910 -18.939  1.00  0.00    -0.502 OA
ATOM     23  H   UNL     1      -4.153 -20.076 -18.933  1.00  0.00     0.293 HD
ENDBRANCH   2  22
BRANCH   6  24
ATOM     24  O   UNL     1      -4.993 -23.943 -22.415  1.00  0.00    -0.507 OA
ATOM     25  H   UNL     1      -4.375 -24.680 -22.115  1.00  0.00     0.293 HD
ENDBRANCH   6  24
BRANCH   8  26
ATOM     26  O   UNL     1      -9.589 -25.323 -22.323  1.00  0.00    -0.508 OA
ATOM     27  H   UNL     1      -9.432 -26.319 -22.424  1.00  0.00     0.293 HD
ENDBRANCH   8  26
TORSDOF 6
ENDMDL
MODEL 6
REMARK VINA RESULT:    -4.971      7.977      9.803
REMARK INTER + INTRA:          -6.255
REMARK INTER:                  -5.969
REMARK INTRA:                  -0.286
REMARK UNBOUND:                -0.268
REMARK SMILES O=c1c(O)c(-c2ccc(O)c(O)c2)oc2cc(O)cc(O)c12
REMARK SMILES IDX 5 1 3 2 2 3 1 4 22 5 20 6 19 7 17 8 16 9 15 10 14 11 6 12
REMARK SMILES IDX 7 13 8 14 9 15 13 16 11 17 10 18 12 20 4 22 21 24 18 26
REMARK H PARENT 10 19 12 21 4 23 21 25 18 27
REMARK Flexibility Score: inf
ROOT
ATOM      1  C   UNL     1      -1.203 -22.120 -11.590  1.00  0.00     0.180 A 
ATOM      2  C   UNL     1      -0.001 -22.791 -11.308  1.00  0.00     0.208 A 
ATOM      3  C   UNL     1      -0.050 -24.019 -10.630  1.00  0.00     0.238 A 
ATOM      4  O   UNL     1       1.023 -24.652 -10.448  1.00  0.00    -0.285 OA
ATOM      5  C   UNL     1      -1.294 -24.534 -10.190  1.00  0.00     0.111 A 
ATOM      6  C   UNL     1      -1.458 -25.746  -9.454  1.00  0.00     0.134 A 
ATOM      7  C   UNL     1      -2.747 -26.210  -9.166  1.00  0.00     0.093 A 
ATOM      8  C   UNL     1      -3.877 -25.474  -9.530  1.00  0.00     0.123 A 
ATOM      9  C   UNL     1      -3.725 -24.262 -10.199  1.00  0.00     0.094 A 
ATOM     10  C   UNL     1      -2.454 -23.791 -10.535  1.00  0.00     0.146 A 
ATOM     11  O   UNL     1      -2.357 -22.642 -11.194  1.00  0.00    -0.452 OA
ENDROOT
BRANCH   1  12
ATOM     12  C   UNL     1      -1.233 -20.829 -12.314  1.00  0.00     0.025 A 
ATOM     13  C   UNL     1      -0.907 -19.621 -11.673  1.00  0.00     0.016 A 
ATOM     14  C   UNL     1      -0.918 -18.418 -12.383  1.00  0.00     0.051 A 
ATOM     15  C   UNL     1      -1.241 -18.406 -13.747  1.00  0.00     0.157 A 
ATOM     16  C   UNL     1      -1.534 -20.814 -13.685  1.00  0.00     0.062 A 
ATOM     17  C   UNL     1      -1.547 -19.611 -14.401  1.00  0.00     0.158 A 
BRANCH  15  18
ATOM     18  O   UNL     1      -1.252 -17.204 -14.453  1.00  0.00    -0.504 OA
ATOM     19  H   UNL     1      -0.402 -16.680 -14.624  1.00  0.00     0.293 HD
ENDBRANCH  15  18
BRANCH  17  20
ATOM     20  O   UNL     1      -1.865 -19.633 -15.759  1.00  0.00    -0.504 OA
ATOM     21  H   UNL     1      -1.282 -19.186 -16.456  1.00  0.00     0.293 HD
ENDBRANCH  17  20
ENDBRANCH   1  12
BRANCH   2  22
ATOM     22  O   UNL     1       1.223 -22.231 -11.683  1.00  0.00    -0.502 OA
ATOM     23  H   UNL     1       2.041 -22.261 -11.087  1.00  0.00     0.293 HD
ENDBRANCH   2  22
BRANCH   6  24
ATOM     24  O   UNL     1      -0.397 -26.515  -8.964  1.00  0.00    -0.507 OA
ATOM     25  H   UNL     1       0.138 -26.300  -8.136  1.00  0.00     0.293 HD
ENDBRANCH   6  24
BRANCH   8  26
ATOM     26  O   UNL     1      -5.155 -25.933  -9.223  1.00  0.00    -0.508 OA
ATOM     27  H   UNL     1      -5.337 -26.471  -8.383  1.00  0.00     0.293 HD
ENDBRANCH   8  26
TORSDOF 6
ENDMDL
MODEL 7
REMARK VINA RESULT:    -4.963      8.723     10.890
REMARK INTER + INTRA:          -6.247
REMARK INTER:                  -5.932
REMARK INTRA:                  -0.314
REMARK UNBOUND:                -0.268
REMARK SMILES O=c1c(O)c(-c2ccc(O)c(O)c2)oc2cc(O)cc(O)c12
REMARK SMILES IDX 5 1 3 2 2 3 1 4 22 5 20 6 19 7 17 8 16 9 15 10 14 11 6 12
REMARK SMILES IDX 7 13 8 14 9 15 13 16 11 17 10 18 12 20 4 22 21 24 18 26
REMARK H PARENT 10 19 12 21 4 23 21 25 18 27
REMARK Flexibility Score: inf
ROOT
ATOM      1  C   UNL     1      -1.253 -22.702 -11.075  1.00  0.00     0.180 A 
ATOM      2  C   UNL     1      -0.039 -22.610 -10.374  1.00  0.00     0.208 A 
ATOM      3  C   UNL     1       0.713 -21.427 -10.468  1.00  0.00     0.238 A 
ATOM      4  O   UNL     1       1.761 -21.322  -9.780  1.00  0.00    -0.285 OA
ATOM      5  C   UNL     1       0.270 -20.374 -11.306  1.00  0.00     0.111 A 
ATOM      6  C   UNL     1       0.974 -19.150 -11.513  1.00  0.00     0.134 A 
ATOM      7  C   UNL     1       0.386 -18.137 -12.281  1.00  0.00     0.093 A 
ATOM      8  C   UNL     1      -0.850 -18.328 -12.902  1.00  0.00     0.123 A 
ATOM      9  C   UNL     1      -1.518 -19.540 -12.752  1.00  0.00     0.094 A 
ATOM     10  C   UNL     1      -0.977 -20.556 -11.961  1.00  0.00     0.146 A 
ATOM     11  O   UNL     1      -1.660 -21.687 -11.827  1.00  0.00    -0.452 OA
ENDROOT
BRANCH   1  12
ATOM     12  C   UNL     1      -2.108 -23.911 -11.013  1.00  0.00     0.025 A 
ATOM     13  C   UNL     1      -1.870 -25.019 -11.844  1.00  0.00     0.016 A 
ATOM     14  C   UNL     1      -2.674 -26.158 -11.750  1.00  0.00     0.051 A 
ATOM     15  C   UNL     1      -3.718 -26.211 -10.816  1.00  0.00     0.157 A 
ATOM     16  C   UNL     1      -3.140 -23.978 -10.064  1.00  0.00     0.062 A 
ATOM     17  C   UNL     1      -3.949 -25.116  -9.967  1.00  0.00     0.158 A 
BRANCH  15  18
ATOM     18  O   UNL     1      -4.519 -27.348 -10.725  1.00  0.00    -0.504 OA
ATOM     19  H   UNL     1      -5.264 -27.420 -10.042  1.00  0.00     0.293 HD
ENDBRANCH  15  18
BRANCH  17  20
ATOM     20  O   UNL     1      -4.974 -25.141  -9.022  1.00  0.00    -0.504 OA
ATOM     21  H   UNL     1      -5.403 -24.293  -8.670  1.00  0.00     0.293 HD
ENDBRANCH  17  20
ENDBRANCH   1  12
BRANCH   2  22
ATOM     22  O   UNL     1       0.419 -23.688  -9.613  1.00  0.00    -0.502 OA
ATOM     23  H   UNL     1       1.373 -24.027  -9.666  1.00  0.00     0.293 HD
ENDBRANCH   2  22
BRANCH   6  24
ATOM     24  O   UNL     1       2.254 -18.887 -11.013  1.00  0.00    -0.507 OA
ATOM     25  H   UNL     1       2.451 -18.338 -10.190  1.00  0.00     0.293 HD
ENDBRANCH   6  24
BRANCH   8  26
ATOM     26  O   UNL     1      -1.418 -17.322 -13.680  1.00  0.00    -0.508 OA
ATOM     27  H   UNL     1      -2.303 -16.896 -13.430  1.00  0.00     0.293 HD
ENDBRANCH   8  26
TORSDOF 6
ENDMDL
MODEL 8
REMARK VINA RESULT:    -4.910      2.085      2.536
REMARK INTER + INTRA:          -6.182
REMARK INTER:                  -6.529
REMARK INTRA:                   0.346
REMARK UNBOUND:                -0.268
REMARK SMILES O=c1c(O)c(-c2ccc(O)c(O)c2)oc2cc(O)cc(O)c12
REMARK SMILES IDX 5 1 3 2 2 3 1 4 22 5 20 6 19 7 17 8 16 9 15 10 14 11 6 12
REMARK SMILES IDX 7 13 8 14 9 15 13 16 11 17 10 18 12 20 4 22 21 24 18 26
REMARK H PARENT 10 19 12 21 4 23 21 25 18 27
REMARK Flexibility Score: inf
ROOT
ATOM      1  C   UNL     1      -7.877 -20.618 -19.164  1.00  0.00     0.180 A 
ATOM      2  C   UNL     1      -7.305 -21.878 -18.919  1.00  0.00     0.208 A 
ATOM      3  C   UNL     1      -6.996 -22.708 -20.009  1.00  0.00     0.238 A 
ATOM      4  O   UNL     1      -6.415 -23.802 -19.788  1.00  0.00    -0.285 OA
ATOM      5  C   UNL     1      -7.313 -22.291 -21.325  1.00  0.00     0.111 A 
ATOM      6  C   UNL     1      -7.086 -23.070 -22.500  1.00  0.00     0.134 A 
ATOM      7  C   UNL     1      -7.343 -22.511 -23.759  1.00  0.00     0.093 A 
ATOM      8  C   UNL     1      -7.878 -21.227 -23.882  1.00  0.00     0.123 A 
ATOM      9  C   UNL     1      -8.156 -20.482 -22.739  1.00  0.00     0.094 A 
ATOM     10  C   UNL     1      -7.875 -20.996 -21.471  1.00  0.00     0.146 A 
ATOM     11  O   UNL     1      -8.133 -20.241 -20.410  1.00  0.00    -0.452 OA
ENDROOT
BRANCH   1  12
ATOM     12  C   UNL     1      -8.217 -19.682 -18.067  1.00  0.00     0.025 A 
ATOM     13  C   UNL     1      -8.264 -18.293 -18.277  1.00  0.00     0.016 A 
ATOM     14  C   UNL     1      -8.613 -17.431 -17.234  1.00  0.00     0.051 A 
ATOM     15  C   UNL     1      -8.932 -17.945 -15.970  1.00  0.00     0.157 A 
ATOM     16  C   UNL     1      -8.560 -20.193 -16.805  1.00  0.00     0.062 A 
ATOM     17  C   UNL     1      -8.908 -19.334 -15.757  1.00  0.00     0.158 A 
BRANCH  15  18
ATOM     18  O   UNL     1      -9.278 -17.083 -14.931  1.00  0.00    -0.504 OA
ATOM     19  H   UNL     1     -10.220 -16.724 -14.829  1.00  0.00     0.293 HD
ENDBRANCH  15  18
BRANCH  17  20
ATOM     20  O   UNL     1      -9.228 -19.877 -14.513  1.00  0.00    -0.504 OA
ATOM     21  H   UNL     1      -8.787 -19.561 -13.657  1.00  0.00     0.293 HD
ENDBRANCH  17  20
ENDBRANCH   1  12
BRANCH   2  22
ATOM     22  O   UNL     1      -7.069 -22.302 -17.609  1.00  0.00    -0.502 OA
ATOM     23  H   UNL     1      -6.285 -22.894 -17.362  1.00  0.00     0.293 HD
ENDBRANCH   2  22
BRANCH   6  24
ATOM     24  O   UNL     1      -6.638 -24.395 -22.489  1.00  0.00    -0.507 OA
ATOM     25  H   UNL     1      -6.586 -24.980 -21.669  1.00  0.00     0.293 HD
ENDBRANCH   6  24
BRANCH   8  26
ATOM     26  O   UNL     1      -8.148 -20.687 -25.136  1.00  0.00    -0.508 OA
ATOM     27  H   UNL     1      -8.959 -20.971 -25.673  1.00  0.00     0.293 HD
ENDBRANCH   8  26
TORSDOF 6
ENDMDL
MODEL 9
REMARK VINA RESULT:    -4.893      8.108     10.602
REMARK INTER + INTRA:          -6.162
REMARK INTER:                  -5.912
REMARK INTRA:                  -0.250
REMARK UNBOUND:                -0.268
REMARK SMILES O=c1c(O)c(-c2ccc(O)c(O)c2)oc2cc(O)cc(O)c12
REMARK SMILES IDX 5 1 3 2 2 3 1 4 22 5 20 6 19 7 17 8 16 9 15 10 14 11 6 12
REMARK SMILES IDX 7 13 8 14 9 15 13 16 11 17 10 18 12 20 4 22 21 24 18 26
REMARK H PARENT 10 19 12 21 4 23 21 25 18 27
REMARK Flexibility Score: inf
ROOT
ATOM      1  C   UNL     1      -1.939 -23.363 -10.709  1.00  0.00     0.180 A 
ATOM      2  C   UNL     1      -0.774 -22.978 -10.025  1.00  0.00     0.208 A 
ATOM      3  C   UNL     1      -0.018 -21.903 -10.521  1.00  0.00     0.238 A 
ATOM      4  O   UNL     1       0.982 -21.513  -9.863  1.00  0.00    -0.285 OA
ATOM      5  C   UNL     1      -0.405 -21.264 -11.725  1.00  0.00     0.111 A 
ATOM      6  C   UNL     1       0.311 -20.195 -12.344  1.00  0.00     0.134 A 
ATOM      7  C   UNL     1      -0.225 -19.570 -13.477  1.00  0.00     0.093 A 
ATOM      8  C   UNL     1      -1.417 -20.018 -14.052  1.00  0.00     0.123 A 
ATOM      9  C   UNL     1      -2.093 -21.096 -13.488  1.00  0.00     0.094 A 
ATOM     10  C   UNL     1      -1.605 -21.716 -12.334  1.00  0.00     0.146 A 
ATOM     11  O   UNL     1      -2.295 -22.726 -11.818  1.00  0.00    -0.452 OA
ENDROOT
BRANCH   1  12
ATOM     12  C   UNL     1      -2.795 -24.477 -10.240  1.00  0.00     0.025 A 
ATOM     13  C   UNL     1      -4.058 -24.241  -9.671  1.00  0.00     0.016 A 
ATOM     14  C   UNL     1      -4.859 -25.309  -9.258  1.00  0.00     0.051 A 
ATOM     15  C   UNL     1      -4.415 -26.629  -9.421  1.00  0.00     0.157 A 
ATOM     16  C   UNL     1      -2.365 -25.802 -10.421  1.00  0.00     0.062 A 
ATOM     17  C   UNL     1      -3.163 -26.875 -10.008  1.00  0.00     0.158 A 
BRANCH  15  18
ATOM     18  O   UNL     1      -5.215 -27.692  -9.007  1.00  0.00    -0.504 OA
ATOM     19  H   UNL     1      -6.170 -27.796  -9.330  1.00  0.00     0.293 HD
ENDBRANCH  15  18
BRANCH  17  20
ATOM     20  O   UNL     1      -2.696 -28.176 -10.191  1.00  0.00    -0.504 OA
ATOM     21  H   UNL     1      -2.381 -28.514 -11.092  1.00  0.00     0.293 HD
ENDBRANCH  17  20
ENDBRANCH   1  12
BRANCH   2  22
ATOM     22  O   UNL     1      -0.367 -23.668  -8.881  1.00  0.00    -0.502 OA
ATOM     23  H   UNL     1      -0.539 -24.659  -8.753  1.00  0.00     0.293 HD
ENDBRANCH   2  22
BRANCH   6  24
ATOM     24  O   UNL     1       1.554 -19.727 -11.906  1.00  0.00    -0.507 OA
ATOM     25  H   UNL     1       1.800 -18.755 -11.798  1.00  0.00     0.293 HD
ENDBRANCH   6  24
BRANCH   8  26
ATOM     26  O   UNL     1      -1.933 -19.403 -15.189  1.00  0.00    -0.508 OA
ATOM     27  H   UNL     1      -1.334 -19.123 -15.958  1.00  0.00     0.293 HD
ENDBRANCH   8  26
TORSDOF 6
ENDMDL
