MODEL 1
REMARK VINA RESULT:    -3.297      0.000      0.000
REMARK INTER + INTRA:         -12.043
REMARK INTER:                  -7.538
REMARK INTRA:                  -4.505
REMARK UNBOUND:                -4.505
REMARK SMILES CCCCCCCCCCCCCCCCCCCCCCCC(=O)[O-]
REMARK SMILES IDX 13 1 14 2 15 3 16 4 17 5 18 6 19 7 20 8 21 9 22 10 23 11
REMARK SMILES IDX 24 12 25 13 26 14 12 15 11 16 10 17 9 18 8 19 7 20 6 21 5 22
REMARK SMILES IDX 4 23 3 24 2 25 1 26
REMARK H PARENT
REMARK Flexibility Score: inf
ROOT
ATOM      1  C   UNL     1      -7.133  -5.867   0.492  1.00  0.00     0.000 C 
ENDROOT
BRANCH   1   2
ATOM      2  C   UNL     1      -7.502  -5.422   1.919  1.00  0.00     0.000 C 
BRANCH   2   3
ATOM      3  C   UNL     1      -8.869  -5.956   2.380  1.00  0.00     0.000 C 
BRANCH   3   4
ATOM      4  C   UNL     1      -9.345  -5.304   3.688  1.00  0.00     0.000 C 
BRANCH   4   5
ATOM      5  C   UNL     1      -9.477  -3.775   3.578  1.00  0.00     0.000 C 
BRANCH   5   6
ATOM      6  C   UNL     1      -9.072  -3.064   4.888  1.00  0.00     0.000 C 
BRANCH   6   7
ATOM      7  C   UNL     1      -7.801  -3.639   5.536  1.00  0.00     0.000 C 
BRANCH   7   8
ATOM      8  C   UNL     1      -6.774  -2.555   5.899  1.00  0.00     0.000 C 
BRANCH   8   9
ATOM      9  C   UNL     1      -5.526  -2.581   4.996  1.00  0.00     0.000 C 
BRANCH   9  10
ATOM     10  C   UNL     1      -5.801  -2.852   3.502  1.00  0.00     0.006 C 
BRANCH  10  11
ATOM     11  C   UNL     1      -6.290  -1.629   2.710  1.00  0.00     0.053 C 
BRANCH  11  12
ATOM     12  C   UNL     1      -6.558  -1.963   1.276  1.00  0.00     0.041 C 
ATOM     13  O   UNL     1      -5.603  -2.085   0.463  1.00  0.00    -0.550 OA
ATOM     14  O   UNL     1      -7.866  -2.092   0.824  1.00  0.00    -0.550 OA
ENDBRANCH  11  12
ENDBRANCH  10  11
ENDBRANCH   9  10
ENDBRANCH   8   9
ENDBRANCH   7   8
ENDBRANCH   6   7
ENDBRANCH   5   6
ENDBRANCH   4   5
ENDBRANCH   3   4
ENDBRANCH   2   3
ENDBRANCH   1   2
BRANCH   1  15
ATOM     15  C   UNL     1      -8.207  -6.699  -0.233  1.00  0.00     0.000 C 
BRANCH  15  16
ATOM     16  C   UNL     1      -7.675  -8.039  -0.761  1.00  0.00     0.000 C 
BRANCH  16  17
ATOM     17  C   UNL     1      -6.817  -8.743   0.297  1.00  0.00     0.000 C 
BRANCH  17  18
ATOM     18  C   UNL     1      -7.695  -9.377   1.387  1.00  0.00    -0.000 C 
BRANCH  18  19
ATOM     19  C   UNL     1      -7.105  -9.205   2.796  1.00  0.00    -0.000 C 
BRANCH  19  20
ATOM     20  C   UNL     1      -5.618  -8.810   2.770  1.00  0.00    -0.000 C 
BRANCH  20  21
ATOM     21  C   UNL     1      -5.132  -8.249   4.116  1.00  0.00    -0.000 C 
BRANCH  21  22
ATOM     22  C   UNL     1      -5.736  -6.876   4.444  1.00  0.00    -0.000 C 
BRANCH  22  23
ATOM     23  C   UNL     1      -5.895  -6.694   5.962  1.00  0.00    -0.000 C 
BRANCH  23  24
ATOM     24  C   UNL     1      -6.758  -7.793   6.603  1.00  0.00    -0.000 C 
BRANCH  24  25
ATOM     25  C   UNL     1      -8.219  -7.751   6.130  1.00  0.00    -0.003 C 
ATOM     26  C   UNL     1      -9.062  -6.857   7.035  1.00  0.00     0.004 C 
ENDBRANCH  24  25
ENDBRANCH  23  24
ENDBRANCH  22  23
ENDBRANCH  21  22
ENDBRANCH  20  21
ENDBRANCH  19  20
ENDBRANCH  18  19
ENDBRANCH  17  18
ENDBRANCH  16  17
ENDBRANCH  15  16
ENDBRANCH   1  15
TORSDOF 22
ENDMDL
MODEL 2
REMARK VINA RESULT:    -3.202      2.946      7.241
REMARK INTER + INTRA:         -11.825
REMARK INTER:                  -8.996
REMARK INTRA:                  -2.829
REMARK UNBOUND:                -4.505
REMARK SMILES CCCCCCCCCCCCCCCCCCCCCCCC(=O)[O-]
REMARK SMILES IDX 13 1 14 2 15 3 16 4 17 5 18 6 19 7 20 8 21 9 22 10 23 11
REMARK SMILES IDX 24 12 25 13 26 14 12 15 11 16 10 17 9 18 8 19 7 20 6 21 5 22
REMARK SMILES IDX 4 23 3 24 2 25 1 26
REMARK H PARENT
REMARK Flexibility Score: inf
ROOT
ATOM      1  C   UNL     1      -6.243  -6.645   5.909  1.00  0.00     0.000 C 
ENDROOT
BRANCH   1   2
ATOM      2  C   UNL     1      -5.992  -8.029   5.281  1.00  0.00     0.000 C 
BRANCH   2   3
ATOM      3  C   UNL     1      -5.194  -7.957   3.967  1.00  0.00     0.000 C 
BRANCH   3   4
ATOM      4  C   UNL     1      -5.644  -9.013   2.946  1.00  0.00     0.000 C 
BRANCH   4   5
ATOM      5  C   UNL     1      -6.928  -8.612   2.200  1.00  0.00     0.000 C 
BRANCH   5   6
ATOM      6  C   UNL     1      -6.633  -7.690   0.996  1.00  0.00     0.000 C 
BRANCH   6   7
ATOM      7  C   UNL     1      -7.332  -6.322   1.081  1.00  0.00     0.000 C 
BRANCH   7   8
ATOM      8  C   UNL     1      -7.854  -6.004   2.490  1.00  0.00     0.000 C 
BRANCH   8   9
ATOM      9  C   UNL     1      -8.141  -4.505   2.701  1.00  0.00     0.000 C 
BRANCH   9  10
ATOM     10  C   UNL     1      -8.342  -3.684   1.411  1.00  0.00     0.006 C 
BRANCH  10  11
ATOM     11  C   UNL     1      -7.793  -2.250   1.474  1.00  0.00     0.053 C 
BRANCH  11  12
ATOM     12  C   UNL     1      -6.384  -2.168   0.975  1.00  0.00     0.041 C 
ATOM     13  O   UNL     1      -5.914  -3.082   0.246  1.00  0.00    -0.550 OA
ATOM     14  O   UNL     1      -5.574  -1.104   1.352  1.00  0.00    -0.550 OA
ENDBRANCH  11  12
ENDBRANCH  10  11
ENDBRANCH   9  10
ENDBRANCH   8   9
ENDBRANCH   7   8
ENDBRANCH   6   7
ENDBRANCH   5   6
ENDBRANCH   4   5
ENDBRANCH   3   4
ENDBRANCH   2   3
ENDBRANCH   1   2
BRANCH   1  15
ATOM     15  C   UNL     1      -5.452  -5.486   5.276  1.00  0.00     0.000 C 
BRANCH  15  16
ATOM     16  C   UNL     1      -6.060  -4.108   5.579  1.00  0.00     0.000 C 
BRANCH  16  17
ATOM     17  C   UNL     1      -5.492  -3.040   4.636  1.00  0.00     0.000 C 
BRANCH  17  18
ATOM     18  C   UNL     1      -6.240  -1.708   4.796  1.00  0.00    -0.000 C 
BRANCH  18  19
ATOM     19  C   UNL     1      -6.919  -1.574   6.169  1.00  0.00    -0.000 C 
BRANCH  19  20
ATOM     20  C   UNL     1      -6.327  -0.432   7.013  1.00  0.00    -0.000 C 
BRANCH  20  21
ATOM     21  C   UNL     1      -5.950   0.795   6.167  1.00  0.00    -0.000 C 
BRANCH  21  22
ATOM     22  C   UNL     1      -6.645   2.082   6.638  1.00  0.00    -0.000 C 
BRANCH  22  23
ATOM     23  C   UNL     1      -5.967   3.324   6.038  1.00  0.00    -0.000 C 
BRANCH  23  24
ATOM     24  C   UNL     1      -4.539   3.533   6.567  1.00  0.00    -0.000 C 
BRANCH  24  25
ATOM     25  C   UNL     1      -3.610   4.177   5.528  1.00  0.00    -0.003 C 
ATOM     26  C   UNL     1      -4.008   3.771   4.111  1.00  0.00     0.004 C 
ENDBRANCH  24  25
ENDBRANCH  23  24
ENDBRANCH  22  23
ENDBRANCH  21  22
ENDBRANCH  20  21
ENDBRANCH  19  20
ENDBRANCH  18  19
ENDBRANCH  17  18
ENDBRANCH  16  17
ENDBRANCH  15  16
ENDBRANCH   1  15
TORSDOF 22
ENDMDL
MODEL 3
REMARK VINA RESULT:    -3.198      1.889      6.344
REMARK INTER + INTRA:         -11.816
REMARK INTER:                  -7.441
REMARK INTRA:                  -4.375
REMARK UNBOUND:                -4.505
REMARK SMILES CCCCCCCCCCCCCCCCCCCCCCCC(=O)[O-]
REMARK SMILES IDX 13 1 14 2 15 3 16 4 17 5 18 6 19 7 20 8 21 9 22 10 23 11
REMARK SMILES IDX 24 12 25 13 26 14 12 15 11 16 10 17 9 18 8 19 7 20 6 21 5 22
REMARK SMILES IDX 4 23 3 24 2 25 1 26
REMARK H PARENT
REMARK Flexibility Score: inf
ROOT
ATOM      1  C   UNL     1      -8.406  -6.699   5.390  1.00  0.00     0.000 C 
ENDROOT
BRANCH   1   2
ATOM      2  C   UNL     1      -7.969  -8.123   5.780  1.00  0.00     0.000 C 
BRANCH   2   3
ATOM      3  C   UNL     1      -6.519  -8.189   6.292  1.00  0.00     0.000 C 
BRANCH   3   4
ATOM      4  C   UNL     1      -5.851  -9.541   5.998  1.00  0.00     0.000 C 
BRANCH   4   5
ATOM      5  C   UNL     1      -5.883  -9.908   4.504  1.00  0.00     0.000 C 
BRANCH   5   6
ATOM      6  C   UNL     1      -5.022  -8.948   3.654  1.00  0.00     0.000 C 
BRANCH   6   7
ATOM      7  C   UNL     1      -5.547  -8.752   2.221  1.00  0.00     0.000 C 
BRANCH   7   8
ATOM      8  C   UNL     1      -7.003  -9.212   2.050  1.00  0.00     0.000 C 
BRANCH   8   9
ATOM      9  C   UNL     1      -7.415  -9.370   0.574  1.00  0.00     0.000 C 
BRANCH   9  10
ATOM     10  C   UNL     1      -8.682  -8.595   0.157  1.00  0.00     0.006 C 
BRANCH  10  11
ATOM     11  C   UNL     1      -8.833  -8.387  -1.358  1.00  0.00     0.053 C 
BRANCH  11  12
ATOM     12  C   UNL     1      -8.536  -6.975  -1.760  1.00  0.00     0.041 C 
ATOM     13  O   UNL     1      -7.399  -6.480  -1.545  1.00  0.00    -0.550 OA
ATOM     14  O   UNL     1      -9.531  -6.191  -2.331  1.00  0.00    -0.550 OA
ENDBRANCH  11  12
ENDBRANCH  10  11
ENDBRANCH   9  10
ENDBRANCH   8   9
ENDBRANCH   7   8
ENDBRANCH   6   7
ENDBRANCH   5   6
ENDBRANCH   4   5
ENDBRANCH   3   4
ENDBRANCH   2   3
ENDBRANCH   1   2
BRANCH   1  15
ATOM     15  C   UNL     1      -8.472  -6.426   3.877  1.00  0.00     0.000 C 
BRANCH  15  16
ATOM     16  C   UNL     1      -7.214  -5.731   3.336  1.00  0.00     0.000 C 
BRANCH  16  17
ATOM     17  C   UNL     1      -7.356  -5.431   1.838  1.00  0.00     0.000 C 
BRANCH  17  18
ATOM     18  C   UNL     1      -8.816  -5.124   1.473  1.00  0.00    -0.000 C 
BRANCH  18  19
ATOM     19  C   UNL     1      -9.129  -3.619   1.504  1.00  0.00    -0.000 C 
BRANCH  19  20
ATOM     20  C   UNL     1      -9.908  -3.203   2.764  1.00  0.00    -0.000 C 
BRANCH  20  21
ATOM     21  C   UNL     1      -9.236  -2.044   3.518  1.00  0.00    -0.000 C 
BRANCH  21  22
ATOM     22  C   UNL     1      -8.337  -2.521   4.669  1.00  0.00    -0.000 C 
BRANCH  22  23
ATOM     23  C   UNL     1      -6.853  -2.311   4.329  1.00  0.00    -0.000 C 
BRANCH  23  24
ATOM     24  C   UNL     1      -6.649  -1.435   3.082  1.00  0.00    -0.000 C 
BRANCH  24  25
ATOM     25  C   UNL     1      -5.553  -1.974   2.152  1.00  0.00    -0.003 C 
ATOM     26  C   UNL     1      -6.001  -1.930   0.694  1.00  0.00     0.004 C 
ENDBRANCH  24  25
ENDBRANCH  23  24
ENDBRANCH  22  23
ENDBRANCH  21  22
ENDBRANCH  20  21
ENDBRANCH  19  20
ENDBRANCH  18  19
ENDBRANCH  17  18
ENDBRANCH  16  17
ENDBRANCH  15  16
ENDBRANCH   1  15
TORSDOF 22
ENDMDL
MODEL 4
REMARK VINA RESULT:    -3.188     10.173     13.419
REMARK INTER + INTRA:         -11.793
REMARK INTER:                  -9.468
REMARK INTRA:                  -2.325
REMARK UNBOUND:                -4.505
REMARK SMILES CCCCCCCCCCCCCCCCCCCCCCCC(=O)[O-]
REMARK SMILES IDX 13 1 14 2 15 3 16 4 17 5 18 6 19 7 20 8 21 9 22 10 23 11
REMARK SMILES IDX 24 12 25 13 26 14 12 15 11 16 10 17 9 18 8 19 7 20 6 21 5 22
REMARK SMILES IDX 4 23 3 24 2 25 1 26
REMARK H PARENT
REMARK Flexibility Score: inf
ROOT
ATOM      1  C   UNL     1       0.785  -1.387  -8.545  1.00  0.00     0.000 C 
ENDROOT
BRANCH   1   2
ATOM      2  C   UNL     1      -0.586  -1.462  -9.241  1.00  0.00     0.000 C 
BRANCH   2   3
ATOM      3  C   UNL     1      -1.561  -0.369  -8.767  1.00  0.00     0.000 C 
BRANCH   3   4
ATOM      4  C   UNL     1      -2.980  -0.565  -9.323  1.00  0.00     0.000 C 
BRANCH   4   5
ATOM      5  C   UNL     1      -3.244  -2.007  -9.787  1.00  0.00     0.000 C 
BRANCH   5   6
ATOM      6  C   UNL     1      -4.743  -2.374  -9.711  1.00  0.00     0.000 C 
BRANCH   6   7
ATOM      7  C   UNL     1      -5.540  -1.513  -8.717  1.00  0.00     0.000 C 
BRANCH   7   8
ATOM      8  C   UNL     1      -6.387  -2.351  -7.747  1.00  0.00     0.000 C 
BRANCH   8   9
ATOM      9  C   UNL     1      -6.356  -3.857  -8.067  1.00  0.00     0.000 C 
BRANCH   9  10
ATOM     10  C   UNL     1      -6.789  -4.785  -6.913  1.00  0.00     0.006 C 
BRANCH  10  11
ATOM     11  C   UNL     1      -8.310  -4.918  -6.737  1.00  0.00     0.053 C 
BRANCH  11  12
ATOM     12  C   UNL     1      -8.713  -4.855  -5.297  1.00  0.00     0.041 C 
ATOM     13  O   UNL     1      -8.179  -5.623  -4.453  1.00  0.00    -0.550 OA
ATOM     14  O   UNL     1      -9.714  -3.980  -4.892  1.00  0.00    -0.550 OA
ENDBRANCH  11  12
ENDBRANCH  10  11
ENDBRANCH   9  10
ENDBRANCH   8   9
ENDBRANCH   7   8
ENDBRANCH   6   7
ENDBRANCH   5   6
ENDBRANCH   4   5
ENDBRANCH   3   4
ENDBRANCH   2   3
ENDBRANCH   1   2
BRANCH   1  15
ATOM     15  C   UNL     1       0.749  -0.935  -7.074  1.00  0.00     0.000 C 
BRANCH  15  16
ATOM     16  C   UNL     1       1.138  -2.050  -6.092  1.00  0.00     0.000 C 
BRANCH  16  17
ATOM     17  C   UNL     1       2.523  -2.616  -6.427  1.00  0.00     0.000 C 
BRANCH  17  18
ATOM     18  C   UNL     1       2.515  -4.152  -6.389  1.00  0.00    -0.000 C 
BRANCH  18  19
ATOM     19  C   UNL     1       1.161  -4.747  -6.807  1.00  0.00    -0.000 C 
BRANCH  19  20
ATOM     20  C   UNL     1       1.158  -5.244  -8.263  1.00  0.00    -0.000 C 
BRANCH  20  21
ATOM     21  C   UNL     1      -0.183  -4.992  -8.972  1.00  0.00    -0.000 C 
BRANCH  21  22
ATOM     22  C   UNL     1      -0.744  -6.249  -9.652  1.00  0.00    -0.000 C 
BRANCH  22  23
ATOM     23  C   UNL     1      -1.566  -7.089  -8.662  1.00  0.00    -0.000 C 
BRANCH  23  24
ATOM     24  C   UNL     1      -2.212  -8.319  -9.321  1.00  0.00    -0.000 C 
BRANCH  24  25
ATOM     25  C   UNL     1      -3.746  -8.251  -9.327  1.00  0.00    -0.003 C 
ATOM     26  C   UNL     1      -4.232  -6.818  -9.130  1.00  0.00     0.004 C 
ENDBRANCH  24  25
ENDBRANCH  23  24
ENDBRANCH  22  23
ENDBRANCH  21  22
ENDBRANCH  20  21
ENDBRANCH  19  20
ENDBRANCH  18  19
ENDBRANCH  17  18
ENDBRANCH  16  17
ENDBRANCH  15  16
ENDBRANCH   1  15
TORSDOF 22
ENDMDL
MODEL 5
REMARK VINA RESULT:    -3.160     11.135     14.451
REMARK INTER + INTRA:         -11.729
REMARK INTER:                  -9.230
REMARK INTRA:                  -2.500
REMARK UNBOUND:                -4.505
REMARK SMILES CCCCCCCCCCCCCCCCCCCCCCCC(=O)[O-]
REMARK SMILES IDX 13 1 14 2 15 3 16 4 17 5 18 6 19 7 20 8 21 9 22 10 23 11
REMARK SMILES IDX 24 12 25 13 26 14 12 15 11 16 10 17 9 18 8 19 7 20 6 21 5 22
REMARK SMILES IDX 4 23 3 24 2 25 1 26
REMARK H PARENT
REMARK Flexibility Score: inf
ROOT
ATOM      1  C   UNL     1       1.620  -2.020  -6.017  1.00  0.00     0.000 C 
ENDROOT
BRANCH   1   2
ATOM      2  C   UNL     1       1.140  -3.481  -5.944  1.00  0.00     0.000 C 
BRANCH   2   3
ATOM      3  C   UNL     1       2.207  -4.488  -6.409  1.00  0.00     0.000 C 
BRANCH   3   4
ATOM      4  C   UNL     1       2.075  -4.842  -7.898  1.00  0.00     0.000 C 
BRANCH   4   5
ATOM      5  C   UNL     1       0.620  -4.789  -8.396  1.00  0.00     0.000 C 
BRANCH   5   6
ATOM      6  C   UNL     1       0.243  -6.042  -9.215  1.00  0.00     0.000 C 
BRANCH   6   7
ATOM      7  C   UNL     1      -0.964  -6.811  -8.649  1.00  0.00     0.000 C 
BRANCH   7   8
ATOM      8  C   UNL     1      -1.224  -8.137  -9.379  1.00  0.00     0.000 C 
BRANCH   8   9
ATOM      9  C   UNL     1      -2.720  -8.493  -9.466  1.00  0.00     0.000 C 
BRANCH   9  10
ATOM     10  C   UNL     1      -3.691  -7.357  -9.085  1.00  0.00     0.006 C 
BRANCH  10  11
ATOM     11  C   UNL     1      -4.587  -7.661  -7.874  1.00  0.00     0.053 C 
BRANCH  11  12
ATOM     12  C   UNL     1      -5.325  -8.954  -8.036  1.00  0.00     0.041 C 
ATOM     13  O   UNL     1      -6.231  -9.064  -8.904  1.00  0.00    -0.550 OA
ATOM     14  O   UNL     1      -5.043 -10.025  -7.196  1.00  0.00    -0.550 OA
ENDBRANCH  11  12
ENDBRANCH  10  11
ENDBRANCH   9  10
ENDBRANCH   8   9
ENDBRANCH   7   8
ENDBRANCH   6   7
ENDBRANCH   5   6
ENDBRANCH   4   5
ENDBRANCH   3   4
ENDBRANCH   2   3
ENDBRANCH   1   2
BRANCH   1  15
ATOM     15  C   UNL     1       0.891  -1.143  -7.052  1.00  0.00     0.000 C 
BRANCH  15  16
ATOM     16  C   UNL     1       1.537  -1.192  -8.444  1.00  0.00     0.000 C 
BRANCH  16  17
ATOM     17  C   UNL     1       0.472  -1.103  -9.544  1.00  0.00     0.000 C 
BRANCH  17  18
ATOM     18  C   UNL     1      -0.912  -1.496  -9.006  1.00  0.00    -0.000 C 
BRANCH  18  19
ATOM     19  C   UNL     1      -1.956  -0.384  -9.195  1.00  0.00    -0.000 C 
BRANCH  19  20
ATOM     20  C   UNL     1      -3.108  -0.806 -10.125  1.00  0.00    -0.000 C 
BRANCH  20  21
ATOM     21  C   UNL     1      -3.467  -2.294  -9.984  1.00  0.00    -0.000 C 
BRANCH  21  22
ATOM     22  C   UNL     1      -4.977  -2.557 -10.094  1.00  0.00    -0.000 C 
BRANCH  22  23
ATOM     23  C   UNL     1      -5.589  -2.829  -8.711  1.00  0.00    -0.000 C 
BRANCH  23  24
ATOM     24  C   UNL     1      -6.150  -4.254  -8.581  1.00  0.00    -0.000 C 
BRANCH  24  25
ATOM     25  C   UNL     1      -6.718  -4.542  -7.184  1.00  0.00    -0.003 C 
ATOM     26  C   UNL     1      -7.795  -5.622  -7.242  1.00  0.00     0.004 C 
ENDBRANCH  24  25
ENDBRANCH  23  24
ENDBRANCH  22  23
ENDBRANCH  21  22
ENDBRANCH  20  21
ENDBRANCH  19  20
ENDBRANCH  18  19
ENDBRANCH  17  18
ENDBRANCH  16  17
ENDBRANCH  15  16
ENDBRANCH   1  15
TORSDOF 22
ENDMDL
MODEL 6
REMARK VINA RESULT:    -3.117      1.006      4.002
REMARK INTER + INTRA:         -11.631
REMARK INTER:                  -6.737
REMARK INTRA:                  -4.894
REMARK UNBOUND:                -4.505
REMARK SMILES CCCCCCCCCCCCCCCCCCCCCCCC(=O)[O-]
REMARK SMILES IDX 13 1 14 2 15 3 16 4 17 5 18 6 19 7 20 8 21 9 22 10 23 11
REMARK SMILES IDX 24 12 25 13 26 14 12 15 11 16 10 17 9 18 8 19 7 20 6 21 5 22
REMARK SMILES IDX 4 23 3 24 2 25 1 26
REMARK H PARENT
REMARK Flexibility Score: inf
ROOT
ATOM      1  C   UNL     1      -6.004  -6.968   5.619  1.00  0.00     0.000 C 
ENDROOT
BRANCH   1   2
ATOM      2  C   UNL     1      -6.866  -8.107   6.195  1.00  0.00     0.000 C 
BRANCH   2   3
ATOM      3  C   UNL     1      -8.201  -7.614   6.780  1.00  0.00     0.000 C 
BRANCH   3   4
ATOM      4  C   UNL     1      -8.205  -6.100   7.045  1.00  0.00     0.000 C 
BRANCH   4   5
ATOM      5  C   UNL     1      -9.595  -5.467   6.864  1.00  0.00     0.000 C 
BRANCH   5   6
ATOM      6  C   UNL     1      -9.506  -3.998   6.397  1.00  0.00     0.000 C 
BRANCH   6   7
ATOM      7  C   UNL     1      -8.065  -3.504   6.186  1.00  0.00     0.000 C 
BRANCH   7   8
ATOM      8  C   UNL     1      -7.755  -3.175   4.717  1.00  0.00     0.000 C 
BRANCH   8   9
ATOM      9  C   UNL     1      -6.294  -3.469   4.330  1.00  0.00     0.000 C 
BRANCH   9  10
ATOM     10  C   UNL     1      -5.604  -2.378   3.485  1.00  0.00     0.006 C 
BRANCH  10  11
ATOM     11  C   UNL     1      -6.562  -1.521   2.643  1.00  0.00     0.053 C 
BRANCH  11  12
ATOM     12  C   UNL     1      -6.762  -2.088   1.272  1.00  0.00     0.041 C 
ATOM     13  O   UNL     1      -7.919  -2.367   0.862  1.00  0.00    -0.550 OA
ATOM     14  O   UNL     1      -5.663  -2.352   0.462  1.00  0.00    -0.550 OA
ENDBRANCH  11  12
ENDBRANCH  10  11
ENDBRANCH   9  10
ENDBRANCH   8   9
ENDBRANCH   7   8
ENDBRANCH   6   7
ENDBRANCH   5   6
ENDBRANCH   4   5
ENDBRANCH   3   4
ENDBRANCH   2   3
ENDBRANCH   1   2
BRANCH   1  15
ATOM     15  C   UNL     1      -5.316  -7.281   4.278  1.00  0.00     0.000 C 
BRANCH  15  16
ATOM     16  C   UNL     1      -5.654  -8.679   3.740  1.00  0.00     0.000 C 
BRANCH  16  17
ATOM     17  C   UNL     1      -5.824  -8.653   2.216  1.00  0.00     0.000 C 
BRANCH  17  18
ATOM     18  C   UNL     1      -7.137  -9.331   1.796  1.00  0.00    -0.000 C 
BRANCH  18  19
ATOM     19  C   UNL     1      -8.217  -9.254   2.886  1.00  0.00    -0.000 C 
BRANCH  19  20
ATOM     20  C   UNL     1      -9.337  -8.257   2.540  1.00  0.00    -0.000 C 
BRANCH  20  21
ATOM     21  C   UNL     1      -9.265  -6.971   3.379  1.00  0.00    -0.000 C 
BRANCH  21  22
ATOM     22  C   UNL     1      -8.381  -5.889   2.740  1.00  0.00    -0.000 C 
BRANCH  22  23
ATOM     23  C   UNL     1      -8.531  -5.892   1.211  1.00  0.00    -0.000 C 
BRANCH  23  24
ATOM     24  C   UNL     1      -7.183  -5.754   0.483  1.00  0.00    -0.000 C 
BRANCH  24  25
ATOM     25  C   UNL     1      -7.076  -6.671  -0.744  1.00  0.00    -0.003 C 
ATOM     26  C   UNL     1      -8.429  -7.284  -1.090  1.00  0.00     0.004 C 
ENDBRANCH  24  25
ENDBRANCH  23  24
ENDBRANCH  22  23
ENDBRANCH  21  22
ENDBRANCH  20  21
ENDBRANCH  19  20
ENDBRANCH  18  19
ENDBRANCH  17  18
ENDBRANCH  16  17
ENDBRANCH  15  16
ENDBRANCH   1  15
TORSDOF 22
ENDMDL
MODEL 7
REMARK VINA RESULT:    -3.090      3.537      5.486
REMARK INTER + INTRA:         -11.570
REMARK INTER:                  -8.598
REMARK INTRA:                  -2.972
REMARK UNBOUND:                -4.505
REMARK SMILES CCCCCCCCCCCCCCCCCCCCCCCC(=O)[O-]
REMARK SMILES IDX 13 1 14 2 15 3 16 4 17 5 18 6 19 7 20 8 21 9 22 10 23 11
REMARK SMILES IDX 24 12 25 13 26 14 12 15 11 16 10 17 9 18 8 19 7 20 6 21 5 22
REMARK SMILES IDX 4 23 3 24 2 25 1 26
REMARK H PARENT
REMARK Flexibility Score: inf
ROOT
ATOM      1  C   UNL     1      -5.530  -5.532   5.277  1.00  0.00     0.000 C 
ENDROOT
BRANCH   1   2
ATOM      2  C   UNL     1      -6.260  -4.185   5.434  1.00  0.00     0.000 C 
BRANCH   2   3
ATOM      3  C   UNL     1      -5.364  -2.975   5.115  1.00  0.00     0.000 C 
BRANCH   3   4
ATOM      4  C   UNL     1      -5.916  -1.664   5.697  1.00  0.00     0.000 C 
BRANCH   4   5
ATOM      5  C   UNL     1      -6.757  -1.883   6.966  1.00  0.00     0.000 C 
BRANCH   5   6
ATOM      6  C   UNL     1      -6.700  -0.667   7.916  1.00  0.00     0.000 C 
BRANCH   6   7
ATOM      7  C   UNL     1      -5.409   0.159   7.785  1.00  0.00     0.000 C 
BRANCH   7   8
ATOM      8  C   UNL     1      -5.577   1.610   8.261  1.00  0.00     0.000 C 
BRANCH   8   9
ATOM      9  C   UNL     1      -6.645   2.384   7.466  1.00  0.00     0.000 C 
BRANCH   9  10
ATOM     10  C   UNL     1      -6.127   3.609   6.684  1.00  0.00     0.006 C 
BRANCH  10  11
ATOM     11  C   UNL     1      -5.464   3.273   5.339  1.00  0.00     0.053 C 
BRANCH  11  12
ATOM     12  C   UNL     1      -4.055   3.774   5.270  1.00  0.00     0.041 C 
ATOM     13  O   UNL     1      -3.397   3.969   6.326  1.00  0.00    -0.550 OA
ATOM     14  O   UNL     1      -3.482   4.071   4.039  1.00  0.00    -0.550 OA
ENDBRANCH  11  12
ENDBRANCH  10  11
ENDBRANCH   9  10
ENDBRANCH   8   9
ENDBRANCH   7   8
ENDBRANCH   6   7
ENDBRANCH   5   6
ENDBRANCH   4   5
ENDBRANCH   3   4
ENDBRANCH   2   3
ENDBRANCH   1   2
BRANCH   1  15
ATOM     15  C   UNL     1      -6.282  -6.753   5.837  1.00  0.00     0.000 C 
BRANCH  15  16
ATOM     16  C   UNL     1      -6.439  -7.885   4.811  1.00  0.00     0.000 C 
BRANCH  16  17
ATOM     17  C   UNL     1      -5.282  -7.875   3.804  1.00  0.00     0.000 C 
BRANCH  17  18
ATOM     18  C   UNL     1      -5.671  -8.607   2.510  1.00  0.00    -0.000 C 
BRANCH  18  19
ATOM     19  C   UNL     1      -7.008  -9.355   2.634  1.00  0.00    -0.000 C 
BRANCH  19  20
ATOM     20  C   UNL     1      -7.902  -9.177   1.394  1.00  0.00    -0.000 C 
BRANCH  20  21
ATOM     21  C   UNL     1      -7.092  -9.033   0.096  1.00  0.00    -0.000 C 
BRANCH  21  22
ATOM     22  C   UNL     1      -7.484  -7.790  -0.718  1.00  0.00    -0.000 C 
BRANCH  22  23
ATOM     23  C   UNL     1      -8.109  -6.716   0.187  1.00  0.00    -0.000 C 
BRANCH  23  24
ATOM     24  C   UNL     1      -7.097  -5.643   0.618  1.00  0.00    -0.000 C 
BRANCH  24  25
ATOM     25  C   UNL     1      -7.366  -5.107   2.032  1.00  0.00    -0.003 C 
ATOM     26  C   UNL     1      -8.613  -5.750   2.633  1.00  0.00     0.004 C 
ENDBRANCH  24  25
ENDBRANCH  23  24
ENDBRANCH  22  23
ENDBRANCH  21  22
ENDBRANCH  20  21
ENDBRANCH  19  20
ENDBRANCH  18  19
ENDBRANCH  17  18
ENDBRANCH  16  17
ENDBRANCH  15  16
ENDBRANCH   1  15
TORSDOF 22
ENDMDL
MODEL 8
REMARK VINA RESULT:    -3.090      2.763      3.519
REMARK INTER + INTRA:         -11.568
REMARK INTER:                  -8.204
REMARK INTRA:                  -3.365
REMARK UNBOUND:                -4.505
REMARK SMILES CCCCCCCCCCCCCCCCCCCCCCCC(=O)[O-]
REMARK SMILES IDX 13 1 14 2 15 3 16 4 17 5 18 6 19 7 20 8 21 9 22 10 23 11
REMARK SMILES IDX 24 12 25 13 26 14 12 15 11 16 10 17 9 18 8 19 7 20 6 21 5 22
REMARK SMILES IDX 4 23 3 24 2 25 1 26
REMARK H PARENT
REMARK Flexibility Score: inf
ROOT
ATOM      1  C   UNL     1      -7.588  -4.707   2.178  1.00  0.00     0.000 C 
ENDROOT
BRANCH   1   2
ATOM      2  C   UNL     1      -8.546  -5.583   3.006  1.00  0.00     0.000 C 
BRANCH   2   3
ATOM      3  C   UNL     1      -7.893  -6.152   4.279  1.00  0.00     0.000 C 
BRANCH   3   4
ATOM      4  C   UNL     1      -6.622  -5.386   4.680  1.00  0.00     0.000 C 
BRANCH   4   5
ATOM      5  C   UNL     1      -6.646  -4.920   6.146  1.00  0.00     0.000 C 
BRANCH   5   6
ATOM      6  C   UNL     1      -6.718  -3.382   6.263  1.00  0.00     0.000 C 
BRANCH   6   7
ATOM      7  C   UNL     1      -6.262  -2.644   4.992  1.00  0.00     0.000 C 
BRANCH   7   8
ATOM      8  C   UNL     1      -7.312  -1.651   4.470  1.00  0.00     0.000 C 
BRANCH   8   9
ATOM      9  C   UNL     1      -6.841  -0.186   4.539  1.00  0.00     0.000 C 
BRANCH   9  10
ATOM     10  C   UNL     1      -6.398   0.299   5.936  1.00  0.00     0.006 C 
BRANCH  10  11
ATOM     11  C   UNL     1      -6.566   1.808   6.171  1.00  0.00     0.053 C 
BRANCH  11  12
ATOM     12  C   UNL     1      -5.363   2.580   5.725  1.00  0.00     0.041 C 
ATOM     13  O   UNL     1      -5.333   3.103   4.579  1.00  0.00    -0.550 OA
ATOM     14  O   UNL     1      -4.254   2.682   6.557  1.00  0.00    -0.550 OA
ENDBRANCH  11  12
ENDBRANCH  10  11
ENDBRANCH   9  10
ENDBRANCH   8   9
ENDBRANCH   7   8
ENDBRANCH   6   7
ENDBRANCH   5   6
ENDBRANCH   4   5
ENDBRANCH   3   4
ENDBRANCH   2   3
ENDBRANCH   1   2
BRANCH   1  15
ATOM     15  C   UNL     1      -7.102  -5.335   0.859  1.00  0.00     0.000 C 
BRANCH  15  16
ATOM     16  C   UNL     1      -8.088  -6.361   0.282  1.00  0.00     0.000 C 
BRANCH  16  17
ATOM     17  C   UNL     1      -7.393  -7.278  -0.732  1.00  0.00     0.000 C 
BRANCH  17  18
ATOM     18  C   UNL     1      -6.991  -8.612  -0.084  1.00  0.00    -0.000 C 
BRANCH  18  19
ATOM     19  C   UNL     1      -7.940  -9.027   1.051  1.00  0.00    -0.000 C 
BRANCH  19  20
ATOM     20  C   UNL     1      -7.206  -9.247   2.386  1.00  0.00    -0.000 C 
BRANCH  20  21
ATOM     21  C   UNL     1      -5.806  -8.611   2.402  1.00  0.00    -0.000 C 
BRANCH  21  22
ATOM     22  C   UNL     1      -5.131  -8.690   3.780  1.00  0.00    -0.000 C 
BRANCH  22  23
ATOM     23  C   UNL     1      -5.278 -10.096   4.383  1.00  0.00    -0.000 C 
BRANCH  23  24
ATOM     24  C   UNL     1      -5.965 -10.081   5.758  1.00  0.00    -0.000 C 
BRANCH  24  25
ATOM     25  C   UNL     1      -6.033  -8.675   6.372  1.00  0.00    -0.003 C 
ATOM     26  C   UNL     1      -5.982  -8.739   7.896  1.00  0.00     0.004 C 
ENDBRANCH  24  25
ENDBRANCH  23  24
ENDBRANCH  22  23
ENDBRANCH  21  22
ENDBRANCH  20  21
ENDBRANCH  19  20
ENDBRANCH  18  19
ENDBRANCH  17  18
ENDBRANCH  16  17
ENDBRANCH  15  16
ENDBRANCH   1  15
TORSDOF 22
ENDMDL
MODEL 9
REMARK VINA RESULT:    -3.024      2.625      4.728
REMARK INTER + INTRA:         -11.418
REMARK INTER:                  -7.016
REMARK INTRA:                  -4.402
REMARK UNBOUND:                -4.505
REMARK SMILES CCCCCCCCCCCCCCCCCCCCCCCC(=O)[O-]
REMARK SMILES IDX 13 1 14 2 15 3 16 4 17 5 18 6 19 7 20 8 21 9 22 10 23 11
REMARK SMILES IDX 24 12 25 13 26 14 12 15 11 16 10 17 9 18 8 19 7 20 6 21 5 22
REMARK SMILES IDX 4 23 3 24 2 25 1 26
REMARK H PARENT
REMARK Flexibility Score: inf
ROOT
ATOM      1  C   UNL     1      -5.185  -2.646   4.469  1.00  0.00     0.000 C 
ENDROOT
BRANCH   1   2
ATOM      2  C   UNL     1      -5.412  -3.975   5.212  1.00  0.00     0.000 C 
BRANCH   2   3
ATOM      3  C   UNL     1      -6.463  -4.871   4.535  1.00  0.00     0.000 C 
BRANCH   3   4
ATOM      4  C   UNL     1      -7.645  -5.197   5.462  1.00  0.00     0.000 C 
BRANCH   4   5
ATOM      5  C   UNL     1      -9.000  -4.764   4.874  1.00  0.00     0.000 C 
BRANCH   5   6
ATOM      6  C   UNL     1      -9.422  -3.362   5.365  1.00  0.00     0.000 C 
BRANCH   6   7
ATOM      7  C   UNL     1      -8.699  -2.913   6.647  1.00  0.00     0.000 C 
BRANCH   7   8
ATOM      8  C   UNL     1      -8.163  -1.476   6.557  1.00  0.00     0.000 C 
BRANCH   8   9
ATOM      9  C   UNL     1      -6.973  -1.217   7.500  1.00  0.00     0.000 C 
BRANCH   9  10
ATOM     10  C   UNL     1      -6.006  -0.102   7.052  1.00  0.00     0.006 C 
BRANCH  10  11
ATOM     11  C   UNL     1      -6.434   0.638   5.774  1.00  0.00     0.053 C 
BRANCH  11  12
ATOM     12  C   UNL     1      -5.973   2.062   5.772  1.00  0.00     0.041 C 
ATOM     13  O   UNL     1      -4.896   2.382   6.343  1.00  0.00    -0.550 OA
ATOM     14  O   UNL     1      -6.756   3.045   5.180  1.00  0.00    -0.550 OA
ENDBRANCH  11  12
ENDBRANCH  10  11
ENDBRANCH   9  10
ENDBRANCH   8   9
ENDBRANCH   7   8
ENDBRANCH   6   7
ENDBRANCH   5   6
ENDBRANCH   4   5
ENDBRANCH   3   4
ENDBRANCH   2   3
ENDBRANCH   1   2
BRANCH   1  15
ATOM     15  C   UNL     1      -6.343  -2.199   3.558  1.00  0.00     0.000 C 
BRANCH  15  16
ATOM     16  C   UNL     1      -5.873  -1.738   2.171  1.00  0.00     0.000 C 
BRANCH  16  17
ATOM     17  C   UNL     1      -6.764  -2.323   1.068  1.00  0.00     0.000 C 
BRANCH  17  18
ATOM     18  C   UNL     1      -8.090  -2.840   1.647  1.00  0.00    -0.000 C 
BRANCH  18  19
ATOM     19  C   UNL     1      -8.311  -4.336   1.375  1.00  0.00    -0.000 C 
BRANCH  19  20
ATOM     20  C   UNL     1      -7.070  -5.017   0.770  1.00  0.00    -0.000 C 
BRANCH  20  21
ATOM     21  C   UNL     1      -7.088  -6.544   0.946  1.00  0.00    -0.000 C 
BRANCH  21  22
ATOM     22  C   UNL     1      -8.136  -7.016   1.966  1.00  0.00    -0.000 C 
BRANCH  22  23
ATOM     23  C   UNL     1      -7.530  -8.036   2.943  1.00  0.00    -0.000 C 
BRANCH  23  24
ATOM     24  C   UNL     1      -6.015  -8.212   2.752  1.00  0.00    -0.000 C 
BRANCH  24  25
ATOM     25  C   UNL     1      -5.279  -8.484   4.072  1.00  0.00    -0.003 C 
ATOM     26  C   UNL     1      -5.347  -9.963   4.442  1.00  0.00     0.004 C 
ENDBRANCH  24  25
ENDBRANCH  23  24
ENDBRANCH  22  23
ENDBRANCH  21  22
ENDBRANCH  20  21
ENDBRANCH  19  20
ENDBRANCH  18  19
ENDBRANCH  17  18
ENDBRANCH  16  17
ENDBRANCH  15  16
ENDBRANCH   1  15
TORSDOF 22
ENDMDL
