MODEL 1
REMARK VINA RESULT:    -3.854      0.000      0.000
REMARK INTER + INTRA:          -9.234
REMARK INTER:                  -7.009
REMARK INTRA:                  -2.226
REMARK UNBOUND:                -2.226
REMARK SMILES CCCCCCCCCCCCCCCC(=O)[O-]
REMARK SMILES IDX 9 1 10 2 11 3 12 4 13 5 14 6 15 7 16 8 17 9 18 10 8 11 7 12
REMARK SMILES IDX 6 13 5 14 4 15 3 16 2 17 1 18
REMARK H PARENT
REMARK Flexibility Score: inf
ROOT
ATOM      1  C   UNL     1       9.925 -24.099  39.548  1.00  0.00     0.000 C 
ENDROOT
BRANCH   1   2
ATOM      2  C   UNL     1       9.682 -23.130  40.714  1.00  0.00     0.000 C 
BRANCH   2   3
ATOM      3  C   UNL     1      10.911 -23.060  41.632  1.00  0.00     0.000 C 
BRANCH   3   4
ATOM      4  C   UNL     1      11.683 -21.738  41.489  1.00  0.00     0.000 C 
BRANCH   4   5
ATOM      5  C   UNL     1      13.089 -21.938  40.895  1.00  0.00     0.000 C 
BRANCH   5   6
ATOM      6  C   UNL     1      13.184 -21.472  39.433  1.00  0.00     0.006 C 
BRANCH   6   7
ATOM      7  C   UNL     1      12.985 -22.616  38.432  1.00  0.00     0.053 C 
BRANCH   7   8
ATOM      8  C   UNL     1      14.130 -22.673  37.470  1.00  0.00     0.041 C 
ATOM      9  O   UNL     1      15.207 -23.235  37.801  1.00  0.00    -0.550 OA
ATOM     10  O   UNL     1      14.025 -22.062  36.227  1.00  0.00    -0.550 OA
ENDBRANCH   7   8
ENDBRANCH   6   7
ENDBRANCH   5   6
ENDBRANCH   4   5
ENDBRANCH   3   4
ENDBRANCH   2   3
ENDBRANCH   1   2
BRANCH   1  11
ATOM     11  C   UNL     1       9.097 -25.393  39.661  1.00  0.00     0.000 C 
BRANCH  11  12
ATOM     12  C   UNL     1       8.674 -25.778  41.092  1.00  0.00    -0.000 C 
BRANCH  12  13
ATOM     13  C   UNL     1       9.706 -26.608  41.877  1.00  0.00    -0.000 C 
BRANCH  13  14
ATOM     14  C   UNL     1      10.171 -27.858  41.114  1.00  0.00    -0.000 C 
BRANCH  14  15
ATOM     15  C   UNL     1      11.697 -27.860  40.947  1.00  0.00    -0.000 C 
BRANCH  15  16
ATOM     16  C   UNL     1      12.142 -27.645  39.490  1.00  0.00    -0.000 C 
BRANCH  16  17
ATOM     17  C   UNL     1      12.813 -26.288  39.213  1.00  0.00    -0.003 C 
ATOM     18  C   UNL     1      13.356 -25.621  40.476  1.00  0.00     0.004 C 
ENDBRANCH  16  17
ENDBRANCH  15  16
ENDBRANCH  14  15
ENDBRANCH  13  14
ENDBRANCH  12  13
ENDBRANCH  11  12
ENDBRANCH   1  11
TORSDOF 14
ENDMDL
MODEL 2
REMARK VINA RESULT:    -3.643      1.766      4.430
REMARK INTER + INTRA:          -8.850
REMARK INTER:                  -6.894
REMARK INTRA:                  -1.956
REMARK UNBOUND:                -2.226
REMARK SMILES CCCCCCCCCCCCCCCC(=O)[O-]
REMARK SMILES IDX 9 1 10 2 11 3 12 4 13 5 14 6 15 7 16 8 17 9 18 10 8 11 7 12
REMARK SMILES IDX 6 13 5 14 4 15 3 16 2 17 1 18
REMARK H PARENT
REMARK Flexibility Score: inf
ROOT
ATOM      1  C   UNL     1      10.391 -28.768  40.902  1.00  0.00     0.000 C 
ENDROOT
BRANCH   1   2
ATOM      2  C   UNL     1      11.338 -29.211  42.027  1.00  0.00     0.000 C 
BRANCH   2   3
ATOM      3  C   UNL     1      12.802 -28.958  41.640  1.00  0.00     0.000 C 
BRANCH   3   4
ATOM      4  C   UNL     1      12.941 -28.036  40.418  1.00  0.00     0.000 C 
BRANCH   4   5
ATOM      5  C   UNL     1      13.546 -26.667  40.780  1.00  0.00     0.000 C 
BRANCH   5   6
ATOM      6  C   UNL     1      13.082 -25.547  39.834  1.00  0.00     0.006 C 
BRANCH   6   7
ATOM      7  C   UNL     1      12.694 -26.069  38.445  1.00  0.00     0.053 C 
BRANCH   7   8
ATOM      8  C   UNL     1      13.721 -25.669  37.433  1.00  0.00     0.041 C 
ATOM      9  O   UNL     1      14.776 -25.086  37.798  1.00  0.00    -0.550 OA
ATOM     10  O   UNL     1      13.492 -25.896  36.082  1.00  0.00    -0.550 OA
ENDBRANCH   7   8
ENDBRANCH   6   7
ENDBRANCH   5   6
ENDBRANCH   4   5
ENDBRANCH   3   4
ENDBRANCH   2   3
ENDBRANCH   1   2
BRANCH   1  11
ATOM     11  C   UNL     1       9.292 -27.805  41.388  1.00  0.00     0.000 C 
BRANCH  11  12
ATOM     12  C   UNL     1       9.743 -26.345  41.591  1.00  0.00    -0.000 C 
BRANCH  12  13
ATOM     13  C   UNL     1       8.902 -25.292  40.848  1.00  0.00    -0.000 C 
BRANCH  13  14
ATOM     14  C   UNL     1       9.759 -24.304  40.042  1.00  0.00    -0.000 C 
BRANCH  14  15
ATOM     15  C   UNL     1       9.580 -22.872  40.566  1.00  0.00    -0.000 C 
BRANCH  15  16
ATOM     16  C   UNL     1      10.912 -22.201  40.946  1.00  0.00    -0.000 C 
BRANCH  16  17
ATOM     17  C   UNL     1      11.473 -22.613  42.319  1.00  0.00    -0.003 C 
ATOM     18  C   UNL     1      13.000 -22.671  42.347  1.00  0.00     0.004 C 
ENDBRANCH  16  17
ENDBRANCH  15  16
ENDBRANCH  14  15
ENDBRANCH  13  14
ENDBRANCH  12  13
ENDBRANCH  11  12
ENDBRANCH   1  11
TORSDOF 14
ENDMDL
MODEL 3
REMARK VINA RESULT:    -3.580      1.601      2.413
REMARK INTER + INTRA:          -8.736
REMARK INTER:                  -6.868
REMARK INTRA:                  -1.868
REMARK UNBOUND:                -2.226
REMARK SMILES CCCCCCCCCCCCCCCC(=O)[O-]
REMARK SMILES IDX 9 1 10 2 11 3 12 4 13 5 14 6 15 7 16 8 17 9 18 10 8 11 7 12
REMARK SMILES IDX 6 13 5 14 4 15 3 16 2 17 1 18
REMARK H PARENT
REMARK Flexibility Score: inf
ROOT
ATOM      1  C   UNL     1      10.137 -22.622  40.649  1.00  0.00     0.000 C 
ENDROOT
BRANCH   1   2
ATOM      2  C   UNL     1      10.998 -22.584  41.920  1.00  0.00     0.000 C 
BRANCH   2   3
ATOM      3  C   UNL     1      12.208 -21.656  41.733  1.00  0.00     0.000 C 
BRANCH   3   4
ATOM      4  C   UNL     1      13.511 -22.429  41.471  1.00  0.00     0.000 C 
BRANCH   4   5
ATOM      5  C   UNL     1      14.196 -21.998  40.162  1.00  0.00     0.000 C 
BRANCH   5   6
ATOM      6  C   UNL     1      13.192 -21.534  39.094  1.00  0.00     0.006 C 
BRANCH   6   7
ATOM      7  C   UNL     1      13.865 -20.797  37.929  1.00  0.00     0.053 C 
BRANCH   7   8
ATOM      8  C   UNL     1      13.979 -21.697  36.740  1.00  0.00     0.041 C 
ATOM      9  O   UNL     1      14.342 -22.894  36.883  1.00  0.00    -0.550 OA
ATOM     10  O   UNL     1      13.731 -21.201  35.466  1.00  0.00    -0.550 OA
ENDBRANCH   7   8
ENDBRANCH   6   7
ENDBRANCH   5   6
ENDBRANCH   4   5
ENDBRANCH   3   4
ENDBRANCH   2   3
ENDBRANCH   1   2
BRANCH   1  11
ATOM     11  C   UNL     1      10.213 -23.972  39.913  1.00  0.00     0.000 C 
BRANCH  11  12
ATOM     12  C   UNL     1      11.040 -25.061  40.625  1.00  0.00    -0.000 C 
BRANCH  12  13
ATOM     13  C   UNL     1      12.271 -25.559  39.846  1.00  0.00    -0.000 C 
BRANCH  13  14
ATOM     14  C   UNL     1      12.925 -26.791  40.490  1.00  0.00    -0.000 C 
BRANCH  14  15
ATOM     15  C   UNL     1      14.396 -26.913  40.066  1.00  0.00    -0.000 C 
BRANCH  15  16
ATOM     16  C   UNL     1      15.120 -25.555  40.014  1.00  0.00    -0.000 C 
BRANCH  16  17
ATOM     17  C   UNL     1      16.061 -25.370  38.810  1.00  0.00    -0.003 C 
ATOM     18  C   UNL     1      16.037 -26.556  37.846  1.00  0.00     0.004 C 
ENDBRANCH  16  17
ENDBRANCH  15  16
ENDBRANCH  14  15
ENDBRANCH  13  14
ENDBRANCH  12  13
ENDBRANCH  11  12
ENDBRANCH   1  11
TORSDOF 14
ENDMDL
MODEL 4
REMARK VINA RESULT:    -3.552      1.510      3.479
REMARK INTER + INTRA:          -8.685
REMARK INTER:                  -6.812
REMARK INTRA:                  -1.874
REMARK UNBOUND:                -2.226
REMARK SMILES CCCCCCCCCCCCCCCC(=O)[O-]
REMARK SMILES IDX 9 1 10 2 11 3 12 4 13 5 14 6 15 7 16 8 17 9 18 10 8 11 7 12
REMARK SMILES IDX 6 13 5 14 4 15 3 16 2 17 1 18
REMARK H PARENT
REMARK Flexibility Score: inf
ROOT
ATOM      1  C   UNL     1      11.653 -21.837  41.545  1.00  0.00     0.000 C 
ENDROOT
BRANCH   1   2
ATOM      2  C   UNL     1      13.138 -22.020  41.888  1.00  0.00     0.000 C 
BRANCH   2   3
ATOM      3  C   UNL     1      14.010 -21.897  40.630  1.00  0.00     0.000 C 
BRANCH   3   4
ATOM      4  C   UNL     1      13.186 -21.600  39.366  1.00  0.00     0.000 C 
BRANCH   4   5
ATOM      5  C   UNL     1      13.167 -22.785  38.384  1.00  0.00     0.000 C 
BRANCH   5   6
ATOM      6  C   UNL     1      13.818 -24.048  38.971  1.00  0.00     0.006 C 
BRANCH   6   7
ATOM      7  C   UNL     1      13.028 -25.323  38.651  1.00  0.00     0.053 C 
BRANCH   7   8
ATOM      8  C   UNL     1      13.690 -26.081  37.543  1.00  0.00     0.041 C 
ATOM      9  O   UNL     1      13.618 -25.662  36.358  1.00  0.00    -0.550 OA
ATOM     10  O   UNL     1      14.344 -27.276  37.812  1.00  0.00    -0.550 OA
ENDBRANCH   7   8
ENDBRANCH   6   7
ENDBRANCH   5   6
ENDBRANCH   4   5
ENDBRANCH   3   4
ENDBRANCH   2   3
ENDBRANCH   1   2
BRANCH   1  11
ATOM     11  C   UNL     1      10.830 -23.124  41.735  1.00  0.00     0.000 C 
BRANCH  11  12
ATOM     12  C   UNL     1       9.531 -23.199  40.908  1.00  0.00    -0.000 C 
BRANCH  12  13
ATOM     13  C   UNL     1       9.659 -23.918  39.553  1.00  0.00    -0.000 C 
BRANCH  13  14
ATOM     14  C   UNL     1       9.342 -25.419  39.643  1.00  0.00    -0.000 C 
BRANCH  14  15
ATOM     15  C   UNL     1       8.511 -25.729  40.896  1.00  0.00    -0.000 C 
BRANCH  15  16
ATOM     16  C   UNL     1       8.995 -26.985  41.641  1.00  0.00    -0.000 C 
BRANCH  16  17
ATOM     17  C   UNL     1      10.525 -27.141  41.721  1.00  0.00    -0.003 C 
ATOM     18  C   UNL     1      10.989 -28.585  41.535  1.00  0.00     0.004 C 
ENDBRANCH  16  17
ENDBRANCH  15  16
ENDBRANCH  14  15
ENDBRANCH  13  14
ENDBRANCH  12  13
ENDBRANCH  11  12
ENDBRANCH   1  11
TORSDOF 14
ENDMDL
MODEL 5
REMARK VINA RESULT:    -3.489      2.141      5.295
REMARK INTER + INTRA:          -8.570
REMARK INTER:                  -6.385
REMARK INTRA:                  -2.185
REMARK UNBOUND:                -2.226
REMARK SMILES CCCCCCCCCCCCCCCC(=O)[O-]
REMARK SMILES IDX 9 1 10 2 11 3 12 4 13 5 14 6 15 7 16 8 17 9 18 10 8 11 7 12
REMARK SMILES IDX 6 13 5 14 4 15 3 16 2 17 1 18
REMARK H PARENT
REMARK Flexibility Score: inf
ROOT
ATOM      1  C   UNL     1      10.863 -22.527  41.839  1.00  0.00     0.000 C 
ENDROOT
BRANCH   1   2
ATOM      2  C   UNL     1       9.768 -22.609  40.765  1.00  0.00     0.000 C 
BRANCH   2   3
ATOM      3  C   UNL     1       9.863 -23.930  39.988  1.00  0.00     0.000 C 
BRANCH   3   4
ATOM      4  C   UNL     1      10.089 -25.143  40.905  1.00  0.00     0.000 C 
BRANCH   4   5
ATOM      5  C   UNL     1      11.337 -25.953  40.512  1.00  0.00     0.000 C 
BRANCH   5   6
ATOM      6  C   UNL     1      11.870 -25.579  39.119  1.00  0.00     0.006 C 
BRANCH   6   7
ATOM      7  C   UNL     1      13.193 -26.279  38.783  1.00  0.00     0.053 C 
BRANCH   7   8
ATOM      8  C   UNL     1      13.189 -26.744  37.361  1.00  0.00     0.041 C 
ATOM      9  O   UNL     1      12.932 -27.946  37.089  1.00  0.00    -0.550 OA
ATOM     10  O   UNL     1      13.519 -25.862  36.340  1.00  0.00    -0.550 OA
ENDBRANCH   7   8
ENDBRANCH   6   7
ENDBRANCH   5   6
ENDBRANCH   4   5
ENDBRANCH   3   4
ENDBRANCH   2   3
ENDBRANCH   1   2
BRANCH   1  11
ATOM     11  C   UNL     1      12.123 -21.786  41.357  1.00  0.00     0.000 C 
BRANCH  11  12
ATOM     12  C   UNL     1      13.396 -22.650  41.263  1.00  0.00    -0.000 C 
BRANCH  12  13
ATOM     13  C   UNL     1      14.009 -22.761  39.856  1.00  0.00    -0.000 C 
BRANCH  13  14
ATOM     14  C   UNL     1      13.143 -22.099  38.774  1.00  0.00    -0.000 C 
BRANCH  14  15
ATOM     15  C   UNL     1      13.894 -20.938  38.106  1.00  0.00    -0.000 C 
BRANCH  15  16
ATOM     16  C   UNL     1      15.293 -20.706  38.703  1.00  0.00    -0.000 C 
BRANCH  16  17
ATOM     17  C   UNL     1      15.416 -19.460  39.597  1.00  0.00    -0.003 C 
ATOM     18  C   UNL     1      14.128 -18.639  39.658  1.00  0.00     0.004 C 
ENDBRANCH  16  17
ENDBRANCH  15  16
ENDBRANCH  14  15
ENDBRANCH  13  14
ENDBRANCH  12  13
ENDBRANCH  11  12
ENDBRANCH   1  11
TORSDOF 14
ENDMDL
MODEL 6
REMARK VINA RESULT:    -3.484      2.427      4.851
REMARK INTER + INTRA:          -8.562
REMARK INTER:                  -6.158
REMARK INTRA:                  -2.403
REMARK UNBOUND:                -2.226
REMARK SMILES CCCCCCCCCCCCCCCC(=O)[O-]
REMARK SMILES IDX 9 1 10 2 11 3 12 4 13 5 14 6 15 7 16 8 17 9 18 10 8 11 7 12
REMARK SMILES IDX 6 13 5 14 4 15 3 16 2 17 1 18
REMARK H PARENT
REMARK Flexibility Score: inf
ROOT
ATOM      1  C   UNL     1      11.604 -24.436  39.609  1.00  0.00     0.000 C 
ENDROOT
BRANCH   1   2
ATOM      2  C   UNL     1      12.662 -23.625  38.847  1.00  0.00     0.000 C 
BRANCH   2   3
ATOM      3  C   UNL     1      14.078 -24.014  39.295  1.00  0.00     0.000 C 
BRANCH   3   4
ATOM      4  C   UNL     1      14.075 -25.020  40.459  1.00  0.00     0.000 C 
BRANCH   4   5
ATOM      5  C   UNL     1      14.813 -26.325  40.110  1.00  0.00     0.000 C 
BRANCH   5   6
ATOM      6  C   UNL     1      15.102 -26.457  38.606  1.00  0.00     0.006 C 
BRANCH   6   7
ATOM      7  C   UNL     1      14.186 -27.474  37.915  1.00  0.00     0.053 C 
BRANCH   7   8
ATOM      8  C   UNL     1      13.192 -26.773  37.044  1.00  0.00     0.041 C 
ATOM      9  O   UNL     1      13.575 -25.900  36.222  1.00  0.00    -0.550 OA
ATOM     10  O   UNL     1      11.837 -27.049  37.174  1.00  0.00    -0.550 OA
ENDBRANCH   7   8
ENDBRANCH   6   7
ENDBRANCH   5   6
ENDBRANCH   4   5
ENDBRANCH   3   4
ENDBRANCH   2   3
ENDBRANCH   1   2
BRANCH   1  11
ATOM     11  C   UNL     1      10.247 -23.714  39.704  1.00  0.00     0.000 C 
BRANCH  11  12
ATOM     12  C   UNL     1       9.987 -22.980  41.034  1.00  0.00    -0.000 C 
BRANCH  12  13
ATOM     13  C   UNL     1      11.175 -22.960  42.013  1.00  0.00    -0.000 C 
BRANCH  13  14
ATOM     14  C   UNL     1      11.932 -21.623  42.006  1.00  0.00    -0.000 C 
BRANCH  14  15
ATOM     15  C   UNL     1      13.423 -21.837  42.302  1.00  0.00    -0.000 C 
BRANCH  15  16
ATOM     16  C   UNL     1      14.342 -21.016  41.380  1.00  0.00    -0.000 C 
BRANCH  16  17
ATOM     17  C   UNL     1      13.629 -20.335  40.197  1.00  0.00    -0.003 C 
ATOM     18  C   UNL     1      14.535 -20.151  38.980  1.00  0.00     0.004 C 
ENDBRANCH  16  17
ENDBRANCH  15  16
ENDBRANCH  14  15
ENDBRANCH  13  14
ENDBRANCH  12  13
ENDBRANCH  11  12
ENDBRANCH   1  11
TORSDOF 14
ENDMDL
MODEL 7
REMARK VINA RESULT:    -3.458      1.304      2.358
REMARK INTER + INTRA:          -8.514
REMARK INTER:                  -6.518
REMARK INTRA:                  -1.997
REMARK UNBOUND:                -2.226
REMARK SMILES CCCCCCCCCCCCCCCC(=O)[O-]
REMARK SMILES IDX 9 1 10 2 11 3 12 4 13 5 14 6 15 7 16 8 17 9 18 10 8 11 7 12
REMARK SMILES IDX 6 13 5 14 4 15 3 16 2 17 1 18
REMARK H PARENT
REMARK Flexibility Score: inf
ROOT
ATOM      1  C   UNL     1       9.768 -22.812  40.830  1.00  0.00     0.000 C 
ENDROOT
BRANCH   1   2
ATOM      2  C   UNL     1      10.953 -22.863  41.805  1.00  0.00     0.000 C 
BRANCH   2   3
ATOM      3  C   UNL     1      11.954 -21.737  41.508  1.00  0.00     0.000 C 
BRANCH   3   4
ATOM      4  C   UNL     1      13.414 -22.219  41.534  1.00  0.00     0.000 C 
BRANCH   4   5
ATOM      5  C   UNL     1      14.055 -22.230  40.135  1.00  0.00     0.000 C 
BRANCH   5   6
ATOM      6  C   UNL     1      13.100 -21.721  39.044  1.00  0.00     0.006 C 
BRANCH   6   7
ATOM      7  C   UNL     1      13.815 -20.883  37.976  1.00  0.00     0.053 C 
BRANCH   7   8
ATOM      8  C   UNL     1      14.254 -21.752  36.840  1.00  0.00     0.041 C 
ATOM      9  O   UNL     1      15.131 -21.344  36.033  1.00  0.00    -0.550 OA
ATOM     10  O   UNL     1      13.661 -22.992  36.643  1.00  0.00    -0.550 OA
ENDBRANCH   7   8
ENDBRANCH   6   7
ENDBRANCH   5   6
ENDBRANCH   4   5
ENDBRANCH   3   4
ENDBRANCH   2   3
ENDBRANCH   1   2
BRANCH   1  11
ATOM     11  C   UNL     1       9.776 -23.970  39.815  1.00  0.00     0.000 C 
BRANCH  11  12
ATOM     12  C   UNL     1      10.870 -25.033  40.042  1.00  0.00    -0.000 C 
BRANCH  12  13
ATOM     13  C   UNL     1      11.944 -25.109  38.942  1.00  0.00    -0.000 C 
BRANCH  13  14
ATOM     14  C   UNL     1      13.237 -25.789  39.417  1.00  0.00    -0.000 C 
BRANCH  14  15
ATOM     15  C   UNL     1      12.970 -26.680  40.638  1.00  0.00    -0.000 C 
BRANCH  15  16
ATOM     16  C   UNL     1      12.968 -28.181  40.297  1.00  0.00    -0.000 C 
BRANCH  16  17
ATOM     17  C   UNL     1      11.642 -28.908  40.588  1.00  0.00    -0.003 C 
ATOM     18  C   UNL     1      11.145 -28.695  42.017  1.00  0.00     0.004 C 
ENDBRANCH  16  17
ENDBRANCH  15  16
ENDBRANCH  14  15
ENDBRANCH  13  14
ENDBRANCH  12  13
ENDBRANCH  11  12
ENDBRANCH   1  11
TORSDOF 14
ENDMDL
MODEL 8
REMARK VINA RESULT:    -3.430      1.763      2.454
REMARK INTER + INTRA:          -8.463
REMARK INTER:                  -6.320
REMARK INTRA:                  -2.143
REMARK UNBOUND:                -2.226
REMARK SMILES CCCCCCCCCCCCCCCC(=O)[O-]
REMARK SMILES IDX 9 1 10 2 11 3 12 4 13 5 14 6 15 7 16 8 17 9 18 10 8 11 7 12
REMARK SMILES IDX 6 13 5 14 4 15 3 16 2 17 1 18
REMARK H PARENT
REMARK Flexibility Score: inf
ROOT
ATOM      1  C   UNL     1       9.742 -23.948  39.956  1.00  0.00     0.000 C 
ENDROOT
BRANCH   1   2
ATOM      2  C   UNL     1       9.664 -22.627  40.735  1.00  0.00     0.000 C 
BRANCH   2   3
ATOM      3  C   UNL     1      10.841 -22.498  41.713  1.00  0.00     0.000 C 
BRANCH   3   4
ATOM      4  C   UNL     1      12.089 -21.882  41.060  1.00  0.00     0.000 C 
BRANCH   4   5
ATOM      5  C   UNL     1      13.378 -22.639  41.426  1.00  0.00     0.000 C 
BRANCH   5   6
ATOM      6  C   UNL     1      13.964 -23.419  40.238  1.00  0.00     0.006 C 
BRANCH   6   7
ATOM      7  C   UNL     1      13.159 -23.223  38.947  1.00  0.00     0.053 C 
BRANCH   7   8
ATOM      8  C   UNL     1      14.005 -23.534  37.753  1.00  0.00     0.041 C 
ATOM      9  O   UNL     1      14.966 -22.781  37.445  1.00  0.00    -0.550 OA
ATOM     10  O   UNL     1      13.704 -24.628  36.953  1.00  0.00    -0.550 OA
ENDBRANCH   7   8
ENDBRANCH   6   7
ENDBRANCH   5   6
ENDBRANCH   4   5
ENDBRANCH   3   4
ENDBRANCH   2   3
ENDBRANCH   1   2
BRANCH   1  11
ATOM     11  C   UNL     1      10.340 -25.100  40.786  1.00  0.00     0.000 C 
BRANCH  11  12
ATOM     12  C   UNL     1      11.001 -26.224  39.965  1.00  0.00    -0.000 C 
BRANCH  12  13
ATOM     13  C   UNL     1      12.360 -26.711  40.499  1.00  0.00    -0.000 C 
BRANCH  13  14
ATOM     14  C   UNL     1      13.353 -27.055  39.378  1.00  0.00    -0.000 C 
BRANCH  14  15
ATOM     15  C   UNL     1      14.782 -27.166  39.929  1.00  0.00    -0.000 C 
BRANCH  15  16
ATOM     16  C   UNL     1      14.868 -26.872  41.438  1.00  0.00    -0.000 C 
BRANCH  16  17
ATOM     17  C   UNL     1      15.418 -28.029  42.291  1.00  0.00    -0.003 C 
ATOM     18  C   UNL     1      14.318 -28.898  42.899  1.00  0.00     0.004 C 
ENDBRANCH  16  17
ENDBRANCH  15  16
ENDBRANCH  14  15
ENDBRANCH  13  14
ENDBRANCH  12  13
ENDBRANCH  11  12
ENDBRANCH   1  11
TORSDOF 14
ENDMDL
MODEL 9
REMARK VINA RESULT:    -3.393      3.709      6.435
REMARK INTER + INTRA:          -8.396
REMARK INTER:                  -6.562
REMARK INTRA:                  -1.834
REMARK UNBOUND:                -2.226
REMARK SMILES CCCCCCCCCCCCCCCC(=O)[O-]
REMARK SMILES IDX 9 1 10 2 11 3 12 4 13 5 14 6 15 7 16 8 17 9 18 10 8 11 7 12
REMARK SMILES IDX 6 13 5 14 4 15 3 16 2 17 1 18
REMARK H PARENT
REMARK Flexibility Score: inf
ROOT
ATOM      1  C   UNL     1      13.746 -25.323  40.101  1.00  0.00     0.000 C 
ENDROOT
BRANCH   1   2
ATOM      2  C   UNL     1      14.392 -26.541  40.778  1.00  0.00     0.000 C 
BRANCH   2   3
ATOM      3  C   UNL     1      15.661 -26.974  40.029  1.00  0.00     0.000 C 
BRANCH   3   4
ATOM      4  C   UNL     1      15.359 -27.544  38.632  1.00  0.00     0.000 C 
BRANCH   4   5
ATOM      5  C   UNL     1      15.008 -29.042  38.672  1.00  0.00     0.000 C 
BRANCH   5   6
ATOM      6  C   UNL     1      13.502 -29.301  38.498  1.00  0.00     0.006 C 
BRANCH   6   7
ATOM      7  C   UNL     1      12.852 -29.881  39.760  1.00  0.00     0.053 C 
BRANCH   7   8
ATOM      8  C   UNL     1      13.018 -31.368  39.795  1.00  0.00     0.041 C 
ATOM      9  O   UNL     1      12.318 -32.101  39.048  1.00  0.00    -0.550 OA
ATOM     10  O   UNL     1      13.911 -31.947  40.687  1.00  0.00    -0.550 OA
ENDBRANCH   7   8
ENDBRANCH   6   7
ENDBRANCH   5   6
ENDBRANCH   4   5
ENDBRANCH   3   4
ENDBRANCH   2   3
ENDBRANCH   1   2
BRANCH   1  11
ATOM     11  C   UNL     1      12.330 -25.612  39.571  1.00  0.00     0.000 C 
BRANCH  11  12
ATOM     12  C   UNL     1      11.361 -26.237  40.594  1.00  0.00    -0.000 C 
BRANCH  12  13
ATOM     13  C   UNL     1      10.209 -25.322  41.046  1.00  0.00    -0.000 C 
BRANCH  13  14
ATOM     14  C   UNL     1       9.808 -24.295  39.976  1.00  0.00    -0.000 C 
BRANCH  14  15
ATOM     15  C   UNL     1       9.744 -22.881  40.573  1.00  0.00    -0.000 C 
BRANCH  15  16
ATOM     16  C   UNL     1      10.771 -22.657  41.696  1.00  0.00    -0.000 C 
BRANCH  16  17
ATOM     17  C   UNL     1      11.993 -21.811  41.296  1.00  0.00    -0.003 C 
ATOM     18  C   UNL     1      13.249 -22.160  42.092  1.00  0.00     0.004 C 
ENDBRANCH  16  17
ENDBRANCH  15  16
ENDBRANCH  14  15
ENDBRANCH  13  14
ENDBRANCH  12  13
ENDBRANCH  11  12
ENDBRANCH   1  11
TORSDOF 14
ENDMDL
