MODEL 1
REMARK VINA RESULT:    -4.434      0.000      0.000
REMARK INTER + INTRA:         -12.376
REMARK INTER:                  -9.619
REMARK INTRA:                  -2.757
REMARK UNBOUND:                -2.757
REMARK SMILES CCCCCCCCCCCCCCCCCCCCCC(=O)[O-]
REMARK SMILES IDX 12 1 11 2 10 3 9 4 8 5 7 6 6 7 5 8 4 9 3 10 2 11 1 12 13 13
REMARK SMILES IDX 14 14 15 15 16 16 17 17 18 18 19 19 20 20 21 21 22 22 23 23
REMARK SMILES IDX 24 24
REMARK H PARENT
REMARK Flexibility Score: inf
ROOT
ATOM      1  C   UNL     1      69.930 -37.810  10.832  1.00  0.00     0.000 C 
ENDROOT
BRANCH   1   2
ATOM      2  C   UNL     1      71.022 -38.881  10.980  1.00  0.00     0.000 C 
BRANCH   2   3
ATOM      3  C   UNL     1      72.302 -38.274  11.579  1.00  0.00     0.000 C 
BRANCH   3   4
ATOM      4  C   UNL     1      72.853 -37.107  10.745  1.00  0.00    -0.000 C 
BRANCH   4   5
ATOM      5  C   UNL     1      74.329 -37.303  10.358  1.00  0.00    -0.000 C 
BRANCH   5   6
ATOM      6  C   UNL     1      74.618 -36.896   8.904  1.00  0.00    -0.000 C 
BRANCH   6   7
ATOM      7  C   UNL     1      73.394 -36.276   8.205  1.00  0.00    -0.000 C 
BRANCH   7   8
ATOM      8  C   UNL     1      73.656 -35.972   6.722  1.00  0.00    -0.000 C 
BRANCH   8   9
ATOM      9  C   UNL     1      72.884 -34.735   6.229  1.00  0.00    -0.000 C 
BRANCH   9  10
ATOM     10  C   UNL     1      72.174 -33.979   7.367  1.00  0.00    -0.000 C 
BRANCH  10  11
ATOM     11  C   UNL     1      71.076 -33.005   6.905  1.00  0.00    -0.003 C 
ATOM     12  C   UNL     1      70.516 -33.345   5.524  1.00  0.00     0.004 C 
ENDBRANCH  10  11
ENDBRANCH   9  10
ENDBRANCH   8   9
ENDBRANCH   7   8
ENDBRANCH   6   7
ENDBRANCH   5   6
ENDBRANCH   4   5
ENDBRANCH   3   4
ENDBRANCH   2   3
ENDBRANCH   1   2
BRANCH   1  13
ATOM     13  C   UNL     1      69.251 -37.839   9.453  1.00  0.00     0.000 C 
BRANCH  13  14
ATOM     14  C   UNL     1      70.072 -37.106   8.377  1.00  0.00     0.000 C 
BRANCH  14  15
ATOM     15  C   UNL     1      69.198 -36.299   7.401  1.00  0.00     0.000 C 
BRANCH  15  16
ATOM     16  C   UNL     1      67.914 -35.703   8.008  1.00  0.00     0.000 C 
BRANCH  16  17
ATOM     17  C   UNL     1      66.632 -36.228   7.338  1.00  0.00     0.000 C 
BRANCH  17  18
ATOM     18  C   UNL     1      65.526 -36.543   8.358  1.00  0.00     0.000 C 
BRANCH  18  19
ATOM     19  C   UNL     1      65.836 -35.967   9.751  1.00  0.00     0.000 C 
BRANCH  19  20
ATOM     20  C   UNL     1      65.765 -37.029  10.860  1.00  0.00     0.006 C 
BRANCH  20  21
ATOM     21  C   UNL     1      66.384 -36.552  12.181  1.00  0.00     0.053 C 
BRANCH  21  22
ATOM     22  C   UNL     1      65.314 -36.109  13.127  1.00  0.00     0.041 C 
ATOM     23  O   UNL     1      64.103 -36.335  12.866  1.00  0.00    -0.550 OA
ATOM     24  O   UNL     1      65.650 -35.398  14.272  1.00  0.00    -0.550 OA
ENDBRANCH  21  22
ENDBRANCH  20  21
ENDBRANCH  19  20
ENDBRANCH  18  19
ENDBRANCH  17  18
ENDBRANCH  16  17
ENDBRANCH  15  16
ENDBRANCH  14  15
ENDBRANCH  13  14
ENDBRANCH   1  13
TORSDOF 20
ENDMDL
MODEL 2
REMARK VINA RESULT:    -4.336      3.122      6.358
REMARK INTER + INTRA:         -12.162
REMARK INTER:                  -9.493
REMARK INTRA:                  -2.669
REMARK UNBOUND:                -2.757
REMARK SMILES CCCCCCCCCCCCCCCCCCCCCC(=O)[O-]
REMARK SMILES IDX 12 1 11 2 10 3 9 4 8 5 7 6 6 7 5 8 4 9 3 10 2 11 1 12 13 13
REMARK SMILES IDX 14 14 15 15 16 16 17 17 18 18 19 19 20 20 21 21 22 22 23 23
REMARK SMILES IDX 24 24
REMARK H PARENT
REMARK Flexibility Score: inf
ROOT
ATOM      1  C   UNL     1      74.404 -37.477  10.364  1.00  0.00     0.000 C 
ENDROOT
BRANCH   1   2
ATOM      2  C   UNL     1      72.990 -37.081  10.817  1.00  0.00     0.000 C 
BRANCH   2   3
ATOM      3  C   UNL     1      72.380 -38.172  11.712  1.00  0.00     0.000 C 
BRANCH   3   4
ATOM      4  C   UNL     1      70.874 -38.365  11.473  1.00  0.00    -0.000 C 
BRANCH   4   5
ATOM      5  C   UNL     1      70.405 -37.758  10.139  1.00  0.00    -0.000 C 
BRANCH   5   6
ATOM      6  C   UNL     1      69.696 -38.784   9.240  1.00  0.00    -0.000 C 
BRANCH   6   7
ATOM      7  C   UNL     1      68.331 -39.224   9.801  1.00  0.00    -0.000 C 
BRANCH   7   8
ATOM      8  C   UNL     1      67.233 -38.178   9.562  1.00  0.00    -0.000 C 
BRANCH   8   9
ATOM      9  C   UNL     1      67.115 -37.172  10.719  1.00  0.00    -0.000 C 
BRANCH   9  10
ATOM     10  C   UNL     1      65.668 -36.704  10.962  1.00  0.00    -0.000 C 
BRANCH  10  11
ATOM     11  C   UNL     1      65.530 -35.513  11.925  1.00  0.00    -0.003 C 
ATOM     12  C   UNL     1      66.308 -35.702  13.227  1.00  0.00     0.004 C 
ENDBRANCH  10  11
ENDBRANCH   9  10
ENDBRANCH   8   9
ENDBRANCH   7   8
ENDBRANCH   6   7
ENDBRANCH   5   6
ENDBRANCH   4   5
ENDBRANCH   3   4
ENDBRANCH   2   3
ENDBRANCH   1   2
BRANCH   1  13
ATOM     13  C   UNL     1      74.815 -36.808   9.043  1.00  0.00     0.000 C 
BRANCH  13  14
ATOM     14  C   UNL     1      73.604 -36.332   8.222  1.00  0.00     0.000 C 
BRANCH  14  15
ATOM     15  C   UNL     1      73.891 -36.268   6.710  1.00  0.00     0.000 C 
BRANCH  15  16
ATOM     16  C   UNL     1      72.713 -36.665   5.801  1.00  0.00     0.000 C 
BRANCH  16  17
ATOM     17  C   UNL     1      71.453 -37.062   6.590  1.00  0.00     0.000 C 
BRANCH  17  18
ATOM     18  C   UNL     1      70.162 -36.826   5.788  1.00  0.00     0.000 C 
BRANCH  18  19
ATOM     19  C   UNL     1      69.033 -36.245   6.657  1.00  0.00     0.000 C 
BRANCH  19  20
ATOM     20  C   UNL     1      69.526 -35.145   7.612  1.00  0.00     0.006 C 
BRANCH  20  21
ATOM     21  C   UNL     1      69.490 -33.748   6.978  1.00  0.00     0.053 C 
BRANCH  21  22
ATOM     22  C   UNL     1      70.877 -33.276   6.679  1.00  0.00     0.041 C 
ATOM     23  O   UNL     1      71.561 -32.711   7.572  1.00  0.00    -0.550 OA
ATOM     24  O   UNL     1      71.395 -33.413   5.398  1.00  0.00    -0.550 OA
ENDBRANCH  21  22
ENDBRANCH  20  21
ENDBRANCH  19  20
ENDBRANCH  18  19
ENDBRANCH  17  18
ENDBRANCH  16  17
ENDBRANCH  15  16
ENDBRANCH  14  15
ENDBRANCH  13  14
ENDBRANCH   1  13
TORSDOF 20
ENDMDL
MODEL 3
REMARK VINA RESULT:    -4.332      1.357      2.967
REMARK INTER + INTRA:         -12.154
REMARK INTER:                 -10.286
REMARK INTRA:                  -1.868
REMARK UNBOUND:                -2.757
REMARK SMILES CCCCCCCCCCCCCCCCCCCCCC(=O)[O-]
REMARK SMILES IDX 12 1 11 2 10 3 9 4 8 5 7 6 6 7 5 8 4 9 3 10 2 11 1 12 13 13
REMARK SMILES IDX 14 14 15 15 16 16 17 17 18 18 19 19 20 20 21 21 22 22 23 23
REMARK SMILES IDX 24 24
REMARK H PARENT
REMARK Flexibility Score: inf
ROOT
ATOM      1  C   UNL     1      72.917 -37.135  10.607  1.00  0.00     0.000 C 
ENDROOT
BRANCH   1   2
ATOM      2  C   UNL     1      74.415 -37.375  10.362  1.00  0.00     0.000 C 
BRANCH   2   3
ATOM      3  C   UNL     1      74.846 -36.788   9.008  1.00  0.00     0.000 C 
BRANCH   3   4
ATOM      4  C   UNL     1      73.655 -36.351   8.143  1.00  0.00    -0.000 C 
BRANCH   4   5
ATOM      5  C   UNL     1      74.003 -36.284   6.646  1.00  0.00    -0.000 C 
BRANCH   5   6
ATOM      6  C   UNL     1      72.931 -35.553   5.822  1.00  0.00    -0.000 C 
BRANCH   6   7
ATOM      7  C   UNL     1      73.414 -34.190   5.292  1.00  0.00    -0.000 C 
BRANCH   7   8
ATOM      8  C   UNL     1      72.348 -33.094   5.433  1.00  0.00    -0.000 C 
BRANCH   8   9
ATOM      9  C   UNL     1      70.925 -33.667   5.544  1.00  0.00    -0.000 C 
BRANCH   9  10
ATOM     10  C   UNL     1      70.181 -33.183   6.802  1.00  0.00    -0.000 C 
BRANCH  10  11
ATOM     11  C   UNL     1      69.106 -34.150   7.327  1.00  0.00    -0.003 C 
ATOM     12  C   UNL     1      69.479 -35.620   7.138  1.00  0.00     0.004 C 
ENDBRANCH  10  11
ENDBRANCH   9  10
ENDBRANCH   8   9
ENDBRANCH   7   8
ENDBRANCH   6   7
ENDBRANCH   5   6
ENDBRANCH   4   5
ENDBRANCH   3   4
ENDBRANCH   2   3
ENDBRANCH   1   2
BRANCH   1  13
ATOM     13  C   UNL     1      72.317 -38.112  11.630  1.00  0.00     0.000 C 
BRANCH  13  14
ATOM     14  C   UNL     1      70.897 -38.565  11.249  1.00  0.00     0.000 C 
BRANCH  14  15
ATOM     15  C   UNL     1      70.360 -37.860   9.990  1.00  0.00     0.000 C 
BRANCH  15  16
ATOM     16  C   UNL     1      69.245 -38.613   9.241  1.00  0.00     0.000 C 
BRANCH  16  17
ATOM     17  C   UNL     1      67.993 -38.850  10.106  1.00  0.00     0.000 C 
BRANCH  17  18
ATOM     18  C   UNL     1      67.096 -37.603  10.189  1.00  0.00     0.000 C 
BRANCH  18  19
ATOM     19  C   UNL     1      65.687 -37.933  10.710  1.00  0.00     0.000 C 
BRANCH  19  20
ATOM     20  C   UNL     1      64.966 -36.705  11.290  1.00  0.00     0.006 C 
BRANCH  20  21
ATOM     21  C   UNL     1      64.506 -36.914  12.738  1.00  0.00     0.053 C 
BRANCH  21  22
ATOM     22  C   UNL     1      65.162 -35.920  13.642  1.00  0.00     0.041 C 
ATOM     23  O   UNL     1      64.483 -35.299  14.502  1.00  0.00    -0.550 OA
ATOM     24  O   UNL     1      66.515 -35.638  13.499  1.00  0.00    -0.550 OA
ENDBRANCH  21  22
ENDBRANCH  20  21
ENDBRANCH  19  20
ENDBRANCH  18  19
ENDBRANCH  17  18
ENDBRANCH  16  17
ENDBRANCH  15  16
ENDBRANCH  14  15
ENDBRANCH  13  14
ENDBRANCH   1  13
TORSDOF 20
ENDMDL
MODEL 4
REMARK VINA RESULT:    -4.280      3.304      7.660
REMARK INTER + INTRA:         -12.041
REMARK INTER:                  -9.459
REMARK INTRA:                  -2.582
REMARK UNBOUND:                -2.757
REMARK SMILES CCCCCCCCCCCCCCCCCCCCCC(=O)[O-]
REMARK SMILES IDX 12 1 11 2 10 3 9 4 8 5 7 6 6 7 5 8 4 9 3 10 2 11 1 12 13 13
REMARK SMILES IDX 14 14 15 15 16 16 17 17 18 18 19 19 20 20 21 21 22 22 23 23
REMARK SMILES IDX 24 24
REMARK H PARENT
REMARK Flexibility Score: inf
ROOT
ATOM      1  C   UNL     1      69.433 -34.799   7.444  1.00  0.00     0.000 C 
ENDROOT
BRANCH   1   2
ATOM      2  C   UNL     1      69.452 -36.024   6.516  1.00  0.00     0.000 C 
BRANCH   2   3
ATOM      3  C   UNL     1      70.162 -37.207   7.193  1.00  0.00     0.000 C 
BRANCH   3   4
ATOM      4  C   UNL     1      70.383 -36.987   8.697  1.00  0.00    -0.000 C 
BRANCH   4   5
ATOM      5  C   UNL     1      70.063 -38.239   9.532  1.00  0.00    -0.000 C 
BRANCH   5   6
ATOM      6  C   UNL     1      68.974 -37.983  10.587  1.00  0.00    -0.000 C 
BRANCH   6   7
ATOM      7  C   UNL     1      67.684 -37.400   9.981  1.00  0.00    -0.000 C 
BRANCH   7   8
ATOM      8  C   UNL     1      66.528 -38.412   9.976  1.00  0.00    -0.000 C 
BRANCH   8   9
ATOM      9  C   UNL     1      65.213 -37.807  10.496  1.00  0.00    -0.000 C 
BRANCH   9  10
ATOM     10  C   UNL     1      65.082 -37.886  12.028  1.00  0.00    -0.000 C 
BRANCH  10  11
ATOM     11  C   UNL     1      64.957 -36.524  12.735  1.00  0.00    -0.003 C 
ATOM     12  C   UNL     1      66.310 -35.892  13.061  1.00  0.00     0.004 C 
ENDBRANCH  10  11
ENDBRANCH   9  10
ENDBRANCH   8   9
ENDBRANCH   7   8
ENDBRANCH   6   7
ENDBRANCH   5   6
ENDBRANCH   4   5
ENDBRANCH   3   4
ENDBRANCH   2   3
ENDBRANCH   1   2
BRANCH   1  13
ATOM     13  C   UNL     1      69.806 -33.496   6.718  1.00  0.00     0.000 C 
BRANCH  13  14
ATOM     14  C   UNL     1      71.305 -33.168   6.830  1.00  0.00     0.000 C 
BRANCH  14  15
ATOM     15  C   UNL     1      71.989 -33.013   5.459  1.00  0.00     0.000 C 
BRANCH  15  16
ATOM     16  C   UNL     1      73.210 -33.922   5.228  1.00  0.00     0.000 C 
BRANCH  16  17
ATOM     17  C   UNL     1      72.898 -35.414   5.443  1.00  0.00     0.000 C 
BRANCH  17  18
ATOM     18  C   UNL     1      73.929 -36.101   6.354  1.00  0.00     0.000 C 
BRANCH  18  19
ATOM     19  C   UNL     1      73.598 -35.923   7.846  1.00  0.00     0.000 C 
BRANCH  19  20
ATOM     20  C   UNL     1      74.215 -37.023   8.726  1.00  0.00     0.006 C 
BRANCH  20  21
ATOM     21  C   UNL     1      75.571 -36.619   9.320  1.00  0.00     0.053 C 
BRANCH  21  22
ATOM     22  C   UNL     1      75.624 -36.960  10.775  1.00  0.00     0.041 C 
ATOM     23  O   UNL     1      76.628 -36.644  11.465  1.00  0.00    -0.550 OA
ATOM     24  O   UNL     1      74.586 -37.677  11.358  1.00  0.00    -0.550 OA
ENDBRANCH  21  22
ENDBRANCH  20  21
ENDBRANCH  19  20
ENDBRANCH  18  19
ENDBRANCH  17  18
ENDBRANCH  16  17
ENDBRANCH  15  16
ENDBRANCH  14  15
ENDBRANCH  13  14
ENDBRANCH   1  13
TORSDOF 20
ENDMDL
MODEL 5
REMARK VINA RESULT:    -4.278      1.345      3.128
REMARK INTER + INTRA:         -12.037
REMARK INTER:                  -8.765
REMARK INTRA:                  -3.272
REMARK UNBOUND:                -2.757
REMARK SMILES CCCCCCCCCCCCCCCCCCCCCC(=O)[O-]
REMARK SMILES IDX 12 1 11 2 10 3 9 4 8 5 7 6 6 7 5 8 4 9 3 10 2 11 1 12 13 13
REMARK SMILES IDX 14 14 15 15 16 16 17 17 18 18 19 19 20 20 21 21 22 22 23 23
REMARK SMILES IDX 24 24
REMARK H PARENT
REMARK Flexibility Score: inf
ROOT
ATOM      1  C   UNL     1      71.773 -38.085  11.127  1.00  0.00     0.000 C 
ENDROOT
BRANCH   1   2
ATOM      2  C   UNL     1      72.801 -37.129  10.504  1.00  0.00     0.000 C 
BRANCH   2   3
ATOM      3  C   UNL     1      72.244 -36.491   9.221  1.00  0.00     0.000 C 
BRANCH   3   4
ATOM      4  C   UNL     1      73.318 -36.295   8.140  1.00  0.00    -0.000 C 
BRANCH   4   5
ATOM      5  C   UNL     1      72.818 -35.449   6.956  1.00  0.00    -0.000 C 
BRANCH   5   6
ATOM      6  C   UNL     1      72.025 -34.211   7.408  1.00  0.00    -0.000 C 
BRANCH   6   7
ATOM      7  C   UNL     1      70.897 -33.837   6.429  1.00  0.00    -0.000 C 
BRANCH   7   8
ATOM      8  C   UNL     1      69.512 -33.862   7.093  1.00  0.00    -0.000 C 
BRANCH   8   9
ATOM      9  C   UNL     1      69.098 -35.275   7.539  1.00  0.00    -0.000 C 
BRANCH   9  10
ATOM     10  C   UNL     1      69.190 -36.312   6.404  1.00  0.00    -0.000 C 
BRANCH  10  11
ATOM     11  C   UNL     1      69.664 -37.708   6.845  1.00  0.00    -0.003 C 
ATOM     12  C   UNL     1      70.648 -38.344   5.864  1.00  0.00     0.004 C 
ENDBRANCH  10  11
ENDBRANCH   9  10
ENDBRANCH   8   9
ENDBRANCH   7   8
ENDBRANCH   6   7
ENDBRANCH   5   6
ENDBRANCH   4   5
ENDBRANCH   3   4
ENDBRANCH   2   3
ENDBRANCH   1   2
BRANCH   1  13
ATOM     13  C   UNL     1      70.347 -37.852  10.601  1.00  0.00     0.000 C 
BRANCH  13  14
ATOM     14  C   UNL     1      69.695 -39.142  10.073  1.00  0.00     0.000 C 
BRANCH  14  15
ATOM     15  C   UNL     1      68.170 -39.019   9.907  1.00  0.00     0.000 C 
BRANCH  15  16
ATOM     16  C   UNL     1      67.605 -37.596  10.067  1.00  0.00     0.000 C 
BRANCH  16  17
ATOM     17  C   UNL     1      66.410 -37.315   9.137  1.00  0.00     0.000 C 
BRANCH  17  18
ATOM     18  C   UNL     1      65.838 -35.901   9.333  1.00  0.00     0.000 C 
BRANCH  18  19
ATOM     19  C   UNL     1      64.396 -35.925   9.870  1.00  0.00     0.000 C 
BRANCH  19  20
ATOM     20  C   UNL     1      64.334 -36.144  11.391  1.00  0.00     0.006 C 
BRANCH  20  21
ATOM     21  C   UNL     1      64.912 -34.965  12.186  1.00  0.00     0.053 C 
BRANCH  21  22
ATOM     22  C   UNL     1      65.770 -35.463  13.304  1.00  0.00     0.041 C 
ATOM     23  O   UNL     1      66.895 -35.974  13.063  1.00  0.00    -0.550 OA
ATOM     24  O   UNL     1      65.305 -35.410  14.612  1.00  0.00    -0.550 OA
ENDBRANCH  21  22
ENDBRANCH  20  21
ENDBRANCH  19  20
ENDBRANCH  18  19
ENDBRANCH  17  18
ENDBRANCH  16  17
ENDBRANCH  15  16
ENDBRANCH  14  15
ENDBRANCH  13  14
ENDBRANCH   1  13
TORSDOF 20
ENDMDL
MODEL 6
REMARK VINA RESULT:    -4.251      1.419      3.925
REMARK INTER + INTRA:         -11.979
REMARK INTER:                  -9.222
REMARK INTRA:                  -2.757
REMARK UNBOUND:                -2.757
REMARK SMILES CCCCCCCCCCCCCCCCCCCCCC(=O)[O-]
REMARK SMILES IDX 12 1 11 2 10 3 9 4 8 5 7 6 6 7 5 8 4 9 3 10 2 11 1 12 13 13
REMARK SMILES IDX 14 14 15 15 16 16 17 17 18 18 19 19 20 20 21 21 22 22 23 23
REMARK SMILES IDX 24 24
REMARK H PARENT
REMARK Flexibility Score: inf
ROOT
ATOM      1  C   UNL     1      71.979 -37.200  10.336  1.00  0.00     0.000 C 
ENDROOT
BRANCH   1   2
ATOM      2  C   UNL     1      71.541 -36.640   8.974  1.00  0.00     0.000 C 
BRANCH   2   3
ATOM      3  C   UNL     1      72.739 -36.039   8.221  1.00  0.00     0.000 C 
BRANCH   3   4
ATOM      4  C   UNL     1      72.364 -35.521   6.824  1.00  0.00    -0.000 C 
BRANCH   4   5
ATOM      5  C   UNL     1      72.544 -34.000   6.690  1.00  0.00    -0.000 C 
BRANCH   5   6
ATOM      6  C   UNL     1      71.212 -33.265   6.463  1.00  0.00    -0.000 C 
BRANCH   6   7
ATOM      7  C   UNL     1      70.021 -34.227   6.304  1.00  0.00    -0.000 C 
BRANCH   7   8
ATOM      8  C   UNL     1      69.064 -34.181   7.504  1.00  0.00    -0.000 C 
BRANCH   8   9
ATOM      9  C   UNL     1      68.130 -35.402   7.561  1.00  0.00    -0.000 C 
BRANCH   9  10
ATOM     10  C   UNL     1      68.699 -36.626   6.821  1.00  0.00    -0.000 C 
BRANCH  10  11
ATOM     11  C   UNL     1      67.646 -37.656   6.375  1.00  0.00    -0.003 C 
ATOM     12  C   UNL     1      66.211 -37.176   6.590  1.00  0.00     0.004 C 
ENDBRANCH  10  11
ENDBRANCH   9  10
ENDBRANCH   8   9
ENDBRANCH   7   8
ENDBRANCH   6   7
ENDBRANCH   5   6
ENDBRANCH   4   5
ENDBRANCH   3   4
ENDBRANCH   2   3
ENDBRANCH   1   2
BRANCH   1  13
ATOM     13  C   UNL     1      70.909 -38.094  10.985  1.00  0.00     0.000 C 
BRANCH  13  14
ATOM     14  C   UNL     1      69.484 -37.725  10.538  1.00  0.00     0.000 C 
BRANCH  14  15
ATOM     15  C   UNL     1      68.653 -38.949  10.110  1.00  0.00     0.000 C 
BRANCH  15  16
ATOM     16  C   UNL     1      67.147 -38.688   9.926  1.00  0.00     0.000 C 
BRANCH  16  17
ATOM     17  C   UNL     1      66.743 -37.241  10.259  1.00  0.00     0.000 C 
BRANCH  17  18
ATOM     18  C   UNL     1      65.908 -37.149  11.547  1.00  0.00     0.000 C 
BRANCH  18  19
ATOM     19  C   UNL     1      65.711 -35.696  12.012  1.00  0.00     0.000 C 
BRANCH  19  20
ATOM     20  C   UNL     1      65.789 -35.546  13.540  1.00  0.00     0.006 C 
BRANCH  20  21
ATOM     21  C   UNL     1      64.503 -35.990  14.248  1.00  0.00     0.053 C 
BRANCH  21  22
ATOM     22  C   UNL     1      63.327 -35.239  13.711  1.00  0.00     0.041 C 
ATOM     23  O   UNL     1      63.294 -33.982  13.773  1.00  0.00    -0.550 OA
ATOM     24  O   UNL     1      62.241 -35.931  13.189  1.00  0.00    -0.550 OA
ENDBRANCH  21  22
ENDBRANCH  20  21
ENDBRANCH  19  20
ENDBRANCH  18  19
ENDBRANCH  17  18
ENDBRANCH  16  17
ENDBRANCH  15  16
ENDBRANCH  14  15
ENDBRANCH  13  14
ENDBRANCH   1  13
TORSDOF 20
ENDMDL
MODEL 7
REMARK VINA RESULT:    -4.217      2.400      6.948
REMARK INTER + INTRA:         -11.905
REMARK INTER:                 -10.467
REMARK INTRA:                  -1.438
REMARK UNBOUND:                -2.757
REMARK SMILES CCCCCCCCCCCCCCCCCCCCCC(=O)[O-]
REMARK SMILES IDX 12 1 11 2 10 3 9 4 8 5 7 6 6 7 5 8 4 9 3 10 2 11 1 12 13 13
REMARK SMILES IDX 14 14 15 15 16 16 17 17 18 18 19 19 20 20 21 21 22 22 23 23
REMARK SMILES IDX 24 24
REMARK H PARENT
REMARK Flexibility Score: inf
ROOT
ATOM      1  C   UNL     1      74.410 -37.440  11.134  1.00  0.00     0.000 C 
ENDROOT
BRANCH   1   2
ATOM      2  C   UNL     1      72.899 -37.186  11.016  1.00  0.00     0.000 C 
BRANCH   2   3
ATOM      3  C   UNL     1      72.103 -38.430  11.443  1.00  0.00     0.000 C 
BRANCH   3   4
ATOM      4  C   UNL     1      70.605 -38.144  11.624  1.00  0.00    -0.000 C 
BRANCH   4   5
ATOM      5  C   UNL     1      69.900 -37.821  10.295  1.00  0.00    -0.000 C 
BRANCH   5   6
ATOM      6  C   UNL     1      68.478 -38.402  10.224  1.00  0.00    -0.000 C 
BRANCH   6   7
ATOM      7  C   UNL     1      67.448 -37.390   9.688  1.00  0.00    -0.000 C 
BRANCH   7   8
ATOM      8  C   UNL     1      66.300 -37.142  10.677  1.00  0.00    -0.000 C 
BRANCH   8   9
ATOM      9  C   UNL     1      66.779 -36.483  11.982  1.00  0.00    -0.000 C 
BRANCH   9  10
ATOM     10  C   UNL     1      65.737 -35.524  12.587  1.00  0.00    -0.000 C 
BRANCH  10  11
ATOM     11  C   UNL     1      65.590 -35.613  14.116  1.00  0.00    -0.003 C 
ATOM     12  C   UNL     1      64.215 -35.166  14.613  1.00  0.00     0.004 C 
ENDBRANCH  10  11
ENDBRANCH   9  10
ENDBRANCH   8   9
ENDBRANCH   7   8
ENDBRANCH   6   7
ENDBRANCH   5   6
ENDBRANCH   4   5
ENDBRANCH   3   4
ENDBRANCH   2   3
ENDBRANCH   1   2
BRANCH   1  13
ATOM     13  C   UNL     1      75.162 -37.185   9.817  1.00  0.00     0.000 C 
BRANCH  13  14
ATOM     14  C   UNL     1      74.232 -36.694   8.694  1.00  0.00     0.000 C 
BRANCH  14  15
ATOM     15  C   UNL     1      74.785 -36.985   7.286  1.00  0.00     0.000 C 
BRANCH  15  16
ATOM     16  C   UNL     1      73.999 -36.344   6.128  1.00  0.00     0.000 C 
BRANCH  16  17
ATOM     17  C   UNL     1      73.293 -35.037   6.530  1.00  0.00     0.000 C 
BRANCH  17  18
ATOM     18  C   UNL     1      73.202 -34.038   5.364  1.00  0.00     0.000 C 
BRANCH  18  19
ATOM     19  C   UNL     1      72.088 -32.997   5.573  1.00  0.00     0.000 C 
BRANCH  19  20
ATOM     20  C   UNL     1      71.412 -33.121   6.949  1.00  0.00     0.006 C 
BRANCH  20  21
ATOM     21  C   UNL     1      69.882 -33.195   6.855  1.00  0.00     0.053 C 
BRANCH  21  22
ATOM     22  C   UNL     1      69.390 -34.497   7.401  1.00  0.00     0.041 C 
ATOM     23  O   UNL     1      70.205 -35.414   7.688  1.00  0.00    -0.550 OA
ATOM     24  O   UNL     1      68.026 -34.720   7.544  1.00  0.00    -0.550 OA
ENDBRANCH  21  22
ENDBRANCH  20  21
ENDBRANCH  19  20
ENDBRANCH  18  19
ENDBRANCH  17  18
ENDBRANCH  16  17
ENDBRANCH  15  16
ENDBRANCH  14  15
ENDBRANCH  13  14
ENDBRANCH   1  13
TORSDOF 20
ENDMDL
MODEL 8
REMARK VINA RESULT:    -4.176      1.440      4.256
REMARK INTER + INTRA:         -11.817
REMARK INTER:                  -8.672
REMARK INTRA:                  -3.145
REMARK UNBOUND:                -2.757
REMARK SMILES CCCCCCCCCCCCCCCCCCCCCC(=O)[O-]
REMARK SMILES IDX 12 1 11 2 10 3 9 4 8 5 7 6 6 7 5 8 4 9 3 10 2 11 1 12 13 13
REMARK SMILES IDX 14 14 15 15 16 16 17 17 18 18 19 19 20 20 21 21 22 22 23 23
REMARK SMILES IDX 24 24
REMARK H PARENT
REMARK Flexibility Score: inf
ROOT
ATOM      1  C   UNL     1      69.312 -34.198   7.453  1.00  0.00     0.000 C 
ENDROOT
BRANCH   1   2
ATOM      2  C   UNL     1      69.921 -33.233   6.423  1.00  0.00     0.000 C 
BRANCH   2   3
ATOM      3  C   UNL     1      71.425 -33.044   6.677  1.00  0.00     0.000 C 
BRANCH   3   4
ATOM      4  C   UNL     1      72.257 -33.101   5.386  1.00  0.00    -0.000 C 
BRANCH   4   5
ATOM      5  C   UNL     1      73.160 -34.344   5.319  1.00  0.00    -0.000 C 
BRANCH   5   6
ATOM      6  C   UNL     1      72.360 -35.646   5.140  1.00  0.00    -0.000 C 
BRANCH   6   7
ATOM      7  C   UNL     1      72.779 -36.744   6.135  1.00  0.00    -0.000 C 
BRANCH   7   8
ATOM      8  C   UNL     1      73.495 -36.175   7.369  1.00  0.00    -0.000 C 
BRANCH   8   9
ATOM      9  C   UNL     1      72.555 -36.024   8.578  1.00  0.00    -0.000 C 
BRANCH   9  10
ATOM     10  C   UNL     1      72.931 -36.950   9.749  1.00  0.00    -0.000 C 
BRANCH  10  11
ATOM     11  C   UNL     1      71.741 -37.428  10.599  1.00  0.00    -0.003 C 
ATOM     12  C   UNL     1      72.170 -38.170  11.866  1.00  0.00     0.004 C 
ENDBRANCH  10  11
ENDBRANCH   9  10
ENDBRANCH   8   9
ENDBRANCH   7   8
ENDBRANCH   6   7
ENDBRANCH   5   6
ENDBRANCH   4   5
ENDBRANCH   3   4
ENDBRANCH   2   3
ENDBRANCH   1   2
BRANCH   1  13
ATOM     13  C   UNL     1      69.150 -35.626   6.907  1.00  0.00     0.000 C 
BRANCH  13  14
ATOM     14  C   UNL     1      69.125 -36.684   8.024  1.00  0.00     0.000 C 
BRANCH  14  15
ATOM     15  C   UNL     1      69.552 -38.081   7.536  1.00  0.00     0.000 C 
BRANCH  15  16
ATOM     16  C   UNL     1      69.273 -39.233   8.520  1.00  0.00     0.000 C 
BRANCH  16  17
ATOM     17  C   UNL     1      68.391 -38.808   9.707  1.00  0.00     0.000 C 
BRANCH  17  18
ATOM     18  C   UNL     1      66.981 -39.420   9.636  1.00  0.00     0.000 C 
BRANCH  18  19
ATOM     19  C   UNL     1      65.882 -38.389   9.948  1.00  0.00     0.000 C 
BRANCH  19  20
ATOM     20  C   UNL     1      66.451 -37.035  10.402  1.00  0.00     0.006 C 
BRANCH  20  21
ATOM     21  C   UNL     1      66.061 -36.678  11.842  1.00  0.00     0.053 C 
BRANCH  21  22
ATOM     22  C   UNL     1      64.965 -35.660  11.848  1.00  0.00     0.041 C 
ATOM     23  O   UNL     1      63.770 -36.013  11.663  1.00  0.00    -0.550 OA
ATOM     24  O   UNL     1      65.269 -34.314  12.003  1.00  0.00    -0.550 OA
ENDBRANCH  21  22
ENDBRANCH  20  21
ENDBRANCH  19  20
ENDBRANCH  18  19
ENDBRANCH  17  18
ENDBRANCH  16  17
ENDBRANCH  15  16
ENDBRANCH  14  15
ENDBRANCH  13  14
ENDBRANCH   1  13
TORSDOF 20
ENDMDL
MODEL 9
REMARK VINA RESULT:    -4.040      1.161      3.969
REMARK INTER + INTRA:         -11.520
REMARK INTER:                  -8.636
REMARK INTRA:                  -2.884
REMARK UNBOUND:                -2.757
REMARK SMILES CCCCCCCCCCCCCCCCCCCCCC(=O)[O-]
REMARK SMILES IDX 12 1 11 2 10 3 9 4 8 5 7 6 6 7 5 8 4 9 3 10 2 11 1 12 13 13
REMARK SMILES IDX 14 14 15 15 16 16 17 17 18 18 19 19 20 20 21 21 22 22 23 23
REMARK SMILES IDX 24 24
REMARK H PARENT
REMARK Flexibility Score: inf
ROOT
ATOM      1  C   UNL     1      68.895 -35.296   7.529  1.00  0.00     0.000 C 
ENDROOT
BRANCH   1   2
ATOM      2  C   UNL     1      69.417 -33.901   7.152  1.00  0.00     0.000 C 
BRANCH   2   3
ATOM      3  C   UNL     1      70.284 -33.968   5.885  1.00  0.00     0.000 C 
BRANCH   3   4
ATOM      4  C   UNL     1      71.689 -33.381   6.094  1.00  0.00    -0.000 C 
BRANCH   4   5
ATOM      5  C   UNL     1      72.444 -34.055   7.252  1.00  0.00    -0.000 C 
BRANCH   5   6
ATOM      6  C   UNL     1      73.053 -35.409   6.852  1.00  0.00    -0.000 C 
BRANCH   6   7
ATOM      7  C   UNL     1      73.261 -36.347   8.055  1.00  0.00    -0.000 C 
BRANCH   7   8
ATOM      8  C   UNL     1      72.059 -36.350   9.012  1.00  0.00    -0.000 C 
BRANCH   8   9
ATOM      9  C   UNL     1      72.369 -37.052  10.345  1.00  0.00    -0.000 C 
BRANCH   9  10
ATOM     10  C   UNL     1      71.206 -37.928  10.845  1.00  0.00    -0.000 C 
BRANCH  10  11
ATOM     11  C   UNL     1      70.150 -38.266   9.778  1.00  0.00    -0.003 C 
ATOM     12  C   UNL     1      68.738 -37.835  10.176  1.00  0.00     0.004 C 
ENDBRANCH  10  11
ENDBRANCH   9  10
ENDBRANCH   8   9
ENDBRANCH   7   8
ENDBRANCH   6   7
ENDBRANCH   5   6
ENDBRANCH   4   5
ENDBRANCH   3   4
ENDBRANCH   2   3
ENDBRANCH   1   2
BRANCH   1  13
ATOM     13  C   UNL     1      69.277 -36.373   6.500  1.00  0.00     0.000 C 
BRANCH  13  14
ATOM     14  C   UNL     1      68.111 -37.325   6.183  1.00  0.00     0.000 C 
BRANCH  14  15
ATOM     15  C   UNL     1      66.780 -36.874   6.812  1.00  0.00     0.000 C 
BRANCH  15  16
ATOM     16  C   UNL     1      65.836 -38.013   7.240  1.00  0.00     0.000 C 
BRANCH  16  17
ATOM     17  C   UNL     1      64.489 -37.506   7.785  1.00  0.00     0.000 C 
BRANCH  17  18
ATOM     18  C   UNL     1      64.499 -37.350   9.315  1.00  0.00     0.000 C 
BRANCH  18  19
ATOM     19  C   UNL     1      64.230 -35.900   9.755  1.00  0.00     0.000 C 
BRANCH  19  20
ATOM     20  C   UNL     1      65.279 -35.380  10.752  1.00  0.00     0.006 C 
BRANCH  20  21
ATOM     21  C   UNL     1      65.810 -36.476  11.684  1.00  0.00     0.053 C 
BRANCH  21  22
ATOM     22  C   UNL     1      65.295 -36.273  13.073  1.00  0.00     0.041 C 
ATOM     23  O   UNL     1      64.223 -36.822  13.440  1.00  0.00    -0.550 OA
ATOM     24  O   UNL     1      65.971 -35.432  13.948  1.00  0.00    -0.550 OA
ENDBRANCH  21  22
ENDBRANCH  20  21
ENDBRANCH  19  20
ENDBRANCH  18  19
ENDBRANCH  17  18
ENDBRANCH  16  17
ENDBRANCH  15  16
ENDBRANCH  14  15
ENDBRANCH  13  14
ENDBRANCH   1  13
TORSDOF 20
ENDMDL
