MODEL 1
REMARK VINA RESULT:     9.356      0.000      0.000
REMARK INTER + INTRA:          16.427
REMARK INTER:                  17.013
REMARK INTRA:                  -0.586
REMARK UNBOUND:                -0.586
REMARK SMILES CCCCCCCCCCCCCCCC(=O)[O-]
REMARK SMILES IDX 9 1 10 2 11 3 12 4 13 5 14 6 15 7 16 8 17 9 18 10 8 11 7 12
REMARK SMILES IDX 6 13 5 14 4 15 3 16 2 17 1 18
REMARK H PARENT
REMARK Flexibility Score: inf
ROOT
ATOM      1  C   UNL     1       0.339   8.221  -4.433  1.00  0.00     0.000 C 
ENDROOT
BRANCH   1   2
ATOM      2  C   UNL     1       1.217   8.717  -5.592  1.00  0.00     0.000 C 
BRANCH   2   3
ATOM      3  C   UNL     1       0.471   8.723  -6.937  1.00  0.00     0.000 C 
BRANCH   3   4
ATOM      4  C   UNL     1       1.377   8.362  -8.127  1.00  0.00     0.000 C 
BRANCH   4   5
ATOM      5  C   UNL     1       2.730   9.101  -8.173  1.00  0.00     0.000 C 
BRANCH   5   6
ATOM      6  C   UNL     1       3.416   9.123  -9.550  1.00  0.00     0.006 C 
BRANCH   6   7
ATOM      7  C   UNL     1       3.144  10.414 -10.331  1.00  0.00     0.053 C 
BRANCH   7   8
ATOM      8  C   UNL     1       3.228  10.162 -11.802  1.00  0.00     0.041 C 
ATOM      9  O   UNL     1       2.725  10.981 -12.616  1.00  0.00    -0.550 OA
ATOM     10  O   UNL     1       3.905   9.046 -12.280  1.00  0.00    -0.550 OA
ENDBRANCH   7   8
ENDBRANCH   6   7
ENDBRANCH   5   6
ENDBRANCH   4   5
ENDBRANCH   3   4
ENDBRANCH   2   3
ENDBRANCH   1   2
BRANCH   1  11
ATOM     11  C   UNL     1       1.160   7.588  -3.294  1.00  0.00     0.000 C 
BRANCH  11  12
ATOM     12  C   UNL     1       2.670   7.596  -3.576  1.00  0.00    -0.000 C 
BRANCH  12  13
ATOM     13  C   UNL     1       3.503   7.180  -2.351  1.00  0.00    -0.000 C 
BRANCH  13  14
ATOM     14  C   UNL     1       4.992   7.531  -2.502  1.00  0.00    -0.000 C 
BRANCH  14  15
ATOM     15  C   UNL     1       5.872   6.287  -2.722  1.00  0.00    -0.000 C 
BRANCH  15  16
ATOM     16  C   UNL     1       5.245   5.289  -3.709  1.00  0.00    -0.000 C 
BRANCH  16  17
ATOM     17  C   UNL     1       6.293   4.410  -4.410  1.00  0.00    -0.003 C 
ATOM     18  C   UNL     1       6.824   3.334  -3.468  1.00  0.00     0.004 C 
ENDBRANCH  16  17
ENDBRANCH  15  16
ENDBRANCH  14  15
ENDBRANCH  13  14
ENDBRANCH  12  13
ENDBRANCH  11  12
ENDBRANCH   1  11
TORSDOF 14
ENDMDL
MODEL 2
REMARK VINA RESULT:     9.548      2.142      3.615
REMARK INTER + INTRA:          16.776
REMARK INTER:                  17.185
REMARK INTRA:                  -0.409
REMARK UNBOUND:                -0.586
REMARK SMILES CCCCCCCCCCCCCCCC(=O)[O-]
REMARK SMILES IDX 9 1 10 2 11 3 12 4 13 5 14 6 15 7 16 8 17 9 18 10 8 11 7 12
REMARK SMILES IDX 6 13 5 14 4 15 3 16 2 17 1 18
REMARK H PARENT
REMARK Flexibility Score: inf
ROOT
ATOM      1  C   UNL     1       2.888   7.621  -3.075  1.00  0.00     0.000 C 
ENDROOT
BRANCH   1   2
ATOM      2  C   UNL     1       1.758   6.589  -3.214  1.00  0.00     0.000 C 
BRANCH   2   3
ATOM      3  C   UNL     1       0.534   7.150  -3.957  1.00  0.00     0.000 C 
BRANCH   3   4
ATOM      4  C   UNL     1       0.132   8.555  -3.472  1.00  0.00     0.000 C 
BRANCH   4   5
ATOM      5  C   UNL     1      -0.017   9.616  -4.581  1.00  0.00     0.000 C 
BRANCH   5   6
ATOM      6  C   UNL     1       0.181   9.094  -6.015  1.00  0.00     0.006 C 
BRANCH   6   7
ATOM      7  C   UNL     1       1.639   8.733  -6.321  1.00  0.00     0.053 C 
BRANCH   7   8
ATOM      8  C   UNL     1       1.841   8.583  -7.795  1.00  0.00     0.041 C 
ATOM      9  O   UNL     1       0.945   8.058  -8.508  1.00  0.00    -0.550 OA
ATOM     10  O   UNL     1       3.000   9.065  -8.392  1.00  0.00    -0.550 OA
ENDBRANCH   7   8
ENDBRANCH   6   7
ENDBRANCH   5   6
ENDBRANCH   4   5
ENDBRANCH   3   4
ENDBRANCH   2   3
ENDBRANCH   1   2
BRANCH   1  11
ATOM     11  C   UNL     1       3.882   7.268  -1.952  1.00  0.00     0.000 C 
BRANCH  11  12
ATOM     12  C   UNL     1       5.329   7.649  -2.301  1.00  0.00    -0.000 C 
BRANCH  12  13
ATOM     13  C   UNL     1       6.174   6.434  -2.724  1.00  0.00    -0.000 C 
BRANCH  13  14
ATOM     14  C   UNL     1       5.316   5.278  -3.264  1.00  0.00    -0.000 C 
BRANCH  14  15
ATOM     15  C   UNL     1       5.867   4.701  -4.581  1.00  0.00    -0.000 C 
BRANCH  15  16
ATOM     16  C   UNL     1       6.921   3.606  -4.351  1.00  0.00    -0.000 C 
BRANCH  16  17
ATOM     17  C   UNL     1       6.967   3.125  -2.892  1.00  0.00    -0.003 C 
ATOM     18  C   UNL     1       7.274   1.633  -2.817  1.00  0.00     0.004 C 
ENDBRANCH  16  17
ENDBRANCH  15  16
ENDBRANCH  14  15
ENDBRANCH  13  14
ENDBRANCH  12  13
ENDBRANCH  11  12
ENDBRANCH   1  11
TORSDOF 14
ENDMDL
MODEL 3
REMARK VINA RESULT:     9.744      3.588      7.759
REMARK INTER + INTRA:          17.132
REMARK INTER:                  17.817
REMARK INTRA:                  -0.685
REMARK UNBOUND:                -0.586
REMARK SMILES CCCCCCCCCCCCCCCC(=O)[O-]
REMARK SMILES IDX 9 1 10 2 11 3 12 4 13 5 14 6 15 7 16 8 17 9 18 10 8 11 7 12
REMARK SMILES IDX 6 13 5 14 4 15 3 16 2 17 1 18
REMARK H PARENT
REMARK Flexibility Score: inf
ROOT
ATOM      1  C   UNL     1       0.155   8.053  -3.707  1.00  0.00     0.000 C 
ENDROOT
BRANCH   1   2
ATOM      2  C   UNL     1       1.253   7.002  -3.486  1.00  0.00     0.000 C 
BRANCH   2   3
ATOM      3  C   UNL     1       2.657   7.625  -3.397  1.00  0.00     0.000 C 
BRANCH   3   4
ATOM      4  C   UNL     1       3.424   7.194  -2.134  1.00  0.00     0.000 C 
BRANCH   4   5
ATOM      5  C   UNL     1       4.918   7.575  -2.110  1.00  0.00     0.000 C 
BRANCH   5   6
ATOM      6  C   UNL     1       5.862   6.559  -2.778  1.00  0.00     0.006 C 
BRANCH   6   7
ATOM      7  C   UNL     1       5.140   5.283  -3.228  1.00  0.00     0.053 C 
BRANCH   7   8
ATOM      8  C   UNL     1       5.994   4.511  -4.183  1.00  0.00     0.041 C 
ATOM      9  O   UNL     1       5.978   4.786  -5.412  1.00  0.00    -0.550 OA
ATOM     10  O   UNL     1       6.843   3.517  -3.711  1.00  0.00    -0.550 OA
ENDBRANCH   7   8
ENDBRANCH   6   7
ENDBRANCH   5   6
ENDBRANCH   4   5
ENDBRANCH   3   4
ENDBRANCH   2   3
ENDBRANCH   1   2
BRANCH   1  11
ATOM     11  C   UNL     1       0.533   9.093  -4.778  1.00  0.00     0.000 C 
BRANCH  11  12
ATOM     12  C   UNL     1       0.374   8.555  -6.208  1.00  0.00    -0.000 C 
BRANCH  12  13
ATOM     13  C   UNL     1       1.664   8.690  -7.037  1.00  0.00    -0.000 C 
BRANCH  13  14
ATOM     14  C   UNL     1       1.457   8.327  -8.517  1.00  0.00    -0.000 C 
BRANCH  14  15
ATOM     15  C   UNL     1      -0.029   8.154  -8.879  1.00  0.00    -0.000 C 
BRANCH  15  16
ATOM     16  C   UNL     1      -0.350   8.639 -10.302  1.00  0.00    -0.000 C 
BRANCH  16  17
ATOM     17  C   UNL     1      -0.681   7.485 -11.261  1.00  0.00    -0.003 C 
ATOM     18  C   UNL     1      -0.463   7.900 -12.713  1.00  0.00     0.004 C 
ENDBRANCH  16  17
ENDBRANCH  15  16
ENDBRANCH  14  15
ENDBRANCH  13  14
ENDBRANCH  12  13
ENDBRANCH  11  12
ENDBRANCH   1  11
TORSDOF 14
ENDMDL
MODEL 4
REMARK VINA RESULT:     9.838      2.336      3.295
REMARK INTER + INTRA:          17.303
REMARK INTER:                  17.847
REMARK INTRA:                  -0.544
REMARK UNBOUND:                -0.586
REMARK SMILES CCCCCCCCCCCCCCCC(=O)[O-]
REMARK SMILES IDX 9 1 10 2 11 3 12 4 13 5 14 6 15 7 16 8 17 9 18 10 8 11 7 12
REMARK SMILES IDX 6 13 5 14 4 15 3 16 2 17 1 18
REMARK H PARENT
REMARK Flexibility Score: inf
ROOT
ATOM      1  C   UNL     1       2.767   7.563  -3.280  1.00  0.00     0.000 C 
ENDROOT
BRANCH   1   2
ATOM      2  C   UNL     1       1.336   7.043  -3.069  1.00  0.00     0.000 C 
BRANCH   2   3
ATOM      3  C   UNL     1       0.395   7.420  -4.226  1.00  0.00     0.000 C 
BRANCH   3   4
ATOM      4  C   UNL     1       0.703   8.806  -4.821  1.00  0.00     0.000 C 
BRANCH   4   5
ATOM      5  C   UNL     1       1.132   8.806  -6.303  1.00  0.00     0.000 C 
BRANCH   5   6
ATOM      6  C   UNL     1      -0.017   8.651  -7.315  1.00  0.00     0.006 C 
BRANCH   6   7
ATOM      7  C   UNL     1       0.458   8.136  -8.679  1.00  0.00     0.053 C 
BRANCH   7   8
ATOM      8  C   UNL     1      -0.480   8.576  -9.758  1.00  0.00     0.041 C 
ATOM      9  O   UNL     1      -1.335   9.473  -9.528  1.00  0.00    -0.550 OA
ATOM     10  O   UNL     1      -0.381   8.031 -11.032  1.00  0.00    -0.550 OA
ENDBRANCH   7   8
ENDBRANCH   6   7
ENDBRANCH   5   6
ENDBRANCH   4   5
ENDBRANCH   3   4
ENDBRANCH   2   3
ENDBRANCH   1   2
BRANCH   1  11
ATOM     11  C   UNL     1       3.708   7.202  -2.116  1.00  0.00     0.000 C 
BRANCH  11  12
ATOM     12  C   UNL     1       5.165   7.611  -2.383  1.00  0.00    -0.000 C 
BRANCH  12  13
ATOM     13  C   UNL     1       6.081   6.400  -2.634  1.00  0.00    -0.000 C 
BRANCH  13  14
ATOM     14  C   UNL     1       5.353   5.246  -3.344  1.00  0.00    -0.000 C 
BRANCH  14  15
ATOM     15  C   UNL     1       6.119   4.736  -4.577  1.00  0.00    -0.000 C 
BRANCH  15  16
ATOM     16  C   UNL     1       6.793   3.376  -4.332  1.00  0.00    -0.000 C 
BRANCH  16  17
ATOM     17  C   UNL     1       7.124   3.136  -2.851  1.00  0.00    -0.003 C 
ATOM     18  C   UNL     1       7.268   1.646  -2.556  1.00  0.00     0.004 C 
ENDBRANCH  16  17
ENDBRANCH  15  16
ENDBRANCH  14  15
ENDBRANCH  13  14
ENDBRANCH  12  13
ENDBRANCH  11  12
ENDBRANCH   1  11
TORSDOF 14
ENDMDL
MODEL 5
REMARK VINA RESULT:     9.846      2.158      2.559
REMARK INTER + INTRA:          17.319
REMARK INTER:                  17.738
REMARK INTRA:                  -0.419
REMARK UNBOUND:                -0.586
REMARK SMILES CCCCCCCCCCCCCCCC(=O)[O-]
REMARK SMILES IDX 9 1 10 2 11 3 12 4 13 5 14 6 15 7 16 8 17 9 18 10 8 11 7 12
REMARK SMILES IDX 6 13 5 14 4 15 3 16 2 17 1 18
REMARK H PARENT
REMARK Flexibility Score: inf
ROOT
ATOM      1  C   UNL     1       0.367   8.102  -3.732  1.00  0.00     0.000 C 
ENDROOT
BRANCH   1   2
ATOM      2  C   UNL     1       0.074   8.265  -5.231  1.00  0.00     0.000 C 
BRANCH   2   3
ATOM      3  C   UNL     1       1.197   9.008  -5.975  1.00  0.00     0.000 C 
BRANCH   3   4
ATOM      4  C   UNL     1       1.457   8.445  -7.383  1.00  0.00     0.000 C 
BRANCH   4   5
ATOM      5  C   UNL     1       0.196   8.200  -8.238  1.00  0.00     0.000 C 
BRANCH   5   6
ATOM      6  C   UNL     1       0.405   8.322  -9.758  1.00  0.00     0.006 C 
BRANCH   6   7
ATOM      7  C   UNL     1      -0.915   8.327 -10.540  1.00  0.00     0.053 C 
BRANCH   7   8
ATOM      8  C   UNL     1      -0.721   7.722 -11.894  1.00  0.00     0.041 C 
ATOM      9  O   UNL     1      -0.873   6.483 -12.062  1.00  0.00    -0.550 OA
ATOM     10  O   UNL     1      -0.418   8.531 -12.982  1.00  0.00    -0.550 OA
ENDBRANCH   7   8
ENDBRANCH   6   7
ENDBRANCH   5   6
ENDBRANCH   4   5
ENDBRANCH   3   4
ENDBRANCH   2   3
ENDBRANCH   1   2
BRANCH   1  11
ATOM     11  C   UNL     1       1.447   7.041  -3.449  1.00  0.00     0.000 C 
BRANCH  11  12
ATOM     12  C   UNL     1       2.862   7.638  -3.391  1.00  0.00    -0.000 C 
BRANCH  12  13
ATOM     13  C   UNL     1       3.651   7.165  -2.157  1.00  0.00    -0.000 C 
BRANCH  13  14
ATOM     14  C   UNL     1       5.102   7.675  -2.154  1.00  0.00    -0.000 C 
BRANCH  14  15
ATOM     15  C   UNL     1       6.105   6.602  -2.616  1.00  0.00    -0.000 C 
BRANCH  15  16
ATOM     16  C   UNL     1       5.413   5.363  -3.204  1.00  0.00    -0.000 C 
BRANCH  16  17
ATOM     17  C   UNL     1       6.333   4.555  -4.133  1.00  0.00    -0.003 C 
ATOM     18  C   UNL     1       6.704   3.214  -3.507  1.00  0.00     0.004 C 
ENDBRANCH  16  17
ENDBRANCH  15  16
ENDBRANCH  14  15
ENDBRANCH  13  14
ENDBRANCH  12  13
ENDBRANCH  11  12
ENDBRANCH   1  11
TORSDOF 14
ENDMDL
MODEL 6
REMARK VINA RESULT:     9.918      3.213      7.652
REMARK INTER + INTRA:          17.449
REMARK INTER:                  18.207
REMARK INTRA:                  -0.758
REMARK UNBOUND:                -0.586
REMARK SMILES CCCCCCCCCCCCCCCC(=O)[O-]
REMARK SMILES IDX 9 1 10 2 11 3 12 4 13 5 14 6 15 7 16 8 17 9 18 10 8 11 7 12
REMARK SMILES IDX 6 13 5 14 4 15 3 16 2 17 1 18
REMARK H PARENT
REMARK Flexibility Score: inf
ROOT
ATOM      1  C   UNL     1       0.258   8.440  -4.570  1.00  0.00     0.000 C 
ENDROOT
BRANCH   1   2
ATOM      2  C   UNL     1       0.978   7.606  -3.499  1.00  0.00     0.000 C 
BRANCH   2   3
ATOM      3  C   UNL     1       2.508   7.646  -3.650  1.00  0.00     0.000 C 
BRANCH   3   4
ATOM      4  C   UNL     1       3.247   7.140  -2.398  1.00  0.00     0.000 C 
BRANCH   4   5
ATOM      5  C   UNL     1       4.701   7.632  -2.248  1.00  0.00     0.000 C 
BRANCH   5   6
ATOM      6  C   UNL     1       5.772   6.689  -2.826  1.00  0.00     0.006 C 
BRANCH   6   7
ATOM      7  C   UNL     1       5.247   5.268  -3.065  1.00  0.00     0.053 C 
BRANCH   7   8
ATOM      8  C   UNL     1       6.068   4.577  -4.106  1.00  0.00     0.041 C 
ATOM      9  O   UNL     1       6.068   4.995  -5.295  1.00  0.00    -0.550 OA
ATOM     10  O   UNL     1       6.872   3.499  -3.757  1.00  0.00    -0.550 OA
ENDBRANCH   7   8
ENDBRANCH   6   7
ENDBRANCH   5   6
ENDBRANCH   4   5
ENDBRANCH   3   4
ENDBRANCH   2   3
ENDBRANCH   1   2
BRANCH   1  11
ATOM     11  C   UNL     1       1.148   8.735  -5.791  1.00  0.00     0.000 C 
BRANCH  11  12
ATOM     12  C   UNL     1       0.397   8.582  -7.123  1.00  0.00    -0.000 C 
BRANCH  12  13
ATOM     13  C   UNL     1       1.347   8.376  -8.316  1.00  0.00    -0.000 C 
BRANCH  13  14
ATOM     14  C   UNL     1       2.718   9.040  -8.102  1.00  0.00    -0.000 C 
BRANCH  14  15
ATOM     15  C   UNL     1       3.481   9.257  -9.421  1.00  0.00    -0.000 C 
BRANCH  15  16
ATOM     16  C   UNL     1       2.756  10.226 -10.369  1.00  0.00    -0.000 C 
BRANCH  16  17
ATOM     17  C   UNL     1       3.098   9.977 -11.846  1.00  0.00    -0.003 C 
ATOM     18  C   UNL     1       2.695  11.168 -12.710  1.00  0.00     0.004 C 
ENDBRANCH  16  17
ENDBRANCH  15  16
ENDBRANCH  14  15
ENDBRANCH  13  14
ENDBRANCH  12  13
ENDBRANCH  11  12
ENDBRANCH   1  11
TORSDOF 14
ENDMDL
MODEL 7
REMARK VINA RESULT:    10.740      3.838      8.110
REMARK INTER + INTRA:          18.943
REMARK INTER:                  19.815
REMARK INTRA:                  -0.871
REMARK UNBOUND:                -0.586
REMARK SMILES CCCCCCCCCCCCCCCC(=O)[O-]
REMARK SMILES IDX 9 1 10 2 11 3 12 4 13 5 14 6 15 7 16 8 17 9 18 10 8 11 7 12
REMARK SMILES IDX 6 13 5 14 4 15 3 16 2 17 1 18
REMARK H PARENT
REMARK Flexibility Score: inf
ROOT
ATOM      1  C   UNL     1       0.098   8.387  -6.951  1.00  0.00     0.000 C 
ENDROOT
BRANCH   1   2
ATOM      2  C   UNL     1       0.400   9.455  -5.888  1.00  0.00     0.000 C 
BRANCH   2   3
ATOM      3  C   UNL     1       0.303   8.904  -4.455  1.00  0.00     0.000 C 
BRANCH   3   4
ATOM      4  C   UNL     1       0.643   7.406  -4.365  1.00  0.00     0.000 C 
BRANCH   4   5
ATOM      5  C   UNL     1       1.559   7.008  -3.190  1.00  0.00     0.000 C 
BRANCH   5   6
ATOM      6  C   UNL     1       3.010   7.509  -3.295  1.00  0.00     0.006 C 
BRANCH   6   7
ATOM      7  C   UNL     1       3.855   7.145  -2.067  1.00  0.00     0.053 C 
BRANCH   7   8
ATOM      8  C   UNL     1       5.312   7.203  -2.401  1.00  0.00     0.041 C 
ATOM      9  O   UNL     1       5.861   6.248  -3.013  1.00  0.00    -0.550 OA
ATOM     10  O   UNL     1       6.055   8.332  -2.080  1.00  0.00    -0.550 OA
ENDBRANCH   7   8
ENDBRANCH   6   7
ENDBRANCH   5   6
ENDBRANCH   4   5
ENDBRANCH   3   4
ENDBRANCH   2   3
ENDBRANCH   1   2
BRANCH   1  11
ATOM     11  C   UNL     1       1.137   8.369  -8.088  1.00  0.00     0.000 C 
BRANCH  11  12
ATOM     12  C   UNL     1       2.496   8.943  -7.657  1.00  0.00    -0.000 C 
BRANCH  12  13
ATOM     13  C   UNL     1       3.418   9.238  -8.853  1.00  0.00    -0.000 C 
BRANCH  13  14
ATOM     14  C   UNL     1       2.639   9.668 -10.107  1.00  0.00    -0.000 C 
BRANCH  14  15
ATOM     15  C   UNL     1       3.555   9.878 -11.327  1.00  0.00    -0.000 C 
BRANCH  15  16
ATOM     16  C   UNL     1       2.847   9.568 -12.656  1.00  0.00    -0.000 C 
BRANCH  16  17
ATOM     17  C   UNL     1       2.433  10.837 -13.418  1.00  0.00    -0.003 C 
ATOM     18  C   UNL     1       2.850  12.092 -12.659  1.00  0.00     0.004 C 
ENDBRANCH  16  17
ENDBRANCH  15  16
ENDBRANCH  14  15
ENDBRANCH  13  14
ENDBRANCH  12  13
ENDBRANCH  11  12
ENDBRANCH   1  11
TORSDOF 14
ENDMDL
