MODEL 1
REMARK VINA RESULT:    -4.321      0.000      0.000
REMARK INTER + INTRA:         -10.281
REMARK INTER:                  -7.858
REMARK INTRA:                  -2.422
REMARK UNBOUND:                -2.422
REMARK SMILES CCCCCCCCCCCCCCCC(=O)[O-]
REMARK SMILES IDX 9 1 10 2 11 3 12 4 13 5 14 6 15 7 16 8 17 9 18 10 8 11 7 12
REMARK SMILES IDX 6 13 5 14 4 15 3 16 2 17 1 18
REMARK H PARENT
REMARK Flexibility Score: inf
ROOT
ATOM      1  C   UNL     1      60.666  18.422  38.056  1.00  0.00     0.000 C 
ENDROOT
BRANCH   1   2
ATOM      2  C   UNL     1      60.486  16.895  38.027  1.00  0.00     0.000 C 
BRANCH   2   3
ATOM      3  C   UNL     1      59.817  16.352  39.299  1.00  0.00     0.000 C 
BRANCH   3   4
ATOM      4  C   UNL     1      60.697  15.282  39.964  1.00  0.00     0.000 C 
BRANCH   4   5
ATOM      5  C   UNL     1      61.878  14.849  39.080  1.00  0.00     0.000 C 
BRANCH   5   6
ATOM      6  C   UNL     1      62.999  14.167  39.883  1.00  0.00     0.006 C 
BRANCH   6   7
ATOM      7  C   UNL     1      63.582  12.953  39.146  1.00  0.00     0.053 C 
BRANCH   7   8
ATOM      8  C   UNL     1      63.027  11.664  39.672  1.00  0.00     0.041 C 
ATOM      9  O   UNL     1      62.600  11.594  40.855  1.00  0.00    -0.550 OA
ATOM     10  O   UNL     1      63.008  10.534  38.866  1.00  0.00    -0.550 OA
ENDBRANCH   7   8
ENDBRANCH   6   7
ENDBRANCH   5   6
ENDBRANCH   4   5
ENDBRANCH   3   4
ENDBRANCH   2   3
ENDBRANCH   1   2
BRANCH   1  11
ATOM     11  C   UNL     1      61.012  18.948  39.459  1.00  0.00     0.000 C 
BRANCH  11  12
ATOM     12  C   UNL     1      62.511  19.258  39.628  1.00  0.00    -0.000 C 
BRANCH  12  13
ATOM     13  C   UNL     1      63.393  18.046  39.992  1.00  0.00    -0.000 C 
BRANCH  13  14
ATOM     14  C   UNL     1      64.382  17.604  38.896  1.00  0.00    -0.000 C 
BRANCH  14  15
ATOM     15  C   UNL     1      64.209  18.317  37.540  1.00  0.00    -0.000 C 
BRANCH  15  16
ATOM     16  C   UNL     1      64.490  17.441  36.302  1.00  0.00    -0.000 C 
BRANCH  16  17
ATOM     17  C   UNL     1      63.712  16.114  36.258  1.00  0.00    -0.003 C 
ATOM     18  C   UNL     1      64.624  14.888  36.255  1.00  0.00     0.004 C 
ENDBRANCH  16  17
ENDBRANCH  15  16
ENDBRANCH  14  15
ENDBRANCH  13  14
ENDBRANCH  12  13
ENDBRANCH  11  12
ENDBRANCH   1  11
TORSDOF 14
ENDMDL
MODEL 2
REMARK VINA RESULT:    -4.272     11.621     15.032
REMARK INTER + INTRA:         -10.191
REMARK INTER:                  -7.984
REMARK INTRA:                  -2.207
REMARK UNBOUND:                -2.422
REMARK SMILES CCCCCCCCCCCCCCCC(=O)[O-]
REMARK SMILES IDX 9 1 10 2 11 3 12 4 13 5 14 6 15 7 16 8 17 9 18 10 8 11 7 12
REMARK SMILES IDX 6 13 5 14 4 15 3 16 2 17 1 18
REMARK H PARENT
REMARK Flexibility Score: inf
ROOT
ATOM      1  C   UNL     1      74.531   8.740  30.637  1.00  0.00     0.000 C 
ENDROOT
BRANCH   1   2
ATOM      2  C   UNL     1      73.065   8.414  30.306  1.00  0.00     0.000 C 
BRANCH   2   3
ATOM      3  C   UNL     1      72.191   8.273  31.561  1.00  0.00     0.000 C 
BRANCH   3   4
ATOM      4  C   UNL     1      72.778   9.081  32.730  1.00  0.00     0.000 C 
BRANCH   4   5
ATOM      5  C   UNL     1      71.724   9.449  33.787  1.00  0.00     0.000 C 
BRANCH   5   6
ATOM      6  C   UNL     1      70.289   9.145  33.322  1.00  0.00     0.006 C 
BRANCH   6   7
ATOM      7  C   UNL     1      69.365  10.364  33.464  1.00  0.00     0.053 C 
BRANCH   7   8
ATOM      8  C   UNL     1      69.269  11.139  32.185  1.00  0.00     0.041 C 
ATOM      9  O   UNL     1      70.238  11.842  31.795  1.00  0.00    -0.550 OA
ATOM     10  O   UNL     1      68.097  11.108  31.440  1.00  0.00    -0.550 OA
ENDBRANCH   7   8
ENDBRANCH   6   7
ENDBRANCH   5   6
ENDBRANCH   4   5
ENDBRANCH   3   4
ENDBRANCH   2   3
ENDBRANCH   1   2
BRANCH   1  11
ATOM     11  C   UNL     1      75.501   7.646  30.161  1.00  0.00     0.000 C 
BRANCH  11  12
ATOM     12  C   UNL     1      75.403   6.356  30.995  1.00  0.00    -0.000 C 
BRANCH  12  13
ATOM     13  C   UNL     1      75.576   6.544  32.516  1.00  0.00    -0.000 C 
BRANCH  13  14
ATOM     14  C   UNL     1      74.421   5.998  33.378  1.00  0.00    -0.000 C 
BRANCH  14  15
ATOM     15  C   UNL     1      73.623   4.844  32.739  1.00  0.00    -0.000 C 
BRANCH  15  16
ATOM     16  C   UNL     1      72.240   4.581  33.368  1.00  0.00    -0.000 C 
BRANCH  16  17
ATOM     17  C   UNL     1      71.713   5.711  34.270  1.00  0.00    -0.003 C 
ATOM     18  C   UNL     1      70.198   5.663  34.461  1.00  0.00     0.004 C 
ENDBRANCH  16  17
ENDBRANCH  15  16
ENDBRANCH  14  15
ENDBRANCH  13  14
ENDBRANCH  12  13
ENDBRANCH  11  12
ENDBRANCH   1  11
TORSDOF 14
ENDMDL
MODEL 3
REMARK VINA RESULT:    -4.262      1.769      4.366
REMARK INTER + INTRA:         -10.172
REMARK INTER:                  -8.088
REMARK INTRA:                  -2.084
REMARK UNBOUND:                -2.422
REMARK SMILES CCCCCCCCCCCCCCCC(=O)[O-]
REMARK SMILES IDX 9 1 10 2 11 3 12 4 13 5 14 6 15 7 16 8 17 9 18 10 8 11 7 12
REMARK SMILES IDX 6 13 5 14 4 15 3 16 2 17 1 18
REMARK H PARENT
REMARK Flexibility Score: inf
ROOT
ATOM      1  C   UNL     1      61.008  19.250  39.543  1.00  0.00     0.000 C 
ENDROOT
BRANCH   1   2
ATOM      2  C   UNL     1      62.534  19.418  39.624  1.00  0.00     0.000 C 
BRANCH   2   3
ATOM      3  C   UNL     1      63.224  18.240  40.329  1.00  0.00     0.000 C 
BRANCH   3   4
ATOM      4  C   UNL     1      64.294  17.611  39.423  1.00  0.00     0.000 C 
BRANCH   4   5
ATOM      5  C   UNL     1      63.997  17.807  37.928  1.00  0.00     0.000 C 
BRANCH   5   6
ATOM      6  C   UNL     1      65.165  17.364  37.029  1.00  0.00     0.006 C 
BRANCH   6   7
ATOM      7  C   UNL     1      64.697  16.475  35.868  1.00  0.00     0.053 C 
BRANCH   7   8
ATOM      8  C   UNL     1      64.252  15.126  36.346  1.00  0.00     0.041 C 
ATOM      9  O   UNL     1      63.153  14.648  35.961  1.00  0.00    -0.550 OA
ATOM     10  O   UNL     1      65.040  14.410  37.238  1.00  0.00    -0.550 OA
ENDBRANCH   7   8
ENDBRANCH   6   7
ENDBRANCH   5   6
ENDBRANCH   4   5
ENDBRANCH   3   4
ENDBRANCH   2   3
ENDBRANCH   1   2
BRANCH   1  11
ATOM     11  C   UNL     1      60.532  18.855  38.134  1.00  0.00     0.000 C 
BRANCH  11  12
ATOM     12  C   UNL     1      60.037  17.399  38.057  1.00  0.00    -0.000 C 
BRANCH  12  13
ATOM     13  C   UNL     1      59.531  16.807  39.388  1.00  0.00    -0.000 C 
BRANCH  13  14
ATOM     14  C   UNL     1      60.430  15.717  40.003  1.00  0.00    -0.000 C 
BRANCH  14  15
ATOM     15  C   UNL     1      61.538  15.187  39.071  1.00  0.00    -0.000 C 
BRANCH  15  16
ATOM     16  C   UNL     1      62.594  14.294  39.755  1.00  0.00    -0.000 C 
BRANCH  16  17
ATOM     17  C   UNL     1      62.081  12.916  40.208  1.00  0.00    -0.003 C 
ATOM     18  C   UNL     1      63.097  11.798  39.982  1.00  0.00     0.004 C 
ENDBRANCH  16  17
ENDBRANCH  15  16
ENDBRANCH  14  15
ENDBRANCH  13  14
ENDBRANCH  12  13
ENDBRANCH  11  12
ENDBRANCH   1  11
TORSDOF 14
ENDMDL
MODEL 4
REMARK VINA RESULT:    -4.261      2.955      5.126
REMARK INTER + INTRA:         -10.170
REMARK INTER:                  -7.986
REMARK INTRA:                  -2.185
REMARK UNBOUND:                -2.422
REMARK SMILES CCCCCCCCCCCCCCCC(=O)[O-]
REMARK SMILES IDX 9 1 10 2 11 3 12 4 13 5 14 6 15 7 16 8 17 9 18 10 8 11 7 12
REMARK SMILES IDX 6 13 5 14 4 15 3 16 2 17 1 18
REMARK H PARENT
REMARK Flexibility Score: inf
ROOT
ATOM      1  C   UNL     1      63.370  17.360  40.470  1.00  0.00     0.000 C 
ENDROOT
BRANCH   1   2
ATOM      2  C   UNL     1      62.695  16.163  39.779  1.00  0.00     0.000 C 
BRANCH   2   3
ATOM      3  C   UNL     1      63.485  14.857  39.949  1.00  0.00     0.000 C 
BRANCH   3   4
ATOM      4  C   UNL     1      63.721  14.180  38.589  1.00  0.00     0.000 C 
BRANCH   4   5
ATOM      5  C   UNL     1      63.210  15.022  37.409  1.00  0.00     0.000 C 
BRANCH   5   6
ATOM      6  C   UNL     1      64.284  15.239  36.330  1.00  0.00     0.006 C 
BRANCH   6   7
ATOM      7  C   UNL     1      64.369  16.706  35.885  1.00  0.00     0.053 C 
BRANCH   7   8
ATOM      8  C   UNL     1      65.518  17.418  36.532  1.00  0.00     0.041 C 
ATOM      9  O   UNL     1      65.692  17.338  37.777  1.00  0.00    -0.550 OA
ATOM     10  O   UNL     1      66.379  18.192  35.765  1.00  0.00    -0.550 OA
ENDBRANCH   7   8
ENDBRANCH   6   7
ENDBRANCH   5   6
ENDBRANCH   4   5
ENDBRANCH   3   4
ENDBRANCH   2   3
ENDBRANCH   1   2
BRANCH   1  11
ATOM     11  C   UNL     1      62.998  18.703  39.819  1.00  0.00     0.000 C 
BRANCH  11  12
ATOM     12  C   UNL     1      62.380  18.538  38.419  1.00  0.00    -0.000 C 
BRANCH  12  13
ATOM     13  C   UNL     1      60.884  18.902  38.315  1.00  0.00    -0.000 C 
BRANCH  13  14
ATOM     14  C   UNL     1      60.229  19.354  39.635  1.00  0.00    -0.000 C 
BRANCH  14  15
ATOM     15  C   UNL     1      58.993  18.536  40.059  1.00  0.00    -0.000 C 
BRANCH  15  16
ATOM     16  C   UNL     1      59.303  17.166  40.694  1.00  0.00    -0.000 C 
BRANCH  16  17
ATOM     17  C   UNL     1      59.043  15.955  39.781  1.00  0.00    -0.003 C 
ATOM     18  C   UNL     1      59.414  14.625  40.434  1.00  0.00     0.004 C 
ENDBRANCH  16  17
ENDBRANCH  15  16
ENDBRANCH  14  15
ENDBRANCH  13  14
ENDBRANCH  12  13
ENDBRANCH  11  12
ENDBRANCH   1  11
TORSDOF 14
ENDMDL
MODEL 5
REMARK VINA RESULT:    -4.250      2.028      4.969
REMARK INTER + INTRA:         -10.151
REMARK INTER:                  -7.618
REMARK INTRA:                  -2.533
REMARK UNBOUND:                -2.422
REMARK SMILES CCCCCCCCCCCCCCCC(=O)[O-]
REMARK SMILES IDX 9 1 10 2 11 3 12 4 13 5 14 6 15 7 16 8 17 9 18 10 8 11 7 12
REMARK SMILES IDX 6 13 5 14 4 15 3 16 2 17 1 18
REMARK H PARENT
REMARK Flexibility Score: inf
ROOT
ATOM      1  C   UNL     1      63.136  15.424  39.977  1.00  0.00     0.000 C 
ENDROOT
BRANCH   1   2
ATOM      2  C   UNL     1      62.598  16.810  40.372  1.00  0.00     0.000 C 
BRANCH   2   3
ATOM      3  C   UNL     1      63.660  17.914  40.253  1.00  0.00     0.000 C 
BRANCH   3   4
ATOM      4  C   UNL     1      64.489  17.739  38.971  1.00  0.00     0.000 C 
BRANCH   4   5
ATOM      5  C   UNL     1      63.876  18.465  37.763  1.00  0.00     0.000 C 
BRANCH   5   6
ATOM      6  C   UNL     1      63.491  17.502  36.626  1.00  0.00     0.006 C 
BRANCH   6   7
ATOM      7  C   UNL     1      64.656  16.585  36.226  1.00  0.00     0.053 C 
BRANCH   7   8
ATOM      8  C   UNL     1      64.317  15.139  36.421  1.00  0.00     0.041 C 
ATOM      9  O   UNL     1      63.286  14.652  35.887  1.00  0.00    -0.550 OA
ATOM     10  O   UNL     1      65.124  14.337  37.217  1.00  0.00    -0.550 OA
ENDBRANCH   7   8
ENDBRANCH   6   7
ENDBRANCH   5   6
ENDBRANCH   4   5
ENDBRANCH   3   4
ENDBRANCH   2   3
ENDBRANCH   1   2
BRANCH   1  11
ATOM     11  C   UNL     1      62.054  14.527  39.352  1.00  0.00     0.000 C 
BRANCH  11  12
ATOM     12  C   UNL     1      60.641  14.842  39.878  1.00  0.00    -0.000 C 
BRANCH  12  13
ATOM     13  C   UNL     1      59.597  15.175  38.792  1.00  0.00    -0.000 C 
BRANCH  13  14
ATOM     14  C   UNL     1      60.066  16.178  37.721  1.00  0.00    -0.000 C 
BRANCH  14  15
ATOM     15  C   UNL     1      59.398  17.565  37.792  1.00  0.00    -0.000 C 
BRANCH  15  16
ATOM     16  C   UNL     1      60.348  18.731  38.131  1.00  0.00    -0.000 C 
BRANCH  16  17
ATOM     17  C   UNL     1      60.196  19.298  39.554  1.00  0.00    -0.003 C 
ATOM     18  C   UNL     1      58.987  18.730  40.295  1.00  0.00     0.004 C 
ENDBRANCH  16  17
ENDBRANCH  15  16
ENDBRANCH  14  15
ENDBRANCH  13  14
ENDBRANCH  12  13
ENDBRANCH  11  12
ENDBRANCH   1  11
TORSDOF 14
ENDMDL
MODEL 6
REMARK VINA RESULT:    -4.173      1.482      2.233
REMARK INTER + INTRA:         -10.011
REMARK INTER:                  -7.679
REMARK INTRA:                  -2.333
REMARK UNBOUND:                -2.422
REMARK SMILES CCCCCCCCCCCCCCCC(=O)[O-]
REMARK SMILES IDX 9 1 10 2 11 3 12 4 13 5 14 6 15 7 16 8 17 9 18 10 8 11 7 12
REMARK SMILES IDX 6 13 5 14 4 15 3 16 2 17 1 18
REMARK H PARENT
REMARK Flexibility Score: inf
ROOT
ATOM      1  C   UNL     1      60.685  16.534  38.445  1.00  0.00     0.000 C 
ENDROOT
BRANCH   1   2
ATOM      2  C   UNL     1      61.489  15.228  38.336  1.00  0.00     0.000 C 
BRANCH   2   3
ATOM      3  C   UNL     1      61.971  14.713  39.701  1.00  0.00     0.000 C 
BRANCH   3   4
ATOM      4  C   UNL     1      63.449  14.295  39.637  1.00  0.00     0.000 C 
BRANCH   4   5
ATOM      5  C   UNL     1      63.634  12.821  39.242  1.00  0.00     0.000 C 
BRANCH   5   6
ATOM      6  C   UNL     1      62.532  11.913  39.814  1.00  0.00     0.006 C 
BRANCH   6   7
ATOM      7  C   UNL     1      61.961  10.959  38.756  1.00  0.00     0.053 C 
BRANCH   7   8
ATOM      8  C   UNL     1      60.798  11.564  38.031  1.00  0.00     0.041 C 
ATOM      9  O   UNL     1      59.707  11.755  38.630  1.00  0.00    -0.550 OA
ATOM     10  O   UNL     1      60.911  11.892  36.686  1.00  0.00    -0.550 OA
ENDBRANCH   7   8
ENDBRANCH   6   7
ENDBRANCH   5   6
ENDBRANCH   4   5
ENDBRANCH   3   4
ENDBRANCH   2   3
ENDBRANCH   1   2
BRANCH   1  11
ATOM     11  C   UNL     1      60.919  17.262  39.780  1.00  0.00     0.000 C 
BRANCH  11  12
ATOM     12  C   UNL     1      61.163  18.772  39.602  1.00  0.00    -0.000 C 
BRANCH  12  13
ATOM     13  C   UNL     1      62.643  19.206  39.639  1.00  0.00    -0.000 C 
BRANCH  13  14
ATOM     14  C   UNL     1      63.654  18.061  39.841  1.00  0.00    -0.000 C 
BRANCH  14  15
ATOM     15  C   UNL     1      64.458  17.674  38.584  1.00  0.00    -0.000 C 
BRANCH  15  16
ATOM     16  C   UNL     1      63.865  18.174  37.251  1.00  0.00    -0.000 C 
BRANCH  16  17
ATOM     17  C   UNL     1      64.196  17.302  36.027  1.00  0.00    -0.003 C 
ATOM     18  C   UNL     1      64.532  15.858  36.397  1.00  0.00     0.004 C 
ENDBRANCH  16  17
ENDBRANCH  15  16
ENDBRANCH  14  15
ENDBRANCH  13  14
ENDBRANCH  12  13
ENDBRANCH  11  12
ENDBRANCH   1  11
TORSDOF 14
ENDMDL
MODEL 7
REMARK VINA RESULT:    -4.161      1.261      3.725
REMARK INTER + INTRA:          -9.988
REMARK INTER:                  -8.121
REMARK INTRA:                  -1.867
REMARK UNBOUND:                -2.422
REMARK SMILES CCCCCCCCCCCCCCCC(=O)[O-]
REMARK SMILES IDX 9 1 10 2 11 3 12 4 13 5 14 6 15 7 16 8 17 9 18 10 8 11 7 12
REMARK SMILES IDX 6 13 5 14 4 15 3 16 2 17 1 18
REMARK H PARENT
REMARK Flexibility Score: inf
ROOT
ATOM      1  C   UNL     1      64.059  15.202  36.254  1.00  0.00     0.000 C 
ENDROOT
BRANCH   1   2
ATOM      2  C   UNL     1      65.000  14.580  37.299  1.00  0.00     0.000 C 
BRANCH   2   3
ATOM      3  C   UNL     1      64.245  13.962  38.485  1.00  0.00     0.000 C 
BRANCH   3   4
ATOM      4  C   UNL     1      62.768  14.385  38.472  1.00  0.00     0.000 C 
BRANCH   4   5
ATOM      5  C   UNL     1      62.129  14.356  39.870  1.00  0.00     0.000 C 
BRANCH   5   6
ATOM      6  C   UNL     1      61.122  13.204  40.036  1.00  0.00     0.006 C 
BRANCH   6   7
ATOM      7  C   UNL     1      61.769  11.954  40.650  1.00  0.00     0.053 C 
BRANCH   7   8
ATOM      8  C   UNL     1      62.057  10.912  39.614  1.00  0.00     0.041 C 
ATOM      9  O   UNL     1      61.627  11.049  38.439  1.00  0.00    -0.550 OA
ATOM     10  O   UNL     1      62.777   9.773  39.954  1.00  0.00    -0.550 OA
ENDBRANCH   7   8
ENDBRANCH   6   7
ENDBRANCH   5   6
ENDBRANCH   4   5
ENDBRANCH   3   4
ENDBRANCH   2   3
ENDBRANCH   1   2
BRANCH   1  11
ATOM     11  C   UNL     1      64.494  16.617  35.836  1.00  0.00     0.000 C 
BRANCH  11  12
ATOM     12  C   UNL     1      65.149  17.404  36.986  1.00  0.00    -0.000 C 
BRANCH  12  13
ATOM     13  C   UNL     1      64.169  18.161  37.905  1.00  0.00    -0.000 C 
BRANCH  13  14
ATOM     14  C   UNL     1      64.179  17.715  39.380  1.00  0.00    -0.000 C 
BRANCH  14  15
ATOM     15  C   UNL     1      63.102  18.373  40.265  1.00  0.00    -0.000 C 
BRANCH  15  16
ATOM     16  C   UNL     1      61.648  18.001  39.908  1.00  0.00    -0.000 C 
BRANCH  16  17
ATOM     17  C   UNL     1      60.864  19.095  39.164  1.00  0.00    -0.003 C 
ATOM     18  C   UNL     1      60.471  18.687  37.745  1.00  0.00     0.004 C 
ENDBRANCH  16  17
ENDBRANCH  15  16
ENDBRANCH  14  15
ENDBRANCH  13  14
ENDBRANCH  12  13
ENDBRANCH  11  12
ENDBRANCH   1  11
TORSDOF 14
ENDMDL
MODEL 8
REMARK VINA RESULT:    -4.103      3.171      5.477
REMARK INTER + INTRA:          -9.884
REMARK INTER:                  -7.499
REMARK INTRA:                  -2.385
REMARK UNBOUND:                -2.422
REMARK SMILES CCCCCCCCCCCCCCCC(=O)[O-]
REMARK SMILES IDX 9 1 10 2 11 3 12 4 13 5 14 6 15 7 16 8 17 9 18 10 8 11 7 12
REMARK SMILES IDX 6 13 5 14 4 15 3 16 2 17 1 18
REMARK H PARENT
REMARK Flexibility Score: inf
ROOT
ATOM      1  C   UNL     1      65.102  17.614  37.747  1.00  0.00     0.000 C 
ENDROOT
BRANCH   1   2
ATOM      2  C   UNL     1      63.881  18.529  37.556  1.00  0.00     0.000 C 
BRANCH   2   3
ATOM      3  C   UNL     1      63.147  18.822  38.873  1.00  0.00     0.000 C 
BRANCH   3   4
ATOM      4  C   UNL     1      63.720  17.972  40.018  1.00  0.00     0.000 C 
BRANCH   4   5
ATOM      5  C   UNL     1      62.696  16.977  40.588  1.00  0.00     0.000 C 
BRANCH   5   6
ATOM      6  C   UNL     1      61.432  16.866  39.719  1.00  0.00     0.006 C 
BRANCH   6   7
ATOM      7  C   UNL     1      60.148  17.070  40.537  1.00  0.00     0.053 C 
BRANCH   7   8
ATOM      8  C   UNL     1      59.366  18.254  40.057  1.00  0.00     0.041 C 
ATOM      9  O   UNL     1      59.924  19.376  39.935  1.00  0.00    -0.550 OA
ATOM     10  O   UNL     1      58.013  18.125  39.772  1.00  0.00    -0.550 OA
ENDBRANCH   7   8
ENDBRANCH   6   7
ENDBRANCH   5   6
ENDBRANCH   4   5
ENDBRANCH   3   4
ENDBRANCH   2   3
ENDBRANCH   1   2
BRANCH   1  11
ATOM     11  C   UNL     1      65.037  16.352  36.870  1.00  0.00     0.000 C 
BRANCH  11  12
ATOM     12  C   UNL     1      63.595  15.874  36.617  1.00  0.00    -0.000 C 
BRANCH  12  13
ATOM     13  C   UNL     1      63.239  14.507  37.237  1.00  0.00    -0.000 C 
BRANCH  13  14
ATOM     14  C   UNL     1      64.130  14.073  38.417  1.00  0.00    -0.000 C 
BRANCH  14  15
ATOM     15  C   UNL     1      63.560  12.925  39.273  1.00  0.00    -0.000 C 
BRANCH  15  16
ATOM     16  C   UNL     1      62.290  13.277  40.074  1.00  0.00    -0.000 C 
BRANCH  16  17
ATOM     17  C   UNL     1      61.009  12.566  39.602  1.00  0.00    -0.003 C 
ATOM     18  C   UNL     1      60.018  13.511  38.925  1.00  0.00     0.004 C 
ENDBRANCH  16  17
ENDBRANCH  15  16
ENDBRANCH  14  15
ENDBRANCH  13  14
ENDBRANCH  12  13
ENDBRANCH  11  12
ENDBRANCH   1  11
TORSDOF 14
ENDMDL
MODEL 9
REMARK VINA RESULT:    -4.069      2.294      3.990
REMARK INTER + INTRA:          -9.822
REMARK INTER:                  -7.158
REMARK INTRA:                  -2.664
REMARK UNBOUND:                -2.422
REMARK SMILES CCCCCCCCCCCCCCCC(=O)[O-]
REMARK SMILES IDX 9 1 10 2 11 3 12 4 13 5 14 6 15 7 16 8 17 9 18 10 8 11 7 12
REMARK SMILES IDX 6 13 5 14 4 15 3 16 2 17 1 18
REMARK H PARENT
REMARK Flexibility Score: inf
ROOT
ATOM      1  C   UNL     1      62.749  19.181  39.645  1.00  0.00     0.000 C 
ENDROOT
BRANCH   1   2
ATOM      2  C   UNL     1      62.112  18.858  38.284  1.00  0.00     0.000 C 
BRANCH   2   3
ATOM      3  C   UNL     1      60.592  18.650  38.374  1.00  0.00     0.000 C 
BRANCH   3   4
ATOM      4  C   UNL     1      60.018  19.347  39.617  1.00  0.00     0.000 C 
BRANCH   4   5
ATOM      5  C   UNL     1      58.975  18.490  40.351  1.00  0.00     0.000 C 
BRANCH   5   6
ATOM      6  C   UNL     1      59.451  17.045  40.578  1.00  0.00     0.006 C 
BRANCH   6   7
ATOM      7  C   UNL     1      58.327  16.023  40.358  1.00  0.00     0.053 C 
BRANCH   7   8
ATOM      8  C   UNL     1      58.510  15.261  39.081  1.00  0.00     0.041 C 
ATOM      9  O   UNL     1      58.480  15.862  37.975  1.00  0.00    -0.550 OA
ATOM     10  O   UNL     1      58.684  13.884  39.112  1.00  0.00    -0.550 OA
ENDBRANCH   7   8
ENDBRANCH   6   7
ENDBRANCH   5   6
ENDBRANCH   4   5
ENDBRANCH   3   4
ENDBRANCH   2   3
ENDBRANCH   1   2
BRANCH   1  11
ATOM     11  C   UNL     1      63.737  18.097  40.107  1.00  0.00     0.000 C 
BRANCH  11  12
ATOM     12  C   UNL     1      63.037  16.795  40.537  1.00  0.00    -0.000 C 
BRANCH  12  13
ATOM     13  C   UNL     1      63.312  15.574  39.636  1.00  0.00    -0.000 C 
BRANCH  13  14
ATOM     14  C   UNL     1      62.129  15.135  38.750  1.00  0.00    -0.000 C 
BRANCH  14  15
ATOM     15  C   UNL     1      62.326  15.372  37.240  1.00  0.00    -0.000 C 
BRANCH  15  16
ATOM     16  C   UNL     1      63.795  15.424  36.774  1.00  0.00    -0.000 C 
BRANCH  16  17
ATOM     17  C   UNL     1      64.213  16.740  36.094  1.00  0.00    -0.003 C 
ATOM     18  C   UNL     1      65.336  17.463  36.835  1.00  0.00     0.004 C 
ENDBRANCH  16  17
ENDBRANCH  15  16
ENDBRANCH  14  15
ENDBRANCH  13  14
ENDBRANCH  12  13
ENDBRANCH  11  12
ENDBRANCH   1  11
TORSDOF 14
ENDMDL
