MODEL 1
REMARK VINA RESULT:    -7.403      0.000      0.000
REMARK INTER + INTRA:          -9.013
REMARK INTER:                  -8.917
REMARK INTRA:                  -0.095
REMARK UNBOUND:                -0.095
REMARK SMILES O=c1c(O)c(-c2ccc(O)c(O)c2)oc2cc(O)cc(O)c12
REMARK SMILES IDX 5 1 3 2 2 3 1 4 22 5 20 6 19 7 17 8 16 9 15 10 14 11 6 12
REMARK SMILES IDX 7 13 8 14 9 15 13 16 11 17 10 18 12 20 4 22 21 24 18 26
REMARK H PARENT 10 19 12 21 4 23 21 25 18 27
REMARK Flexibility Score: inf
ROOT
ATOM      1  C   UNL     1     -17.161  -4.012 -44.199  1.00  0.00     0.180 A 
ATOM      2  C   UNL     1     -18.486  -3.868 -44.649  1.00  0.00     0.208 A 
ATOM      3  C   UNL     1     -18.843  -2.707 -45.352  1.00  0.00     0.238 A 
ATOM      4  O   UNL     1     -20.043  -2.560 -45.704  1.00  0.00    -0.285 OA
ATOM      5  C   UNL     1     -17.871  -1.713 -45.611  1.00  0.00     0.111 A 
ATOM      6  C   UNL     1     -18.113  -0.515 -46.349  1.00  0.00     0.134 A 
ATOM      7  C   UNL     1     -17.110   0.460 -46.431  1.00  0.00     0.093 A 
ATOM      8  C   UNL     1     -15.856   0.252 -45.861  1.00  0.00     0.123 A 
ATOM      9  C   UNL     1     -15.588  -0.940 -45.189  1.00  0.00     0.094 A 
ATOM     10  C   UNL     1     -16.580  -1.917 -45.057  1.00  0.00     0.146 A 
ATOM     11  O   UNL     1     -16.288  -3.033 -44.401  1.00  0.00    -0.452 OA
ENDROOT
BRANCH   1  12
ATOM     12  C   UNL     1     -16.703  -5.219 -43.475  1.00  0.00     0.025 A 
ATOM     13  C   UNL     1     -15.691  -6.017 -44.034  1.00  0.00     0.016 A 
ATOM     14  C   UNL     1     -15.257  -7.172 -43.377  1.00  0.00     0.051 A 
ATOM     15  C   UNL     1     -15.839  -7.554 -42.162  1.00  0.00     0.157 A 
ATOM     16  C   UNL     1     -17.297  -5.618 -42.264  1.00  0.00     0.062 A 
ATOM     17  C   UNL     1     -16.863  -6.779 -41.606  1.00  0.00     0.158 A 
BRANCH  15  18
ATOM     18  O   UNL     1     -15.407  -8.704 -41.503  1.00  0.00    -0.504 OA
ATOM     19  H   UNL     1     -14.733  -9.333 -41.922  1.00  0.00     0.293 HD
ENDBRANCH  15  18
BRANCH  17  20
ATOM     20  O   UNL     1     -17.449  -7.168 -40.403  1.00  0.00    -0.504 OA
ATOM     21  H   UNL     1     -17.720  -8.129 -40.231  1.00  0.00     0.293 HD
ENDBRANCH  17  20
ENDBRANCH   1  12
BRANCH   2  22
ATOM     22  O   UNL     1     -19.436  -4.853 -44.363  1.00  0.00    -0.502 OA
ATOM     23  H   UNL     1     -20.410  -4.635 -44.192  1.00  0.00     0.293 HD
ENDBRANCH   2  22
BRANCH   6  24
ATOM     24  O   UNL     1     -19.301  -0.248 -47.035  1.00  0.00    -0.507 OA
ATOM     25  H   UNL     1     -19.494  -0.536 -47.982  1.00  0.00     0.293 HD
ENDBRANCH   6  24
BRANCH   8  26
ATOM     26  O   UNL     1     -14.877   1.237 -45.976  1.00  0.00    -0.508 OA
ATOM     27  H   UNL     1     -13.893   1.024 -45.857  1.00  0.00     0.293 HD
ENDBRANCH   8  26
TORSDOF 6
ENDMDL
MODEL 2
REMARK VINA RESULT:    -7.395      6.156      8.300
REMARK INTER + INTRA:          -9.003
REMARK INTER:                  -8.760
REMARK INTRA:                  -0.243
REMARK UNBOUND:                -0.095
REMARK SMILES O=c1c(O)c(-c2ccc(O)c(O)c2)oc2cc(O)cc(O)c12
REMARK SMILES IDX 5 1 3 2 2 3 1 4 22 5 20 6 19 7 17 8 16 9 15 10 14 11 6 12
REMARK SMILES IDX 7 13 8 14 9 15 13 16 11 17 10 18 12 20 4 22 21 24 18 26
REMARK H PARENT 10 19 12 21 4 23 21 25 18 27
REMARK Flexibility Score: inf
ROOT
ATOM      1  C   UNL     1     -21.363  -2.815 -49.959  1.00  0.00     0.180 A 
ATOM      2  C   UNL     1     -20.890  -1.696 -50.668  1.00  0.00     0.208 A 
ATOM      3  C   UNL     1     -21.700  -0.554 -50.754  1.00  0.00     0.238 A 
ATOM      4  O   UNL     1     -21.295   0.424 -51.436  1.00  0.00    -0.285 OA
ATOM      5  C   UNL     1     -22.965  -0.536 -50.119  1.00  0.00     0.111 A 
ATOM      6  C   UNL     1     -23.851   0.582 -50.108  1.00  0.00     0.134 A 
ATOM      7  C   UNL     1     -25.133   0.443 -49.560  1.00  0.00     0.093 A 
ATOM      8  C   UNL     1     -25.535  -0.751 -48.965  1.00  0.00     0.123 A 
ATOM      9  C   UNL     1     -24.655  -1.833 -48.916  1.00  0.00     0.094 A 
ATOM     10  C   UNL     1     -23.383  -1.737 -49.488  1.00  0.00     0.146 A 
ATOM     11  O   UNL     1     -22.580  -2.792 -49.429  1.00  0.00    -0.452 OA
ENDROOT
BRANCH   1  12
ATOM     12  C   UNL     1     -20.556  -4.046 -49.801  1.00  0.00     0.025 A 
ATOM     13  C   UNL     1     -19.929  -4.308 -48.572  1.00  0.00     0.016 A 
ATOM     14  C   UNL     1     -19.145  -5.454 -48.408  1.00  0.00     0.051 A 
ATOM     15  C   UNL     1     -18.964  -6.344 -49.473  1.00  0.00     0.157 A 
ATOM     16  C   UNL     1     -20.355  -4.933 -50.874  1.00  0.00     0.062 A 
ATOM     17  C   UNL     1     -19.566  -6.082 -50.710  1.00  0.00     0.158 A 
BRANCH  15  18
ATOM     18  O   UNL     1     -18.185  -7.489 -49.312  1.00  0.00    -0.504 OA
ATOM     19  H   UNL     1     -17.351  -7.485 -48.737  1.00  0.00     0.293 HD
ENDBRANCH  15  18
BRANCH  17  20
ATOM     20  O   UNL     1     -19.374  -6.963 -51.772  1.00  0.00    -0.504 OA
ATOM     21  H   UNL     1     -19.838  -7.863 -51.805  1.00  0.00     0.293 HD
ENDBRANCH  17  20
ENDBRANCH   1  12
BRANCH   2  22
ATOM     22  O   UNL     1     -19.648  -1.743 -51.305  1.00  0.00    -0.502 OA
ATOM     23  H   UNL     1     -18.811  -2.080 -50.843  1.00  0.00     0.293 HD
ENDBRANCH   2  22
BRANCH   6  24
ATOM     24  O   UNL     1     -23.515   1.850 -50.595  1.00  0.00    -0.507 OA
ATOM     25  H   UNL     1     -24.106   2.664 -50.532  1.00  0.00     0.293 HD
ENDBRANCH   6  24
BRANCH   8  26
ATOM     26  O   UNL     1     -26.812  -0.850 -48.416  1.00  0.00    -0.508 OA
ATOM     27  H   UNL     1     -27.093  -1.655 -47.868  1.00  0.00     0.293 HD
ENDBRANCH   8  26
TORSDOF 6
ENDMDL
MODEL 3
REMARK VINA RESULT:    -7.326      2.329      2.906
REMARK INTER + INTRA:          -8.920
REMARK INTER:                  -8.650
REMARK INTRA:                  -0.269
REMARK UNBOUND:                -0.095
REMARK SMILES O=c1c(O)c(-c2ccc(O)c(O)c2)oc2cc(O)cc(O)c12
REMARK SMILES IDX 5 1 3 2 2 3 1 4 22 5 20 6 19 7 17 8 16 9 15 10 14 11 6 12
REMARK SMILES IDX 7 13 8 14 9 15 13 16 11 17 10 18 12 20 4 22 21 24 18 26
REMARK H PARENT 10 19 12 21 4 23 21 25 18 27
REMARK Flexibility Score: inf
ROOT
ATOM      1  C   UNL     1     -16.061  -3.719 -44.958  1.00  0.00     0.180 A 
ATOM      2  C   UNL     1     -16.155  -2.398 -44.485  1.00  0.00     0.208 A 
ATOM      3  C   UNL     1     -16.169  -1.343 -45.410  1.00  0.00     0.238 A 
ATOM      4  O   UNL     1     -16.197  -0.161 -44.978  1.00  0.00    -0.285 OA
ATOM      5  C   UNL     1     -16.104  -1.621 -46.797  1.00  0.00     0.111 A 
ATOM      6  C   UNL     1     -16.151  -0.631 -47.824  1.00  0.00     0.134 A 
ATOM      7  C   UNL     1     -15.948  -1.010 -49.157  1.00  0.00     0.093 A 
ATOM      8  C   UNL     1     -15.766  -2.347 -49.506  1.00  0.00     0.123 A 
ATOM      9  C   UNL     1     -15.779  -3.330 -48.516  1.00  0.00     0.094 A 
ATOM     10  C   UNL     1     -15.942  -2.980 -47.173  1.00  0.00     0.146 A 
ATOM     11  O   UNL     1     -15.937  -3.944 -46.261  1.00  0.00    -0.452 OA
ENDROOT
BRANCH   1  12
ATOM     12  C   UNL     1     -16.067  -4.885 -44.045  1.00  0.00     0.025 A 
ATOM     13  C   UNL     1     -14.887  -5.624 -43.862  1.00  0.00     0.016 A 
ATOM     14  C   UNL     1     -14.875  -6.741 -43.021  1.00  0.00     0.051 A 
ATOM     15  C   UNL     1     -16.045  -7.143 -42.365  1.00  0.00     0.157 A 
ATOM     16  C   UNL     1     -17.244  -5.305 -43.400  1.00  0.00     0.062 A 
ATOM     17  C   UNL     1     -17.233  -6.427 -42.558  1.00  0.00     0.158 A 
BRANCH  15  18
ATOM     18  O   UNL     1     -16.037  -8.255 -41.525  1.00  0.00    -0.504 OA
ATOM     19  H   UNL     1     -16.888  -8.754 -41.298  1.00  0.00     0.293 HD
ENDBRANCH  15  18
BRANCH  17  20
ATOM     20  O   UNL     1     -18.399  -6.837 -41.914  1.00  0.00    -0.504 OA
ATOM     21  H   UNL     1     -18.408  -7.064 -40.927  1.00  0.00     0.293 HD
ENDBRANCH  17  20
ENDBRANCH   1  12
BRANCH   2  22
ATOM     22  O   UNL     1     -16.195  -2.146 -43.111  1.00  0.00    -0.502 OA
ATOM     23  H   UNL     1     -15.943  -1.248 -42.715  1.00  0.00     0.293 HD
ENDBRANCH   2  22
BRANCH   6  24
ATOM     24  O   UNL     1     -16.418   0.722 -47.594  1.00  0.00    -0.507 OA
ATOM     25  H   UNL     1     -15.850   1.330 -47.025  1.00  0.00     0.293 HD
ENDBRANCH   6  24
BRANCH   8  26
ATOM     26  O   UNL     1     -15.583  -2.690 -50.845  1.00  0.00    -0.508 OA
ATOM     27  H   UNL     1     -15.604  -1.991 -51.578  1.00  0.00     0.293 HD
ENDBRANCH   8  26
TORSDOF 6
ENDMDL
MODEL 4
REMARK VINA RESULT:    -7.311      5.727      9.556
REMARK INTER + INTRA:          -8.903
REMARK INTER:                  -8.665
REMARK INTRA:                  -0.238
REMARK UNBOUND:                -0.095
REMARK SMILES O=c1c(O)c(-c2ccc(O)c(O)c2)oc2cc(O)cc(O)c12
REMARK SMILES IDX 5 1 3 2 2 3 1 4 22 5 20 6 19 7 17 8 16 9 15 10 14 11 6 12
REMARK SMILES IDX 7 13 8 14 9 15 13 16 11 17 10 18 12 20 4 22 21 24 18 26
REMARK H PARENT 10 19 12 21 4 23 21 25 18 27
REMARK Flexibility Score: inf
ROOT
ATOM      1  C   UNL     1     -22.561  -2.256 -48.683  1.00  0.00     0.180 A 
ATOM      2  C   UNL     1     -22.056  -2.407 -47.379  1.00  0.00     0.208 A 
ATOM      3  C   UNL     1     -21.035  -3.341 -47.149  1.00  0.00     0.238 A 
ATOM      4  O   UNL     1     -20.625  -3.510 -45.970  1.00  0.00    -0.285 OA
ATOM      5  C   UNL     1     -20.520  -4.102 -48.225  1.00  0.00     0.111 A 
ATOM      6  C   UNL     1     -19.457  -5.049 -48.113  1.00  0.00     0.134 A 
ATOM      7  C   UNL     1     -19.117  -5.840 -49.218  1.00  0.00     0.093 A 
ATOM      8  C   UNL     1     -19.755  -5.673 -50.446  1.00  0.00     0.123 A 
ATOM      9  C   UNL     1     -20.754  -4.708 -50.584  1.00  0.00     0.094 A 
ATOM     10  C   UNL     1     -21.141  -3.930 -49.489  1.00  0.00     0.146 A 
ATOM     11  O   UNL     1     -22.102  -3.031 -49.659  1.00  0.00    -0.452 OA
ENDROOT
BRANCH   1  12
ATOM     12  C   UNL     1     -23.619  -1.273 -49.009  1.00  0.00     0.025 A 
ATOM     13  C   UNL     1     -23.278  -0.090 -49.685  1.00  0.00     0.016 A 
ATOM     14  C   UNL     1     -24.257   0.861 -49.985  1.00  0.00     0.051 A 
ATOM     15  C   UNL     1     -25.586   0.651 -49.599  1.00  0.00     0.157 A 
ATOM     16  C   UNL     1     -24.952  -1.470 -48.607  1.00  0.00     0.062 A 
ATOM     17  C   UNL     1     -25.935  -0.514 -48.906  1.00  0.00     0.158 A 
BRANCH  15  18
ATOM     18  O   UNL     1     -26.566   1.597 -49.898  1.00  0.00    -0.504 OA
ATOM     19  H   UNL     1     -26.340   2.579 -49.999  1.00  0.00     0.293 HD
ENDBRANCH  15  18
BRANCH  17  20
ATOM     20  O   UNL     1     -27.256  -0.715 -48.512  1.00  0.00    -0.504 OA
ATOM     21  H   UNL     1     -28.030  -0.529 -49.139  1.00  0.00     0.293 HD
ENDBRANCH  17  20
ENDBRANCH   1  12
BRANCH   2  22
ATOM     22  O   UNL     1     -22.594  -1.661 -46.327  1.00  0.00    -0.502 OA
ATOM     23  H   UNL     1     -23.069  -0.778 -46.474  1.00  0.00     0.293 HD
ENDBRANCH   2  22
BRANCH   6  24
ATOM     24  O   UNL     1     -18.693  -5.232 -46.956  1.00  0.00    -0.507 OA
ATOM     25  H   UNL     1     -19.026  -5.672 -46.112  1.00  0.00     0.293 HD
ENDBRANCH   6  24
BRANCH   8  26
ATOM     26  O   UNL     1     -19.380  -6.466 -51.529  1.00  0.00    -0.508 OA
ATOM     27  H   UNL     1     -19.990  -6.594 -52.328  1.00  0.00     0.293 HD
ENDBRANCH   8  26
TORSDOF 6
ENDMDL
MODEL 5
REMARK VINA RESULT:    -7.222      5.816      9.615
REMARK INTER + INTRA:          -8.795
REMARK INTER:                  -8.553
REMARK INTRA:                  -0.242
REMARK UNBOUND:                -0.095
REMARK SMILES O=c1c(O)c(-c2ccc(O)c(O)c2)oc2cc(O)cc(O)c12
REMARK SMILES IDX 5 1 3 2 2 3 1 4 22 5 20 6 19 7 17 8 16 9 15 10 14 11 6 12
REMARK SMILES IDX 7 13 8 14 9 15 13 16 11 17 10 18 12 20 4 22 21 24 18 26
REMARK H PARENT 10 19 12 21 4 23 21 25 18 27
REMARK Flexibility Score: inf
ROOT
ATOM      1  C   UNL     1     -22.591  -2.278 -49.375  1.00  0.00     0.180 A 
ATOM      2  C   UNL     1     -22.116  -2.884 -50.552  1.00  0.00     0.208 A 
ATOM      3  C   UNL     1     -21.120  -3.869 -50.457  1.00  0.00     0.238 A 
ATOM      4  O   UNL     1     -20.661  -4.367 -51.518  1.00  0.00    -0.285 OA
ATOM      5  C   UNL     1     -20.623  -4.248 -49.188  1.00  0.00     0.111 A 
ATOM      6  C   UNL     1     -19.643  -5.263 -48.971  1.00  0.00     0.134 A 
ATOM      7  C   UNL     1     -19.129  -5.464 -47.684  1.00  0.00     0.093 A 
ATOM      8  C   UNL     1     -19.606  -4.734 -46.596  1.00  0.00     0.123 A 
ATOM      9  C   UNL     1     -20.607  -3.781 -46.786  1.00  0.00     0.094 A 
ATOM     10  C   UNL     1     -21.114  -3.532 -48.065  1.00  0.00     0.146 A 
ATOM     11  O   UNL     1     -22.058  -2.609 -48.204  1.00  0.00    -0.452 OA
ENDROOT
BRANCH   1  12
ATOM     12  C   UNL     1     -23.657  -1.252 -49.392  1.00  0.00     0.025 A 
ATOM     13  C   UNL     1     -23.353   0.052 -49.819  1.00  0.00     0.016 A 
ATOM     14  C   UNL     1     -24.339   1.042 -49.824  1.00  0.00     0.051 A 
ATOM     15  C   UNL     1     -25.637   0.749 -49.388  1.00  0.00     0.157 A 
ATOM     16  C   UNL     1     -24.956  -1.536 -48.936  1.00  0.00     0.062 A 
ATOM     17  C   UNL     1     -25.946  -0.541 -48.939  1.00  0.00     0.158 A 
BRANCH  15  18
ATOM     18  O   UNL     1     -26.624   1.733 -49.393  1.00  0.00    -0.504 OA
ATOM     19  H   UNL     1     -27.337   1.772 -48.675  1.00  0.00     0.293 HD
ENDBRANCH  15  18
BRANCH  17  20
ATOM     20  O   UNL     1     -27.235  -0.828 -48.493  1.00  0.00    -0.504 OA
ATOM     21  H   UNL     1     -27.909  -1.297 -49.086  1.00  0.00     0.293 HD
ENDBRANCH  17  20
ENDBRANCH   1  12
BRANCH   2  22
ATOM     22  O   UNL     1     -22.605  -2.478 -51.796  1.00  0.00    -0.502 OA
ATOM     23  H   UNL     1     -23.566  -2.189 -51.935  1.00  0.00     0.293 HD
ENDBRANCH   2  22
BRANCH   6  24
ATOM     24  O   UNL     1     -19.164  -6.112 -49.974  1.00  0.00    -0.507 OA
ATOM     25  H   UNL     1     -19.466  -6.092 -50.936  1.00  0.00     0.293 HD
ENDBRANCH   6  24
BRANCH   8  26
ATOM     26  O   UNL     1     -19.084  -4.972 -45.326  1.00  0.00    -0.508 OA
ATOM     27  H   UNL     1     -19.089  -4.256 -44.609  1.00  0.00     0.293 HD
ENDBRANCH   8  26
TORSDOF 6
ENDMDL
MODEL 6
REMARK VINA RESULT:    -7.145      1.433      3.048
REMARK INTER + INTRA:          -8.703
REMARK INTER:                  -8.540
REMARK INTRA:                  -0.163
REMARK UNBOUND:                -0.095
REMARK SMILES O=c1c(O)c(-c2ccc(O)c(O)c2)oc2cc(O)cc(O)c12
REMARK SMILES IDX 5 1 3 2 2 3 1 4 22 5 20 6 19 7 17 8 16 9 15 10 14 11 6 12
REMARK SMILES IDX 7 13 8 14 9 15 13 16 11 17 10 18 12 20 4 22 21 24 18 26
REMARK H PARENT 10 19 12 21 4 23 21 25 18 27
REMARK Flexibility Score: inf
ROOT
ATOM      1  C   UNL     1     -17.159  -3.647 -43.717  1.00  0.00     0.180 A 
ATOM      2  C   UNL     1     -16.245  -2.623 -44.024  1.00  0.00     0.208 A 
ATOM      3  C   UNL     1     -16.727  -1.419 -44.561  1.00  0.00     0.238 A 
ATOM      4  O   UNL     1     -15.899  -0.528 -44.884  1.00  0.00    -0.285 OA
ATOM      5  C   UNL     1     -18.116  -1.247 -44.769  1.00  0.00     0.111 A 
ATOM      6  C   UNL     1     -18.718  -0.054 -45.270  1.00  0.00     0.134 A 
ATOM      7  C   UNL     1     -20.089  -0.041 -45.560  1.00  0.00     0.093 A 
ATOM      8  C   UNL     1     -20.889  -1.153 -45.306  1.00  0.00     0.123 A 
ATOM      9  C   UNL     1     -20.322  -2.305 -44.760  1.00  0.00     0.094 A 
ATOM     10  C   UNL     1     -18.950  -2.361 -44.495  1.00  0.00     0.146 A 
ATOM     11  O   UNL     1     -18.449  -3.480 -43.985  1.00  0.00    -0.452 OA
ENDROOT
BRANCH   1  12
ATOM     12  C   UNL     1     -16.730  -4.934 -43.125  1.00  0.00     0.025 A 
ATOM     13  C   UNL     1     -15.948  -5.818 -43.887  1.00  0.00     0.016 A 
ATOM     14  C   UNL     1     -15.549  -7.048 -43.355  1.00  0.00     0.051 A 
ATOM     15  C   UNL     1     -15.938  -7.417 -42.062  1.00  0.00     0.157 A 
ATOM     16  C   UNL     1     -17.135  -5.319 -41.834  1.00  0.00     0.062 A 
ATOM     17  C   UNL     1     -16.736  -6.554 -41.301  1.00  0.00     0.158 A 
BRANCH  15  18
ATOM     18  O   UNL     1     -15.541  -8.642 -41.527  1.00  0.00    -0.504 OA
ATOM     19  H   UNL     1     -14.772  -8.708 -40.871  1.00  0.00     0.293 HD
ENDBRANCH  15  18
BRANCH  17  20
ATOM     20  O   UNL     1     -17.134  -6.930 -40.019  1.00  0.00    -0.504 OA
ATOM     21  H   UNL     1     -17.185  -6.259 -39.262  1.00  0.00     0.293 HD
ENDBRANCH  17  20
ENDBRANCH   1  12
BRANCH   2  22
ATOM     22  O   UNL     1     -14.876  -2.823 -43.830  1.00  0.00    -0.502 OA
ATOM     23  H   UNL     1     -14.276  -2.119 -43.415  1.00  0.00     0.293 HD
ENDBRANCH   2  22
BRANCH   6  24
ATOM     24  O   UNL     1     -18.026   1.144 -45.474  1.00  0.00    -0.507 OA
ATOM     25  H   UNL     1     -17.706   1.476 -46.371  1.00  0.00     0.293 HD
ENDBRANCH   6  24
BRANCH   8  26
ATOM     26  O   UNL     1     -22.252  -1.100 -45.592  1.00  0.00    -0.508 OA
ATOM     27  H   UNL     1     -22.932  -1.586 -45.020  1.00  0.00     0.293 HD
ENDBRANCH   8  26
TORSDOF 6
ENDMDL
MODEL 7
REMARK VINA RESULT:    -7.128      2.746      4.151
REMARK INTER + INTRA:          -8.681
REMARK INTER:                  -8.350
REMARK INTRA:                  -0.331
REMARK UNBOUND:                -0.095
REMARK SMILES O=c1c(O)c(-c2ccc(O)c(O)c2)oc2cc(O)cc(O)c12
REMARK SMILES IDX 5 1 3 2 2 3 1 4 22 5 20 6 19 7 17 8 16 9 15 10 14 11 6 12
REMARK SMILES IDX 7 13 8 14 9 15 13 16 11 17 10 18 12 20 4 22 21 24 18 26
REMARK H PARENT 10 19 12 21 4 23 21 25 18 27
REMARK Flexibility Score: inf
ROOT
ATOM      1  C   UNL     1     -18.804  -4.661 -44.206  1.00  0.00     0.180 A 
ATOM      2  C   UNL     1     -19.129  -3.324 -43.911  1.00  0.00     0.208 A 
ATOM      3  C   UNL     1     -20.120  -2.682 -44.670  1.00  0.00     0.238 A 
ATOM      4  O   UNL     1     -20.367  -1.470 -44.437  1.00  0.00    -0.285 OA
ATOM      5  C   UNL     1     -20.784  -3.386 -45.702  1.00  0.00     0.111 A 
ATOM      6  C   UNL     1     -21.832  -2.846 -46.507  1.00  0.00     0.134 A 
ATOM      7  C   UNL     1     -22.327  -3.590 -47.586  1.00  0.00     0.093 A 
ATOM      8  C   UNL     1     -21.860  -4.877 -47.848  1.00  0.00     0.123 A 
ATOM      9  C   UNL     1     -20.878  -5.438 -47.031  1.00  0.00     0.094 A 
ATOM     10  C   UNL     1     -20.338  -4.707 -45.969  1.00  0.00     0.146 A 
ATOM     11  O   UNL     1     -19.399  -5.274 -45.222  1.00  0.00    -0.452 OA
ENDROOT
BRANCH   1  12
ATOM     12  C   UNL     1     -17.789  -5.413 -43.433  1.00  0.00     0.025 A 
ATOM     13  C   UNL     1     -16.473  -5.494 -43.918  1.00  0.00     0.016 A 
ATOM     14  C   UNL     1     -15.504  -6.216 -43.216  1.00  0.00     0.051 A 
ATOM     15  C   UNL     1     -15.839  -6.879 -42.030  1.00  0.00     0.157 A 
ATOM     16  C   UNL     1     -18.126  -6.098 -42.252  1.00  0.00     0.062 A 
ATOM     17  C   UNL     1     -17.153  -6.824 -41.549  1.00  0.00     0.158 A 
BRANCH  15  18
ATOM     18  O   UNL     1     -14.875  -7.599 -41.326  1.00  0.00    -0.504 OA
ATOM     19  H   UNL     1     -13.888  -7.389 -41.415  1.00  0.00     0.293 HD
ENDBRANCH  15  18
BRANCH  17  20
ATOM     20  O   UNL     1     -17.488  -7.497 -40.375  1.00  0.00    -0.504 OA
ATOM     21  H   UNL     1     -18.341  -8.038 -40.298  1.00  0.00     0.293 HD
ENDBRANCH  17  20
ENDBRANCH   1  12
BRANCH   2  22
ATOM     22  O   UNL     1     -18.445  -2.642 -42.902  1.00  0.00    -0.502 OA
ATOM     23  H   UNL     1     -18.859  -2.451 -41.997  1.00  0.00     0.293 HD
ENDBRANCH   2  22
BRANCH   6  24
ATOM     24  O   UNL     1     -22.434  -1.606 -46.275  1.00  0.00    -0.507 OA
ATOM     25  H   UNL     1     -23.427  -1.434 -46.312  1.00  0.00     0.293 HD
ENDBRANCH   6  24
BRANCH   8  26
ATOM     26  O   UNL     1     -22.386  -5.594 -48.921  1.00  0.00    -0.508 OA
ATOM     27  H   UNL     1     -22.746  -6.534 -48.804  1.00  0.00     0.293 HD
ENDBRANCH   8  26
TORSDOF 6
ENDMDL
MODEL 8
REMARK VINA RESULT:    -7.051      4.049      5.689
REMARK INTER + INTRA:          -8.588
REMARK INTER:                  -8.360
REMARK INTRA:                  -0.228
REMARK UNBOUND:                -0.095
REMARK SMILES O=c1c(O)c(-c2ccc(O)c(O)c2)oc2cc(O)cc(O)c12
REMARK SMILES IDX 5 1 3 2 2 3 1 4 22 5 20 6 19 7 17 8 16 9 15 10 14 11 6 12
REMARK SMILES IDX 7 13 8 14 9 15 13 16 11 17 10 18 12 20 4 22 21 24 18 26
REMARK H PARENT 10 19 12 21 4 23 21 25 18 27
REMARK Flexibility Score: inf
ROOT
ATOM      1  C   UNL     1     -17.710  -1.092 -45.235  1.00  0.00     0.180 A 
ATOM      2  C   UNL     1     -16.923  -0.051 -45.758  1.00  0.00     0.208 A 
ATOM      3  C   UNL     1     -16.269  -0.243 -46.986  1.00  0.00     0.238 A 
ATOM      4  O   UNL     1     -15.523   0.673 -47.422  1.00  0.00    -0.285 OA
ATOM      5  C   UNL     1     -16.422  -1.465 -47.682  1.00  0.00     0.111 A 
ATOM      6  C   UNL     1     -15.837  -1.753 -48.952  1.00  0.00     0.134 A 
ATOM      7  C   UNL     1     -15.948  -3.042 -49.487  1.00  0.00     0.093 A 
ATOM      8  C   UNL     1     -16.676  -4.034 -48.831  1.00  0.00     0.123 A 
ATOM      9  C   UNL     1     -17.302  -3.747 -47.618  1.00  0.00     0.094 A 
ATOM     10  C   UNL     1     -17.179  -2.480 -47.040  1.00  0.00     0.146 A 
ATOM     11  O   UNL     1     -17.781  -2.251 -45.880  1.00  0.00    -0.452 OA
ENDROOT
BRANCH   1  12
ATOM     12  C   UNL     1     -18.451  -0.955 -43.960  1.00  0.00     0.025 A 
ATOM     13  C   UNL     1     -17.745  -0.978 -42.746  1.00  0.00     0.016 A 
ATOM     14  C   UNL     1     -18.426  -0.871 -41.530  1.00  0.00     0.051 A 
ATOM     15  C   UNL     1     -19.821  -0.757 -41.510  1.00  0.00     0.157 A 
ATOM     16  C   UNL     1     -19.853  -0.860 -43.934  1.00  0.00     0.062 A 
ATOM     17  C   UNL     1     -20.537  -0.755 -42.713  1.00  0.00     0.158 A 
BRANCH  15  18
ATOM     18  O   UNL     1     -20.503  -0.648 -40.299  1.00  0.00    -0.504 OA
ATOM     19  H   UNL     1     -21.498  -0.828 -40.234  1.00  0.00     0.293 HD
ENDBRANCH  15  18
BRANCH  17  20
ATOM     20  O   UNL     1     -21.927  -0.653 -42.690  1.00  0.00    -0.504 OA
ATOM     21  H   UNL     1     -22.465  -0.551 -43.542  1.00  0.00     0.293 HD
ENDBRANCH  17  20
ENDBRANCH   1  12
BRANCH   2  22
ATOM     22  O   UNL     1     -16.768   1.140 -45.044  1.00  0.00    -0.502 OA
ATOM     23  H   UNL     1     -16.239   1.926 -45.403  1.00  0.00     0.293 HD
ENDBRANCH   2  22
BRANCH   6  24
ATOM     24  O   UNL     1     -15.166  -0.808 -49.735  1.00  0.00    -0.507 OA
ATOM     25  H   UNL     1     -15.532  -0.400 -50.581  1.00  0.00     0.293 HD
ENDBRANCH   6  24
BRANCH   8  26
ATOM     26  O   UNL     1     -16.778  -5.302 -49.401  1.00  0.00    -0.508 OA
ATOM     27  H   UNL     1     -17.667  -5.783 -49.464  1.00  0.00     0.293 HD
ENDBRANCH   8  26
TORSDOF 6
ENDMDL
MODEL 9
REMARK VINA RESULT:    -7.017      3.528      4.278
REMARK INTER + INTRA:          -8.548
REMARK INTER:                  -8.277
REMARK INTRA:                  -0.272
REMARK UNBOUND:                -0.095
REMARK SMILES O=c1c(O)c(-c2ccc(O)c(O)c2)oc2cc(O)cc(O)c12
REMARK SMILES IDX 5 1 3 2 2 3 1 4 22 5 20 6 19 7 17 8 16 9 15 10 14 11 6 12
REMARK SMILES IDX 7 13 8 14 9 15 13 16 11 17 10 18 12 20 4 22 21 24 18 26
REMARK H PARENT 10 19 12 21 4 23 21 25 18 27
REMARK Flexibility Score: inf
ROOT
ATOM      1  C   UNL     1     -19.201  -1.037 -44.073  1.00  0.00     0.180 A 
ATOM      2  C   UNL     1     -20.353  -0.868 -44.862  1.00  0.00     0.208 A 
ATOM      3  C   UNL     1     -20.212  -0.412 -46.182  1.00  0.00     0.238 A 
ATOM      4  O   UNL     1     -21.251  -0.210 -46.864  1.00  0.00    -0.285 OA
ATOM      5  C   UNL     1     -18.923  -0.146 -46.703  1.00  0.00     0.111 A 
ATOM      6  C   UNL     1     -18.662   0.281 -48.039  1.00  0.00     0.134 A 
ATOM      7  C   UNL     1     -17.359   0.640 -48.407  1.00  0.00     0.093 A 
ATOM      8  C   UNL     1     -16.299   0.524 -47.508  1.00  0.00     0.123 A 
ATOM      9  C   UNL     1     -16.534   0.050 -46.217  1.00  0.00     0.094 A 
ATOM     10  C   UNL     1     -17.829  -0.280 -45.809  1.00  0.00     0.146 A 
ATOM     11  O   UNL     1     -18.011  -0.717 -44.569  1.00  0.00    -0.452 OA
ENDROOT
BRANCH   1  12
ATOM     12  C   UNL     1     -19.266  -1.539 -42.681  1.00  0.00     0.025 A 
ATOM     13  C   UNL     1     -18.961  -2.884 -42.418  1.00  0.00     0.016 A 
ATOM     14  C   UNL     1     -19.037  -3.384 -41.115  1.00  0.00     0.051 A 
ATOM     15  C   UNL     1     -19.432  -2.551 -40.061  1.00  0.00     0.157 A 
ATOM     16  C   UNL     1     -19.681  -0.712 -41.623  1.00  0.00     0.062 A 
ATOM     17  C   UNL     1     -19.759  -1.214 -40.315  1.00  0.00     0.158 A 
BRANCH  15  18
ATOM     18  O   UNL     1     -19.506  -3.046 -38.760  1.00  0.00    -0.504 OA
ATOM     19  H   UNL     1     -18.736  -3.554 -38.342  1.00  0.00     0.293 HD
ENDBRANCH  15  18
BRANCH  17  20
ATOM     20  O   UNL     1     -20.164  -0.390 -39.266  1.00  0.00    -0.504 OA
ATOM     21  H   UNL     1     -20.938  -0.643 -38.663  1.00  0.00     0.293 HD
ENDBRANCH  17  20
ENDBRANCH   1  12
BRANCH   2  22
ATOM     22  O   UNL     1     -21.617  -1.115 -44.320  1.00  0.00    -0.502 OA
ATOM     23  H   UNL     1     -22.471  -0.808 -44.771  1.00  0.00     0.293 HD
ENDBRANCH   2  22
BRANCH   6  24
ATOM     24  O   UNL     1     -19.633   0.345 -49.043  1.00  0.00    -0.507 OA
ATOM     25  H   UNL     1     -19.868   1.176 -49.563  1.00  0.00     0.293 HD
ENDBRANCH   6  24
BRANCH   8  26
ATOM     26  O   UNL     1     -15.013   0.875 -47.913  1.00  0.00    -0.508 OA
ATOM     27  H   UNL     1     -14.236   0.232 -47.824  1.00  0.00     0.293 HD
ENDBRANCH   8  26
TORSDOF 6
ENDMDL
