MODEL 1
REMARK VINA RESULT:    -5.530      0.000      0.000
REMARK INTER + INTRA:         -15.006
REMARK INTER:                 -12.643
REMARK INTRA:                  -2.363
REMARK UNBOUND:                -2.363
REMARK SMILES CCCCCCCCCCCCCCCCCCCCCCCC(=O)[O-]
REMARK SMILES IDX 13 1 14 2 15 3 16 4 17 5 18 6 19 7 20 8 21 9 22 10 23 11
REMARK SMILES IDX 24 12 25 13 26 14 12 15 11 16 10 17 9 18 8 19 7 20 6 21 5 22
REMARK SMILES IDX 4 23 3 24 2 25 1 26
REMARK H PARENT
REMARK Flexibility Score: inf
ROOT
ATOM      1  C   UNL     1      61.891 151.809   3.580  1.00  0.00     0.000 C 
ENDROOT
BRANCH   1   2
ATOM      2  C   UNL     1      60.950 151.906   2.363  1.00  0.00     0.000 C 
BRANCH   2   3
ATOM      3  C   UNL     1      61.241 153.076   1.406  1.00  0.00     0.000 C 
BRANCH   3   4
ATOM      4  C   UNL     1      59.964 153.710   0.837  1.00  0.00     0.000 C 
BRANCH   4   5
ATOM      5  C   UNL     1      58.788 153.545   1.814  1.00  0.00     0.000 C 
BRANCH   5   6
ATOM      6  C   UNL     1      58.669 154.700   2.826  1.00  0.00     0.000 C 
BRANCH   6   7
ATOM      7  C   UNL     1      58.791 154.298   4.309  1.00  0.00     0.000 C 
BRANCH   7   8
ATOM      8  C   UNL     1      58.183 155.328   5.274  1.00  0.00     0.000 C 
BRANCH   8   9
ATOM      9  C   UNL     1      58.515 155.032   6.745  1.00  0.00     0.000 C 
BRANCH   9  10
ATOM     10  C   UNL     1      59.807 155.711   7.246  1.00  0.00     0.006 C 
BRANCH  10  11
ATOM     11  C   UNL     1      60.672 154.775   8.102  1.00  0.00     0.053 C 
BRANCH  11  12
ATOM     12  C   UNL     1      61.729 154.109   7.275  1.00  0.00     0.041 C 
ATOM     13  O   UNL     1      61.567 152.931   6.859  1.00  0.00    -0.550 OA
ATOM     14  O   UNL     1      62.906 154.784   6.977  1.00  0.00    -0.550 OA
ENDBRANCH  11  12
ENDBRANCH  10  11
ENDBRANCH   9  10
ENDBRANCH   8   9
ENDBRANCH   7   8
ENDBRANCH   6   7
ENDBRANCH   5   6
ENDBRANCH   4   5
ENDBRANCH   3   4
ENDBRANCH   2   3
ENDBRANCH   1   2
BRANCH   1  15
ATOM     15  C   UNL     1      63.364 151.511   3.248  1.00  0.00     0.000 C 
BRANCH  15  16
ATOM     16  C   UNL     1      64.341 152.082   4.288  1.00  0.00     0.000 C 
BRANCH  16  17
ATOM     17  C   UNL     1      65.034 150.956   5.069  1.00  0.00     0.000 C 
BRANCH  17  18
ATOM     18  C   UNL     1      64.554 149.554   4.650  1.00  0.00    -0.000 C 
BRANCH  18  19
ATOM     19  C   UNL     1      63.511 148.911   5.587  1.00  0.00    -0.000 C 
BRANCH  19  20
ATOM     20  C   UNL     1      63.219 149.696   6.881  1.00  0.00    -0.000 C 
BRANCH  20  21
ATOM     21  C   UNL     1      61.862 149.386   7.537  1.00  0.00    -0.000 C 
BRANCH  21  22
ATOM     22  C   UNL     1      60.687 149.471   6.550  1.00  0.00    -0.000 C 
BRANCH  22  23
ATOM     23  C   UNL     1      59.604 148.440   6.895  1.00  0.00    -0.000 C 
BRANCH  23  24
ATOM     24  C   UNL     1      60.230 147.124   7.384  1.00  0.00    -0.000 C 
BRANCH  24  25
ATOM     25  C   UNL     1      59.382 146.432   8.463  1.00  0.00    -0.003 C 
ATOM     26  C   UNL     1      59.147 144.950   8.173  1.00  0.00     0.004 C 
ENDBRANCH  24  25
ENDBRANCH  23  24
ENDBRANCH  22  23
ENDBRANCH  21  22
ENDBRANCH  20  21
ENDBRANCH  19  20
ENDBRANCH  18  19
ENDBRANCH  17  18
ENDBRANCH  16  17
ENDBRANCH  15  16
ENDBRANCH   1  15
TORSDOF 22
ENDMDL
MODEL 2
REMARK VINA RESULT:    -5.490      2.215      5.538
REMARK INTER + INTRA:         -14.913
REMARK INTER:                 -10.819
REMARK INTRA:                  -4.094
REMARK UNBOUND:                -2.363
REMARK SMILES CCCCCCCCCCCCCCCCCCCCCCCC(=O)[O-]
REMARK SMILES IDX 13 1 14 2 15 3 16 4 17 5 18 6 19 7 20 8 21 9 22 10 23 11
REMARK SMILES IDX 24 12 25 13 26 14 12 15 11 16 10 17 9 18 8 19 7 20 6 21 5 22
REMARK SMILES IDX 4 23 3 24 2 25 1 26
REMARK H PARENT
REMARK Flexibility Score: inf
ROOT
ATOM      1  C   UNL     1      61.755 153.077   6.218  1.00  0.00     0.000 C 
ENDROOT
BRANCH   1   2
ATOM      2  C   UNL     1      62.200 154.340   6.984  1.00  0.00     0.000 C 
BRANCH   2   3
ATOM      3  C   UNL     1      61.063 155.305   7.365  1.00  0.00     0.000 C 
BRANCH   3   4
ATOM      4  C   UNL     1      60.240 154.810   8.563  1.00  0.00     0.000 C 
BRANCH   4   5
ATOM      5  C   UNL     1      58.755 154.677   8.190  1.00  0.00     0.000 C 
BRANCH   5   6
ATOM      6  C   UNL     1      58.363 153.256   7.743  1.00  0.00     0.000 C 
BRANCH   6   7
ATOM      7  C   UNL     1      57.996 153.105   6.254  1.00  0.00     0.000 C 
BRANCH   7   8
ATOM      8  C   UNL     1      57.939 154.443   5.500  1.00  0.00     0.000 C 
BRANCH   8   9
ATOM      9  C   UNL     1      58.883 154.482   4.287  1.00  0.00     0.000 C 
BRANCH   9  10
ATOM     10  C   UNL     1      59.310 153.089   3.779  1.00  0.00     0.006 C 
BRANCH  10  11
ATOM     11  C   UNL     1      58.841 152.817   2.342  1.00  0.00     0.053 C 
BRANCH  11  12
ATOM     12  C   UNL     1      59.674 153.568   1.350  1.00  0.00     0.041 C 
ATOM     13  O   UNL     1      60.914 153.361   1.270  1.00  0.00    -0.550 OA
ATOM     14  O   UNL     1      59.084 154.514   0.521  1.00  0.00    -0.550 OA
ENDBRANCH  11  12
ENDBRANCH  10  11
ENDBRANCH   9  10
ENDBRANCH   8   9
ENDBRANCH   7   8
ENDBRANCH   6   7
ENDBRANCH   5   6
ENDBRANCH   4   5
ENDBRANCH   3   4
ENDBRANCH   2   3
ENDBRANCH   1   2
BRANCH   1  15
ATOM     15  C   UNL     1      61.963 151.749   6.969  1.00  0.00     0.000 C 
BRANCH  15  16
ATOM     16  C   UNL     1      60.858 150.720   6.682  1.00  0.00     0.000 C 
BRANCH  16  17
ATOM     17  C   UNL     1      60.674 149.765   7.870  1.00  0.00     0.000 C 
BRANCH  17  18
ATOM     18  C   UNL     1      60.507 148.296   7.436  1.00  0.00    -0.000 C 
BRANCH  18  19
ATOM     19  C   UNL     1      60.775 148.019   5.943  1.00  0.00    -0.000 C 
BRANCH  19  20
ATOM     20  C   UNL     1      62.126 147.347   5.632  1.00  0.00    -0.000 C 
BRANCH  20  21
ATOM     21  C   UNL     1      63.144 148.241   4.902  1.00  0.00    -0.000 C 
BRANCH  21  22
ATOM     22  C   UNL     1      64.070 149.002   5.863  1.00  0.00    -0.000 C 
BRANCH  22  23
ATOM     23  C   UNL     1      65.105 149.829   5.090  1.00  0.00    -0.000 C 
BRANCH  23  24
ATOM     24  C   UNL     1      64.421 150.756   4.072  1.00  0.00    -0.000 C 
BRANCH  24  25
ATOM     25  C   UNL     1      64.826 152.228   4.248  1.00  0.00    -0.003 C 
ATOM     26  C   UNL     1      65.435 152.516   5.620  1.00  0.00     0.004 C 
ENDBRANCH  24  25
ENDBRANCH  23  24
ENDBRANCH  22  23
ENDBRANCH  21  22
ENDBRANCH  20  21
ENDBRANCH  19  20
ENDBRANCH  18  19
ENDBRANCH  17  18
ENDBRANCH  16  17
ENDBRANCH  15  16
ENDBRANCH   1  15
TORSDOF 22
ENDMDL
MODEL 3
REMARK VINA RESULT:    -5.470      2.317      6.643
REMARK INTER + INTRA:         -14.868
REMARK INTER:                 -11.610
REMARK INTRA:                  -3.259
REMARK UNBOUND:                -2.363
REMARK SMILES CCCCCCCCCCCCCCCCCCCCCCCC(=O)[O-]
REMARK SMILES IDX 13 1 14 2 15 3 16 4 17 5 18 6 19 7 20 8 21 9 22 10 23 11
REMARK SMILES IDX 24 12 25 13 26 14 12 15 11 16 10 17 9 18 8 19 7 20 6 21 5 22
REMARK SMILES IDX 4 23 3 24 2 25 1 26
REMARK H PARENT
REMARK Flexibility Score: inf
ROOT
ATOM      1  C   UNL     1      61.800 152.164   3.523  1.00  0.00     0.000 C 
ENDROOT
BRANCH   1   2
ATOM      2  C   UNL     1      63.230 151.589   3.467  1.00  0.00     0.000 C 
BRANCH   2   3
ATOM      3  C   UNL     1      64.244 152.272   4.402  1.00  0.00     0.000 C 
BRANCH   3   4
ATOM      4  C   UNL     1      65.292 151.296   4.956  1.00  0.00     0.000 C 
BRANCH   4   5
ATOM      5  C   UNL     1      64.992 149.857   4.508  1.00  0.00     0.000 C 
BRANCH   5   6
ATOM      6  C   UNL     1      64.554 148.937   5.664  1.00  0.00     0.000 C 
BRANCH   6   7
ATOM      7  C   UNL     1      63.161 148.296   5.510  1.00  0.00     0.000 C 
BRANCH   7   8
ATOM      8  C   UNL     1      62.008 149.247   5.866  1.00  0.00     0.000 C 
BRANCH   8   9
ATOM      9  C   UNL     1      62.312 150.115   7.098  1.00  0.00     0.000 C 
BRANCH   9  10
ATOM     10  C   UNL     1      61.853 149.493   8.433  1.00  0.00     0.006 C 
BRANCH  10  11
ATOM     11  C   UNL     1      60.391 149.826   8.766  1.00  0.00     0.053 C 
BRANCH  11  12
ATOM     12  C   UNL     1      59.482 148.694   8.399  1.00  0.00     0.041 C 
ATOM     13  O   UNL     1      58.236 148.798   8.557  1.00  0.00    -0.550 OA
ATOM     14  O   UNL     1      60.011 147.511   7.899  1.00  0.00    -0.550 OA
ENDBRANCH  11  12
ENDBRANCH  10  11
ENDBRANCH   9  10
ENDBRANCH   8   9
ENDBRANCH   7   8
ENDBRANCH   6   7
ENDBRANCH   5   6
ENDBRANCH   4   5
ENDBRANCH   3   4
ENDBRANCH   2   3
ENDBRANCH   1   2
BRANCH   1  15
ATOM     15  C   UNL     1      60.925 151.867   2.292  1.00  0.00     0.000 C 
BRANCH  15  16
ATOM     16  C   UNL     1      60.472 153.139   1.559  1.00  0.00     0.000 C 
BRANCH  16  17
ATOM     17  C   UNL     1      59.002 153.458   1.866  1.00  0.00     0.000 C 
BRANCH  17  18
ATOM     18  C   UNL     1      58.568 154.841   1.346  1.00  0.00    -0.000 C 
BRANCH  18  19
ATOM     19  C   UNL     1      57.876 155.745   2.387  1.00  0.00    -0.000 C 
BRANCH  19  20
ATOM     20  C   UNL     1      57.952 155.246   3.844  1.00  0.00    -0.000 C 
BRANCH  20  21
ATOM     21  C   UNL     1      58.615 156.223   4.832  1.00  0.00    -0.000 C 
BRANCH  21  22
ATOM     22  C   UNL     1      58.975 155.564   6.172  1.00  0.00    -0.000 C 
BRANCH  22  23
ATOM     23  C   UNL     1      60.089 154.524   5.991  1.00  0.00    -0.000 C 
BRANCH  23  24
ATOM     24  C   UNL     1      59.904 153.344   6.958  1.00  0.00    -0.000 C 
BRANCH  24  25
ATOM     25  C   UNL     1      59.394 152.077   6.253  1.00  0.00    -0.003 C 
ATOM     26  C   UNL     1      57.880 152.082   6.046  1.00  0.00     0.004 C 
ENDBRANCH  24  25
ENDBRANCH  23  24
ENDBRANCH  22  23
ENDBRANCH  21  22
ENDBRANCH  20  21
ENDBRANCH  19  20
ENDBRANCH  18  19
ENDBRANCH  17  18
ENDBRANCH  16  17
ENDBRANCH  15  16
ENDBRANCH   1  15
TORSDOF 22
ENDMDL
MODEL 4
REMARK VINA RESULT:    -5.427      1.877      6.172
REMARK INTER + INTRA:         -14.770
REMARK INTER:                 -11.846
REMARK INTRA:                  -2.925
REMARK UNBOUND:                -2.363
REMARK SMILES CCCCCCCCCCCCCCCCCCCCCCCC(=O)[O-]
REMARK SMILES IDX 13 1 14 2 15 3 16 4 17 5 18 6 19 7 20 8 21 9 22 10 23 11
REMARK SMILES IDX 24 12 25 13 26 14 12 15 11 16 10 17 9 18 8 19 7 20 6 21 5 22
REMARK SMILES IDX 4 23 3 24 2 25 1 26
REMARK H PARENT
REMARK Flexibility Score: inf
ROOT
ATOM      1  C   UNL     1      58.577 154.734   4.081  1.00  0.00     0.000 C 
ENDROOT
BRANCH   1   2
ATOM      2  C   UNL     1      57.992 154.594   5.501  1.00  0.00     0.000 C 
BRANCH   2   3
ATOM      3  C   UNL     1      58.599 155.541   6.552  1.00  0.00     0.000 C 
BRANCH   3   4
ATOM      4  C   UNL     1      60.133 155.582   6.500  1.00  0.00     0.000 C 
BRANCH   4   5
ATOM      5  C   UNL     1      60.722 154.164   6.568  1.00  0.00     0.000 C 
BRANCH   5   6
ATOM      6  C   UNL     1      60.925 153.657   8.008  1.00  0.00     0.000 C 
BRANCH   6   7
ATOM      7  C   UNL     1      60.473 152.206   8.272  1.00  0.00     0.000 C 
BRANCH   7   8
ATOM      8  C   UNL     1      59.156 151.839   7.569  1.00  0.00     0.000 C 
BRANCH   8   9
ATOM      9  C   UNL     1      59.264 150.546   6.745  1.00  0.00     0.000 C 
BRANCH   9  10
ATOM     10  C   UNL     1      59.545 149.285   7.589  1.00  0.00     0.006 C 
BRANCH  10  11
ATOM     11  C   UNL     1      60.159 148.147   6.761  1.00  0.00     0.053 C 
BRANCH  11  12
ATOM     12  C   UNL     1      61.571 148.462   6.372  1.00  0.00     0.041 C 
ATOM     13  O   UNL     1      62.279 149.214   7.093  1.00  0.00    -0.550 OA
ATOM     14  O   UNL     1      62.102 147.939   5.200  1.00  0.00    -0.550 OA
ENDBRANCH  11  12
ENDBRANCH  10  11
ENDBRANCH   9  10
ENDBRANCH   8   9
ENDBRANCH   7   8
ENDBRANCH   6   7
ENDBRANCH   5   6
ENDBRANCH   4   5
ENDBRANCH   3   4
ENDBRANCH   2   3
ENDBRANCH   1   2
BRANCH   1  15
ATOM     15  C   UNL     1      57.918 155.815   3.205  1.00  0.00     0.000 C 
BRANCH  15  16
ATOM     16  C   UNL     1      57.979 155.488   1.704  1.00  0.00     0.000 C 
BRANCH  16  17
ATOM     17  C   UNL     1      58.479 154.054   1.473  1.00  0.00     0.000 C 
BRANCH  17  18
ATOM     18  C   UNL     1      59.648 153.982   0.473  1.00  0.00    -0.000 C 
BRANCH  18  19
ATOM     19  C   UNL     1      60.982 153.479   1.059  1.00  0.00    -0.000 C 
BRANCH  19  20
ATOM     20  C   UNL     1      60.852 152.498   2.241  1.00  0.00    -0.000 C 
BRANCH  20  21
ATOM     21  C   UNL     1      62.183 151.932   2.766  1.00  0.00    -0.000 C 
BRANCH  21  22
ATOM     22  C   UNL     1      62.083 151.405   4.205  1.00  0.00    -0.000 C 
BRANCH  22  23
ATOM     23  C   UNL     1      63.217 151.962   5.075  1.00  0.00    -0.000 C 
BRANCH  23  24
ATOM     24  C   UNL     1      64.590 151.521   4.542  1.00  0.00    -0.000 C 
BRANCH  24  25
ATOM     25  C   UNL     1      64.950 150.084   4.953  1.00  0.00    -0.003 C 
ATOM     26  C   UNL     1      65.201 149.170   3.754  1.00  0.00     0.004 C 
ENDBRANCH  24  25
ENDBRANCH  23  24
ENDBRANCH  22  23
ENDBRANCH  21  22
ENDBRANCH  20  21
ENDBRANCH  19  20
ENDBRANCH  18  19
ENDBRANCH  17  18
ENDBRANCH  16  17
ENDBRANCH  15  16
ENDBRANCH   1  15
TORSDOF 22
ENDMDL
MODEL 5
REMARK VINA RESULT:    -5.369      1.393      5.764
REMARK INTER + INTRA:         -14.637
REMARK INTER:                 -11.682
REMARK INTRA:                  -2.956
REMARK UNBOUND:                -2.363
REMARK SMILES CCCCCCCCCCCCCCCCCCCCCCCC(=O)[O-]
REMARK SMILES IDX 13 1 14 2 15 3 16 4 17 5 18 6 19 7 20 8 21 9 22 10 23 11
REMARK SMILES IDX 24 12 25 13 26 14 12 15 11 16 10 17 9 18 8 19 7 20 6 21 5 22
REMARK SMILES IDX 4 23 3 24 2 25 1 26
REMARK H PARENT
REMARK Flexibility Score: inf
ROOT
ATOM      1  C   UNL     1      63.648 148.517   5.224  1.00  0.00     0.000 C 
ENDROOT
BRANCH   1   2
ATOM      2  C   UNL     1      62.810 149.241   6.297  1.00  0.00     0.000 C 
BRANCH   2   3
ATOM      3  C   UNL     1      61.290 149.019   6.196  1.00  0.00     0.000 C 
BRANCH   3   4
ATOM      4  C   UNL     1      60.681 148.472   7.495  1.00  0.00     0.000 C 
BRANCH   4   5
ATOM      5  C   UNL     1      59.156 148.331   7.368  1.00  0.00     0.000 C 
BRANCH   5   6
ATOM      6  C   UNL     1      58.445 149.660   7.050  1.00  0.00     0.000 C 
BRANCH   6   7
ATOM      7  C   UNL     1      58.145 150.560   8.264  1.00  0.00     0.000 C 
BRANCH   7   8
ATOM      8  C   UNL     1      58.469 152.043   8.021  1.00  0.00     0.000 C 
BRANCH   8   9
ATOM      9  C   UNL     1      59.435 152.254   6.844  1.00  0.00     0.000 C 
BRANCH   9  10
ATOM     10  C   UNL     1      60.921 152.316   7.255  1.00  0.00     0.006 C 
BRANCH  10  11
ATOM     11  C   UNL     1      61.250 153.563   8.088  1.00  0.00     0.053 C 
BRANCH  11  12
ATOM     12  C   UNL     1      61.686 154.698   7.214  1.00  0.00     0.041 C 
ATOM     13  O   UNL     1      62.908 154.877   6.962  1.00  0.00    -0.550 OA
ATOM     14  O   UNL     1      60.745 155.575   6.691  1.00  0.00    -0.550 OA
ENDBRANCH  11  12
ENDBRANCH  10  11
ENDBRANCH   9  10
ENDBRANCH   8   9
ENDBRANCH   7   8
ENDBRANCH   6   7
ENDBRANCH   5   6
ENDBRANCH   4   5
ENDBRANCH   3   4
ENDBRANCH   2   3
ENDBRANCH   1   2
BRANCH   1  15
ATOM     15  C   UNL     1      64.849 149.314   4.683  1.00  0.00     0.000 C 
BRANCH  15  16
ATOM     16  C   UNL     1      65.179 150.551   5.533  1.00  0.00     0.000 C 
BRANCH  16  17
ATOM     17  C   UNL     1      64.879 151.845   4.762  1.00  0.00     0.000 C 
BRANCH  17  18
ATOM     18  C   UNL     1      63.990 151.613   3.527  1.00  0.00    -0.000 C 
BRANCH  18  19
ATOM     19  C   UNL     1      62.485 151.878   3.743  1.00  0.00    -0.000 C 
BRANCH  19  20
ATOM     20  C   UNL     1      61.566 151.411   2.597  1.00  0.00    -0.000 C 
BRANCH  20  21
ATOM     21  C   UNL     1      60.399 152.360   2.273  1.00  0.00    -0.000 C 
BRANCH  21  22
ATOM     22  C   UNL     1      60.755 153.402   1.201  1.00  0.00    -0.000 C 
BRANCH  22  23
ATOM     23  C   UNL     1      59.494 154.095   0.668  1.00  0.00    -0.000 C 
BRANCH  23  24
ATOM     24  C   UNL     1      58.346 154.012   1.687  1.00  0.00    -0.000 C 
BRANCH  24  25
ATOM     25  C   UNL     1      58.263 155.255   2.587  1.00  0.00    -0.003 C 
ATOM     26  C   UNL     1      58.423 154.924   4.070  1.00  0.00     0.004 C 
ENDBRANCH  24  25
ENDBRANCH  23  24
ENDBRANCH  22  23
ENDBRANCH  21  22
ENDBRANCH  20  21
ENDBRANCH  19  20
ENDBRANCH  18  19
ENDBRANCH  17  18
ENDBRANCH  16  17
ENDBRANCH  15  16
ENDBRANCH   1  15
TORSDOF 22
ENDMDL
MODEL 6
REMARK VINA RESULT:    -5.319      1.814      7.177
REMARK INTER + INTRA:         -14.522
REMARK INTER:                 -11.615
REMARK INTRA:                  -2.907
REMARK UNBOUND:                -2.363
REMARK SMILES CCCCCCCCCCCCCCCCCCCCCCCC(=O)[O-]
REMARK SMILES IDX 13 1 14 2 15 3 16 4 17 5 18 6 19 7 20 8 21 9 22 10 23 11
REMARK SMILES IDX 24 12 25 13 26 14 12 15 11 16 10 17 9 18 8 19 7 20 6 21 5 22
REMARK SMILES IDX 4 23 3 24 2 25 1 26
REMARK H PARENT
REMARK Flexibility Score: inf
ROOT
ATOM      1  C   UNL     1      61.664 152.220   6.189  1.00  0.00     0.000 C 
ENDROOT
BRANCH   1   2
ATOM      2  C   UNL     1      60.780 151.661   7.321  1.00  0.00     0.000 C 
BRANCH   2   3
ATOM      3  C   UNL     1      59.443 151.051   6.863  1.00  0.00     0.000 C 
BRANCH   3   4
ATOM      4  C   UNL     1      58.978 149.894   7.758  1.00  0.00     0.000 C 
BRANCH   4   5
ATOM      5  C   UNL     1      59.424 148.541   7.180  1.00  0.00     0.000 C 
BRANCH   5   6
ATOM      6  C   UNL     1      60.951 148.345   7.193  1.00  0.00     0.000 C 
BRANCH   6   7
ATOM      7  C   UNL     1      61.551 147.720   5.917  1.00  0.00     0.000 C 
BRANCH   7   8
ATOM      8  C   UNL     1      62.568 148.631   5.211  1.00  0.00     0.000 C 
BRANCH   8   9
ATOM      9  C   UNL     1      63.613 149.214   6.176  1.00  0.00     0.000 C 
BRANCH   9  10
ATOM     10  C   UNL     1      65.005 149.421   5.545  1.00  0.00     0.006 C 
BRANCH  10  11
ATOM     11  C   UNL     1      64.926 149.894   4.086  1.00  0.00     0.053 C 
BRANCH  11  12
ATOM     12  C   UNL     1      64.572 151.348   4.007  1.00  0.00     0.041 C 
ATOM     13  O   UNL     1      63.604 151.732   3.299  1.00  0.00    -0.550 OA
ATOM     14  O   UNL     1      65.325 152.285   4.703  1.00  0.00    -0.550 OA
ENDBRANCH  11  12
ENDBRANCH  10  11
ENDBRANCH   9  10
ENDBRANCH   8   9
ENDBRANCH   7   8
ENDBRANCH   6   7
ENDBRANCH   5   6
ENDBRANCH   4   5
ENDBRANCH   3   4
ENDBRANCH   2   3
ENDBRANCH   1   2
BRANCH   1  15
ATOM     15  C   UNL     1      62.377 153.546   6.509  1.00  0.00     0.000 C 
BRANCH  15  16
ATOM     16  C   UNL     1      61.738 154.302   7.685  1.00  0.00     0.000 C 
BRANCH  16  17
ATOM     17  C   UNL     1      61.097 155.615   7.212  1.00  0.00     0.000 C 
BRANCH  17  18
ATOM     18  C   UNL     1      59.562 155.531   7.117  1.00  0.00    -0.000 C 
BRANCH  18  19
ATOM     19  C   UNL     1      58.924 156.406   6.018  1.00  0.00    -0.000 C 
BRANCH  19  20
ATOM     20  C   UNL     1      58.140 155.635   4.938  1.00  0.00    -0.000 C 
BRANCH  20  21
ATOM     21  C   UNL     1      58.347 154.110   4.950  1.00  0.00    -0.000 C 
BRANCH  21  22
ATOM     22  C   UNL     1      59.497 153.655   4.039  1.00  0.00    -0.000 C 
BRANCH  22  23
ATOM     23  C   UNL     1      58.961 152.931   2.797  1.00  0.00    -0.000 C 
BRANCH  23  24
ATOM     24  C   UNL     1      58.573 153.933   1.698  1.00  0.00    -0.000 C 
BRANCH  24  25
ATOM     25  C   UNL     1      59.650 154.064   0.610  1.00  0.00    -0.003 C 
ATOM     26  C   UNL     1      60.953 153.355   0.978  1.00  0.00     0.004 C 
ENDBRANCH  24  25
ENDBRANCH  23  24
ENDBRANCH  22  23
ENDBRANCH  21  22
ENDBRANCH  20  21
ENDBRANCH  19  20
ENDBRANCH  18  19
ENDBRANCH  17  18
ENDBRANCH  16  17
ENDBRANCH  15  16
ENDBRANCH   1  15
TORSDOF 22
ENDMDL
MODEL 7
REMARK VINA RESULT:    -5.290      1.383      3.137
REMARK INTER + INTRA:         -14.456
REMARK INTER:                 -12.242
REMARK INTRA:                  -2.213
REMARK UNBOUND:                -2.363
REMARK SMILES CCCCCCCCCCCCCCCCCCCCCCCC(=O)[O-]
REMARK SMILES IDX 13 1 14 2 15 3 16 4 17 5 18 6 19 7 20 8 21 9 22 10 23 11
REMARK SMILES IDX 24 12 25 13 26 14 12 15 11 16 10 17 9 18 8 19 7 20 6 21 5 22
REMARK SMILES IDX 4 23 3 24 2 25 1 26
REMARK H PARENT
REMARK Flexibility Score: inf
ROOT
ATOM      1  C   UNL     1      64.959 150.520   5.207  1.00  0.00     0.000 C 
ENDROOT
BRANCH   1   2
ATOM      2  C   UNL     1      64.565 150.730   3.731  1.00  0.00     0.000 C 
BRANCH   2   3
ATOM      3  C   UNL     1      63.554 151.863   3.483  1.00  0.00     0.000 C 
BRANCH   3   4
ATOM      4  C   UNL     1      62.128 151.346   3.245  1.00  0.00     0.000 C 
BRANCH   4   5
ATOM      5  C   UNL     1      61.380 152.239   2.242  1.00  0.00     0.000 C 
BRANCH   5   6
ATOM      6  C   UNL     1      59.974 152.648   2.718  1.00  0.00     0.000 C 
BRANCH   6   7
ATOM      7  C   UNL     1      59.176 153.539   1.746  1.00  0.00     0.000 C 
BRANCH   7   8
ATOM      8  C   UNL     1      58.471 154.718   2.436  1.00  0.00     0.000 C 
BRANCH   8   9
ATOM      9  C   UNL     1      58.563 154.650   3.969  1.00  0.00     0.000 C 
BRANCH   9  10
ATOM     10  C   UNL     1      58.231 155.980   4.677  1.00  0.00     0.006 C 
BRANCH  10  11
ATOM     11  C   UNL     1      59.288 156.373   5.719  1.00  0.00     0.053 C 
BRANCH  11  12
ATOM     12  C   UNL     1      59.621 155.218   6.614  1.00  0.00     0.041 C 
ATOM     13  O   UNL     1      58.757 154.751   7.403  1.00  0.00    -0.550 OA
ATOM     14  O   UNL     1      60.895 154.666   6.591  1.00  0.00    -0.550 OA
ENDBRANCH  11  12
ENDBRANCH  10  11
ENDBRANCH   9  10
ENDBRANCH   8   9
ENDBRANCH   7   8
ENDBRANCH   6   7
ENDBRANCH   5   6
ENDBRANCH   4   5
ENDBRANCH   3   4
ENDBRANCH   2   3
ENDBRANCH   1   2
BRANCH   1  15
ATOM     15  C   UNL     1      64.577 149.151   5.799  1.00  0.00     0.000 C 
BRANCH  15  16
ATOM     16  C   UNL     1      63.058 148.941   5.891  1.00  0.00     0.000 C 
BRANCH  16  17
ATOM     17  C   UNL     1      62.489 149.584   7.164  1.00  0.00     0.000 C 
BRANCH  17  18
ATOM     18  C   UNL     1      61.870 150.971   6.909  1.00  0.00    -0.000 C 
BRANCH  18  19
ATOM     19  C   UNL     1      60.488 151.201   7.552  1.00  0.00    -0.000 C 
BRANCH  19  20
ATOM     20  C   UNL     1      59.393 150.201   7.130  1.00  0.00    -0.000 C 
BRANCH  20  21
ATOM     21  C   UNL     1      58.320 149.923   8.198  1.00  0.00    -0.000 C 
BRANCH  21  22
ATOM     22  C   UNL     1      58.100 148.423   8.449  1.00  0.00    -0.000 C 
BRANCH  22  23
ATOM     23  C   UNL     1      59.432 147.710   8.718  1.00  0.00    -0.000 C 
BRANCH  23  24
ATOM     24  C   UNL     1      59.768 146.723   7.589  1.00  0.00    -0.000 C 
BRANCH  24  25
ATOM     25  C   UNL     1      59.756 145.260   8.060  1.00  0.00    -0.003 C 
ATOM     26  C   UNL     1      58.428 144.854   8.700  1.00  0.00     0.004 C 
ENDBRANCH  24  25
ENDBRANCH  23  24
ENDBRANCH  22  23
ENDBRANCH  21  22
ENDBRANCH  20  21
ENDBRANCH  19  20
ENDBRANCH  18  19
ENDBRANCH  17  18
ENDBRANCH  16  17
ENDBRANCH  15  16
ENDBRANCH   1  15
TORSDOF 22
ENDMDL
MODEL 8
REMARK VINA RESULT:    -5.243      2.017      6.740
REMARK INTER + INTRA:         -14.349
REMARK INTER:                 -11.291
REMARK INTRA:                  -3.058
REMARK UNBOUND:                -2.363
REMARK SMILES CCCCCCCCCCCCCCCCCCCCCCCC(=O)[O-]
REMARK SMILES IDX 13 1 14 2 15 3 16 4 17 5 18 6 19 7 20 8 21 9 22 10 23 11
REMARK SMILES IDX 24 12 25 13 26 14 12 15 11 16 10 17 9 18 8 19 7 20 6 21 5 22
REMARK SMILES IDX 4 23 3 24 2 25 1 26
REMARK H PARENT
REMARK Flexibility Score: inf
ROOT
ATOM      1  C   UNL     1      62.726 152.528   5.626  1.00  0.00     0.000 C 
ENDROOT
BRANCH   1   2
ATOM      2  C   UNL     1      64.238 152.829   5.619  1.00  0.00     0.000 C 
BRANCH   2   3
ATOM      3  C   UNL     1      65.024 152.189   4.460  1.00  0.00     0.000 C 
BRANCH   3   4
ATOM      4  C   UNL     1      64.210 151.130   3.704  1.00  0.00     0.000 C 
BRANCH   4   5
ATOM      5  C   UNL     1      64.946 149.780   3.689  1.00  0.00     0.000 C 
BRANCH   5   6
ATOM      6  C   UNL     1      65.305 149.266   5.096  1.00  0.00     0.000 C 
BRANCH   6   7
ATOM      7  C   UNL     1      64.134 149.191   6.095  1.00  0.00     0.000 C 
BRANCH   7   8
ATOM      8  C   UNL     1      62.892 148.484   5.530  1.00  0.00     0.000 C 
BRANCH   8   9
ATOM      9  C   UNL     1      61.596 148.897   6.245  1.00  0.00     0.000 C 
BRANCH   9  10
ATOM     10  C   UNL     1      61.822 149.577   7.612  1.00  0.00     0.006 C 
BRANCH  10  11
ATOM     11  C   UNL     1      60.511 150.032   8.268  1.00  0.00     0.053 C 
BRANCH  11  12
ATOM     12  C   UNL     1      59.399 150.096   7.266  1.00  0.00     0.041 C 
ATOM     13  O   UNL     1      59.134 151.177   6.674  1.00  0.00    -0.550 OA
ATOM     14  O   UNL     1      58.639 148.965   6.998  1.00  0.00    -0.550 OA
ENDBRANCH  11  12
ENDBRANCH  10  11
ENDBRANCH   9  10
ENDBRANCH   8   9
ENDBRANCH   7   8
ENDBRANCH   6   7
ENDBRANCH   5   6
ENDBRANCH   4   5
ENDBRANCH   3   4
ENDBRANCH   2   3
ENDBRANCH   1   2
BRANCH   1  15
ATOM     15  C   UNL     1      61.925 153.222   6.742  1.00  0.00     0.000 C 
BRANCH  15  16
ATOM     16  C   UNL     1      62.535 154.566   7.170  1.00  0.00     0.000 C 
BRANCH  16  17
ATOM     17  C   UNL     1      61.477 155.679   7.159  1.00  0.00     0.000 C 
BRANCH  17  18
ATOM     18  C   UNL     1      60.041 155.142   7.301  1.00  0.00    -0.000 C 
BRANCH  18  19
ATOM     19  C   UNL     1      58.931 156.098   6.818  1.00  0.00    -0.000 C 
BRANCH  19  20
ATOM     20  C   UNL     1      58.782 156.211   5.288  1.00  0.00    -0.000 C 
BRANCH  20  21
ATOM     21  C   UNL     1      58.292 154.931   4.587  1.00  0.00    -0.000 C 
BRANCH  21  22
ATOM     22  C   UNL     1      58.311 155.044   3.055  1.00  0.00    -0.000 C 
BRANCH  22  23
ATOM     23  C   UNL     1      58.835 153.751   2.416  1.00  0.00    -0.000 C 
BRANCH  23  24
ATOM     24  C   UNL     1      59.672 152.939   3.418  1.00  0.00    -0.000 C 
BRANCH  24  25
ATOM     25  C   UNL     1      60.572 151.901   2.731  1.00  0.00    -0.003 C 
ATOM     26  C   UNL     1      61.509 152.521   1.695  1.00  0.00     0.004 C 
ENDBRANCH  24  25
ENDBRANCH  23  24
ENDBRANCH  22  23
ENDBRANCH  21  22
ENDBRANCH  20  21
ENDBRANCH  19  20
ENDBRANCH  18  19
ENDBRANCH  17  18
ENDBRANCH  16  17
ENDBRANCH  15  16
ENDBRANCH   1  15
TORSDOF 22
ENDMDL
MODEL 9
REMARK VINA RESULT:    -5.183      2.194      7.107
REMARK INTER + INTRA:         -14.213
REMARK INTER:                 -10.822
REMARK INTRA:                  -3.391
REMARK UNBOUND:                -2.363
REMARK SMILES CCCCCCCCCCCCCCCCCCCCCCCC(=O)[O-]
REMARK SMILES IDX 13 1 14 2 15 3 16 4 17 5 18 6 19 7 20 8 21 9 22 10 23 11
REMARK SMILES IDX 24 12 25 13 26 14 12 15 11 16 10 17 9 18 8 19 7 20 6 21 5 22
REMARK SMILES IDX 4 23 3 24 2 25 1 26
REMARK H PARENT
REMARK Flexibility Score: inf
ROOT
ATOM      1  C   UNL     1      58.646 151.096   7.102  1.00  0.00     0.000 C 
ENDROOT
BRANCH   1   2
ATOM      2  C   UNL     1      58.130 149.645   7.170  1.00  0.00     0.000 C 
BRANCH   2   3
ATOM      3  C   UNL     1      58.809 148.761   8.231  1.00  0.00     0.000 C 
BRANCH   3   4
ATOM      4  C   UNL     1      59.655 147.637   7.616  1.00  0.00     0.000 C 
BRANCH   4   5
ATOM      5  C   UNL     1      60.631 148.196   6.569  1.00  0.00     0.000 C 
BRANCH   5   6
ATOM      6  C   UNL     1      61.912 148.790   7.185  1.00  0.00     0.000 C 
BRANCH   6   7
ATOM      7  C   UNL     1      62.191 150.266   6.841  1.00  0.00     0.000 C 
BRANCH   7   8
ATOM      8  C   UNL     1      61.857 150.629   5.386  1.00  0.00     0.000 C 
BRANCH   8   9
ATOM      9  C   UNL     1      62.628 151.862   4.889  1.00  0.00     0.000 C 
BRANCH   9  10
ATOM     10  C   UNL     1      63.773 151.534   3.908  1.00  0.00     0.006 C 
BRANCH  10  11
ATOM     11  C   UNL     1      65.073 151.147   4.629  1.00  0.00     0.053 C 
BRANCH  11  12
ATOM     12  C   UNL     1      65.234 149.658   4.691  1.00  0.00     0.041 C 
ATOM     13  O   UNL     1      65.272 149.066   5.802  1.00  0.00    -0.550 OA
ATOM     14  O   UNL     1      65.362 148.924   3.519  1.00  0.00    -0.550 OA
ENDBRANCH  11  12
ENDBRANCH  10  11
ENDBRANCH   9  10
ENDBRANCH   8   9
ENDBRANCH   7   8
ENDBRANCH   6   7
ENDBRANCH   5   6
ENDBRANCH   4   5
ENDBRANCH   3   4
ENDBRANCH   2   3
ENDBRANCH   1   2
BRANCH   1  15
ATOM     15  C   UNL     1      58.763 151.814   8.459  1.00  0.00     0.000 C 
BRANCH  15  16
ATOM     16  C   UNL     1      60.219 152.097   8.862  1.00  0.00     0.000 C 
BRANCH  16  17
ATOM     17  C   UNL     1      60.541 153.594   8.746  1.00  0.00     0.000 C 
BRANCH  17  18
ATOM     18  C   UNL     1      61.234 153.956   7.419  1.00  0.00    -0.000 C 
BRANCH  18  19
ATOM     19  C   UNL     1      60.703 155.228   6.728  1.00  0.00    -0.000 C 
BRANCH  19  20
ATOM     20  C   UNL     1      59.390 155.048   5.942  1.00  0.00    -0.000 C 
BRANCH  20  21
ATOM     21  C   UNL     1      59.428 153.961   4.853  1.00  0.00    -0.000 C 
BRANCH  21  22
ATOM     22  C   UNL     1      58.700 154.378   3.566  1.00  0.00    -0.000 C 
BRANCH  22  23
ATOM     23  C   UNL     1      58.759 153.263   2.514  1.00  0.00    -0.000 C 
BRANCH  23  24
ATOM     24  C   UNL     1      59.247 153.804   1.161  1.00  0.00    -0.000 C 
BRANCH  24  25
ATOM     25  C   UNL     1      60.769 153.683   0.989  1.00  0.00    -0.003 C 
ATOM     26  C   UNL     1      61.336 152.409   1.615  1.00  0.00     0.004 C 
ENDBRANCH  24  25
ENDBRANCH  23  24
ENDBRANCH  22  23
ENDBRANCH  21  22
ENDBRANCH  20  21
ENDBRANCH  19  20
ENDBRANCH  18  19
ENDBRANCH  17  18
ENDBRANCH  16  17
ENDBRANCH  15  16
ENDBRANCH   1  15
TORSDOF 22
ENDMDL
