MODEL 1
REMARK VINA RESULT:   159.341      0.000      0.000
REMARK INTER + INTRA:         173.487
REMARK INTER:                 173.314
REMARK INTRA:                   0.174
REMARK UNBOUND:                 0.174
REMARK SMILES C[C@H]1[C@H](C)CC[C@@]2(C(=O)[O-])CC[C@]3(C)C(=CC[C@H]4[C@]5(C)CC[C@@H](O)C(C)(C)[C@@H]5CC[C@]43C)[C@H]12
REMARK SMILES IDX 7 1 6 2 11 3 33 4 5 5 12 6 15 7 2 8 3 9 13 10 16 11 1 12
REMARK SMILES IDX 4 13 14 14 31 15 17 16 18 17 30 18 32 19 19 20 29 21 28 22
REMARK SMILES IDX 21 23 20 24 25 25 22 26 23 27 26 28 27 29 8 30 9 31 10 32
REMARK SMILES IDX 24 33
REMARK H PARENT 24 34
REMARK Flexibility Score: inf
ROOT
ATOM      1  C   UNL     1      10.945   1.751  17.656  1.00  0.00     0.017 C 
ATOM      2  C   UNL     1      11.065   3.138  16.976  1.00  0.00     0.014 C 
ATOM      3  C   UNL     1      10.085   1.905  18.969  1.00  0.00     0.014 C 
ATOM      4  C   UNL     1      10.234   0.763  16.672  1.00  0.00     0.030 C 
ATOM      5  C   UNL     1      11.846   3.056  15.663  1.00  0.00     0.004 C 
ATOM      6  C   UNL     1       8.940   0.869  19.125  1.00  0.00     0.013 C 
ATOM      7  C   UNL     1      10.031  -0.587  17.396  1.00  0.00    -0.063 C 
ATOM      8  C   UNL     1      10.852   0.721  15.226  1.00  0.00    -0.003 C 
ATOM      9  C   UNL     1      11.124   2.151  14.656  1.00  0.00    -0.011 C 
ATOM     10  C   UNL     1       9.344  -0.612  18.771  1.00  0.00    -0.006 C 
ATOM     11  C   UNL     1      10.417  -1.767  16.875  1.00  0.00    -0.027 C 
ATOM     12  C   UNL     1       9.908  -0.026  14.246  1.00  0.00     0.008 C 
ATOM     13  C   UNL     1      11.943   2.098  13.354  1.00  0.00     0.008 C 
ATOM     14  C   UNL     1      10.437  -0.984  19.834  1.00  0.00     0.017 C 
ATOM     15  C   UNL     1       8.084  -1.684  18.744  1.00  0.00    -0.020 C 
ATOM     16  C   UNL     1       9.770  -3.034  17.351  1.00  0.00     0.032 C 
ATOM     17  C   UNL     1       8.240  -2.768  17.566  1.00  0.00     0.006 C 
ATOM     18  C   UNL     1       8.003  -2.463  20.085  1.00  0.00     0.008 C 
ATOM     19  C   UNL     1       6.748  -0.893  18.577  1.00  0.00     0.012 C 
ATOM     20  C   UNL     1       7.335  -4.113  17.617  1.00  0.00    -0.025 C 
ATOM     21  C   UNL     1       6.959  -3.575  20.126  1.00  0.00     0.005 C 
ATOM     22  C   UNL     1       7.214  -4.704  19.087  1.00  0.00     0.003 C 
ATOM     23  C   UNL     1       5.911  -3.832  17.021  1.00  0.00     0.010 C 
ATOM     24  C   UNL     1       7.981  -5.164  16.655  1.00  0.00     0.012 C 
ATOM     25  C   UNL     1       6.148  -5.891  19.252  1.00  0.00    -0.006 C 
ATOM     26  C   UNL     1       4.908  -4.989  17.151  1.00  0.00     0.033 C 
ATOM     27  C   UNL     1       4.783  -5.475  18.611  1.00  0.00     0.120 C 
ATOM     28  C   UNL     1       5.883  -6.210  20.754  1.00  0.00     0.014 C 
ATOM     29  C   UNL     1       6.679  -7.227  18.643  1.00  0.00     0.014 C 
ENDROOT
BRANCH   1  30
ATOM     30  C   UNL     1      12.352   1.284  18.032  1.00  0.00     0.048 C 
ATOM     31  O   UNL     1      12.870   1.661  19.114  1.00  0.00    -0.550 OA
ATOM     32  O   UNL     1      13.087   0.451  17.199  1.00  0.00    -0.550 OA
ENDBRANCH   1  30
BRANCH  27  33
ATOM     33  O   UNL     1       3.823  -6.500  18.716  1.00  0.00    -0.393 OA
ATOM     34  H   UNL     1       3.025  -6.132  19.177  1.00  0.00     0.210 HD
ENDBRANCH  27  33
TORSDOF 2
ENDMDL
MODEL 2
REMARK VINA RESULT:   159.865      8.747     11.916
REMARK INTER + INTRA:         174.058
REMARK INTER:                 173.163
REMARK INTRA:                   0.895
REMARK UNBOUND:                 0.174
REMARK SMILES C[C@H]1[C@H](C)CC[C@@]2(C(=O)[O-])CC[C@]3(C)C(=CC[C@H]4[C@]5(C)CC[C@@H](O)C(C)(C)[C@@H]5CC[C@]43C)[C@H]12
REMARK SMILES IDX 7 1 6 2 11 3 33 4 5 5 12 6 15 7 2 8 3 9 13 10 16 11 1 12
REMARK SMILES IDX 4 13 14 14 31 15 17 16 18 17 30 18 32 19 19 20 29 21 28 22
REMARK SMILES IDX 21 23 20 24 25 25 22 26 23 27 26 28 27 29 8 30 9 31 10 32
REMARK SMILES IDX 24 33
REMARK H PARENT 24 34
REMARK Flexibility Score: inf
ROOT
ATOM      1  C   UNL     1       1.869  -3.729  13.518  1.00  0.00     0.017 C 
ATOM      2  C   UNL     1       3.378  -4.060  13.634  1.00  0.00     0.014 C 
ATOM      3  C   UNL     1       1.139  -4.230  14.823  1.00  0.00     0.014 C 
ATOM      4  C   UNL     1       1.700  -2.179  13.379  1.00  0.00     0.030 C 
ATOM      5  C   UNL     1       4.161  -3.555  12.420  1.00  0.00     0.004 C 
ATOM      6  C   UNL     1       0.204  -3.187  15.490  1.00  0.00     0.013 C 
ATOM      7  C   UNL     1       0.190  -1.851  13.365  1.00  0.00    -0.063 C 
ATOM      8  C   UNL     1       2.592  -1.519  12.266  1.00  0.00    -0.003 C 
ATOM      9  C   UNL     1       4.071  -2.027  12.313  1.00  0.00    -0.011 C 
ATOM     10  C   UNL     1      -0.713  -2.393  14.484  1.00  0.00    -0.006 C 
ATOM     11  C   UNL     1      -0.389  -1.093  12.414  1.00  0.00    -0.027 C 
ATOM     12  C   UNL     1       2.601   0.026  12.412  1.00  0.00     0.008 C 
ATOM     13  C   UNL     1       4.870  -1.565  11.081  1.00  0.00     0.008 C 
ATOM     14  C   UNL     1      -1.640  -3.490  13.851  1.00  0.00     0.017 C 
ATOM     15  C   UNL     1      -1.565  -1.148  15.163  1.00  0.00    -0.020 C 
ATOM     16  C   UNL     1      -1.692  -0.408  12.705  1.00  0.00     0.032 C 
ATOM     17  C   UNL     1      -1.663   0.122  14.180  1.00  0.00     0.006 C 
ATOM     18  C   UNL     1      -3.016  -1.594  15.491  1.00  0.00     0.008 C 
ATOM     19  C   UNL     1      -0.883  -0.738  16.507  1.00  0.00     0.012 C 
ATOM     20  C   UNL     1      -2.766   1.269  14.494  1.00  0.00    -0.025 C 
ATOM     21  C   UNL     1      -3.935  -0.489  16.001  1.00  0.00     0.005 C 
ATOM     22  C   UNL     1      -4.153   0.659  14.973  1.00  0.00     0.003 C 
ATOM     23  C   UNL     1      -2.214   2.277  15.561  1.00  0.00     0.010 C 
ATOM     24  C   UNL     1      -2.961   2.117  13.193  1.00  0.00     0.012 C 
ATOM     25  C   UNL     1      -5.209   1.733  15.523  1.00  0.00    -0.006 C 
ATOM     26  C   UNL     1      -3.223   3.326  16.055  1.00  0.00     0.033 C 
ATOM     27  C   UNL     1      -4.521   2.670  16.571  1.00  0.00     0.120 C 
ATOM     28  C   UNL     1      -6.409   1.036  16.233  1.00  0.00     0.014 C 
ATOM     29  C   UNL     1      -5.849   2.555  14.360  1.00  0.00     0.014 C 
ENDROOT
BRANCH   1  30
ATOM     30  C   UNL     1       1.310  -4.483  12.311  1.00  0.00     0.048 C 
ATOM     31  O   UNL     1       0.242  -5.139  12.421  1.00  0.00    -0.550 OA
ATOM     32  O   UNL     1       1.958  -4.472  11.082  1.00  0.00    -0.550 OA
ENDBRANCH   1  30
BRANCH  27  33
ATOM     33  O   UNL     1      -5.411   3.642  17.064  1.00  0.00    -0.393 OA
ATOM     34  H   UNL     1      -4.881   4.429  17.357  1.00  0.00     0.210 HD
ENDBRANCH  27  33
TORSDOF 2
ENDMDL
MODEL 3
REMARK VINA RESULT:   160.619      2.076      4.067
REMARK INTER + INTRA:         174.878
REMARK INTER:                 174.470
REMARK INTRA:                   0.407
REMARK UNBOUND:                 0.174
REMARK SMILES C[C@H]1[C@H](C)CC[C@@]2(C(=O)[O-])CC[C@]3(C)C(=CC[C@H]4[C@]5(C)CC[C@@H](O)C(C)(C)[C@@H]5CC[C@]43C)[C@H]12
REMARK SMILES IDX 7 1 6 2 11 3 33 4 5 5 12 6 15 7 2 8 3 9 13 10 16 11 1 12
REMARK SMILES IDX 4 13 14 14 31 15 17 16 18 17 30 18 32 19 19 20 29 21 28 22
REMARK SMILES IDX 21 23 20 24 25 25 22 26 23 27 26 28 27 29 8 30 9 31 10 32
REMARK SMILES IDX 24 33
REMARK H PARENT 24 34
REMARK Flexibility Score: inf
ROOT
ATOM      1  C   UNL     1      11.503   2.696  17.676  1.00  0.00     0.017 C 
ATOM      2  C   UNL     1      12.804   3.385  18.158  1.00  0.00     0.014 C 
ATOM      3  C   UNL     1      11.750   2.100  16.237  1.00  0.00     0.014 C 
ATOM      4  C   UNL     1      11.143   1.542  18.671  1.00  0.00     0.030 C 
ATOM      5  C   UNL     1      12.655   3.944  19.575  1.00  0.00     0.004 C 
ATOM      6  C   UNL     1      11.309   0.623  16.056  1.00  0.00     0.013 C 
ATOM      7  C   UNL     1       9.902   0.798  18.128  1.00  0.00    -0.063 C 
ATOM      8  C   UNL     1      11.126   1.963  20.185  1.00  0.00    -0.003 C 
ATOM      9  C   UNL     1      12.377   2.816  20.577  1.00  0.00    -0.011 C 
ATOM     10  C   UNL     1       9.904   0.280  16.681  1.00  0.00    -0.006 C 
ATOM     11  C   UNL     1       8.802   0.563  18.868  1.00  0.00    -0.027 C 
ATOM     12  C   UNL     1      11.078   0.713  21.104  1.00  0.00     0.008 C 
ATOM     13  C   UNL     1      12.234   3.422  21.985  1.00  0.00     0.008 C 
ATOM     14  C   UNL     1       8.888   1.156  15.867  1.00  0.00     0.017 C 
ATOM     15  C   UNL     1       9.517  -1.329  16.666  1.00  0.00    -0.020 C 
ATOM     16  C   UNL     1       7.877  -0.554  18.486  1.00  0.00     0.032 C 
ATOM     17  C   UNL     1       8.733  -1.773  17.999  1.00  0.00     0.006 C 
ATOM     18  C   UNL     1       8.600  -1.659  15.457  1.00  0.00     0.008 C 
ATOM     19  C   UNL     1      10.826  -2.165  16.506  1.00  0.00     0.012 C 
ATOM     20  C   UNL     1       7.937  -3.186  18.003  1.00  0.00    -0.025 C 
ATOM     21  C   UNL     1       8.071  -3.089  15.414  1.00  0.00     0.005 C 
ATOM     22  C   UNL     1       7.177  -3.455  16.634  1.00  0.00     0.003 C 
ATOM     23  C   UNL     1       8.922  -4.364  18.322  1.00  0.00     0.010 C 
ATOM     24  C   UNL     1       6.926  -3.165  19.196  1.00  0.00     0.012 C 
ATOM     25  C   UNL     1       6.566  -4.930  16.479  1.00  0.00    -0.006 C 
ATOM     26  C   UNL     1       8.318  -5.772  18.207  1.00  0.00     0.033 C 
ATOM     27  C   UNL     1       7.654  -5.998  16.832  1.00  0.00     0.120 C 
ATOM     28  C   UNL     1       6.101  -5.200  15.016  1.00  0.00     0.014 C 
ATOM     29  C   UNL     1       5.285  -5.114  17.351  1.00  0.00     0.014 C 
ENDROOT
BRANCH   1  30
ATOM     30  C   UNL     1      10.405   3.757  17.597  1.00  0.00     0.048 C 
ATOM     31  O   UNL     1       9.816   4.129  18.644  1.00  0.00    -0.550 OA
ATOM     32  O   UNL     1      10.030   4.325  16.386  1.00  0.00    -0.550 OA
ENDBRANCH   1  30
BRANCH  27  33
ATOM     33  O   UNL     1       7.152  -7.309  16.728  1.00  0.00    -0.393 OA
ATOM     34  H   UNL     1       6.708  -7.541  17.584  1.00  0.00     0.210 HD
ENDBRANCH  27  33
TORSDOF 2
ENDMDL
MODEL 4
REMARK VINA RESULT:   161.308      8.215     10.447
REMARK INTER + INTRA:         175.627
REMARK INTER:                 175.423
REMARK INTRA:                   0.204
REMARK UNBOUND:                 0.174
REMARK SMILES C[C@H]1[C@H](C)CC[C@@]2(C(=O)[O-])CC[C@]3(C)C(=CC[C@H]4[C@]5(C)CC[C@@H](O)C(C)(C)[C@@H]5CC[C@]43C)[C@H]12
REMARK SMILES IDX 7 1 6 2 11 3 33 4 5 5 12 6 15 7 2 8 3 9 13 10 16 11 1 12
REMARK SMILES IDX 4 13 14 14 31 15 17 16 18 17 30 18 32 19 19 20 29 21 28 22
REMARK SMILES IDX 21 23 20 24 25 25 22 26 23 27 26 28 27 29 8 30 9 31 10 32
REMARK SMILES IDX 24 33
REMARK H PARENT 24 34
REMARK Flexibility Score: inf
ROOT
ATOM      1  C   UNL     1       3.702  -0.394  10.743  1.00  0.00     0.017 C 
ATOM      2  C   UNL     1       4.465  -0.460   9.397  1.00  0.00     0.014 C 
ATOM      3  C   UNL     1       2.802   0.901  10.752  1.00  0.00     0.014 C 
ATOM      4  C   UNL     1       2.800  -1.666  10.876  1.00  0.00     0.030 C 
ATOM      5  C   UNL     1       5.324  -1.722   9.296  1.00  0.00     0.004 C 
ATOM      6  C   UNL     1       1.327   0.667  11.174  1.00  0.00     0.013 C 
ATOM      7  C   UNL     1       1.970  -1.543  12.174  1.00  0.00    -0.063 C 
ATOM      8  C   UNL     1       3.545  -3.028  10.623  1.00  0.00    -0.003 C 
ATOM      9  C   UNL     1       4.448  -2.980   9.347  1.00  0.00    -0.011 C 
ATOM     10  C   UNL     1       1.145  -0.271  12.426  1.00  0.00    -0.006 C 
ATOM     11  C   UNL     1       1.916  -2.512  13.108  1.00  0.00    -0.027 C 
ATOM     12  C   UNL     1       2.529  -4.190  10.461  1.00  0.00     0.008 C 
ATOM     13  C   UNL     1       5.351  -4.222   9.243  1.00  0.00     0.008 C 
ATOM     14  C   UNL     1       1.833   0.508  13.602  1.00  0.00     0.017 C 
ATOM     15  C   UNL     1      -0.423  -0.681  12.760  1.00  0.00    -0.020 C 
ATOM     16  C   UNL     1       0.753  -2.565  14.054  1.00  0.00     0.032 C 
ATOM     17  C   UNL     1      -0.553  -2.203  13.268  1.00  0.00     0.006 C 
ATOM     18  C   UNL     1      -0.999   0.231  13.876  1.00  0.00     0.008 C 
ATOM     19  C   UNL     1      -1.288  -0.463  11.479  1.00  0.00     0.012 C 
ATOM     20  C   UNL     1      -1.921  -2.665  14.006  1.00  0.00    -0.025 C 
ATOM     21  C   UNL     1      -2.397  -0.140  14.360  1.00  0.00     0.005 C 
ATOM     22  C   UNL     1      -2.476  -1.557  15.000  1.00  0.00     0.003 C 
ATOM     23  C   UNL     1      -3.011  -3.042  12.943  1.00  0.00     0.010 C 
ATOM     24  C   UNL     1      -1.626  -3.994  14.776  1.00  0.00     0.012 C 
ATOM     25  C   UNL     1      -3.941  -1.846  15.584  1.00  0.00    -0.006 C 
ATOM     26  C   UNL     1      -4.403  -3.353  13.515  1.00  0.00     0.033 C 
ATOM     27  C   UNL     1      -4.918  -2.211  14.417  1.00  0.00     0.120 C 
ATOM     28  C   UNL     1      -4.521  -0.592  16.305  1.00  0.00     0.014 C 
ATOM     29  C   UNL     1      -3.914  -2.963  16.673  1.00  0.00     0.014 C 
ENDROOT
BRANCH   1  30
ATOM     30  C   UNL     1       4.733  -0.294  11.868  1.00  0.00     0.048 C 
ATOM     31  O   UNL     1       5.053   0.833  12.327  1.00  0.00    -0.550 OA
ATOM     32  O   UNL     1       5.340  -1.424  12.400  1.00  0.00    -0.550 OA
ENDBRANCH   1  30
BRANCH  27  33
ATOM     33  O   UNL     1      -6.213  -2.493  14.890  1.00  0.00    -0.393 OA
ATOM     34  H   UNL     1      -6.794  -2.689  14.109  1.00  0.00     0.210 HD
ENDBRANCH  27  33
TORSDOF 2
ENDMDL
MODEL 5
REMARK VINA RESULT:   162.225      7.654     11.355
REMARK INTER + INTRA:         176.624
REMARK INTER:                 176.140
REMARK INTRA:                   0.483
REMARK UNBOUND:                 0.174
REMARK SMILES C[C@H]1[C@H](C)CC[C@@]2(C(=O)[O-])CC[C@]3(C)C(=CC[C@H]4[C@]5(C)CC[C@@H](O)C(C)(C)[C@@H]5CC[C@]43C)[C@H]12
REMARK SMILES IDX 7 1 6 2 11 3 33 4 5 5 12 6 15 7 2 8 3 9 13 10 16 11 1 12
REMARK SMILES IDX 4 13 14 14 31 15 17 16 18 17 30 18 32 19 19 20 29 21 28 22
REMARK SMILES IDX 21 23 20 24 25 25 22 26 23 27 26 28 27 29 8 30 9 31 10 32
REMARK SMILES IDX 24 33
REMARK H PARENT 24 34
REMARK Flexibility Score: inf
ROOT
ATOM      1  C   UNL     1       1.891  -1.800  13.953  1.00  0.00     0.017 C 
ATOM      2  C   UNL     1       1.939  -1.772  15.501  1.00  0.00     0.014 C 
ATOM      3  C   UNL     1       2.282  -0.373  13.408  1.00  0.00     0.014 C 
ATOM      4  C   UNL     1       2.915  -2.864  13.434  1.00  0.00     0.030 C 
ATOM      5  C   UNL     1       1.618  -3.142  16.101  1.00  0.00     0.004 C 
ATOM      6  C   UNL     1       3.359  -0.373  12.291  1.00  0.00     0.013 C 
ATOM      7  C   UNL     1       2.931  -2.814  11.889  1.00  0.00    -0.063 C 
ATOM      8  C   UNL     1       2.790  -4.278  14.109  1.00  0.00    -0.003 C 
ATOM      9  C   UNL     1       2.657  -4.183  15.664  1.00  0.00    -0.011 C 
ATOM     10  C   UNL     1       3.146  -1.468  11.178  1.00  0.00    -0.006 C 
ATOM     11  C   UNL     1       2.777  -3.905  11.116  1.00  0.00    -0.027 C 
ATOM     12  C   UNL     1       4.025  -5.158  13.776  1.00  0.00     0.008 C 
ATOM     13  C   UNL     1       2.296  -5.543  16.288  1.00  0.00     0.008 C 
ATOM     14  C   UNL     1       1.788  -1.075  10.497  1.00  0.00     0.017 C 
ATOM     15  C   UNL     1       4.391  -1.604  10.096  1.00  0.00    -0.020 C 
ATOM     16  C   UNL     1       3.289  -3.892   9.706  1.00  0.00     0.032 C 
ATOM     17  C   UNL     1       4.660  -3.133   9.674  1.00  0.00     0.006 C 
ATOM     18  C   UNL     1       4.073  -0.813   8.798  1.00  0.00     0.008 C 
ATOM     19  C   UNL     1       5.679  -0.982  10.723  1.00  0.00     0.012 C 
ATOM     20  C   UNL     1       5.554  -3.434   8.355  1.00  0.00    -0.025 C 
ATOM     21  C   UNL     1       5.093  -0.974   7.675  1.00  0.00     0.005 C 
ATOM     22  C   UNL     1       5.226  -2.437   7.162  1.00  0.00     0.003 C 
ATOM     23  C   UNL     1       7.081  -3.378   8.710  1.00  0.00     0.010 C 
ATOM     24  C   UNL     1       5.289  -4.914   7.922  1.00  0.00     0.012 C 
ATOM     25  C   UNL     1       6.230  -2.523   5.915  1.00  0.00    -0.006 C 
ATOM     26  C   UNL     1       8.036  -3.498   7.512  1.00  0.00     0.033 C 
ATOM     27  C   UNL     1       7.710  -2.461   6.417  1.00  0.00     0.120 C 
ATOM     28  C   UNL     1       6.017  -1.332   4.933  1.00  0.00     0.014 C 
ATOM     29  C   UNL     1       5.973  -3.803   5.059  1.00  0.00     0.014 C 
ENDROOT
BRANCH   1  30
ATOM     30  C   UNL     1       0.457  -2.121  13.529  1.00  0.00     0.048 C 
ATOM     31  O   UNL     1      -0.232  -1.250  12.937  1.00  0.00    -0.550 OA
ATOM     32  O   UNL     1      -0.118  -3.358  13.787  1.00  0.00    -0.550 OA
ENDBRANCH   1  30
BRANCH  27  33
ATOM     33  O   UNL     1       8.626  -2.554   5.352  1.00  0.00    -0.393 OA
ATOM     34  H   UNL     1       8.206  -3.081   4.625  1.00  0.00     0.210 HD
ENDBRANCH  27  33
TORSDOF 2
ENDMDL
