MODEL 1
REMARK VINA RESULT:    -4.929      0.000      0.000
REMARK INTER + INTRA:          -6.111
REMARK INTER:                  -5.793
REMARK INTRA:                  -0.318
REMARK UNBOUND:                -0.318
REMARK SMILES O=c1cc(-c2ccc(O)c(O)c2)oc2cc(O)cc(O)c12
REMARK SMILES IDX 4 1 3 2 2 3 1 4 21 5 19 6 18 7 16 8 15 9 14 10 13 11 5 12
REMARK SMILES IDX 6 13 7 14 8 15 12 16 10 17 9 18 11 20 20 22 17 24
REMARK H PARENT 9 19 11 21 20 23 17 25
REMARK Flexibility Score: inf
ROOT
ATOM      1  C   UNL     1      18.789  25.674  53.403  1.00  0.00     0.138 A 
ATOM      2  C   UNL     1      17.466  25.216  53.454  1.00  0.00     0.100 A 
ATOM      3  C   UNL     1      17.164  23.923  53.024  1.00  0.00     0.197 A 
ATOM      4  O   UNL     1      15.960  23.563  53.024  1.00  0.00    -0.289 OA
ATOM      5  C   UNL     1      18.202  23.073  52.571  1.00  0.00     0.107 A 
ATOM      6  C   UNL     1      18.019  21.723  52.149  1.00  0.00     0.134 A 
ATOM      7  C   UNL     1      19.103  21.016  51.610  1.00  0.00     0.093 A 
ATOM      8  C   UNL     1      20.373  21.591  51.536  1.00  0.00     0.123 A 
ATOM      9  C   UNL     1      20.573  22.890  51.997  1.00  0.00     0.094 A 
ATOM     10  C   UNL     1      19.506  23.633  52.507  1.00  0.00     0.146 A 
ATOM     11  O   UNL     1      19.736  24.874  52.922  1.00  0.00    -0.456 OA
ENDROOT
BRANCH   1  12
ATOM     12  C   UNL     1      19.165  27.040  53.848  1.00  0.00     0.021 A 
ATOM     13  C   UNL     1      18.209  27.942  54.351  1.00  0.00     0.016 A 
ATOM     14  C   UNL     1      18.591  29.219  54.773  1.00  0.00     0.051 A 
ATOM     15  C   UNL     1      19.934  29.612  54.707  1.00  0.00     0.157 A 
ATOM     16  C   UNL     1      20.513  27.438  53.798  1.00  0.00     0.062 A 
ATOM     17  C   UNL     1      20.896  28.720  54.221  1.00  0.00     0.158 A 
BRANCH  15  18
ATOM     18  O   UNL     1      20.318  30.884  55.125  1.00  0.00    -0.504 OA
ATOM     19  H   UNL     1      21.109  31.363  54.711  1.00  0.00     0.293 HD
ENDBRANCH  15  18
BRANCH  17  20
ATOM     20  O   UNL     1      22.232  29.112  54.159  1.00  0.00    -0.504 OA
ATOM     21  H   UNL     1      22.659  29.660  54.898  1.00  0.00     0.293 HD
ENDBRANCH  17  20
ENDBRANCH   1  12
BRANCH   6  22
ATOM     22  O   UNL     1      16.812  21.026  52.258  1.00  0.00    -0.507 OA
ATOM     23  H   UNL     1      15.909  21.393  52.001  1.00  0.00     0.293 HD
ENDBRANCH   6  22
BRANCH   8  24
ATOM     24  O   UNL     1      21.448  20.875  51.014  1.00  0.00    -0.508 OA
ATOM     25  H   UNL     1      22.404  21.182  51.147  1.00  0.00     0.293 HD
ENDBRANCH   8  24
TORSDOF 5
ENDMDL
MODEL 2
REMARK VINA RESULT:    -4.272      1.922      7.318
REMARK INTER + INTRA:          -5.340
REMARK INTER:                  -5.072
REMARK INTRA:                  -0.268
REMARK UNBOUND:                -0.318
REMARK SMILES O=c1cc(-c2ccc(O)c(O)c2)oc2cc(O)cc(O)c12
REMARK SMILES IDX 4 1 3 2 2 3 1 4 21 5 19 6 18 7 16 8 15 9 14 10 13 11 5 12
REMARK SMILES IDX 6 13 7 14 8 15 12 16 10 17 9 18 11 20 20 22 17 24
REMARK H PARENT 9 19 11 21 20 23 17 25
REMARK Flexibility Score: inf
ROOT
ATOM      1  C   UNL     1      20.230  26.116  52.923  1.00  0.00     0.138 A 
ATOM      2  C   UNL     1      21.326  26.976  53.072  1.00  0.00     0.100 A 
ATOM      3  C   UNL     1      21.144  28.235  53.647  1.00  0.00     0.197 A 
ATOM      4  O   UNL     1      22.134  29.007  53.710  1.00  0.00    -0.289 OA
ATOM      5  C   UNL     1      19.861  28.620  54.104  1.00  0.00     0.107 A 
ATOM      6  C   UNL     1      19.565  29.860  54.743  1.00  0.00     0.134 A 
ATOM      7  C   UNL     1      18.235  30.180  55.047  1.00  0.00     0.093 A 
ATOM      8  C   UNL     1      17.200  29.277  54.790  1.00  0.00     0.123 A 
ATOM      9  C   UNL     1      17.486  28.041  54.217  1.00  0.00     0.094 A 
ATOM     10  C   UNL     1      18.798  27.707  53.870  1.00  0.00     0.146 A 
ATOM     11  O   UNL     1      19.025  26.524  53.310  1.00  0.00    -0.456 OA
ENDROOT
BRANCH   1  12
ATOM     12  C   UNL     1      20.368  24.766  52.319  1.00  0.00     0.021 A 
ATOM     13  C   UNL     1      20.634  24.594  50.947  1.00  0.00     0.016 A 
ATOM     14  C   UNL     1      20.770  23.313  50.407  1.00  0.00     0.051 A 
ATOM     15  C   UNL     1      20.651  22.183  51.227  1.00  0.00     0.157 A 
ATOM     16  C   UNL     1      20.264  23.627  53.138  1.00  0.00     0.062 A 
ATOM     17  C   UNL     1      20.400  22.341  52.595  1.00  0.00     0.158 A 
BRANCH  15  18
ATOM     18  O   UNL     1      20.785  20.904  50.691  1.00  0.00    -0.504 OA
ATOM     19  H   UNL     1      21.410  20.716  49.916  1.00  0.00     0.293 HD
ENDBRANCH  15  18
BRANCH  17  20
ATOM     20  O   UNL     1      20.286  21.216  53.409  1.00  0.00    -0.504 OA
ATOM     21  H   UNL     1      20.357  20.278  53.032  1.00  0.00     0.293 HD
ENDBRANCH  17  20
ENDBRANCH   1  12
BRANCH   6  22
ATOM     22  O   UNL     1      20.533  30.796  55.120  1.00  0.00    -0.507 OA
ATOM     23  H   UNL     1      20.700  31.103  56.066  1.00  0.00     0.293 HD
ENDBRANCH   6  22
BRANCH   8  24
ATOM     24  O   UNL     1      15.883  29.598  55.110  1.00  0.00    -0.508 OA
ATOM     25  H   UNL     1      15.522  29.479  56.050  1.00  0.00     0.293 HD
ENDBRANCH   8  24
TORSDOF 5
ENDMDL
MODEL 3
REMARK VINA RESULT:    -4.260      1.419      2.961
REMARK INTER + INTRA:          -5.325
REMARK INTER:                  -5.024
REMARK INTRA:                  -0.301
REMARK UNBOUND:                -0.318
REMARK SMILES O=c1cc(-c2ccc(O)c(O)c2)oc2cc(O)cc(O)c12
REMARK SMILES IDX 4 1 3 2 2 3 1 4 21 5 19 6 18 7 16 8 15 9 14 10 13 11 5 12
REMARK SMILES IDX 6 13 7 14 8 15 12 16 10 17 9 18 11 20 20 22 17 24
REMARK H PARENT 9 19 11 21 20 23 17 25
REMARK Flexibility Score: inf
ROOT
ATOM      1  C   UNL     1      19.505  25.502  53.169  1.00  0.00     0.138 A 
ATOM      2  C   UNL     1      20.292  24.951  52.148  1.00  0.00     0.100 A 
ATOM      3  C   UNL     1      20.032  23.656  51.697  1.00  0.00     0.197 A 
ATOM      4  O   UNL     1      20.794  23.167  50.825  1.00  0.00    -0.289 OA
ATOM      5  C   UNL     1      18.957  22.921  52.251  1.00  0.00     0.107 A 
ATOM      6  C   UNL     1      18.573  21.610  51.842  1.00  0.00     0.134 A 
ATOM      7  C   UNL     1      17.564  20.935  52.543  1.00  0.00     0.093 A 
ATOM      8  C   UNL     1      16.887  21.549  53.599  1.00  0.00     0.123 A 
ATOM      9  C   UNL     1      17.217  22.849  53.971  1.00  0.00     0.094 A 
ATOM     10  C   UNL     1      18.242  23.536  53.314  1.00  0.00     0.146 A 
ATOM     11  O   UNL     1      18.536  24.770  53.710  1.00  0.00    -0.456 OA
ENDROOT
BRANCH   1  12
ATOM     12  C   UNL     1      19.737  26.874  53.685  1.00  0.00     0.021 A 
ATOM     13  C   UNL     1      21.031  27.424  53.767  1.00  0.00     0.016 A 
ATOM     14  C   UNL     1      21.220  28.722  54.247  1.00  0.00     0.051 A 
ATOM     15  C   UNL     1      20.122  29.496  54.644  1.00  0.00     0.157 A 
ATOM     16  C   UNL     1      18.640  27.663  54.073  1.00  0.00     0.062 A 
ATOM     17  C   UNL     1      18.831  28.967  54.555  1.00  0.00     0.158 A 
BRANCH  15  18
ATOM     18  O   UNL     1      20.309  30.791  55.125  1.00  0.00    -0.504 OA
ATOM     19  H   UNL     1      20.185  31.601  54.530  1.00  0.00     0.293 HD
ENDBRANCH  15  18
BRANCH  17  20
ATOM     20  O   UNL     1      17.740  29.740  54.948  1.00  0.00    -0.504 OA
ATOM     21  H   UNL     1      17.233  30.318  54.287  1.00  0.00     0.293 HD
ENDBRANCH  17  20
ENDBRANCH   1  12
BRANCH   6  22
ATOM     22  O   UNL     1      19.127  20.939  50.747  1.00  0.00    -0.507 OA
ATOM     23  H   UNL     1      20.032  21.136  50.348  1.00  0.00     0.293 HD
ENDBRANCH   6  22
BRANCH   8  24
ATOM     24  O   UNL     1      15.875  20.876  54.280  1.00  0.00    -0.508 OA
ATOM     25  H   UNL     1      15.937  19.884  54.476  1.00  0.00     0.293 HD
ENDBRANCH   8  24
TORSDOF 5
ENDMDL
MODEL 4
REMARK VINA RESULT:    -3.665      1.864      2.317
REMARK INTER + INTRA:          -4.626
REMARK INTER:                  -4.355
REMARK INTRA:                  -0.270
REMARK UNBOUND:                -0.318
REMARK SMILES O=c1cc(-c2ccc(O)c(O)c2)oc2cc(O)cc(O)c12
REMARK SMILES IDX 4 1 3 2 2 3 1 4 21 5 19 6 18 7 16 8 15 9 14 10 13 11 5 12
REMARK SMILES IDX 6 13 7 14 8 15 12 16 10 17 9 18 11 20 20 22 17 24
REMARK H PARENT 9 19 11 21 20 23 17 25
REMARK Flexibility Score: inf
ROOT
ATOM      1  C   UNL     1      18.177  25.817  53.859  1.00  0.00     0.138 A 
ATOM      2  C   UNL     1      17.874  24.736  54.697  1.00  0.00     0.100 A 
ATOM      3  C   UNL     1      18.358  23.464  54.388  1.00  0.00     0.197 A 
ATOM      4  O   UNL     1      18.018  22.504  55.125  1.00  0.00    -0.289 OA
ATOM      5  C   UNL     1      19.178  23.282  53.249  1.00  0.00     0.107 A 
ATOM      6  C   UNL     1      19.763  22.041  52.859  1.00  0.00     0.134 A 
ATOM      7  C   UNL     1      20.462  21.957  51.647  1.00  0.00     0.093 A 
ATOM      8  C   UNL     1      20.647  23.085  50.843  1.00  0.00     0.123 A 
ATOM      9  C   UNL     1      20.127  24.313  51.243  1.00  0.00     0.094 A 
ATOM     10  C   UNL     1      19.396  24.421  52.428  1.00  0.00     0.146 A 
ATOM     11  O   UNL     1      18.904  25.609  52.765  1.00  0.00    -0.456 OA
ENDROOT
BRANCH   1  12
ATOM     12  C   UNL     1      17.688  27.191  54.142  1.00  0.00     0.021 A 
ATOM     13  C   UNL     1      16.318  27.512  54.092  1.00  0.00     0.016 A 
ATOM     14  C   UNL     1      15.884  28.810  54.373  1.00  0.00     0.051 A 
ATOM     15  C   UNL     1      16.808  29.806  54.716  1.00  0.00     0.157 A 
ATOM     16  C   UNL     1      18.607  28.193  54.500  1.00  0.00     0.062 A 
ATOM     17  C   UNL     1      18.170  29.496  54.781  1.00  0.00     0.158 A 
BRANCH  15  18
ATOM     18  O   UNL     1      16.377  31.101  54.994  1.00  0.00    -0.504 OA
ATOM     19  H   UNL     1      15.397  31.317  55.134  1.00  0.00     0.293 HD
ENDBRANCH  15  18
BRANCH  17  20
ATOM     20  O   UNL     1      19.087  30.488  55.125  1.00  0.00    -0.504 OA
ATOM     21  H   UNL     1      19.107  31.382  54.647  1.00  0.00     0.293 HD
ENDBRANCH  17  20
ENDBRANCH   1  12
BRANCH   6  22
ATOM     22  O   UNL     1      19.710  20.875  53.630  1.00  0.00    -0.507 OA
ATOM     23  H   UNL     1      19.520  19.954  53.268  1.00  0.00     0.293 HD
ENDBRANCH   6  22
BRANCH   8  24
ATOM     24  O   UNL     1      21.357  22.996  49.648  1.00  0.00    -0.508 OA
ATOM     25  H   UNL     1      21.549  23.815  49.084  1.00  0.00     0.293 HD
ENDBRANCH   8  24
TORSDOF 5
ENDMDL
MODEL 5
REMARK VINA RESULT:    -3.579     18.909     20.966
REMARK INTER + INTRA:          -4.525
REMARK INTER:                  -4.232
REMARK INTRA:                  -0.293
REMARK UNBOUND:                -0.318
REMARK SMILES O=c1cc(-c2ccc(O)c(O)c2)oc2cc(O)cc(O)c12
REMARK SMILES IDX 4 1 3 2 2 3 1 4 21 5 19 6 18 7 16 8 15 9 14 10 13 11 5 12
REMARK SMILES IDX 6 13 7 14 8 15 12 16 10 17 9 18 11 20 20 22 17 24
REMARK H PARENT 9 19 11 21 20 23 17 25
REMARK Flexibility Score: inf
ROOT
ATOM      1  C   UNL     1      33.385  25.189  37.820  1.00  0.00     0.138 A 
ATOM      2  C   UNL     1      34.647  24.597  37.673  1.00  0.00     0.100 A 
ATOM      3  C   UNL     1      34.965  23.455  38.408  1.00  0.00     0.197 A 
ATOM      4  O   UNL     1      36.125  22.983  38.301  1.00  0.00    -0.289 OA
ATOM      5  C   UNL     1      34.000  22.885  39.274  1.00  0.00     0.107 A 
ATOM      6  C   UNL     1      34.198  21.699  40.041  1.00  0.00     0.134 A 
ATOM      7  C   UNL     1      33.212  21.295  40.952  1.00  0.00     0.093 A 
ATOM      8  C   UNL     1      32.013  22.000  41.077  1.00  0.00     0.123 A 
ATOM      9  C   UNL     1      31.788  23.128  40.292  1.00  0.00     0.094 A 
ATOM     10  C   UNL     1      32.765  23.577  39.400  1.00  0.00     0.146 A 
ATOM     11  O   UNL     1      32.517  24.666  38.681  1.00  0.00    -0.456 OA
ENDROOT
BRANCH   1  12
ATOM     12  C   UNL     1      32.995  26.405  37.061  1.00  0.00     0.021 A 
ATOM     13  C   UNL     1      31.669  26.878  37.052  1.00  0.00     0.016 A 
ATOM     14  C   UNL     1      31.332  28.030  36.338  1.00  0.00     0.051 A 
ATOM     15  C   UNL     1      32.313  28.734  35.629  1.00  0.00     0.157 A 
ATOM     16  C   UNL     1      33.977  27.126  36.358  1.00  0.00     0.062 A 
ATOM     17  C   UNL     1      33.637  28.283  35.640  1.00  0.00     0.158 A 
BRANCH  15  18
ATOM     18  O   UNL     1      31.980  29.883  34.914  1.00  0.00    -0.504 OA
ATOM     19  H   UNL     1      32.075  30.807  35.320  1.00  0.00     0.293 HD
ENDBRANCH  15  18
BRANCH  17  20
ATOM     20  O   UNL     1      34.613  28.987  34.936  1.00  0.00    -0.504 OA
ATOM     21  H   UNL     1      35.600  28.867  35.133  1.00  0.00     0.293 HD
ENDBRANCH  17  20
ENDBRANCH   1  12
BRANCH   6  22
ATOM     22  O   UNL     1      35.322  20.875  39.931  1.00  0.00    -0.507 OA
ATOM     23  H   UNL     1      35.355  19.906  40.207  1.00  0.00     0.293 HD
ENDBRANCH   6  22
BRANCH   8  24
ATOM     24  O   UNL     1      31.033  21.581  41.974  1.00  0.00    -0.508 OA
ATOM     25  H   UNL     1      30.111  21.302  41.659  1.00  0.00     0.293 HD
ENDBRANCH   8  24
TORSDOF 5
ENDMDL
MODEL 6
REMARK VINA RESULT:    -3.395     19.501     21.424
REMARK INTER + INTRA:          -4.308
REMARK INTER:                  -4.017
REMARK INTRA:                  -0.291
REMARK UNBOUND:                -0.318
REMARK SMILES O=c1cc(-c2ccc(O)c(O)c2)oc2cc(O)cc(O)c12
REMARK SMILES IDX 4 1 3 2 2 3 1 4 21 5 19 6 18 7 16 8 15 9 14 10 13 11 5 12
REMARK SMILES IDX 6 13 7 14 8 15 12 16 10 17 9 18 11 20 20 22 17 24
REMARK H PARENT 9 19 11 21 20 23 17 25
REMARK Flexibility Score: inf
ROOT
ATOM      1  C   UNL     1      33.554  25.190  37.326  1.00  0.00     0.138 A 
ATOM      2  C   UNL     1      32.252  24.769  37.021  1.00  0.00     0.100 A 
ATOM      3  C   UNL     1      31.733  23.628  37.634  1.00  0.00     0.197 A 
ATOM      4  O   UNL     1      30.587  23.241  37.295  1.00  0.00    -0.289 OA
ATOM      5  C   UNL     1      32.513  22.923  38.582  1.00  0.00     0.107 A 
ATOM      6  C   UNL     1      32.074  21.772  39.301  1.00  0.00     0.134 A 
ATOM      7  C   UNL     1      32.975  21.089  40.128  1.00  0.00     0.093 A 
ATOM      8  C   UNL     1      34.281  21.552  40.309  1.00  0.00     0.123 A 
ATOM      9  C   UNL     1      34.702  22.706  39.654  1.00  0.00     0.094 A 
ATOM     10  C   UNL     1      33.838  23.390  38.795  1.00  0.00     0.146 A 
ATOM     11  O   UNL     1      34.285  24.479  38.178  1.00  0.00    -0.456 OA
ENDROOT
BRANCH   1  12
ATOM     12  C   UNL     1      34.154  26.397  36.702  1.00  0.00     0.021 A 
ATOM     13  C   UNL     1      35.547  26.604  36.682  1.00  0.00     0.016 A 
ATOM     14  C   UNL     1      36.086  27.744  36.080  1.00  0.00     0.051 A 
ATOM     15  C   UNL     1      35.245  28.690  35.480  1.00  0.00     0.157 A 
ATOM     16  C   UNL     1      33.319  27.346  36.086  1.00  0.00     0.062 A 
ATOM     17  C   UNL     1      33.860  28.490  35.481  1.00  0.00     0.158 A 
BRANCH  15  18
ATOM     18  O   UNL     1      35.780  29.829  34.879  1.00  0.00    -0.504 OA
ATOM     19  H   UNL     1      36.734  29.851  34.539  1.00  0.00     0.293 HD
ENDBRANCH  15  18
BRANCH  17  20
ATOM     20  O   UNL     1      33.027  29.432  34.881  1.00  0.00    -0.504 OA
ATOM     21  H   UNL     1      32.334  29.945  35.415  1.00  0.00     0.293 HD
ENDBRANCH  17  20
ENDBRANCH   1  12
BRANCH   6  22
ATOM     22  O   UNL     1      30.767  21.276  39.258  1.00  0.00    -0.507 OA
ATOM     23  H   UNL     1      30.437  20.477  39.777  1.00  0.00     0.293 HD
ENDBRANCH   6  22
BRANCH   8  24
ATOM     24  O   UNL     1      35.165  20.875  41.145  1.00  0.00    -0.508 OA
ATOM     25  H   UNL     1      35.810  20.182  40.785  1.00  0.00     0.293 HD
ENDBRANCH   8  24
TORSDOF 5
ENDMDL
MODEL 7
REMARK VINA RESULT:    -2.570      2.064      6.936
REMARK INTER + INTRA:          -3.338
REMARK INTER:                  -3.064
REMARK INTRA:                  -0.274
REMARK UNBOUND:                -0.318
REMARK SMILES O=c1cc(-c2ccc(O)c(O)c2)oc2cc(O)cc(O)c12
REMARK SMILES IDX 4 1 3 2 2 3 1 4 21 5 19 6 18 7 16 8 15 9 14 10 13 11 5 12
REMARK SMILES IDX 6 13 7 14 8 15 12 16 10 17 9 18 11 20 20 22 17 24
REMARK H PARENT 9 19 11 21 20 23 17 25
REMARK Flexibility Score: inf
ROOT
ATOM      1  C   UNL     1      17.550  26.039  53.500  1.00  0.00     0.138 A 
ATOM      2  C   UNL     1      16.627  26.981  53.974  1.00  0.00     0.100 A 
ATOM      3  C   UNL     1      17.076  28.223  54.425  1.00  0.00     0.197 A 
ATOM      4  O   UNL     1      16.230  29.022  54.901  1.00  0.00    -0.289 OA
ATOM      5  C   UNL     1      18.455  28.534  54.371  1.00  0.00     0.107 A 
ATOM      6  C   UNL     1      19.023  29.782  54.764  1.00  0.00     0.134 A 
ATOM      7  C   UNL     1      20.416  29.934  54.776  1.00  0.00     0.093 A 
ATOM      8  C   UNL     1      21.257  28.902  54.351  1.00  0.00     0.123 A 
ATOM      9  C   UNL     1      20.710  27.699  53.913  1.00  0.00     0.094 A 
ATOM     10  C   UNL     1      19.326  27.505  53.922  1.00  0.00     0.146 A 
ATOM     11  O   UNL     1      18.846  26.336  53.511  1.00  0.00    -0.456 OA
ENDROOT
BRANCH   1  12
ATOM     12  C   UNL     1      17.127  24.703  53.008  1.00  0.00     0.021 A 
ATOM     13  C   UNL     1      16.338  24.557  51.851  1.00  0.00     0.016 A 
ATOM     14  C   UNL     1      15.962  23.288  51.405  1.00  0.00     0.051 A 
ATOM     15  C   UNL     1      16.374  22.144  52.100  1.00  0.00     0.157 A 
ATOM     16  C   UNL     1      17.548  23.549  53.692  1.00  0.00     0.062 A 
ATOM     17  C   UNL     1      17.170  22.274  53.243  1.00  0.00     0.158 A 
BRANCH  15  18
ATOM     18  O   UNL     1      16.000  20.876  51.658  1.00  0.00    -0.504 OA
ATOM     19  H   UNL     1      16.671  20.235  51.253  1.00  0.00     0.293 HD
ENDBRANCH  15  18
BRANCH  17  20
ATOM     20  O   UNL     1      17.581  21.134  53.931  1.00  0.00    -0.504 OA
ATOM     21  H   UNL     1      18.266  21.183  54.677  1.00  0.00     0.293 HD
ENDBRANCH  17  20
ENDBRANCH   1  12
BRANCH   6  22
ATOM     22  O   UNL     1      18.270  30.903  55.125  1.00  0.00    -0.507 OA
ATOM     23  H   UNL     1      17.537  30.907  55.816  1.00  0.00     0.293 HD
ENDBRANCH   6  22
BRANCH   8  24
ATOM     24  O   UNL     1      22.640  29.068  54.351  1.00  0.00    -0.508 OA
ATOM     25  H   UNL     1      23.078  29.866  53.905  1.00  0.00     0.293 HD
ENDBRANCH   8  24
TORSDOF 5
ENDMDL
