MODEL 1
REMARK VINA RESULT:    -5.240      0.000      0.000
REMARK INTER + INTRA:          -8.791
REMARK INTER:                  -8.304
REMARK INTRA:                  -0.488
REMARK UNBOUND:                -0.488
REMARK SMILES CCCCCCCCCCCC(=O)[O-]
REMARK SMILES IDX 7 1 8 2 9 3 10 4 11 5 12 6 13 7 14 8 6 9 5 10 4 11 3 12 2 13
REMARK SMILES IDX 1 14
REMARK H PARENT
REMARK Flexibility Score: inf
ROOT
ATOM      1  C   UNL     1      18.331  22.963  70.734  1.00  0.00     0.000 C 
ENDROOT
BRANCH   1   2
ATOM      2  C   UNL     1      17.561  22.692  72.032  1.00  0.00     0.000 C 
BRANCH   2   3
ATOM      3  C   UNL     1      16.316  21.837  71.767  1.00  0.00     0.000 C 
BRANCH   3   4
ATOM      4  C   UNL     1      16.683  20.547  71.024  1.00  0.00     0.006 C 
BRANCH   4   5
ATOM      5  C   UNL     1      15.646  19.450  71.284  1.00  0.00     0.053 C 
BRANCH   5   6
ATOM      6  C   UNL     1      16.183  18.116  70.871  1.00  0.00     0.041 C 
ATOM      7  O   UNL     1      16.129  17.757  69.665  1.00  0.00    -0.550 OA
ATOM      8  O   UNL     1      16.700  17.248  71.825  1.00  0.00    -0.550 OA
ENDBRANCH   5   6
ENDBRANCH   4   5
ENDBRANCH   3   4
ENDBRANCH   2   3
ENDBRANCH   1   2
BRANCH   1   9
ATOM      9  C   UNL     1      18.314  24.459  70.386  1.00  0.00     0.000 C 
BRANCH   9  10
ATOM     10  C   UNL     1      17.358  25.264  71.280  1.00  0.00    -0.000 C 
BRANCH  10  11
ATOM     11  C   UNL     1      17.794  26.731  71.446  1.00  0.00    -0.000 C 
BRANCH  11  12
ATOM     12  C   UNL     1      19.182  26.999  70.825  1.00  0.00    -0.000 C 
BRANCH  12  13
ATOM     13  C   UNL     1      19.802  28.337  71.261  1.00  0.00    -0.003 C 
ATOM     14  C   UNL     1      21.157  28.174  71.947  1.00  0.00     0.004 C 
ENDBRANCH  12  13
ENDBRANCH  11  12
ENDBRANCH  10  11
ENDBRANCH   9  10
ENDBRANCH   1   9
TORSDOF 10
ENDMDL
MODEL 2
REMARK VINA RESULT:    -5.182     11.220     12.373
REMARK INTER + INTRA:          -8.699
REMARK INTER:                  -7.894
REMARK INTRA:                  -0.805
REMARK UNBOUND:                -0.488
REMARK SMILES CCCCCCCCCCCC(=O)[O-]
REMARK SMILES IDX 7 1 8 2 9 3 10 4 11 5 12 6 13 7 14 8 6 9 5 10 4 11 3 12 2 13
REMARK SMILES IDX 1 14
REMARK H PARENT
REMARK Flexibility Score: inf
ROOT
ATOM      1  C   UNL     1      14.005  17.188  63.428  1.00  0.00     0.000 C 
ENDROOT
BRANCH   1   2
ATOM      2  C   UNL     1      13.269  15.842  63.395  1.00  0.00     0.000 C 
BRANCH   2   3
ATOM      3  C   UNL     1      13.048  15.300  64.813  1.00  0.00     0.000 C 
BRANCH   3   4
ATOM      4  C   UNL     1      13.706  13.927  64.986  1.00  0.00     0.006 C 
BRANCH   4   5
ATOM      5  C   UNL     1      13.925  13.248  63.630  1.00  0.00     0.053 C 
BRANCH   5   6
ATOM      6  C   UNL     1      14.432  11.854  63.820  1.00  0.00     0.041 C 
ATOM      7  O   UNL     1      15.520  11.498  63.294  1.00  0.00    -0.550 OA
ATOM      8  O   UNL     1      13.681  10.932  64.537  1.00  0.00    -0.550 OA
ENDBRANCH   5   6
ENDBRANCH   4   5
ENDBRANCH   3   4
ENDBRANCH   2   3
ENDBRANCH   1   2
BRANCH   1   9
ATOM      9  C   UNL     1      15.367  17.087  62.725  1.00  0.00     0.000 C 
BRANCH   9  10
ATOM     10  C   UNL     1      15.371  16.054  61.587  1.00  0.00    -0.000 C 
BRANCH  10  11
ATOM     11  C   UNL     1      15.407  16.707  60.193  1.00  0.00    -0.000 C 
BRANCH  11  12
ATOM     12  C   UNL     1      16.607  16.218  59.353  1.00  0.00    -0.000 C 
BRANCH  12  13
ATOM     13  C   UNL     1      17.775  17.217  59.312  1.00  0.00    -0.003 C 
ATOM     14  C   UNL     1      18.921  16.836  60.248  1.00  0.00     0.004 C 
ENDBRANCH  12  13
ENDBRANCH  11  12
ENDBRANCH  10  11
ENDBRANCH   9  10
ENDBRANCH   1   9
TORSDOF 10
ENDMDL
MODEL 3
REMARK VINA RESULT:    -5.071     11.166     12.317
REMARK INTER + INTRA:          -8.523
REMARK INTER:                  -7.652
REMARK INTRA:                  -0.871
REMARK UNBOUND:                -0.488
REMARK SMILES CCCCCCCCCCCC(=O)[O-]
REMARK SMILES IDX 7 1 8 2 9 3 10 4 11 5 12 6 13 7 14 8 6 9 5 10 4 11 3 12 2 13
REMARK SMILES IDX 1 14
REMARK H PARENT
REMARK Flexibility Score: inf
ROOT
ATOM      1  C   UNL     1      15.421  16.525  62.718  1.00  0.00     0.000 C 
ENDROOT
BRANCH   1   2
ATOM      2  C   UNL     1      14.165  16.926  63.501  1.00  0.00     0.000 C 
BRANCH   2   3
ATOM      3  C   UNL     1      13.316  15.697  63.848  1.00  0.00     0.000 C 
BRANCH   3   4
ATOM      4  C   UNL     1      14.192  14.449  64.002  1.00  0.00     0.006 C 
BRANCH   4   5
ATOM      5  C   UNL     1      13.616  13.273  63.207  1.00  0.00     0.053 C 
BRANCH   5   6
ATOM      6  C   UNL     1      14.137  11.976  63.741  1.00  0.00     0.041 C 
ATOM      7  O   UNL     1      13.467  11.323  64.584  1.00  0.00    -0.550 OA
ATOM      8  O   UNL     1      15.384  11.511  63.343  1.00  0.00    -0.550 OA
ENDBRANCH   5   6
ENDBRANCH   4   5
ENDBRANCH   3   4
ENDBRANCH   2   3
ENDBRANCH   1   2
BRANCH   1   9
ATOM      9  C   UNL     1      15.263  16.845  61.224  1.00  0.00     0.000 C 
BRANCH   9  10
ATOM     10  C   UNL     1      15.972  15.823  60.321  1.00  0.00    -0.000 C 
BRANCH  10  11
ATOM     11  C   UNL     1      17.348  15.402  60.867  1.00  0.00    -0.000 C 
BRANCH  11  12
ATOM     12  C   UNL     1      18.505  15.905  59.977  1.00  0.00    -0.000 C 
BRANCH  12  13
ATOM     13  C   UNL     1      19.188  17.173  60.517  1.00  0.00    -0.003 C 
ATOM     14  C   UNL     1      19.534  17.080  62.002  1.00  0.00     0.004 C 
ENDBRANCH  12  13
ENDBRANCH  11  12
ENDBRANCH  10  11
ENDBRANCH   9  10
ENDBRANCH   1   9
TORSDOF 10
ENDMDL
MODEL 4
REMARK VINA RESULT:    -4.984      1.487      2.053
REMARK INTER + INTRA:          -8.386
REMARK INTER:                  -7.884
REMARK INTRA:                  -0.501
REMARK UNBOUND:                -0.488
REMARK SMILES CCCCCCCCCCCC(=O)[O-]
REMARK SMILES IDX 7 1 8 2 9 3 10 4 11 5 12 6 13 7 14 8 6 9 5 10 4 11 3 12 2 13
REMARK SMILES IDX 1 14
REMARK H PARENT
REMARK Flexibility Score: inf
ROOT
ATOM      1  C   UNL     1      17.034  24.045  71.959  1.00  0.00     0.000 C 
ENDROOT
BRANCH   1   2
ATOM      2  C   UNL     1      17.451  22.570  72.017  1.00  0.00     0.000 C 
BRANCH   2   3
ATOM      3  C   UNL     1      18.340  22.201  70.823  1.00  0.00     0.000 C 
BRANCH   3   4
ATOM      4  C   UNL     1      18.188  20.720  70.461  1.00  0.00     0.006 C 
BRANCH   4   5
ATOM      5  C   UNL     1      16.763  20.231  70.738  1.00  0.00     0.053 C 
BRANCH   5   6
ATOM      6  C   UNL     1      16.594  18.820  70.269  1.00  0.00     0.041 C 
ATOM      7  O   UNL     1      16.161  18.586  69.110  1.00  0.00    -0.550 OA
ATOM      8  O   UNL     1      16.870  17.764  71.127  1.00  0.00    -0.550 OA
ENDBRANCH   5   6
ENDBRANCH   4   5
ENDBRANCH   3   4
ENDBRANCH   2   3
ENDBRANCH   1   2
BRANCH   1   9
ATOM      9  C   UNL     1      17.914  24.827  70.973  1.00  0.00     0.000 C 
BRANCH   9  10
ATOM     10  C   UNL     1      17.866  26.344  71.210  1.00  0.00    -0.000 C 
BRANCH  10  11
ATOM     11  C   UNL     1      19.196  27.041  70.871  1.00  0.00    -0.000 C 
BRANCH  11  12
ATOM     12  C   UNL     1      18.986  28.317  70.028  1.00  0.00    -0.000 C 
BRANCH  12  13
ATOM     13  C   UNL     1      18.022  28.120  68.847  1.00  0.00    -0.003 C 
ATOM     14  C   UNL     1      18.689  28.330  67.488  1.00  0.00     0.004 C 
ENDBRANCH  12  13
ENDBRANCH  11  12
ENDBRANCH  10  11
ENDBRANCH   9  10
ENDBRANCH   1   9
TORSDOF 10
ENDMDL
MODEL 5
REMARK VINA RESULT:    -4.873     11.354     13.491
REMARK INTER + INTRA:          -8.209
REMARK INTER:                  -7.277
REMARK INTRA:                  -0.932
REMARK UNBOUND:                -0.488
REMARK SMILES CCCCCCCCCCCC(=O)[O-]
REMARK SMILES IDX 7 1 8 2 9 3 10 4 11 5 12 6 13 7 14 8 6 9 5 10 4 11 3 12 2 13
REMARK SMILES IDX 1 14
REMARK H PARENT
REMARK Flexibility Score: inf
ROOT
ATOM      1  C   UNL     1      15.316  16.874  62.906  1.00  0.00     0.000 C 
ENDROOT
BRANCH   1   2
ATOM      2  C   UNL     1      13.876  16.349  62.857  1.00  0.00     0.000 C 
BRANCH   2   3
ATOM      3  C   UNL     1      13.468  15.733  64.201  1.00  0.00     0.000 C 
BRANCH   3   4
ATOM      4  C   UNL     1      14.143  14.373  64.411  1.00  0.00     0.006 C 
BRANCH   4   5
ATOM      5  C   UNL     1      13.556  13.318  63.468  1.00  0.00     0.053 C 
BRANCH   5   6
ATOM      6  C   UNL     1      14.115  11.966  63.783  1.00  0.00     0.041 C 
ATOM      7  O   UNL     1      13.472  11.171  64.518  1.00  0.00    -0.550 OA
ATOM      8  O   UNL     1      15.366  11.602  63.304  1.00  0.00    -0.550 OA
ENDBRANCH   5   6
ENDBRANCH   4   5
ENDBRANCH   3   4
ENDBRANCH   2   3
ENDBRANCH   1   2
BRANCH   1   9
ATOM      9  C   UNL     1      16.132  16.352  61.714  1.00  0.00     0.000 C 
BRANCH   9  10
ATOM     10  C   UNL     1      15.490  16.696  60.361  1.00  0.00    -0.000 C 
BRANCH  10  11
ATOM     11  C   UNL     1      15.380  15.476  59.428  1.00  0.00    -0.000 C 
BRANCH  11  12
ATOM     12  C   UNL     1      16.401  14.375  59.788  1.00  0.00    -0.000 C 
BRANCH  12  13
ATOM     13  C   UNL     1      15.973  12.969  59.335  1.00  0.00    -0.003 C 
ATOM     14  C   UNL     1      14.608  12.553  59.882  1.00  0.00     0.004 C 
ENDBRANCH  12  13
ENDBRANCH  11  12
ENDBRANCH  10  11
ENDBRANCH   9  10
ENDBRANCH   1   9
TORSDOF 10
ENDMDL
MODEL 6
REMARK VINA RESULT:    -4.853      4.197      7.820
REMARK INTER + INTRA:          -8.178
REMARK INTER:                  -7.673
REMARK INTRA:                  -0.504
REMARK UNBOUND:                -0.488
REMARK SMILES CCCCCCCCCCCC(=O)[O-]
REMARK SMILES IDX 7 1 8 2 9 3 10 4 11 5 12 6 13 7 14 8 6 9 5 10 4 11 3 12 2 13
REMARK SMILES IDX 1 14
REMARK H PARENT
REMARK Flexibility Score: inf
ROOT
ATOM      1  C   UNL     1      18.466  23.599  70.126  1.00  0.00     0.000 C 
ENDROOT
BRANCH   1   2
ATOM      2  C   UNL     1      17.844  24.734  70.950  1.00  0.00     0.000 C 
BRANCH   2   3
ATOM      3  C   UNL     1      18.614  26.045  70.752  1.00  0.00     0.000 C 
BRANCH   3   4
ATOM      4  C   UNL     1      17.698  27.143  70.199  1.00  0.00     0.006 C 
BRANCH   4   5
ATOM      5  C   UNL     1      18.388  27.917  69.072  1.00  0.00     0.053 C 
BRANCH   5   6
ATOM      6  C   UNL     1      17.573  27.852  67.819  1.00  0.00     0.041 C 
ATOM      7  O   UNL     1      17.802  26.959  66.960  1.00  0.00    -0.550 OA
ATOM      8  O   UNL     1      16.592  28.805  67.577  1.00  0.00    -0.550 OA
ENDBRANCH   5   6
ENDBRANCH   4   5
ENDBRANCH   3   4
ENDBRANCH   2   3
ENDBRANCH   1   2
BRANCH   1   9
ATOM      9  C   UNL     1      18.430  22.273  70.901  1.00  0.00     0.000 C 
BRANCH   9  10
ATOM     10  C   UNL     1      17.125  22.083  71.690  1.00  0.00    -0.000 C 
BRANCH  10  11
ATOM     11  C   UNL     1      16.349  20.824  71.260  1.00  0.00    -0.000 C 
BRANCH  11  12
ATOM     12  C   UNL     1      17.158  19.951  70.277  1.00  0.00    -0.000 C 
BRANCH  12  13
ATOM     13  C   UNL     1      16.644  18.505  70.175  1.00  0.00    -0.003 C 
ATOM     14  C   UNL     1      16.132  17.956  71.506  1.00  0.00     0.004 C 
ENDBRANCH  12  13
ENDBRANCH  11  12
ENDBRANCH  10  11
ENDBRANCH   9  10
ENDBRANCH   1   9
TORSDOF 10
ENDMDL
MODEL 7
REMARK VINA RESULT:    -4.756     11.051     12.835
REMARK INTER + INTRA:          -8.024
REMARK INTER:                  -7.039
REMARK INTRA:                  -0.984
REMARK UNBOUND:                -0.488
REMARK SMILES CCCCCCCCCCCC(=O)[O-]
REMARK SMILES IDX 7 1 8 2 9 3 10 4 11 5 12 6 13 7 14 8 6 9 5 10 4 11 3 12 2 13
REMARK SMILES IDX 1 14
REMARK H PARENT
REMARK Flexibility Score: inf
ROOT
ATOM      1  C   UNL     1      15.678  14.142  59.837  1.00  0.00     0.000 C 
ENDROOT
BRANCH   1   2
ATOM      2  C   UNL     1      15.210  14.289  61.290  1.00  0.00     0.000 C 
BRANCH   2   3
ATOM      3  C   UNL     1      15.243  15.757  61.734  1.00  0.00     0.000 C 
BRANCH   3   4
ATOM      4  C   UNL     1      14.698  15.913  63.158  1.00  0.00     0.006 C 
BRANCH   4   5
ATOM      5  C   UNL     1      13.559  14.923  63.421  1.00  0.00     0.053 C 
BRANCH   5   6
ATOM      6  C   UNL     1      13.882  14.055  64.596  1.00  0.00     0.041 C 
ATOM      7  O   UNL     1      13.512  14.389  65.752  1.00  0.00    -0.550 OA
ATOM      8  O   UNL     1      14.633  12.899  64.420  1.00  0.00    -0.550 OA
ENDBRANCH   5   6
ENDBRANCH   4   5
ENDBRANCH   3   4
ENDBRANCH   2   3
ENDBRANCH   1   2
BRANCH   1   9
ATOM      9  C   UNL     1      15.542  15.471  59.078  1.00  0.00     0.000 C 
BRANCH   9  10
ATOM     10  C   UNL     1      16.827  15.861  58.333  1.00  0.00    -0.000 C 
BRANCH  10  11
ATOM     11  C   UNL     1      18.099  15.571  59.150  1.00  0.00    -0.000 C 
BRANCH  11  12
ATOM     12  C   UNL     1      18.501  16.764  60.044  1.00  0.00    -0.000 C 
BRANCH  12  13
ATOM     13  C   UNL     1      18.933  16.352  61.461  1.00  0.00    -0.003 C 
ATOM     14  C   UNL     1      19.886  17.353  62.112  1.00  0.00     0.004 C 
ENDBRANCH  12  13
ENDBRANCH  11  12
ENDBRANCH  10  11
ENDBRANCH   9  10
ENDBRANCH   1   9
TORSDOF 10
ENDMDL
MODEL 8
REMARK VINA RESULT:    -4.727     11.470     13.773
REMARK INTER + INTRA:          -7.978
REMARK INTER:                  -6.766
REMARK INTRA:                  -1.211
REMARK UNBOUND:                -0.488
REMARK SMILES CCCCCCCCCCCC(=O)[O-]
REMARK SMILES IDX 7 1 8 2 9 3 10 4 11 5 12 6 13 7 14 8 6 9 5 10 4 11 3 12 2 13
REMARK SMILES IDX 1 14
REMARK H PARENT
REMARK Flexibility Score: inf
ROOT
ATOM      1  C   UNL     1      14.976  16.923  63.363  1.00  0.00     0.000 C 
ENDROOT
BRANCH   1   2
ATOM      2  C   UNL     1      15.914  16.409  62.264  1.00  0.00     0.000 C 
BRANCH   2   3
ATOM      3  C   UNL     1      15.245  16.490  60.886  1.00  0.00     0.000 C 
BRANCH   3   4
ATOM      4  C   UNL     1      15.426  15.180  60.110  1.00  0.00     0.006 C 
BRANCH   4   5
ATOM      5  C   UNL     1      15.763  15.456  58.641  1.00  0.00     0.053 C 
BRANCH   5   6
ATOM      6  C   UNL     1      17.242  15.396  58.424  1.00  0.00     0.041 C 
ATOM      7  O   UNL     1      17.748  15.871  57.373  1.00  0.00    -0.550 OA
ATOM      8  O   UNL     1      18.057  14.773  59.360  1.00  0.00    -0.550 OA
ENDBRANCH   5   6
ENDBRANCH   4   5
ENDBRANCH   3   4
ENDBRANCH   2   3
ENDBRANCH   1   2
BRANCH   1   9
ATOM      9  C   UNL     1      13.513  16.887  62.898  1.00  0.00     0.000 C 
BRANCH   9  10
ATOM     10  C   UNL     1      12.701  15.776  63.581  1.00  0.00    -0.000 C 
BRANCH  10  11
ATOM     11  C   UNL     1      13.406  15.205  64.826  1.00  0.00    -0.000 C 
BRANCH  11  12
ATOM     12  C   UNL     1      13.848  13.740  64.623  1.00  0.00    -0.000 C 
BRANCH  12  13
ATOM     13  C   UNL     1      13.426  13.154  63.266  1.00  0.00    -0.003 C 
ATOM     14  C   UNL     1      14.589  12.529  62.496  1.00  0.00     0.004 C 
ENDBRANCH  12  13
ENDBRANCH  11  12
ENDBRANCH  10  11
ENDBRANCH   9  10
ENDBRANCH   1   9
TORSDOF 10
ENDMDL
MODEL 9
REMARK VINA RESULT:    -4.601     11.101     12.891
REMARK INTER + INTRA:          -7.778
REMARK INTER:                  -6.615
REMARK INTRA:                  -1.163
REMARK UNBOUND:                -0.488
REMARK SMILES CCCCCCCCCCCC(=O)[O-]
REMARK SMILES IDX 7 1 8 2 9 3 10 4 11 5 12 6 13 7 14 8 6 9 5 10 4 11 3 12 2 13
REMARK SMILES IDX 1 14
REMARK H PARENT
REMARK Flexibility Score: inf
ROOT
ATOM      1  C   UNL     1      16.000  14.180  59.838  1.00  0.00     0.000 C 
ENDROOT
BRANCH   1   2
ATOM      2  C   UNL     1      15.231  14.541  61.115  1.00  0.00     0.000 C 
BRANCH   2   3
ATOM      3  C   UNL     1      15.160  16.061  61.305  1.00  0.00     0.000 C 
BRANCH   3   4
ATOM      4  C   UNL     1      15.382  16.443  62.773  1.00  0.00     0.006 C 
BRANCH   4   5
ATOM      5  C   UNL     1      14.243  15.923  63.654  1.00  0.00     0.053 C 
BRANCH   5   6
ATOM      6  C   UNL     1      13.013  16.753  63.464  1.00  0.00     0.041 C 
ATOM      7  O   UNL     1      11.905  16.200  63.235  1.00  0.00    -0.550 OA
ATOM      8  O   UNL     1      13.099  18.139  63.492  1.00  0.00    -0.550 OA
ENDBRANCH   5   6
ENDBRANCH   4   5
ENDBRANCH   3   4
ENDBRANCH   2   3
ENDBRANCH   1   2
BRANCH   1   9
ATOM      9  C   UNL     1      15.946  15.330  58.821  1.00  0.00     0.000 C 
BRANCH   9  10
ATOM     10  C   UNL     1      17.334  15.710  58.282  1.00  0.00    -0.000 C 
BRANCH  10  11
ATOM     11  C   UNL     1      18.447  15.533  59.332  1.00  0.00    -0.000 C 
BRANCH  11  12
ATOM     12  C   UNL     1      18.677  16.817  60.157  1.00  0.00    -0.000 C 
BRANCH  12  13
ATOM     13  C   UNL     1      18.920  16.551  61.652  1.00  0.00    -0.003 C 
ATOM     14  C   UNL     1      20.124  17.310  62.208  1.00  0.00     0.004 C 
ENDBRANCH  12  13
ENDBRANCH  11  12
ENDBRANCH  10  11
ENDBRANCH   9  10
ENDBRANCH   1   9
TORSDOF 10
ENDMDL
