MODEL 1
REMARK VINA RESULT:    -3.985      0.000      0.000
REMARK INTER + INTRA:         -14.305
REMARK INTER:                 -10.042
REMARK INTRA:                  -4.263
REMARK UNBOUND:                -4.263
REMARK SMILES CCCCCCCCCCCCCCCCCCCCCCCCCCCC(=O)[O-]
REMARK SMILES IDX 15 1 16 2 17 3 18 4 19 5 20 6 21 7 22 8 23 9 24 10 25 11
REMARK SMILES IDX 26 12 27 13 28 14 29 15 30 16 14 17 13 18 12 19 11 20 10 21
REMARK SMILES IDX 9 22 8 23 7 24 6 25 5 26 4 27 3 28 2 29 1 30
REMARK H PARENT
REMARK Flexibility Score: inf
ROOT
ATOM      1  C   UNL     1      35.036  32.136  15.220  1.00  0.00     0.000 C 
ENDROOT
BRANCH   1   2
ATOM      2  C   UNL     1      34.263  31.064  16.016  1.00  0.00     0.000 C 
BRANCH   2   3
ATOM      3  C   UNL     1      33.968  31.417  17.485  1.00  0.00     0.000 C 
BRANCH   3   4
ATOM      4  C   UNL     1      35.043  32.322  18.112  1.00  0.00     0.000 C 
BRANCH   4   5
ATOM      5  C   UNL     1      35.188  32.113  19.631  1.00  0.00     0.000 C 
BRANCH   5   6
ATOM      6  C   UNL     1      33.866  32.076  20.421  1.00  0.00     0.000 C 
BRANCH   6   7
ATOM      7  C   UNL     1      33.848  33.062  21.600  1.00  0.00     0.000 C 
BRANCH   7   8
ATOM      8  C   UNL     1      32.644  32.845  22.533  1.00  0.00     0.000 C 
BRANCH   8   9
ATOM      9  C   UNL     1      32.007  34.165  22.996  1.00  0.00     0.000 C 
BRANCH   9  10
ATOM     10  C   UNL     1      30.582  33.931  23.512  1.00  0.00     0.000 C 
BRANCH  10  11
ATOM     11  C   UNL     1      29.876  35.260  23.812  1.00  0.00     0.000 C 
BRANCH  11  12
ATOM     12  C   UNL     1      28.365  35.047  23.988  1.00  0.00     0.006 C 
BRANCH  12  13
ATOM     13  C   UNL     1      27.601  36.373  24.100  1.00  0.00     0.053 C 
BRANCH  13  14
ATOM     14  C   UNL     1      27.442  36.810  25.526  1.00  0.00     0.041 C 
ATOM     15  O   UNL     1      27.616  35.987  26.464  1.00  0.00    -0.550 OA
ATOM     16  O   UNL     1      27.103  38.124  25.819  1.00  0.00    -0.550 OA
ENDBRANCH  13  14
ENDBRANCH  12  13
ENDBRANCH  11  12
ENDBRANCH  10  11
ENDBRANCH   9  10
ENDBRANCH   8   9
ENDBRANCH   7   8
ENDBRANCH   6   7
ENDBRANCH   5   6
ENDBRANCH   4   5
ENDBRANCH   3   4
ENDBRANCH   2   3
ENDBRANCH   1   2
BRANCH   1  17
ATOM     17  C   UNL     1      34.272  32.757  14.037  1.00  0.00     0.000 C 
BRANCH  17  18
ATOM     18  C   UNL     1      32.779  32.962  14.333  1.00  0.00     0.000 C 
BRANCH  18  19
ATOM     19  C   UNL     1      32.482  34.432  14.653  1.00  0.00     0.000 C 
BRANCH  19  20
ATOM     20  C   UNL     1      32.462  34.671  16.170  1.00  0.00     0.000 C 
BRANCH  20  21
ATOM     21  C   UNL     1      33.738  35.366  16.674  1.00  0.00     0.000 C 
BRANCH  21  22
ATOM     22  C   UNL     1      33.704  35.640  18.189  1.00  0.00    -0.000 C 
BRANCH  22  23
ATOM     23  C   UNL     1      32.453  35.058  18.865  1.00  0.00    -0.000 C 
BRANCH  23  24
ATOM     24  C   UNL     1      31.745  36.075  19.772  1.00  0.00    -0.000 C 
BRANCH  24  25
ATOM     25  C   UNL     1      30.389  35.533  20.249  1.00  0.00    -0.000 C 
BRANCH  25  26
ATOM     26  C   UNL     1      30.092  34.122  19.714  1.00  0.00    -0.000 C 
BRANCH  26  27
ATOM     27  C   UNL     1      28.940  33.387  20.425  1.00  0.00    -0.000 C 
BRANCH  27  28
ATOM     28  C   UNL     1      27.575  34.094  20.291  1.00  0.00    -0.000 C 
BRANCH  28  29
ATOM     29  C   UNL     1      26.398  33.107  20.333  1.00  0.00    -0.003 C 
ATOM     30  C   UNL     1      25.318  33.498  19.327  1.00  0.00     0.004 C 
ENDBRANCH  28  29
ENDBRANCH  27  28
ENDBRANCH  26  27
ENDBRANCH  25  26
ENDBRANCH  24  25
ENDBRANCH  23  24
ENDBRANCH  22  23
ENDBRANCH  21  22
ENDBRANCH  20  21
ENDBRANCH  19  20
ENDBRANCH  18  19
ENDBRANCH  17  18
ENDBRANCH   1  17
TORSDOF 26
ENDMDL
MODEL 2
REMARK VINA RESULT:    -3.961      3.967      8.248
REMARK INTER + INTRA:         -14.244
REMARK INTER:                  -9.002
REMARK INTRA:                  -5.243
REMARK UNBOUND:                -4.263
REMARK SMILES CCCCCCCCCCCCCCCCCCCCCCCCCCCC(=O)[O-]
REMARK SMILES IDX 15 1 16 2 17 3 18 4 19 5 20 6 21 7 22 8 23 9 24 10 25 11
REMARK SMILES IDX 26 12 27 13 28 14 29 15 30 16 14 17 13 18 12 19 11 20 10 21
REMARK SMILES IDX 9 22 8 23 7 24 6 25 5 26 4 27 3 28 2 29 1 30
REMARK H PARENT
REMARK Flexibility Score: inf
ROOT
ATOM      1  C   UNL     1      30.205  33.546  19.709  1.00  0.00     0.000 C 
ENDROOT
BRANCH   1   2
ATOM      2  C   UNL     1      30.948  34.898  19.720  1.00  0.00     0.000 C 
BRANCH   2   3
ATOM      3  C   UNL     1      30.270  36.018  20.530  1.00  0.00     0.000 C 
BRANCH   3   4
ATOM      4  C   UNL     1      31.048  36.392  21.804  1.00  0.00     0.000 C 
BRANCH   4   5
ATOM      5  C   UNL     1      32.245  35.459  22.068  1.00  0.00     0.000 C 
BRANCH   5   6
ATOM      6  C   UNL     1      32.009  34.371  23.131  1.00  0.00     0.000 C 
BRANCH   6   7
ATOM      7  C   UNL     1      32.392  32.964  22.642  1.00  0.00     0.000 C 
BRANCH   7   8
ATOM      8  C   UNL     1      33.797  32.919  22.015  1.00  0.00     0.000 C 
BRANCH   8   9
ATOM      9  C   UNL     1      33.767  32.576  20.517  1.00  0.00     0.000 C 
BRANCH   9  10
ATOM     10  C   UNL     1      34.871  33.326  19.763  1.00  0.00     0.000 C 
BRANCH  10  11
ATOM     11  C   UNL     1      34.330  33.964  18.478  1.00  0.00     0.000 C 
BRANCH  11  12
ATOM     12  C   UNL     1      33.381  33.001  17.748  1.00  0.00     0.006 C 
BRANCH  12  13
ATOM     13  C   UNL     1      32.693  33.662  16.546  1.00  0.00     0.053 C 
BRANCH  13  14
ATOM     14  C   UNL     1      33.070  33.001  15.253  1.00  0.00     0.041 C 
ATOM     15  O   UNL     1      33.880  32.036  15.247  1.00  0.00    -0.550 OA
ATOM     16  O   UNL     1      32.529  33.451  14.056  1.00  0.00    -0.550 OA
ENDBRANCH  13  14
ENDBRANCH  12  13
ENDBRANCH  11  12
ENDBRANCH  10  11
ENDBRANCH   9  10
ENDBRANCH   8   9
ENDBRANCH   7   8
ENDBRANCH   6   7
ENDBRANCH   5   6
ENDBRANCH   4   5
ENDBRANCH   3   4
ENDBRANCH   2   3
ENDBRANCH   1   2
BRANCH   1  17
ATOM     17  C   UNL     1      28.906  33.503  20.534  1.00  0.00     0.000 C 
BRANCH  17  18
ATOM     18  C   UNL     1      28.894  32.369  21.569  1.00  0.00     0.000 C 
BRANCH  18  19
ATOM     19  C   UNL     1      28.605  32.912  22.974  1.00  0.00     0.000 C 
BRANCH  19  20
ATOM     20  C   UNL     1      28.172  34.385  22.915  1.00  0.00     0.000 C 
BRANCH  20  21
ATOM     21  C   UNL     1      28.446  35.134  24.230  1.00  0.00     0.000 C 
BRANCH  21  22
ATOM     22  C   UNL     1      27.938  36.586  24.201  1.00  0.00    -0.000 C 
BRANCH  22  23
ATOM     23  C   UNL     1      27.702  37.157  25.608  1.00  0.00    -0.000 C 
BRANCH  23  24
ATOM     24  C   UNL     1      27.842  36.094  26.708  1.00  0.00    -0.000 C 
BRANCH  24  25
ATOM     25  C   UNL     1      28.182  36.745  28.058  1.00  0.00    -0.000 C 
BRANCH  25  26
ATOM     26  C   UNL     1      29.537  37.472  28.042  1.00  0.00    -0.000 C 
BRANCH  26  27
ATOM     27  C   UNL     1      30.758  36.574  28.320  1.00  0.00    -0.000 C 
BRANCH  27  28
ATOM     28  C   UNL     1      31.906  36.755  27.304  1.00  0.00    -0.000 C 
BRANCH  28  29
ATOM     29  C   UNL     1      31.414  36.706  25.850  1.00  0.00    -0.003 C 
ATOM     30  C   UNL     1      31.759  37.997  25.111  1.00  0.00     0.004 C 
ENDBRANCH  28  29
ENDBRANCH  27  28
ENDBRANCH  26  27
ENDBRANCH  25  26
ENDBRANCH  24  25
ENDBRANCH  23  24
ENDBRANCH  22  23
ENDBRANCH  21  22
ENDBRANCH  20  21
ENDBRANCH  19  20
ENDBRANCH  18  19
ENDBRANCH  17  18
ENDBRANCH   1  17
TORSDOF 26
ENDMDL
MODEL 3
REMARK VINA RESULT:    -3.948      3.341      7.557
REMARK INTER + INTRA:         -14.213
REMARK INTER:                  -8.857
REMARK INTRA:                  -5.356
REMARK UNBOUND:                -4.263
REMARK SMILES CCCCCCCCCCCCCCCCCCCCCCCCCCCC(=O)[O-]
REMARK SMILES IDX 15 1 16 2 17 3 18 4 19 5 20 6 21 7 22 8 23 9 24 10 25 11
REMARK SMILES IDX 26 12 27 13 28 14 29 15 30 16 14 17 13 18 12 19 11 20 10 21
REMARK SMILES IDX 9 22 8 23 7 24 6 25 5 26 4 27 3 28 2 29 1 30
REMARK H PARENT
REMARK Flexibility Score: inf
ROOT
ATOM      1  C   UNL     1      28.271  33.341  22.263  1.00  0.00     0.000 C 
ENDROOT
BRANCH   1   2
ATOM      2  C   UNL     1      29.194  32.348  23.000  1.00  0.00     0.000 C 
BRANCH   2   3
ATOM      3  C   UNL     1      30.691  32.709  22.995  1.00  0.00     0.000 C 
BRANCH   3   4
ATOM      4  C   UNL     1      30.953  34.187  23.332  1.00  0.00     0.000 C 
BRANCH   4   5
ATOM      5  C   UNL     1      32.343  34.667  22.873  1.00  0.00     0.000 C 
BRANCH   5   6
ATOM      6  C   UNL     1      32.344  35.634  21.675  1.00  0.00     0.000 C 
BRANCH   6   7
ATOM      7  C   UNL     1      31.005  35.649  20.919  1.00  0.00     0.000 C 
BRANCH   7   8
ATOM      8  C   UNL     1      31.141  35.158  19.467  1.00  0.00     0.000 C 
BRANCH   8   9
ATOM      9  C   UNL     1      31.352  33.639  19.371  1.00  0.00     0.000 C 
BRANCH   9  10
ATOM     10  C   UNL     1      32.521  33.307  18.437  1.00  0.00     0.000 C 
BRANCH  10  11
ATOM     11  C   UNL     1      33.329  32.114  18.961  1.00  0.00     0.000 C 
BRANCH  11  12
ATOM     12  C   UNL     1      33.921  32.421  20.345  1.00  0.00     0.006 C 
BRANCH  12  13
ATOM     13  C   UNL     1      35.075  33.430  20.273  1.00  0.00     0.053 C 
BRANCH  13  14
ATOM     14  C   UNL     1      36.005  33.301  21.442  1.00  0.00     0.041 C 
ATOM     15  O   UNL     1      35.560  33.378  22.618  1.00  0.00    -0.550 OA
ATOM     16  O   UNL     1      37.363  33.096  21.233  1.00  0.00    -0.550 OA
ENDBRANCH  13  14
ENDBRANCH  12  13
ENDBRANCH  11  12
ENDBRANCH  10  11
ENDBRANCH   9  10
ENDBRANCH   8   9
ENDBRANCH   7   8
ENDBRANCH   6   7
ENDBRANCH   5   6
ENDBRANCH   4   5
ENDBRANCH   3   4
ENDBRANCH   2   3
ENDBRANCH   1   2
BRANCH   1  17
ATOM     17  C   UNL     1      28.152  33.125  20.744  1.00  0.00     0.000 C 
BRANCH  17  18
ATOM     18  C   UNL     1      27.471  34.298  20.025  1.00  0.00     0.000 C 
BRANCH  18  19
ATOM     19  C   UNL     1      26.975  35.344  21.031  1.00  0.00     0.000 C 
BRANCH  19  20
ATOM     20  C   UNL     1      27.603  36.717  20.751  1.00  0.00     0.000 C 
BRANCH  20  21
ATOM     21  C   UNL     1      27.545  37.653  21.970  1.00  0.00     0.000 C 
BRANCH  21  22
ATOM     22  C   UNL     1      27.337  36.891  23.291  1.00  0.00    -0.000 C 
BRANCH  22  23
ATOM     23  C   UNL     1      28.658  36.613  24.025  1.00  0.00    -0.000 C 
BRANCH  23  24
ATOM     24  C   UNL     1      29.714  37.700  23.774  1.00  0.00    -0.000 C 
BRANCH  24  25
ATOM     25  C   UNL     1      30.578  37.923  25.025  1.00  0.00    -0.000 C 
BRANCH  25  26
ATOM     26  C   UNL     1      30.749  36.646  25.864  1.00  0.00    -0.000 C 
BRANCH  26  27
ATOM     27  C   UNL     1      30.379  36.793  27.353  1.00  0.00    -0.000 C 
BRANCH  27  28
ATOM     28  C   UNL     1      28.987  36.228  27.706  1.00  0.00    -0.000 C 
BRANCH  28  29
ATOM     29  C   UNL     1      27.912  37.323  27.783  1.00  0.00    -0.003 C 
ATOM     30  C   UNL     1      26.591  36.837  27.191  1.00  0.00     0.004 C 
ENDBRANCH  28  29
ENDBRANCH  27  28
ENDBRANCH  26  27
ENDBRANCH  25  26
ENDBRANCH  24  25
ENDBRANCH  23  24
ENDBRANCH  22  23
ENDBRANCH  21  22
ENDBRANCH  20  21
ENDBRANCH  19  20
ENDBRANCH  18  19
ENDBRANCH  17  18
ENDBRANCH   1  17
TORSDOF 26
ENDMDL
MODEL 4
REMARK VINA RESULT:    -3.930      4.012      8.152
REMARK INTER + INTRA:         -14.166
REMARK INTER:                  -9.227
REMARK INTRA:                  -4.939
REMARK UNBOUND:                -4.263
REMARK SMILES CCCCCCCCCCCCCCCCCCCCCCCCCCCC(=O)[O-]
REMARK SMILES IDX 15 1 16 2 17 3 18 4 19 5 20 6 21 7 22 8 23 9 24 10 25 11
REMARK SMILES IDX 26 12 27 13 28 14 29 15 30 16 14 17 13 18 12 19 11 20 10 21
REMARK SMILES IDX 9 22 8 23 7 24 6 25 5 26 4 27 3 28 2 29 1 30
REMARK H PARENT
REMARK Flexibility Score: inf
ROOT
ATOM      1  C   UNL     1      31.362  36.806  21.383  1.00  0.00     0.000 C 
ENDROOT
BRANCH   1   2
ATOM      2  C   UNL     1      32.382  36.917  22.535  1.00  0.00     0.000 C 
BRANCH   2   3
ATOM      3  C   UNL     1      32.930  35.579  23.065  1.00  0.00     0.000 C 
BRANCH   3   4
ATOM      4  C   UNL     1      31.825  34.540  23.325  1.00  0.00     0.000 C 
BRANCH   4   5
ATOM      5  C   UNL     1      32.172  33.147  22.767  1.00  0.00     0.000 C 
BRANCH   5   6
ATOM      6  C   UNL     1      33.547  33.035  22.082  1.00  0.00     0.000 C 
BRANCH   6   7
ATOM      7  C   UNL     1      33.449  32.566  20.621  1.00  0.00     0.000 C 
BRANCH   7   8
ATOM      8  C   UNL     1      34.506  33.225  19.717  1.00  0.00     0.000 C 
BRANCH   8   9
ATOM      9  C   UNL     1      35.029  32.277  18.627  1.00  0.00     0.000 C 
BRANCH   9  10
ATOM     10  C   UNL     1      33.873  31.719  17.788  1.00  0.00     0.000 C 
BRANCH  10  11
ATOM     11  C   UNL     1      34.370  31.203  16.432  1.00  0.00     0.000 C 
BRANCH  11  12
ATOM     12  C   UNL     1      35.360  32.193  15.801  1.00  0.00     0.006 C 
BRANCH  12  13
ATOM     13  C   UNL     1      35.214  32.269  14.275  1.00  0.00     0.053 C 
BRANCH  13  14
ATOM     14  C   UNL     1      34.147  33.239  13.863  1.00  0.00     0.041 C 
ATOM     15  O   UNL     1      34.429  34.455  13.688  1.00  0.00    -0.550 OA
ATOM     16  O   UNL     1      32.843  32.802  13.671  1.00  0.00    -0.550 OA
ENDBRANCH  13  14
ENDBRANCH  12  13
ENDBRANCH  11  12
ENDBRANCH  10  11
ENDBRANCH   9  10
ENDBRANCH   8   9
ENDBRANCH   7   8
ENDBRANCH   6   7
ENDBRANCH   5   6
ENDBRANCH   4   5
ENDBRANCH   3   4
ENDBRANCH   2   3
ENDBRANCH   1   2
BRANCH   1  17
ATOM     17  C   UNL     1      31.961  36.489  20.002  1.00  0.00     0.000 C 
BRANCH  17  18
ATOM     18  C   UNL     1      31.350  35.237  19.358  1.00  0.00     0.000 C 
BRANCH  18  19
ATOM     19  C   UNL     1      30.092  34.792  20.112  1.00  0.00     0.000 C 
BRANCH  19  20
ATOM     20  C   UNL     1      29.823  33.295  19.897  1.00  0.00     0.000 C 
BRANCH  20  21
ATOM     21  C   UNL     1      28.619  32.789  20.710  1.00  0.00     0.000 C 
BRANCH  21  22
ATOM     22  C   UNL     1      28.091  33.840  21.703  1.00  0.00    -0.000 C 
BRANCH  22  23
ATOM     23  C   UNL     1      28.287  33.418  23.167  1.00  0.00    -0.000 C 
BRANCH  23  24
ATOM     24  C   UNL     1      28.428  34.619  24.114  1.00  0.00    -0.000 C 
BRANCH  24  25
ATOM     25  C   UNL     1      28.214  35.940  23.359  1.00  0.00    -0.000 C 
BRANCH  25  26
ATOM     26  C   UNL     1      28.158  37.158  24.296  1.00  0.00    -0.000 C 
BRANCH  26  27
ATOM     27  C   UNL     1      29.499  37.891  24.488  1.00  0.00    -0.000 C 
BRANCH  27  28
ATOM     28  C   UNL     1      29.999  37.900  25.948  1.00  0.00    -0.000 C 
BRANCH  28  29
ATOM     29  C   UNL     1      30.831  36.655  26.289  1.00  0.00    -0.003 C 
ATOM     30  C   UNL     1      32.310  37.005  26.434  1.00  0.00     0.004 C 
ENDBRANCH  28  29
ENDBRANCH  27  28
ENDBRANCH  26  27
ENDBRANCH  25  26
ENDBRANCH  24  25
ENDBRANCH  23  24
ENDBRANCH  22  23
ENDBRANCH  21  22
ENDBRANCH  20  21
ENDBRANCH  19  20
ENDBRANCH  18  19
ENDBRANCH  17  18
ENDBRANCH   1  17
TORSDOF 26
ENDMDL
MODEL 5
REMARK VINA RESULT:    -3.921      4.084      7.808
REMARK INTER + INTRA:         -14.144
REMARK INTER:                  -8.516
REMARK INTRA:                  -5.628
REMARK UNBOUND:                -4.263
REMARK SMILES CCCCCCCCCCCCCCCCCCCCCCCCCCCC(=O)[O-]
REMARK SMILES IDX 15 1 16 2 17 3 18 4 19 5 20 6 21 7 22 8 23 9 24 10 25 11
REMARK SMILES IDX 26 12 27 13 28 14 29 15 30 16 14 17 13 18 12 19 11 20 10 21
REMARK SMILES IDX 9 22 8 23 7 24 6 25 5 26 4 27 3 28 2 29 1 30
REMARK H PARENT
REMARK Flexibility Score: inf
ROOT
ATOM      1  C   UNL     1      32.841  35.717  21.657  1.00  0.00     0.000 C 
ENDROOT
BRANCH   1   2
ATOM      2  C   UNL     1      31.912  35.414  20.462  1.00  0.00     0.000 C 
BRANCH   2   3
ATOM      3  C   UNL     1      32.508  35.704  19.072  1.00  0.00     0.000 C 
BRANCH   3   4
ATOM      4  C   UNL     1      32.410  34.503  18.115  1.00  0.00     0.000 C 
BRANCH   4   5
ATOM      5  C   UNL     1      32.145  33.176  18.848  1.00  0.00     0.000 C 
BRANCH   5   6
ATOM      6  C   UNL     1      33.318  32.178  18.849  1.00  0.00     0.000 C 
BRANCH   6   7
ATOM      7  C   UNL     1      33.952  32.003  20.239  1.00  0.00     0.000 C 
BRANCH   7   8
ATOM      8  C   UNL     1      35.007  33.080  20.546  1.00  0.00     0.000 C 
BRANCH   8   9
ATOM      9  C   UNL     1      36.007  33.276  19.396  1.00  0.00     0.000 C 
BRANCH   9  10
ATOM     10  C   UNL     1      36.066  34.748  18.970  1.00  0.00     0.000 C 
BRANCH  10  11
ATOM     11  C   UNL     1      36.032  34.885  17.443  1.00  0.00     0.000 C 
BRANCH  11  12
ATOM     12  C   UNL     1      36.212  33.516  16.768  1.00  0.00     0.006 C 
BRANCH  12  13
ATOM     13  C   UNL     1      35.082  33.202  15.779  1.00  0.00     0.053 C 
BRANCH  13  14
ATOM     14  C   UNL     1      35.194  31.813  15.225  1.00  0.00     0.041 C 
ATOM     15  O   UNL     1      36.036  31.555  14.324  1.00  0.00    -0.550 OA
ATOM     16  O   UNL     1      34.369  30.803  15.702  1.00  0.00    -0.550 OA
ENDBRANCH  13  14
ENDBRANCH  12  13
ENDBRANCH  11  12
ENDBRANCH  10  11
ENDBRANCH   9  10
ENDBRANCH   8   9
ENDBRANCH   7   8
ENDBRANCH   6   7
ENDBRANCH   5   6
ENDBRANCH   4   5
ENDBRANCH   3   4
ENDBRANCH   2   3
ENDBRANCH   1   2
BRANCH   1  17
ATOM     17  C   UNL     1      32.580  34.878  22.921  1.00  0.00     0.000 C 
BRANCH  17  18
ATOM     18  C   UNL     1      31.773  33.604  22.636  1.00  0.00     0.000 C 
BRANCH  18  19
ATOM     19  C   UNL     1      30.408  33.653  23.332  1.00  0.00     0.000 C 
BRANCH  19  20
ATOM     20  C   UNL     1      29.545  32.446  22.934  1.00  0.00     0.000 C 
BRANCH  20  21
ATOM     21  C   UNL     1      28.296  32.852  22.133  1.00  0.00     0.000 C 
BRANCH  21  22
ATOM     22  C   UNL     1      28.599  33.081  20.642  1.00  0.00    -0.000 C 
BRANCH  22  23
ATOM     23  C   UNL     1      28.420  34.549  20.222  1.00  0.00    -0.000 C 
BRANCH  23  24
ATOM     24  C   UNL     1      27.082  35.139  20.691  1.00  0.00    -0.000 C 
BRANCH  24  25
ATOM     25  C   UNL     1      27.308  36.380  21.568  1.00  0.00    -0.000 C 
BRANCH  25  26
ATOM     26  C   UNL     1      28.799  36.681  21.798  1.00  0.00    -0.000 C 
BRANCH  26  27
ATOM     27  C   UNL     1      29.088  37.720  22.898  1.00  0.00    -0.000 C 
BRANCH  27  28
ATOM     28  C   UNL     1      29.881  37.154  24.095  1.00  0.00    -0.000 C 
BRANCH  28  29
ATOM     29  C   UNL     1      29.010  36.991  25.350  1.00  0.00    -0.003 C 
ATOM     30  C   UNL     1      28.118  35.756  25.241  1.00  0.00     0.004 C 
ENDBRANCH  28  29
ENDBRANCH  27  28
ENDBRANCH  26  27
ENDBRANCH  25  26
ENDBRANCH  24  25
ENDBRANCH  23  24
ENDBRANCH  22  23
ENDBRANCH  21  22
ENDBRANCH  20  21
ENDBRANCH  19  20
ENDBRANCH  18  19
ENDBRANCH  17  18
ENDBRANCH   1  17
TORSDOF 26
ENDMDL
MODEL 6
REMARK VINA RESULT:    -3.888      3.860      7.200
REMARK INTER + INTRA:         -14.061
REMARK INTER:                  -8.364
REMARK INTRA:                  -5.698
REMARK UNBOUND:                -4.263
REMARK SMILES CCCCCCCCCCCCCCCCCCCCCCCCCCCC(=O)[O-]
REMARK SMILES IDX 15 1 16 2 17 3 18 4 19 5 20 6 21 7 22 8 23 9 24 10 25 11
REMARK SMILES IDX 26 12 27 13 28 14 29 15 30 16 14 17 13 18 12 19 11 20 10 21
REMARK SMILES IDX 9 22 8 23 7 24 6 25 5 26 4 27 3 28 2 29 1 30
REMARK H PARENT
REMARK Flexibility Score: inf
ROOT
ATOM      1  C   UNL     1      32.085  35.999  19.279  1.00  0.00     0.000 C 
ENDROOT
BRANCH   1   2
ATOM      2  C   UNL     1      32.386  35.271  17.953  1.00  0.00     0.000 C 
BRANCH   2   3
ATOM      3  C   UNL     1      31.761  33.870  17.811  1.00  0.00     0.000 C 
BRANCH   3   4
ATOM      4  C   UNL     1      31.944  33.002  19.068  1.00  0.00     0.000 C 
BRANCH   4   5
ATOM      5  C   UNL     1      33.254  32.193  19.049  1.00  0.00     0.000 C 
BRANCH   5   6
ATOM      6  C   UNL     1      33.930  32.002  20.419  1.00  0.00     0.000 C 
BRANCH   6   7
ATOM      7  C   UNL     1      35.111  32.961  20.641  1.00  0.00     0.000 C 
BRANCH   7   8
ATOM      8  C   UNL     1      36.458  32.348  20.221  1.00  0.00     0.000 C 
BRANCH   8   9
ATOM      9  C   UNL     1      37.075  33.051  19.001  1.00  0.00     0.000 C 
BRANCH   9  10
ATOM     10  C   UNL     1      36.523  34.473  18.853  1.00  0.00     0.000 C 
BRANCH  10  11
ATOM     11  C   UNL     1      36.023  34.728  17.426  1.00  0.00     0.000 C 
BRANCH  11  12
ATOM     12  C   UNL     1      35.534  33.424  16.778  1.00  0.00     0.006 C 
BRANCH  12  13
ATOM     13  C   UNL     1      34.787  33.673  15.461  1.00  0.00     0.053 C 
BRANCH  13  14
ATOM     14  C   UNL     1      33.900  32.521  15.093  1.00  0.00     0.041 C 
ATOM     15  O   UNL     1      34.163  31.361  15.509  1.00  0.00    -0.550 OA
ATOM     16  O   UNL     1      32.785  32.728  14.294  1.00  0.00    -0.550 OA
ENDBRANCH  13  14
ENDBRANCH  12  13
ENDBRANCH  11  12
ENDBRANCH  10  11
ENDBRANCH   9  10
ENDBRANCH   8   9
ENDBRANCH   7   8
ENDBRANCH   6   7
ENDBRANCH   5   6
ENDBRANCH   4   5
ENDBRANCH   3   4
ENDBRANCH   2   3
ENDBRANCH   1   2
BRANCH   1  17
ATOM     17  C   UNL     1      33.313  36.306  20.154  1.00  0.00     0.000 C 
BRANCH  17  18
ATOM     18  C   UNL     1      33.205  35.707  21.564  1.00  0.00     0.000 C 
BRANCH  18  19
ATOM     19  C   UNL     1      31.811  35.948  22.157  1.00  0.00     0.000 C 
BRANCH  19  20
ATOM     20  C   UNL     1      31.499  34.926  23.259  1.00  0.00     0.000 C 
BRANCH  20  21
ATOM     21  C   UNL     1      31.300  33.504  22.707  1.00  0.00     0.000 C 
BRANCH  21  22
ATOM     22  C   UNL     1      29.914  32.926  23.046  1.00  0.00    -0.000 C 
BRANCH  22  23
ATOM     23  C   UNL     1      29.210  32.326  21.819  1.00  0.00    -0.000 C 
BRANCH  23  24
ATOM     24  C   UNL     1      28.063  33.208  21.305  1.00  0.00    -0.000 C 
BRANCH  24  25
ATOM     25  C   UNL     1      28.564  34.188  20.233  1.00  0.00    -0.000 C 
BRANCH  25  26
ATOM     26  C   UNL     1      28.636  35.638  20.740  1.00  0.00    -0.000 C 
BRANCH  26  27
ATOM     27  C   UNL     1      27.641  35.981  21.866  1.00  0.00    -0.000 C 
BRANCH  27  28
ATOM     28  C   UNL     1      28.197  36.978  22.904  1.00  0.00    -0.000 C 
BRANCH  28  29
ATOM     29  C   UNL     1      27.607  36.755  24.305  1.00  0.00    -0.003 C 
ATOM     30  C   UNL     1      28.247  35.546  24.983  1.00  0.00     0.004 C 
ENDBRANCH  28  29
ENDBRANCH  27  28
ENDBRANCH  26  27
ENDBRANCH  25  26
ENDBRANCH  24  25
ENDBRANCH  23  24
ENDBRANCH  22  23
ENDBRANCH  21  22
ENDBRANCH  20  21
ENDBRANCH  19  20
ENDBRANCH  18  19
ENDBRANCH  17  18
ENDBRANCH   1  17
TORSDOF 26
ENDMDL
MODEL 7
REMARK VINA RESULT:    -3.883      3.241      5.986
REMARK INTER + INTRA:         -14.047
REMARK INTER:                  -9.678
REMARK INTRA:                  -4.369
REMARK UNBOUND:                -4.263
REMARK SMILES CCCCCCCCCCCCCCCCCCCCCCCCCCCC(=O)[O-]
REMARK SMILES IDX 15 1 16 2 17 3 18 4 19 5 20 6 21 7 22 8 23 9 24 10 25 11
REMARK SMILES IDX 26 12 27 13 28 14 29 15 30 16 14 17 13 18 12 19 11 20 10 21
REMARK SMILES IDX 9 22 8 23 7 24 6 25 5 26 4 27 3 28 2 29 1 30
REMARK H PARENT
REMARK Flexibility Score: inf
ROOT
ATOM      1  C   UNL     1      30.916  35.562  19.815  1.00  0.00     0.000 C 
ENDROOT
BRANCH   1   2
ATOM      2  C   UNL     1      31.642  36.845  20.270  1.00  0.00     0.000 C 
BRANCH   2   3
ATOM      3  C   UNL     1      31.100  37.489  21.559  1.00  0.00     0.000 C 
BRANCH   3   4
ATOM      4  C   UNL     1      29.610  37.189  21.799  1.00  0.00     0.000 C 
BRANCH   4   5
ATOM      5  C   UNL     1      29.238  37.169  23.293  1.00  0.00     0.000 C 
BRANCH   5   6
ATOM      6  C   UNL     1      27.876  36.530  23.624  1.00  0.00     0.000 C 
BRANCH   6   7
ATOM      7  C   UNL     1      27.862  35.830  24.993  1.00  0.00     0.000 C 
BRANCH   7   8
ATOM      8  C   UNL     1      29.003  36.304  25.911  1.00  0.00     0.000 C 
BRANCH   8   9
ATOM      9  C   UNL     1      28.676  36.132  27.402  1.00  0.00     0.000 C 
BRANCH   9  10
ATOM     10  C   UNL     1      29.080  37.379  28.197  1.00  0.00     0.000 C 
BRANCH  10  11
ATOM     11  C   UNL     1      29.913  37.005  29.429  1.00  0.00     0.000 C 
BRANCH  11  12
ATOM     12  C   UNL     1      31.116  36.137  29.031  1.00  0.00     0.006 C 
BRANCH  12  13
ATOM     13  C   UNL     1      31.618  35.270  30.194  1.00  0.00     0.053 C 
BRANCH  13  14
ATOM     14  C   UNL     1      32.740  35.929  30.940  1.00  0.00     0.041 C 
ATOM     15  O   UNL     1      33.583  36.634  30.324  1.00  0.00    -0.550 OA
ATOM     16  O   UNL     1      32.854  35.765  32.314  1.00  0.00    -0.550 OA
ENDBRANCH  13  14
ENDBRANCH  12  13
ENDBRANCH  11  12
ENDBRANCH  10  11
ENDBRANCH   9  10
ENDBRANCH   8   9
ENDBRANCH   7   8
ENDBRANCH   6   7
ENDBRANCH   5   6
ENDBRANCH   4   5
ENDBRANCH   3   4
ENDBRANCH   2   3
ENDBRANCH   1   2
BRANCH   1  17
ATOM     17  C   UNL     1      31.685  34.695  18.802  1.00  0.00     0.000 C 
BRANCH  17  18
ATOM     18  C   UNL     1      31.638  33.198  19.139  1.00  0.00     0.000 C 
BRANCH  18  19
ATOM     19  C   UNL     1      33.052  32.629  19.303  1.00  0.00     0.000 C 
BRANCH  19  20
ATOM     20  C   UNL     1      33.807  33.346  20.431  1.00  0.00     0.000 C 
BRANCH  20  21
ATOM     21  C   UNL     1      33.259  32.994  21.825  1.00  0.00     0.000 C 
BRANCH  21  22
ATOM     22  C   UNL     1      32.979  34.241  22.682  1.00  0.00    -0.000 C 
BRANCH  22  23
ATOM     23  C   UNL     1      31.559  34.246  23.271  1.00  0.00    -0.000 C 
BRANCH  23  24
ATOM     24  C   UNL     1      30.724  33.043  22.809  1.00  0.00    -0.000 C 
BRANCH  24  25
ATOM     25  C   UNL     1      29.270  33.458  22.536  1.00  0.00    -0.000 C 
BRANCH  25  26
ATOM     26  C   UNL     1      28.623  32.643  21.404  1.00  0.00    -0.000 C 
BRANCH  26  27
ATOM     27  C   UNL     1      28.110  33.478  20.215  1.00  0.00    -0.000 C 
BRANCH  27  28
ATOM     28  C   UNL     1      26.788  34.221  20.501  1.00  0.00    -0.000 C 
BRANCH  28  29
ATOM     29  C   UNL     1      25.672  33.828  19.521  1.00  0.00    -0.003 C 
ATOM     30  C   UNL     1      24.940  32.575  19.998  1.00  0.00     0.004 C 
ENDBRANCH  28  29
ENDBRANCH  27  28
ENDBRANCH  26  27
ENDBRANCH  25  26
ENDBRANCH  24  25
ENDBRANCH  23  24
ENDBRANCH  22  23
ENDBRANCH  21  22
ENDBRANCH  20  21
ENDBRANCH  19  20
ENDBRANCH  18  19
ENDBRANCH  17  18
ENDBRANCH   1  17
TORSDOF 26
ENDMDL
MODEL 8
REMARK VINA RESULT:    -3.881      3.814      7.832
REMARK INTER + INTRA:         -14.043
REMARK INTER:                  -8.622
REMARK INTRA:                  -5.421
REMARK UNBOUND:                -4.263
REMARK SMILES CCCCCCCCCCCCCCCCCCCCCCCCCCCC(=O)[O-]
REMARK SMILES IDX 15 1 16 2 17 3 18 4 19 5 20 6 21 7 22 8 23 9 24 10 25 11
REMARK SMILES IDX 26 12 27 13 28 14 29 15 30 16 14 17 13 18 12 19 11 20 10 21
REMARK SMILES IDX 9 22 8 23 7 24 6 25 5 26 4 27 3 28 2 29 1 30
REMARK H PARENT
REMARK Flexibility Score: inf
ROOT
ATOM      1  C   UNL     1      28.481  33.255  22.595  1.00  0.00     0.000 C 
ENDROOT
BRANCH   1   2
ATOM      2  C   UNL     1      29.818  33.728  23.203  1.00  0.00     0.000 C 
BRANCH   2   3
ATOM      3  C   UNL     1      31.017  32.789  22.974  1.00  0.00     0.000 C 
BRANCH   3   4
ATOM      4  C   UNL     1      32.321  33.546  22.669  1.00  0.00     0.000 C 
BRANCH   4   5
ATOM      5  C   UNL     1      32.374  34.934  23.333  1.00  0.00     0.000 C 
BRANCH   5   6
ATOM      6  C   UNL     1      32.716  36.103  22.390  1.00  0.00     0.000 C 
BRANCH   6   7
ATOM      7  C   UNL     1      31.488  36.954  22.025  1.00  0.00     0.000 C 
BRANCH   7   8
ATOM      8  C   UNL     1      31.180  36.931  20.518  1.00  0.00     0.000 C 
BRANCH   8   9
ATOM      9  C   UNL     1      30.637  35.574  20.044  1.00  0.00     0.000 C 
BRANCH   9  10
ATOM     10  C   UNL     1      31.589  34.929  19.030  1.00  0.00     0.000 C 
BRANCH  10  11
ATOM     11  C   UNL     1      31.418  33.405  19.000  1.00  0.00     0.000 C 
BRANCH  11  12
ATOM     12  C   UNL     1      32.782  32.701  19.066  1.00  0.00     0.006 C 
BRANCH  12  13
ATOM     13  C   UNL     1      33.935  33.688  19.291  1.00  0.00     0.053 C 
BRANCH  13  14
ATOM     14  C   UNL     1      34.965  33.603  18.204  1.00  0.00     0.041 C 
ATOM     15  O   UNL     1      35.794  32.654  18.189  1.00  0.00    -0.550 OA
ATOM     16  O   UNL     1      35.009  34.570  17.209  1.00  0.00    -0.550 OA
ENDBRANCH  13  14
ENDBRANCH  12  13
ENDBRANCH  11  12
ENDBRANCH  10  11
ENDBRANCH   9  10
ENDBRANCH   8   9
ENDBRANCH   7   8
ENDBRANCH   6   7
ENDBRANCH   5   6
ENDBRANCH   4   5
ENDBRANCH   3   4
ENDBRANCH   2   3
ENDBRANCH   1   2
BRANCH   1  17
ATOM     17  C   UNL     1      28.578  32.649  21.184  1.00  0.00     0.000 C 
BRANCH  17  18
ATOM     18  C   UNL     1      27.783  33.441  20.137  1.00  0.00     0.000 C 
BRANCH  18  19
ATOM     19  C   UNL     1      26.889  34.492  20.807  1.00  0.00     0.000 C 
BRANCH  19  20
ATOM     20  C   UNL     1      26.885  35.801  20.005  1.00  0.00     0.000 C 
BRANCH  20  21
ATOM     21  C   UNL     1      27.172  37.032  20.883  1.00  0.00     0.000 C 
BRANCH  21  22
ATOM     22  C   UNL     1      27.837  36.662  22.221  1.00  0.00    -0.000 C 
BRANCH  22  23
ATOM     23  C   UNL     1      27.067  37.209  23.433  1.00  0.00    -0.000 C 
BRANCH  23  24
ATOM     24  C   UNL     1      27.645  36.721  24.769  1.00  0.00    -0.000 C 
BRANCH  24  25
ATOM     25  C   UNL     1      29.035  37.326  25.018  1.00  0.00    -0.000 C 
BRANCH  25  26
ATOM     26  C   UNL     1      29.978  36.362  25.758  1.00  0.00    -0.000 C 
BRANCH  26  27
ATOM     27  C   UNL     1      31.183  37.033  26.445  1.00  0.00    -0.000 C 
BRANCH  27  28
ATOM     28  C   UNL     1      31.474  36.489  27.860  1.00  0.00    -0.000 C 
BRANCH  28  29
ATOM     29  C   UNL     1      30.191  36.211  28.656  1.00  0.00    -0.003 C 
ATOM     30  C   UNL     1      29.609  37.502  29.226  1.00  0.00     0.004 C 
ENDBRANCH  28  29
ENDBRANCH  27  28
ENDBRANCH  26  27
ENDBRANCH  25  26
ENDBRANCH  24  25
ENDBRANCH  23  24
ENDBRANCH  22  23
ENDBRANCH  21  22
ENDBRANCH  20  21
ENDBRANCH  19  20
ENDBRANCH  18  19
ENDBRANCH  17  18
ENDBRANCH   1  17
TORSDOF 26
ENDMDL
MODEL 9
REMARK VINA RESULT:    -3.824      4.503      9.193
REMARK INTER + INTRA:         -13.901
REMARK INTER:                  -8.845
REMARK INTRA:                  -5.056
REMARK UNBOUND:                -4.263
REMARK SMILES CCCCCCCCCCCCCCCCCCCCCCCCCCCC(=O)[O-]
REMARK SMILES IDX 15 1 16 2 17 3 18 4 19 5 20 6 21 7 22 8 23 9 24 10 25 11
REMARK SMILES IDX 26 12 27 13 28 14 29 15 30 16 14 17 13 18 12 19 11 20 10 21
REMARK SMILES IDX 9 22 8 23 7 24 6 25 5 26 4 27 3 28 2 29 1 30
REMARK H PARENT
REMARK Flexibility Score: inf
ROOT
ATOM      1  C   UNL     1      29.386  34.568  23.649  1.00  0.00     0.000 C 
ENDROOT
BRANCH   1   2
ATOM      2  C   UNL     1      28.573  33.333  23.207  1.00  0.00     0.000 C 
BRANCH   2   3
ATOM      3  C   UNL     1      27.905  33.442  21.824  1.00  0.00     0.000 C 
BRANCH   3   4
ATOM      4  C   UNL     1      28.416  34.639  21.003  1.00  0.00     0.000 C 
BRANCH   4   5
ATOM      5  C   UNL     1      29.505  34.246  19.988  1.00  0.00     0.000 C 
BRANCH   5   6
ATOM      6  C   UNL     1      30.743  35.160  19.962  1.00  0.00     0.000 C 
BRANCH   6   7
ATOM      7  C   UNL     1      31.899  34.578  19.131  1.00  0.00     0.000 C 
BRANCH   7   8
ATOM      8  C   UNL     1      31.768  33.059  18.921  1.00  0.00     0.000 C 
BRANCH   8   9
ATOM      9  C   UNL     1      33.130  32.355  18.814  1.00  0.00     0.000 C 
BRANCH   9  10
ATOM     10  C   UNL     1      34.250  33.370  18.557  1.00  0.00     0.000 C 
BRANCH  10  11
ATOM     11  C   UNL     1      34.903  33.140  17.188  1.00  0.00     0.000 C 
BRANCH  11  12
ATOM     12  C   UNL     1      34.491  31.778  16.609  1.00  0.00     0.006 C 
BRANCH  12  13
ATOM     13  C   UNL     1      33.978  31.891  15.167  1.00  0.00     0.053 C 
BRANCH  13  14
ATOM     14  C   UNL     1      35.033  32.410  14.237  1.00  0.00     0.041 C 
ATOM     15  O   UNL     1      34.836  33.467  13.580  1.00  0.00    -0.550 OA
ATOM     16  O   UNL     1      36.234  31.728  14.095  1.00  0.00    -0.550 OA
ENDBRANCH  13  14
ENDBRANCH  12  13
ENDBRANCH  11  12
ENDBRANCH  10  11
ENDBRANCH   9  10
ENDBRANCH   8   9
ENDBRANCH   7   8
ENDBRANCH   6   7
ENDBRANCH   5   6
ENDBRANCH   4   5
ENDBRANCH   3   4
ENDBRANCH   2   3
ENDBRANCH   1   2
BRANCH   1  17
ATOM     17  C   UNL     1      30.915  34.414  23.563  1.00  0.00     0.000 C 
BRANCH  17  18
ATOM     18  C   UNL     1      31.347  33.060  22.982  1.00  0.00     0.000 C 
BRANCH  18  19
ATOM     19  C   UNL     1      32.801  33.110  22.497  1.00  0.00     0.000 C 
BRANCH  19  20
ATOM     20  C   UNL     1      33.364  34.535  22.595  1.00  0.00     0.000 C 
BRANCH  20  21
ATOM     21  C   UNL     1      34.650  34.720  21.771  1.00  0.00     0.000 C 
BRANCH  21  22
ATOM     22  C   UNL     1      35.921  34.661  22.637  1.00  0.00    -0.000 C 
BRANCH  22  23
ATOM     23  C   UNL     1      37.046  33.849  21.977  1.00  0.00    -0.000 C 
BRANCH  23  24
ATOM     24  C   UNL     1      36.556  32.506  21.416  1.00  0.00    -0.000 C 
BRANCH  24  25
ATOM     25  C   UNL     1      37.196  32.216  20.050  1.00  0.00    -0.000 C 
BRANCH  25  26
ATOM     26  C   UNL     1      38.733  32.251  20.095  1.00  0.00    -0.000 C 
BRANCH  26  27
ATOM     27  C   UNL     1      39.386  33.294  19.167  1.00  0.00    -0.000 C 
BRANCH  27  28
ATOM     28  C   UNL     1      38.380  34.045  18.270  1.00  0.00    -0.000 C 
BRANCH  28  29
ATOM     29  C   UNL     1      38.315  35.545  18.591  1.00  0.00    -0.003 C 
ATOM     30  C   UNL     1      36.903  35.959  18.998  1.00  0.00     0.004 C 
ENDBRANCH  28  29
ENDBRANCH  27  28
ENDBRANCH  26  27
ENDBRANCH  25  26
ENDBRANCH  24  25
ENDBRANCH  23  24
ENDBRANCH  22  23
ENDBRANCH  21  22
ENDBRANCH  20  21
ENDBRANCH  19  20
ENDBRANCH  18  19
ENDBRANCH  17  18
ENDBRANCH   1  17
TORSDOF 26
ENDMDL
