MODEL 1
REMARK VINA RESULT:    -6.157      0.000      0.000
REMARK INTER + INTRA:          -7.554
REMARK INTER:                  -7.417
REMARK INTRA:                  -0.137
REMARK UNBOUND:                -0.137
REMARK SMILES O=c1c(O)c(-c2ccc(O)c(O)c2)oc2cc(O)cc(O)c12
REMARK SMILES IDX 5 1 3 2 2 3 1 4 22 5 20 6 19 7 17 8 16 9 15 10 14 11 6 12
REMARK SMILES IDX 7 13 8 14 9 15 13 16 11 17 10 18 12 20 4 22 21 24 18 26
REMARK H PARENT 10 19 12 21 4 23 21 25 18 27
REMARK Flexibility Score: inf
ROOT
ATOM      1  C   UNL     1      48.985 108.313  54.080  1.00  0.00     0.180 A 
ATOM      2  C   UNL     1      48.811 108.533  55.458  1.00  0.00     0.208 A 
ATOM      3  C   UNL     1      49.298 109.721  56.025  1.00  0.00     0.238 A 
ATOM      4  O   UNL     1      49.205 109.878  57.270  1.00  0.00    -0.285 OA
ATOM      5  C   UNL     1      49.902 110.700  55.199  1.00  0.00     0.111 A 
ATOM      6  C   UNL     1      50.391 111.962  55.659  1.00  0.00     0.134 A 
ATOM      7  C   UNL     1      51.066 112.806  54.769  1.00  0.00     0.093 A 
ATOM      8  C   UNL     1      51.214 112.465  53.423  1.00  0.00     0.123 A 
ATOM      9  C   UNL     1      50.693 111.262  52.953  1.00  0.00     0.094 A 
ATOM     10  C   UNL     1      50.048 110.380  53.824  1.00  0.00     0.146 A 
ATOM     11  O   UNL     1      49.586 109.235  53.338  1.00  0.00    -0.452 OA
ENDROOT
BRANCH   1  12
ATOM     12  C   UNL     1      48.512 107.079  53.414  1.00  0.00     0.025 A 
ATOM     13  C   UNL     1      47.149 106.734  53.392  1.00  0.00     0.016 A 
ATOM     14  C   UNL     1      46.730 105.551  52.778  1.00  0.00     0.051 A 
ATOM     15  C   UNL     1      47.662 104.690  52.191  1.00  0.00     0.157 A 
ATOM     16  C   UNL     1      49.448 106.201  52.842  1.00  0.00     0.062 A 
ATOM     17  C   UNL     1      49.029 105.013  52.225  1.00  0.00     0.158 A 
BRANCH  15  18
ATOM     18  O   UNL     1      47.213 103.517  51.584  1.00  0.00    -0.504 OA
ATOM     19  H   UNL     1      46.503 102.930  52.005  1.00  0.00     0.293 HD
ENDBRANCH  15  18
BRANCH  17  20
ATOM     20  O   UNL     1      49.964 104.156  51.648  1.00  0.00    -0.504 OA
ATOM     21  H   UNL     1      49.705 103.495  50.925  1.00  0.00     0.293 HD
ENDBRANCH  17  20
ENDBRANCH   1  12
BRANCH   2  22
ATOM     22  O   UNL     1      48.144 107.588  56.243  1.00  0.00    -0.502 OA
ATOM     23  H   UNL     1      47.995 107.713  57.237  1.00  0.00     0.293 HD
ENDBRANCH   2  22
BRANCH   6  24
ATOM     24  O   UNL     1      50.220 112.440  56.961  1.00  0.00    -0.507 OA
ATOM     25  H   UNL     1      49.868 113.355  57.200  1.00  0.00     0.293 HD
ENDBRANCH   6  24
BRANCH   8  26
ATOM     26  O   UNL     1      51.872 113.319  52.540  1.00  0.00    -0.508 OA
ATOM     27  H   UNL     1      52.792 113.099  52.178  1.00  0.00     0.293 HD
ENDBRANCH   8  26
TORSDOF 6
ENDMDL
MODEL 2
REMARK VINA RESULT:    -5.790      1.690      6.639
REMARK INTER + INTRA:          -7.111
REMARK INTER:                  -6.846
REMARK INTRA:                  -0.265
REMARK UNBOUND:                -0.137
REMARK SMILES O=c1c(O)c(-c2ccc(O)c(O)c2)oc2cc(O)cc(O)c12
REMARK SMILES IDX 5 1 3 2 2 3 1 4 22 5 20 6 19 7 17 8 16 9 15 10 14 11 6 12
REMARK SMILES IDX 7 13 8 14 9 15 13 16 11 17 10 18 12 20 4 22 21 24 18 26
REMARK H PARENT 10 19 12 21 4 23 21 25 18 27
REMARK Flexibility Score: inf
ROOT
ATOM      1  C   UNL     1      49.776 109.304  53.685  1.00  0.00     0.180 A 
ATOM      2  C   UNL     1      48.645 109.688  54.426  1.00  0.00     0.208 A 
ATOM      3  C   UNL     1      47.528 108.839  54.452  1.00  0.00     0.238 A 
ATOM      4  O   UNL     1      46.492 109.223  55.055  1.00  0.00    -0.285 OA
ATOM      5  C   UNL     1      47.576 107.590  53.787  1.00  0.00     0.111 A 
ATOM      6  C   UNL     1      46.518 106.629  53.784  1.00  0.00     0.134 A 
ATOM      7  C   UNL     1      46.638 105.474  53.002  1.00  0.00     0.093 A 
ATOM      8  C   UNL     1      47.800 105.213  52.274  1.00  0.00     0.123 A 
ATOM      9  C   UNL     1      48.858 106.117  52.312  1.00  0.00     0.094 A 
ATOM     10  C   UNL     1      48.755 107.298  53.053  1.00  0.00     0.146 A 
ATOM     11  O   UNL     1      49.779 108.142  53.043  1.00  0.00    -0.452 OA
ENDROOT
BRANCH   1  12
ATOM     12  C   UNL     1      50.986 110.153  53.597  1.00  0.00     0.025 A 
ATOM     13  C   UNL     1      52.137 109.871  54.355  1.00  0.00     0.016 A 
ATOM     14  C   UNL     1      53.257 110.701  54.274  1.00  0.00     0.051 A 
ATOM     15  C   UNL     1      53.243 111.830  53.450  1.00  0.00     0.157 A 
ATOM     16  C   UNL     1      50.967 111.300  52.787  1.00  0.00     0.062 A 
ATOM     17  C   UNL     1      52.092 112.135  52.703  1.00  0.00     0.158 A 
BRANCH  15  18
ATOM     18  O   UNL     1      54.377 112.639  53.388  1.00  0.00    -0.504 OA
ATOM     19  H   UNL     1      55.228 112.339  52.926  1.00  0.00     0.293 HD
ENDBRANCH  15  18
BRANCH  17  20
ATOM     20  O   UNL     1      52.067 113.263  51.885  1.00  0.00    -0.504 OA
ATOM     21  H   UNL     1      52.852 113.902  51.838  1.00  0.00     0.293 HD
ENDBRANCH  17  20
ENDBRANCH   1  12
BRANCH   2  22
ATOM     22  O   UNL     1      48.646 110.891  55.139  1.00  0.00    -0.502 OA
ATOM     23  H   UNL     1      49.487 111.435  55.286  1.00  0.00     0.293 HD
ENDBRANCH   2  22
BRANCH   6  24
ATOM     24  O   UNL     1      45.352 106.747  54.546  1.00  0.00    -0.507 OA
ATOM     25  H   UNL     1      45.271 107.271  55.403  1.00  0.00     0.293 HD
ENDBRANCH   6  24
BRANCH   8  26
ATOM     26  O   UNL     1      47.917 104.052  51.512  1.00  0.00    -0.508 OA
ATOM     27  H   UNL     1      48.610 103.346  51.726  1.00  0.00     0.293 HD
ENDBRANCH   8  26
TORSDOF 6
ENDMDL
MODEL 3
REMARK VINA RESULT:    -5.757      1.628      6.824
REMARK INTER + INTRA:          -7.071
REMARK INTER:                  -6.759
REMARK INTRA:                  -0.313
REMARK UNBOUND:                -0.137
REMARK SMILES O=c1c(O)c(-c2ccc(O)c(O)c2)oc2cc(O)cc(O)c12
REMARK SMILES IDX 5 1 3 2 2 3 1 4 22 5 20 6 19 7 17 8 16 9 15 10 14 11 6 12
REMARK SMILES IDX 7 13 8 14 9 15 13 16 11 17 10 18 12 20 4 22 21 24 18 26
REMARK H PARENT 10 19 12 21 4 23 21 25 18 27
REMARK Flexibility Score: inf
ROOT
ATOM      1  C   UNL     1      48.914 109.538  54.405  1.00  0.00     0.180 A 
ATOM      2  C   UNL     1      47.544 109.359  54.665  1.00  0.00     0.208 A 
ATOM      3  C   UNL     1      46.910 108.194  54.203  1.00  0.00     0.238 A 
ATOM      4  O   UNL     1      45.669 108.075  54.374  1.00  0.00    -0.285 OA
ATOM      5  C   UNL     1      47.664 107.198  53.537  1.00  0.00     0.111 A 
ATOM      6  C   UNL     1      47.135 105.958  53.065  1.00  0.00     0.134 A 
ATOM      7  C   UNL     1      47.953 105.096  52.325  1.00  0.00     0.093 A 
ATOM      8  C   UNL     1      49.297 105.397  52.095  1.00  0.00     0.123 A 
ATOM      9  C   UNL     1      49.837 106.578  52.598  1.00  0.00     0.094 A 
ATOM     10  C   UNL     1      49.037 107.478  53.307  1.00  0.00     0.146 A 
ATOM     11  O   UNL     1      49.588 108.602  53.749  1.00  0.00    -0.452 OA
ENDROOT
BRANCH   1  12
ATOM     12  C   UNL     1      49.648 110.746  54.848  1.00  0.00     0.025 A 
ATOM     13  C   UNL     1      49.895 111.816  53.970  1.00  0.00     0.016 A 
ATOM     14  C   UNL     1      50.612 112.934  54.404  1.00  0.00     0.051 A 
ATOM     15  C   UNL     1      51.105 112.995  55.710  1.00  0.00     0.157 A 
ATOM     16  C   UNL     1      50.163 110.801  56.154  1.00  0.00     0.062 A 
ATOM     17  C   UNL     1      50.882 111.923  56.591  1.00  0.00     0.158 A 
BRANCH  15  18
ATOM     18  O   UNL     1      51.815 114.125  56.115  1.00  0.00    -0.504 OA
ATOM     19  H   UNL     1      51.379 115.037  56.189  1.00  0.00     0.293 HD
ENDBRANCH  15  18
BRANCH  17  20
ATOM     20  O   UNL     1      51.376 111.974  57.893  1.00  0.00    -0.504 OA
ATOM     21  H   UNL     1      51.323 111.174  58.513  1.00  0.00     0.293 HD
ENDBRANCH  17  20
ENDBRANCH   1  12
BRANCH   2  22
ATOM     22  O   UNL     1      46.834 110.319  55.391  1.00  0.00    -0.502 OA
ATOM     23  H   UNL     1      46.555 110.176  56.355  1.00  0.00     0.293 HD
ENDBRANCH   2  22
BRANCH   6  24
ATOM     24  O   UNL     1      45.832 105.517  53.315  1.00  0.00    -0.507 OA
ATOM     25  H   UNL     1      45.229 105.875  54.039  1.00  0.00     0.293 HD
ENDBRANCH   6  24
BRANCH   8  26
ATOM     26  O   UNL     1      50.108 104.524  51.373  1.00  0.00    -0.508 OA
ATOM     27  H   UNL     1      51.060 104.768  51.127  1.00  0.00     0.293 HD
ENDBRANCH   8  26
TORSDOF 6
ENDMDL
MODEL 4
REMARK VINA RESULT:    -5.717      2.198      6.577
REMARK INTER + INTRA:          -7.024
REMARK INTER:                  -6.696
REMARK INTRA:                  -0.328
REMARK UNBOUND:                -0.137
REMARK SMILES O=c1c(O)c(-c2ccc(O)c(O)c2)oc2cc(O)cc(O)c12
REMARK SMILES IDX 5 1 3 2 2 3 1 4 22 5 20 6 19 7 17 8 16 9 15 10 14 11 6 12
REMARK SMILES IDX 7 13 8 14 9 15 13 16 11 17 10 18 12 20 4 22 21 24 18 26
REMARK H PARENT 10 19 12 21 4 23 21 25 18 27
REMARK Flexibility Score: inf
ROOT
ATOM      1  C   UNL     1      50.023 108.808  53.866  1.00  0.00     0.180 A 
ATOM      2  C   UNL     1      48.842 109.157  54.545  1.00  0.00     0.208 A 
ATOM      3  C   UNL     1      47.714 108.332  54.415  1.00  0.00     0.238 A 
ATOM      4  O   UNL     1      46.640 108.690  54.965  1.00  0.00    -0.285 OA
ATOM      5  C   UNL     1      47.796 107.139  53.657  1.00  0.00     0.111 A 
ATOM      6  C   UNL     1      46.727 106.204  53.494  1.00  0.00     0.134 A 
ATOM      7  C   UNL     1      46.891 105.113  52.633  1.00  0.00     0.093 A 
ATOM      8  C   UNL     1      48.103 104.886  51.978  1.00  0.00     0.123 A 
ATOM      9  C   UNL     1      49.169 105.761  52.172  1.00  0.00     0.094 A 
ATOM     10  C   UNL     1      49.025 106.881  52.995  1.00  0.00     0.146 A 
ATOM     11  O   UNL     1      50.059 107.701  53.135  1.00  0.00    -0.452 OA
ENDROOT
BRANCH   1  12
ATOM     12  C   UNL     1      51.249 109.635  53.942  1.00  0.00     0.025 A 
ATOM     13  C   UNL     1      51.447 110.733  53.086  1.00  0.00     0.016 A 
ATOM     14  C   UNL     1      52.623 111.483  53.160  1.00  0.00     0.051 A 
ATOM     15  C   UNL     1      53.623 111.143  54.075  1.00  0.00     0.157 A 
ATOM     16  C   UNL     1      52.265 109.283  54.846  1.00  0.00     0.062 A 
ATOM     17  C   UNL     1      53.446 110.036  54.922  1.00  0.00     0.158 A 
BRANCH  15  18
ATOM     18  O   UNL     1      54.785 111.912  54.127  1.00  0.00    -0.504 OA
ATOM     19  H   UNL     1      55.386 111.926  54.943  1.00  0.00     0.293 HD
ENDBRANCH  15  18
BRANCH  17  20
ATOM     20  O   UNL     1      54.442 109.686  55.832  1.00  0.00    -0.504 OA
ATOM     21  H   UNL     1      55.419 109.882  55.652  1.00  0.00     0.293 HD
ENDBRANCH  17  20
ENDBRANCH   1  12
BRANCH   2  22
ATOM     22  O   UNL     1      48.805 110.298  55.351  1.00  0.00    -0.502 OA
ATOM     23  H   UNL     1      48.212 111.093  55.142  1.00  0.00     0.293 HD
ENDBRANCH   2  22
BRANCH   6  24
ATOM     24  O   UNL     1      45.506 106.287  54.169  1.00  0.00    -0.507 OA
ATOM     25  H   UNL     1      44.626 106.538  53.745  1.00  0.00     0.293 HD
ENDBRANCH   6  24
BRANCH   8  26
ATOM     26  O   UNL     1      48.262 103.788  51.135  1.00  0.00    -0.508 OA
ATOM     27  H   UNL     1      49.142 103.288  51.078  1.00  0.00     0.293 HD
ENDBRANCH   8  26
TORSDOF 6
ENDMDL
MODEL 5
REMARK VINA RESULT:    -5.591      2.089      2.361
REMARK INTER + INTRA:          -6.872
REMARK INTER:                  -7.088
REMARK INTRA:                   0.216
REMARK UNBOUND:                -0.137
REMARK SMILES O=c1c(O)c(-c2ccc(O)c(O)c2)oc2cc(O)cc(O)c12
REMARK SMILES IDX 5 1 3 2 2 3 1 4 22 5 20 6 19 7 17 8 16 9 15 10 14 11 6 12
REMARK SMILES IDX 7 13 8 14 9 15 13 16 11 17 10 18 12 20 4 22 21 24 18 26
REMARK H PARENT 10 19 12 21 4 23 21 25 18 27
REMARK Flexibility Score: inf
ROOT
ATOM      1  C   UNL     1      49.683 108.374  53.717  1.00  0.00     0.180 A 
ATOM      2  C   UNL     1      49.021 109.612  53.787  1.00  0.00     0.208 A 
ATOM      3  C   UNL     1      49.711 110.726  54.292  1.00  0.00     0.238 A 
ATOM      4  O   UNL     1      49.090 111.812  54.420  1.00  0.00    -0.285 OA
ATOM      5  C   UNL     1      51.071 110.602  54.667  1.00  0.00     0.111 A 
ATOM      6  C   UNL     1      51.882 111.674  55.150  1.00  0.00     0.134 A 
ATOM      7  C   UNL     1      53.183 111.410  55.593  1.00  0.00     0.093 A 
ATOM      8  C   UNL     1      53.727 110.126  55.511  1.00  0.00     0.123 A 
ATOM      9  C   UNL     1      52.963 109.084  54.991  1.00  0.00     0.094 A 
ATOM     10  C   UNL     1      51.647 109.308  54.577  1.00  0.00     0.146 A 
ATOM     11  O   UNL     1      50.948 108.281  54.109  1.00  0.00    -0.452 OA
ENDROOT
BRANCH   1  12
ATOM     12  C   UNL     1      49.018 107.152  53.210  1.00  0.00     0.025 A 
ATOM     13  C   UNL     1      47.641 106.937  53.396  1.00  0.00     0.016 A 
ATOM     14  C   UNL     1      47.041 105.764  52.931  1.00  0.00     0.051 A 
ATOM     15  C   UNL     1      47.803 104.786  52.288  1.00  0.00     0.157 A 
ATOM     16  C   UNL     1      49.786 106.158  52.583  1.00  0.00     0.062 A 
ATOM     17  C   UNL     1      49.184 104.980  52.114  1.00  0.00     0.158 A 
BRANCH  15  18
ATOM     18  O   UNL     1      47.176 103.627  51.832  1.00  0.00    -0.504 OA
ATOM     19  H   UNL     1      47.601 103.021  51.140  1.00  0.00     0.293 HD
ENDBRANCH  15  18
BRANCH  17  20
ATOM     20  O   UNL     1      49.953 104.005  51.481  1.00  0.00    -0.504 OA
ATOM     21  H   UNL     1      50.765 103.595  51.928  1.00  0.00     0.293 HD
ENDBRANCH  17  20
ENDBRANCH   1  12
BRANCH   2  22
ATOM     22  O   UNL     1      47.702 109.731  53.339  1.00  0.00    -0.502 OA
ATOM     23  H   UNL     1      47.321 109.143  52.608  1.00  0.00     0.293 HD
ENDBRANCH   2  22
BRANCH   6  24
ATOM     24  O   UNL     1      51.470 113.010  55.191  1.00  0.00    -0.507 OA
ATOM     25  H   UNL     1      50.524 113.319  55.357  1.00  0.00     0.293 HD
ENDBRANCH   6  24
BRANCH   8  26
ATOM     26  O   UNL     1      55.029 109.876  55.938  1.00  0.00    -0.508 OA
ATOM     27  H   UNL     1      55.494 109.000  55.733  1.00  0.00     0.293 HD
ENDBRANCH   8  26
TORSDOF 6
ENDMDL
MODEL 6
REMARK VINA RESULT:    -5.575      3.872      6.324
REMARK INTER + INTRA:          -6.852
REMARK INTER:                  -6.818
REMARK INTRA:                  -0.034
REMARK UNBOUND:                -0.137
REMARK SMILES O=c1c(O)c(-c2ccc(O)c(O)c2)oc2cc(O)cc(O)c12
REMARK SMILES IDX 5 1 3 2 2 3 1 4 22 5 20 6 19 7 17 8 16 9 15 10 14 11 6 12
REMARK SMILES IDX 7 13 8 14 9 15 13 16 11 17 10 18 12 20 4 22 21 24 18 26
REMARK H PARENT 10 19 12 21 4 23 21 25 18 27
REMARK Flexibility Score: inf
ROOT
ATOM      1  C   UNL     1      46.315 109.820  54.241  1.00  0.00     0.180 A 
ATOM      2  C   UNL     1      46.575 108.460  53.995  1.00  0.00     0.208 A 
ATOM      3  C   UNL     1      47.038 107.655  55.047  1.00  0.00     0.238 A 
ATOM      4  O   UNL     1      47.339 106.458  54.802  1.00  0.00    -0.285 OA
ATOM      5  C   UNL     1      47.179 108.203  56.345  1.00  0.00     0.111 A 
ATOM      6  C   UNL     1      47.597 107.468  57.497  1.00  0.00     0.134 A 
ATOM      7  C   UNL     1      47.804 108.140  58.707  1.00  0.00     0.093 A 
ATOM      8  C   UNL     1      47.548 109.508  58.825  1.00  0.00     0.123 A 
ATOM      9  C   UNL     1      47.088 110.223  57.723  1.00  0.00     0.094 A 
ATOM     10  C   UNL     1      46.908 109.588  56.491  1.00  0.00     0.146 A 
ATOM     11  O   UNL     1      46.489 110.313  55.461  1.00  0.00    -0.452 OA
ENDROOT
BRANCH   1  12
ATOM     12  C   UNL     1      45.839 110.736  53.179  1.00  0.00     0.025 A 
ATOM     13  C   UNL     1      44.706 110.433  52.403  1.00  0.00     0.016 A 
ATOM     14  C   UNL     1      44.292 111.301  51.390  1.00  0.00     0.051 A 
ATOM     15  C   UNL     1      45.007 112.473  51.126  1.00  0.00     0.157 A 
ATOM     16  C   UNL     1      46.568 111.903  52.897  1.00  0.00     0.062 A 
ATOM     17  C   UNL     1      46.153 112.776  51.880  1.00  0.00     0.158 A 
BRANCH  15  18
ATOM     18  O   UNL     1      44.568 113.321  50.109  1.00  0.00    -0.504 OA
ATOM     19  H   UNL     1      43.585 113.434  49.889  1.00  0.00     0.293 HD
ENDBRANCH  15  18
BRANCH  17  20
ATOM     20  O   UNL     1      46.875 113.939  51.618  1.00  0.00    -0.504 OA
ATOM     21  H   UNL     1      46.960 114.678  52.306  1.00  0.00     0.293 HD
ENDBRANCH  17  20
ENDBRANCH   1  12
BRANCH   2  22
ATOM     22  O   UNL     1      46.356 107.920  52.724  1.00  0.00    -0.502 OA
ATOM     23  H   UNL     1      46.808 108.283  51.893  1.00  0.00     0.293 HD
ENDBRANCH   2  22
BRANCH   6  24
ATOM     24  O   UNL     1      47.796 106.084  57.512  1.00  0.00    -0.507 OA
ATOM     25  H   UNL     1      48.323 105.568  56.825  1.00  0.00     0.293 HD
ENDBRANCH   6  24
BRANCH   8  26
ATOM     26  O   UNL     1      47.740 110.166  60.038  1.00  0.00    -0.508 OA
ATOM     27  H   UNL     1      48.624 110.118  60.532  1.00  0.00     0.293 HD
ENDBRANCH   8  26
TORSDOF 6
ENDMDL
MODEL 7
REMARK VINA RESULT:    -5.444      2.736      3.870
REMARK INTER + INTRA:          -6.694
REMARK INTER:                  -6.406
REMARK INTRA:                  -0.288
REMARK UNBOUND:                -0.137
REMARK SMILES O=c1c(O)c(-c2ccc(O)c(O)c2)oc2cc(O)cc(O)c12
REMARK SMILES IDX 5 1 3 2 2 3 1 4 22 5 20 6 19 7 17 8 16 9 15 10 14 11 6 12
REMARK SMILES IDX 7 13 8 14 9 15 13 16 11 17 10 18 12 20 4 22 21 24 18 26
REMARK H PARENT 10 19 12 21 4 23 21 25 18 27
REMARK Flexibility Score: inf
ROOT
ATOM      1  C   UNL     1      49.423 108.974  54.259  1.00  0.00     0.180 A 
ATOM      2  C   UNL     1      49.530 110.200  53.579  1.00  0.00     0.208 A 
ATOM      3  C   UNL     1      50.792 110.802  53.456  1.00  0.00     0.238 A 
ATOM      4  O   UNL     1      50.870 111.934  52.911  1.00  0.00    -0.285 OA
ATOM      5  C   UNL     1      51.939 110.144  53.962  1.00  0.00     0.111 A 
ATOM      6  C   UNL     1      53.275 110.640  53.854  1.00  0.00     0.134 A 
ATOM      7  C   UNL     1      54.319 109.956  54.487  1.00  0.00     0.093 A 
ATOM      8  C   UNL     1      54.087 108.760  55.171  1.00  0.00     0.123 A 
ATOM      9  C   UNL     1      52.797 108.240  55.237  1.00  0.00     0.094 A 
ATOM     10  C   UNL     1      51.728 108.919  54.648  1.00  0.00     0.146 A 
ATOM     11  O   UNL     1      50.512 108.398  54.754  1.00  0.00    -0.452 OA
ENDROOT
BRANCH   1  12
ATOM     12  C   UNL     1      48.125 108.286  54.443  1.00  0.00     0.025 A 
ATOM     13  C   UNL     1      47.194 108.720  55.404  1.00  0.00     0.016 A 
ATOM     14  C   UNL     1      45.987 108.039  55.575  1.00  0.00     0.051 A 
ATOM     15  C   UNL     1      45.695 106.910  54.804  1.00  0.00     0.157 A 
ATOM     16  C   UNL     1      47.838 107.139  53.685  1.00  0.00     0.062 A 
ATOM     17  C   UNL     1      46.626 106.454  53.855  1.00  0.00     0.158 A 
BRANCH  15  18
ATOM     18  O   UNL     1      44.481 106.253  54.997  1.00  0.00    -0.504 OA
ATOM     19  H   UNL     1      44.395 105.246  54.920  1.00  0.00     0.293 HD
ENDBRANCH  15  18
BRANCH  17  20
ATOM     20  O   UNL     1      46.345 105.325  53.088  1.00  0.00    -0.504 OA
ATOM     21  H   UNL     1      45.423 105.160  52.701  1.00  0.00     0.293 HD
ENDBRANCH  17  20
ENDBRANCH   1  12
BRANCH   2  22
ATOM     22  O   UNL     1      48.396 110.795  53.019  1.00  0.00    -0.502 OA
ATOM     23  H   UNL     1      48.431 111.328  52.158  1.00  0.00     0.293 HD
ENDBRANCH   2  22
BRANCH   6  24
ATOM     24  O   UNL     1      53.631 111.776  53.120  1.00  0.00    -0.507 OA
ATOM     25  H   UNL     1      53.912 111.775  52.152  1.00  0.00     0.293 HD
ENDBRANCH   6  24
BRANCH   8  26
ATOM     26  O   UNL     1      55.135 108.076  55.784  1.00  0.00    -0.508 OA
ATOM     27  H   UNL     1      55.309 107.096  55.597  1.00  0.00     0.293 HD
ENDBRANCH   8  26
TORSDOF 6
ENDMDL
MODEL 8
REMARK VINA RESULT:    -5.275      2.267      2.726
REMARK INTER + INTRA:          -6.491
REMARK INTER:                  -6.382
REMARK INTRA:                  -0.109
REMARK UNBOUND:                -0.137
REMARK SMILES O=c1c(O)c(-c2ccc(O)c(O)c2)oc2cc(O)cc(O)c12
REMARK SMILES IDX 5 1 3 2 2 3 1 4 22 5 20 6 19 7 17 8 16 9 15 10 14 11 6 12
REMARK SMILES IDX 7 13 8 14 9 15 13 16 11 17 10 18 12 20 4 22 21 24 18 26
REMARK H PARENT 10 19 12 21 4 23 21 25 18 27
REMARK Flexibility Score: inf
ROOT
ATOM      1  C   UNL     1      50.640 108.158  53.804  1.00  0.00     0.180 A 
ATOM      2  C   UNL     1      51.873 107.860  54.411  1.00  0.00     0.208 A 
ATOM      3  C   UNL     1      52.666 108.914  54.893  1.00  0.00     0.238 A 
ATOM      4  O   UNL     1      53.800 108.645  55.368  1.00  0.00    -0.285 OA
ATOM      5  C   UNL     1      52.193 110.246  54.815  1.00  0.00     0.111 A 
ATOM      6  C   UNL     1      52.893 111.388  55.312  1.00  0.00     0.134 A 
ATOM      7  C   UNL     1      52.376 112.668  55.082  1.00  0.00     0.093 A 
ATOM      8  C   UNL     1      51.154 112.846  54.431  1.00  0.00     0.123 A 
ATOM      9  C   UNL     1      50.437 111.737  53.990  1.00  0.00     0.094 A 
ATOM     10  C   UNL     1      50.945 110.447  54.170  1.00  0.00     0.146 A 
ATOM     11  O   UNL     1      50.238 109.420  53.714  1.00  0.00    -0.452 OA
ENDROOT
BRANCH   1  12
ATOM     12  C   UNL     1      49.755 107.103  53.259  1.00  0.00     0.025 A 
ATOM     13  C   UNL     1      50.202 106.212  52.268  1.00  0.00     0.016 A 
ATOM     14  C   UNL     1      49.341 105.241  51.751  1.00  0.00     0.051 A 
ATOM     15  C   UNL     1      48.021 105.153  52.202  1.00  0.00     0.157 A 
ATOM     16  C   UNL     1      48.422 107.027  53.695  1.00  0.00     0.062 A 
ATOM     17  C   UNL     1      47.556 106.052  53.177  1.00  0.00     0.158 A 
BRANCH  15  18
ATOM     18  O   UNL     1      47.185 104.173  51.669  1.00  0.00    -0.504 OA
ATOM     19  H   UNL     1      46.219 104.073  51.959  1.00  0.00     0.293 HD
ENDBRANCH  15  18
BRANCH  17  20
ATOM     20  O   UNL     1      46.239 105.976  53.627  1.00  0.00    -0.504 OA
ATOM     21  H   UNL     1      45.541 105.428  53.138  1.00  0.00     0.293 HD
ENDBRANCH  17  20
ENDBRANCH   1  12
BRANCH   2  22
ATOM     22  O   UNL     1      52.287 106.532  54.548  1.00  0.00    -0.502 OA
ATOM     23  H   UNL     1      51.718 105.751  54.245  1.00  0.00     0.293 HD
ENDBRANCH   2  22
BRANCH   6  24
ATOM     24  O   UNL     1      54.076 111.318  56.053  1.00  0.00    -0.507 OA
ATOM     25  H   UNL     1      54.537 110.465  56.329  1.00  0.00     0.293 HD
ENDBRANCH   6  24
BRANCH   8  26
ATOM     26  O   UNL     1      50.638 114.124  54.222  1.00  0.00    -0.508 OA
ATOM     27  H   UNL     1      51.222 114.882  53.889  1.00  0.00     0.293 HD
ENDBRANCH   8  26
TORSDOF 6
ENDMDL
MODEL 9
REMARK VINA RESULT:    -5.272      2.189      2.533
REMARK INTER + INTRA:          -6.487
REMARK INTER:                  -6.165
REMARK INTRA:                  -0.323
REMARK UNBOUND:                -0.137
REMARK SMILES O=c1c(O)c(-c2ccc(O)c(O)c2)oc2cc(O)cc(O)c12
REMARK SMILES IDX 5 1 3 2 2 3 1 4 22 5 20 6 19 7 17 8 16 9 15 10 14 11 6 12
REMARK SMILES IDX 7 13 8 14 9 15 13 16 11 17 10 18 12 20 4 22 21 24 18 26
REMARK H PARENT 10 19 12 21 4 23 21 25 18 27
REMARK Flexibility Score: inf
ROOT
ATOM      1  C   UNL     1      50.648 108.888  53.849  1.00  0.00     0.180 A 
ATOM      2  C   UNL     1      51.541 108.757  54.927  1.00  0.00     0.208 A 
ATOM      3  C   UNL     1      52.575 109.695  55.072  1.00  0.00     0.238 A 
ATOM      4  O   UNL     1      53.415 109.529  55.995  1.00  0.00    -0.285 OA
ATOM      5  C   UNL     1      52.670 110.784  54.172  1.00  0.00     0.111 A 
ATOM      6  C   UNL     1      53.652 111.820  54.250  1.00  0.00     0.134 A 
ATOM      7  C   UNL     1      53.715 112.788  53.241  1.00  0.00     0.093 A 
ATOM      8  C   UNL     1      52.793 112.798  52.192  1.00  0.00     0.123 A 
ATOM      9  C   UNL     1      51.799 111.824  52.136  1.00  0.00     0.094 A 
ATOM     10  C   UNL     1      51.734 110.821  53.107  1.00  0.00     0.146 A 
ATOM     11  O   UNL     1      50.783 109.901  53.002  1.00  0.00    -0.452 OA
ENDROOT
BRANCH   1  12
ATOM     12  C   UNL     1      49.541 107.931  53.622  1.00  0.00     0.025 A 
ATOM     13  C   UNL     1      48.278 108.117  54.212  1.00  0.00     0.016 A 
ATOM     14  C   UNL     1      47.258 107.186  54.002  1.00  0.00     0.051 A 
ATOM     15  C   UNL     1      47.484 106.052  53.217  1.00  0.00     0.157 A 
ATOM     16  C   UNL     1      49.772 106.779  52.851  1.00  0.00     0.062 A 
ATOM     17  C   UNL     1      48.748 105.844  52.640  1.00  0.00     0.158 A 
BRANCH  15  18
ATOM     18  O   UNL     1      46.445 105.142  53.025  1.00  0.00    -0.504 OA
ATOM     19  H   UNL     1      46.040 104.617  53.791  1.00  0.00     0.293 HD
ENDBRANCH  15  18
BRANCH  17  20
ATOM     20  O   UNL     1      48.983 104.712  51.862  1.00  0.00    -0.504 OA
ATOM     21  H   UNL     1      49.111 104.774  50.859  1.00  0.00     0.293 HD
ENDBRANCH  17  20
ENDBRANCH   1  12
BRANCH   2  22
ATOM     22  O   UNL     1      51.383 107.718  55.849  1.00  0.00    -0.502 OA
ATOM     23  H   UNL     1      50.597 107.671  56.486  1.00  0.00     0.293 HD
ENDBRANCH   2  22
BRANCH   6  24
ATOM     24  O   UNL     1      54.563 111.957  55.301  1.00  0.00    -0.507 OA
ATOM     25  H   UNL     1      55.532 111.679  55.267  1.00  0.00     0.293 HD
ENDBRANCH   6  24
BRANCH   8  26
ATOM     26  O   UNL     1      52.853 113.776  51.201  1.00  0.00    -0.508 OA
ATOM     27  H   UNL     1      53.311 113.603  50.314  1.00  0.00     0.293 HD
ENDBRANCH   8  26
TORSDOF 6
ENDMDL
