MODEL 1
REMARK VINA RESULT:    -5.644      0.000      0.000
REMARK INTER + INTRA:          -7.283
REMARK INTER:                  -6.799
REMARK INTRA:                  -0.484
REMARK UNBOUND:                -0.484
REMARK SMILES O=c1c(O)c(-c2ccc(O)cc2O)oc2cc(O)cc(O)c12
REMARK SMILES IDX 5 1 3 2 2 3 1 4 22 5 20 6 19 7 17 8 16 9 15 10 14 11 6 12
REMARK SMILES IDX 8 13 7 14 9 15 11 16 12 17 10 18 13 20 4 22 21 24 18 26
REMARK H PARENT 10 19 13 21 4 23 21 25 18 27
REMARK Flexibility Score: inf
ROOT
ATOM      1  C   UNL     1       0.422 -15.794   0.650  1.00  0.00     0.184 A 
ATOM      2  C   UNL     1      -0.586 -15.013   0.059  1.00  0.00     0.208 A 
ATOM      3  C   UNL     1      -1.074 -15.375  -1.208  1.00  0.00     0.238 A 
ATOM      4  O   UNL     1      -1.935 -14.640  -1.756  1.00  0.00    -0.285 OA
ATOM      5  C   UNL     1      -0.561 -16.524  -1.857  1.00  0.00     0.111 A 
ATOM      6  C   UNL     1      -1.010 -17.008  -3.123  1.00  0.00     0.134 A 
ATOM      7  C   UNL     1      -0.343 -18.080  -3.729  1.00  0.00     0.093 A 
ATOM      8  C   UNL     1       0.713 -18.728  -3.084  1.00  0.00     0.123 A 
ATOM      9  C   UNL     1       1.120 -18.301  -1.821  1.00  0.00     0.094 A 
ATOM     10  C   UNL     1       0.498 -17.212  -1.208  1.00  0.00     0.146 A 
ATOM     11  O   UNL     1       0.924 -16.831  -0.010  1.00  0.00    -0.451 OA
ENDROOT
BRANCH   1  12
ATOM     12  C   UNL     1       0.963 -15.483   1.994  1.00  0.00     0.063 A 
ATOM     13  C   UNL     1       0.760 -15.551   4.417  1.00  0.00     0.047 A 
ATOM     14  C   UNL     1       0.238 -15.820   3.150  1.00  0.00     0.020 A 
ATOM     15  C   UNL     1       2.019 -14.954   4.549  1.00  0.00     0.119 A 
ATOM     16  C   UNL     1       2.754 -14.628   3.405  1.00  0.00     0.093 A 
ATOM     17  C   UNL     1       2.236 -14.891   2.129  1.00  0.00     0.130 A 
BRANCH  15  18
ATOM     18  O   UNL     1       2.549 -14.683   5.808  1.00  0.00    -0.508 OA
ATOM     19  H   UNL     1       3.397 -15.132   6.134  1.00  0.00     0.293 HD
ENDBRANCH  15  18
BRANCH  17  20
ATOM     20  O   UNL     1       2.978 -14.554   0.996  1.00  0.00    -0.507 OA
ATOM     21  H   UNL     1       3.403 -15.262   0.408  1.00  0.00     0.293 HD
ENDBRANCH  17  20
ENDBRANCH   1  12
BRANCH   2  22
ATOM     22  O   UNL     1      -1.066 -13.875   0.713  1.00  0.00    -0.502 OA
ATOM     23  H   UNL     1      -1.949 -13.865   1.211  1.00  0.00     0.293 HD
ENDBRANCH   2  22
BRANCH   6  24
ATOM     24  O   UNL     1      -2.113 -16.491  -3.809  1.00  0.00    -0.507 OA
ATOM     25  H   UNL     1      -2.410 -16.790  -4.726  1.00  0.00     0.293 HD
ENDBRANCH   6  24
BRANCH   8  26
ATOM     26  O   UNL     1       1.360 -19.805  -3.686  1.00  0.00    -0.508 OA
ATOM     27  H   UNL     1       2.042 -20.362  -3.184  1.00  0.00     0.293 HD
ENDBRANCH   8  26
TORSDOF 6
ENDMDL
MODEL 2
REMARK VINA RESULT:    -5.357      2.859      6.087
REMARK INTER + INTRA:          -6.938
REMARK INTER:                  -6.523
REMARK INTRA:                  -0.415
REMARK UNBOUND:                -0.484
REMARK SMILES O=c1c(O)c(-c2ccc(O)cc2O)oc2cc(O)cc(O)c12
REMARK SMILES IDX 5 1 3 2 2 3 1 4 22 5 20 6 19 7 17 8 16 9 15 10 14 11 6 12
REMARK SMILES IDX 8 13 7 14 9 15 11 16 12 17 10 18 13 20 4 22 21 24 18 26
REMARK H PARENT 10 19 13 21 4 23 21 25 18 27
REMARK Flexibility Score: inf
ROOT
ATOM      1  C   UNL     1      -0.987 -16.779  -0.794  1.00  0.00     0.184 A 
ATOM      2  C   UNL     1      -1.860 -15.716  -1.078  1.00  0.00     0.208 A 
ATOM      3  C   UNL     1      -2.688 -15.223  -0.056  1.00  0.00     0.238 A 
ATOM      4  O   UNL     1      -3.509 -14.310  -0.331  1.00  0.00    -0.285 OA
ATOM      5  C   UNL     1      -2.617 -15.786   1.241  1.00  0.00     0.111 A 
ATOM      6  C   UNL     1      -3.379 -15.339   2.362  1.00  0.00     0.134 A 
ATOM      7  C   UNL     1      -3.321 -16.052   3.566  1.00  0.00     0.093 A 
ATOM      8  C   UNL     1      -2.478 -17.158   3.708  1.00  0.00     0.123 A 
ATOM      9  C   UNL     1      -1.686 -17.566   2.638  1.00  0.00     0.094 A 
ATOM     10  C   UNL     1      -1.749 -16.897   1.414  1.00  0.00     0.146 A 
ATOM     11  O   UNL     1      -0.986 -17.325   0.416  1.00  0.00    -0.451 OA
ENDROOT
BRANCH   1  12
ATOM     12  C   UNL     1      -0.069 -17.331  -1.818  1.00  0.00     0.063 A 
ATOM     13  C   UNL     1       0.318 -18.742  -3.763  1.00  0.00     0.047 A 
ATOM     14  C   UNL     1      -0.541 -18.241  -2.780  1.00  0.00     0.020 A 
ATOM     15  C   UNL     1       1.655 -18.330  -3.806  1.00  0.00     0.119 A 
ATOM     16  C   UNL     1       2.129 -17.414  -2.862  1.00  0.00     0.093 A 
ATOM     17  C   UNL     1       1.275 -16.909  -1.871  1.00  0.00     0.130 A 
BRANCH  15  18
ATOM     18  O   UNL     1       2.518 -18.822  -4.782  1.00  0.00    -0.508 OA
ATOM     19  H   UNL     1       3.486 -18.524  -4.832  1.00  0.00     0.293 HD
ENDBRANCH  15  18
BRANCH  17  20
ATOM     20  O   UNL     1       1.764 -16.002  -0.931  1.00  0.00    -0.507 OA
ATOM     21  H   UNL     1       2.296 -15.184  -1.208  1.00  0.00     0.293 HD
ENDBRANCH  17  20
ENDBRANCH   1  12
BRANCH   2  22
ATOM     22  O   UNL     1      -1.924 -15.186  -2.370  1.00  0.00    -0.502 OA
ATOM     23  H   UNL     1      -1.405 -14.360  -2.645  1.00  0.00     0.293 HD
ENDBRANCH   2  22
BRANCH   6  24
ATOM     24  O   UNL     1      -4.181 -14.194   2.354  1.00  0.00    -0.507 OA
ATOM     25  H   UNL     1      -5.188 -14.198   2.288  1.00  0.00     0.293 HD
ENDBRANCH   6  24
BRANCH   8  26
ATOM     26  O   UNL     1      -2.415 -17.852   4.914  1.00  0.00    -0.508 OA
ATOM     27  H   UNL     1      -2.969 -18.685   5.077  1.00  0.00     0.293 HD
ENDBRANCH   8  26
TORSDOF 6
ENDMDL
MODEL 3
REMARK VINA RESULT:    -5.267      3.957      6.487
REMARK INTER + INTRA:          -6.829
REMARK INTER:                  -6.409
REMARK INTRA:                  -0.419
REMARK UNBOUND:                -0.484
REMARK SMILES O=c1c(O)c(-c2ccc(O)cc2O)oc2cc(O)cc(O)c12
REMARK SMILES IDX 5 1 3 2 2 3 1 4 22 5 20 6 19 7 17 8 16 9 15 10 14 11 6 12
REMARK SMILES IDX 8 13 7 14 9 15 11 16 12 17 10 18 13 20 4 22 21 24 18 26
REMARK H PARENT 10 19 13 21 4 23 21 25 18 27
REMARK Flexibility Score: inf
ROOT
ATOM      1  C   UNL     1      -1.387 -17.092   1.381  1.00  0.00     0.184 A 
ATOM      2  C   UNL     1      -1.322 -16.301   2.541  1.00  0.00     0.208 A 
ATOM      3  C   UNL     1      -1.944 -16.759   3.714  1.00  0.00     0.238 A 
ATOM      4  O   UNL     1      -1.931 -16.019   4.732  1.00  0.00    -0.285 OA
ATOM      5  C   UNL     1      -2.603 -18.010   3.718  1.00  0.00     0.111 A 
ATOM      6  C   UNL     1      -3.232 -18.592   4.860  1.00  0.00     0.134 A 
ATOM      7  C   UNL     1      -3.965 -19.777   4.718  1.00  0.00     0.093 A 
ATOM      8  C   UNL     1      -4.037 -20.436   3.488  1.00  0.00     0.123 A 
ATOM      9  C   UNL     1      -3.378 -19.907   2.380  1.00  0.00     0.094 A 
ATOM     10  C   UNL     1      -2.669 -18.708   2.483  1.00  0.00     0.146 A 
ATOM     11  O   UNL     1      -2.065 -18.234   1.401  1.00  0.00    -0.451 OA
ENDROOT
BRANCH   1  12
ATOM     12  C   UNL     1      -0.734 -16.681   0.117  1.00  0.00     0.063 A 
ATOM     13  C   UNL     1       1.198 -16.701  -1.362  1.00  0.00     0.047 A 
ATOM     14  C   UNL     1       0.590 -17.066  -0.159  1.00  0.00     0.020 A 
ATOM     15  C   UNL     1       0.489 -15.957  -2.313  1.00  0.00     0.119 A 
ATOM     16  C   UNL     1      -0.832 -15.582  -2.054  1.00  0.00     0.093 A 
ATOM     17  C   UNL     1      -1.450 -15.941  -0.847  1.00  0.00     0.130 A 
BRANCH  15  18
ATOM     18  O   UNL     1       1.086 -15.589  -3.516  1.00  0.00    -0.508 OA
ATOM     19  H   UNL     1       0.534 -15.402  -4.346  1.00  0.00     0.293 HD
ENDBRANCH  15  18
BRANCH  17  20
ATOM     20  O   UNL     1      -2.766 -15.553  -0.599  1.00  0.00    -0.507 OA
ATOM     21  H   UNL     1      -3.341 -15.130  -1.319  1.00  0.00     0.293 HD
ENDBRANCH  17  20
ENDBRANCH   1  12
BRANCH   2  22
ATOM     22  O   UNL     1      -0.677 -15.061   2.508  1.00  0.00    -0.502 OA
ATOM     23  H   UNL     1      -0.011 -14.814   1.787  1.00  0.00     0.293 HD
ENDBRANCH   2  22
BRANCH   6  24
ATOM     24  O   UNL     1      -3.145 -18.065   6.152  1.00  0.00    -0.507 OA
ATOM     25  H   UNL     1      -3.806 -18.247   6.893  1.00  0.00     0.293 HD
ENDBRANCH   6  24
BRANCH   8  26
ATOM     26  O   UNL     1      -4.755 -21.622   3.358  1.00  0.00    -0.508 OA
ATOM     27  H   UNL     1      -4.771 -22.140   2.486  1.00  0.00     0.293 HD
ENDBRANCH   8  26
TORSDOF 6
ENDMDL
MODEL 4
REMARK VINA RESULT:    -5.085      1.476      7.057
REMARK INTER + INTRA:          -6.609
REMARK INTER:                  -6.167
REMARK INTRA:                  -0.442
REMARK UNBOUND:                -0.484
REMARK SMILES O=c1c(O)c(-c2ccc(O)cc2O)oc2cc(O)cc(O)c12
REMARK SMILES IDX 5 1 3 2 2 3 1 4 22 5 20 6 19 7 17 8 16 9 15 10 14 11 6 12
REMARK SMILES IDX 8 13 7 14 9 15 11 16 12 17 10 18 13 20 4 22 21 24 18 26
REMARK H PARENT 10 19 13 21 4 23 21 25 18 27
REMARK Flexibility Score: inf
ROOT
ATOM      1  C   UNL     1       0.956 -15.944   1.121  1.00  0.00     0.184 A 
ATOM      2  C   UNL     1       2.252 -15.434   1.307  1.00  0.00     0.208 A 
ATOM      3  C   UNL     1       2.629 -14.979   2.581  1.00  0.00     0.238 A 
ATOM      4  O   UNL     1       3.771 -14.471   2.727  1.00  0.00    -0.285 OA
ATOM      5  C   UNL     1       1.713 -15.059   3.656  1.00  0.00     0.111 A 
ATOM      6  C   UNL     1       2.001 -14.666   4.998  1.00  0.00     0.134 A 
ATOM      7  C   UNL     1       0.978 -14.670   5.955  1.00  0.00     0.093 A 
ATOM      8  C   UNL     1      -0.307 -15.115   5.633  1.00  0.00     0.123 A 
ATOM      9  C   UNL     1      -0.582 -15.557   4.341  1.00  0.00     0.094 A 
ATOM     10  C   UNL     1       0.408 -15.531   3.357  1.00  0.00     0.146 A 
ATOM     11  O   UNL     1       0.100 -15.950   2.136  1.00  0.00    -0.451 OA
ENDROOT
BRANCH   1  12
ATOM     12  C   UNL     1       0.501 -16.463  -0.190  1.00  0.00     0.063 A 
ATOM     13  C   UNL     1       0.631 -18.128  -1.959  1.00  0.00     0.047 A 
ATOM     14  C   UNL     1       1.078 -17.623  -0.736  1.00  0.00     0.020 A 
ATOM     15  C   UNL     1      -0.406 -17.489  -2.649  1.00  0.00     0.119 A 
ATOM     16  C   UNL     1      -0.995 -16.342  -2.107  1.00  0.00     0.093 A 
ATOM     17  C   UNL     1      -0.551 -15.827  -0.881  1.00  0.00     0.130 A 
BRANCH  15  18
ATOM     18  O   UNL     1      -0.860 -17.985  -3.869  1.00  0.00    -0.508 OA
ATOM     19  H   UNL     1      -0.572 -18.894  -4.211  1.00  0.00     0.293 HD
ENDBRANCH  15  18
BRANCH  17  20
ATOM     20  O   UNL     1      -1.143 -14.678  -0.356  1.00  0.00    -0.507 OA
ATOM     21  H   UNL     1      -0.873 -14.306   0.547  1.00  0.00     0.293 HD
ENDBRANCH  17  20
ENDBRANCH   1  12
BRANCH   2  22
ATOM     22  O   UNL     1       3.135 -15.352   0.226  1.00  0.00    -0.502 OA
ATOM     23  H   UNL     1       3.811 -14.604   0.132  1.00  0.00     0.293 HD
ENDBRANCH   2  22
BRANCH   6  24
ATOM     24  O   UNL     1       3.271 -14.291   5.446  1.00  0.00    -0.507 OA
ATOM     25  H   UNL     1       3.813 -13.530   5.066  1.00  0.00     0.293 HD
ENDBRANCH   6  24
BRANCH   8  26
ATOM     26  O   UNL     1      -1.315 -15.131   6.594  1.00  0.00    -0.508 OA
ATOM     27  H   UNL     1      -1.122 -15.370   7.561  1.00  0.00     0.293 HD
ENDBRANCH   8  26
TORSDOF 6
ENDMDL
MODEL 5
REMARK VINA RESULT:    -5.053      2.833      3.667
REMARK INTER + INTRA:          -6.571
REMARK INTER:                  -6.307
REMARK INTRA:                  -0.265
REMARK UNBOUND:                -0.484
REMARK SMILES O=c1c(O)c(-c2ccc(O)cc2O)oc2cc(O)cc(O)c12
REMARK SMILES IDX 5 1 3 2 2 3 1 4 22 5 20 6 19 7 17 8 16 9 15 10 14 11 6 12
REMARK SMILES IDX 8 13 7 14 9 15 11 16 12 17 10 18 13 20 4 22 21 24 18 26
REMARK H PARENT 10 19 13 21 4 23 21 25 18 27
REMARK Flexibility Score: inf
ROOT
ATOM      1  C   UNL     1      -1.271 -16.517   0.501  1.00  0.00     0.184 A 
ATOM      2  C   UNL     1      -1.054 -15.218   0.013  1.00  0.00     0.208 A 
ATOM      3  C   UNL     1      -0.304 -15.048  -1.163  1.00  0.00     0.238 A 
ATOM      4  O   UNL     1      -0.065 -13.879  -1.562  1.00  0.00    -0.285 OA
ATOM      5  C   UNL     1       0.200 -16.180  -1.845  1.00  0.00     0.111 A 
ATOM      6  C   UNL     1       0.937 -16.129  -3.067  1.00  0.00     0.134 A 
ATOM      7  C   UNL     1       1.497 -17.303  -3.587  1.00  0.00     0.093 A 
ATOM      8  C   UNL     1       1.290 -18.536  -2.964  1.00  0.00     0.123 A 
ATOM      9  C   UNL     1       0.522 -18.605  -1.804  1.00  0.00     0.094 A 
ATOM     10  C   UNL     1      -0.018 -17.447  -1.242  1.00  0.00     0.146 A 
ATOM     11  O   UNL     1      -0.734 -17.556  -0.129  1.00  0.00    -0.451 OA
ENDROOT
BRANCH   1  12
ATOM     12  C   UNL     1      -2.072 -16.770   1.721  1.00  0.00     0.063 A 
ATOM     13  C   UNL     1      -2.207 -17.461   4.051  1.00  0.00     0.047 A 
ATOM     14  C   UNL     1      -1.457 -17.248   2.892  1.00  0.00     0.020 A 
ATOM     15  C   UNL     1      -3.580 -17.187   4.061  1.00  0.00     0.119 A 
ATOM     16  C   UNL     1      -4.198 -16.699   2.906  1.00  0.00     0.093 A 
ATOM     17  C   UNL     1      -3.453 -16.485   1.738  1.00  0.00     0.130 A 
BRANCH  15  18
ATOM     18  O   UNL     1      -4.337 -17.395   5.212  1.00  0.00    -0.508 OA
ATOM     19  H   UNL     1      -5.106 -16.783   5.458  1.00  0.00     0.293 HD
ENDBRANCH  15  18
BRANCH  17  20
ATOM     20  O   UNL     1      -4.085 -16.004   0.591  1.00  0.00    -0.507 OA
ATOM     21  H   UNL     1      -3.637 -15.330  -0.020  1.00  0.00     0.293 HD
ENDBRANCH  17  20
ENDBRANCH   1  12
BRANCH   2  22
ATOM     22  O   UNL     1      -1.550 -14.114   0.713  1.00  0.00    -0.502 OA
ATOM     23  H   UNL     1      -1.706 -14.130   1.713  1.00  0.00     0.293 HD
ENDBRANCH   2  22
BRANCH   6  24
ATOM     24  O   UNL     1       1.124 -14.964  -3.817  1.00  0.00    -0.507 OA
ATOM     25  H   UNL     1       1.852 -14.833  -4.503  1.00  0.00     0.293 HD
ENDBRANCH   6  24
BRANCH   8  26
ATOM     26  O   UNL     1       1.837 -19.701  -3.496  1.00  0.00    -0.508 OA
ATOM     27  H   UNL     1       2.346 -20.361  -2.918  1.00  0.00     0.293 HD
ENDBRANCH   8  26
TORSDOF 6
ENDMDL
MODEL 6
REMARK VINA RESULT:    -4.779      4.567      5.588
REMARK INTER + INTRA:          -6.241
REMARK INTER:                  -5.821
REMARK INTRA:                  -0.420
REMARK UNBOUND:                -0.484
REMARK SMILES O=c1c(O)c(-c2ccc(O)cc2O)oc2cc(O)cc(O)c12
REMARK SMILES IDX 5 1 3 2 2 3 1 4 22 5 20 6 19 7 17 8 16 9 15 10 14 11 6 12
REMARK SMILES IDX 8 13 7 14 9 15 11 16 12 17 10 18 13 20 4 22 21 24 18 26
REMARK H PARENT 10 19 13 21 4 23 21 25 18 27
REMARK Flexibility Score: inf
ROOT
ATOM      1  C   UNL     1      -2.032 -16.990   1.643  1.00  0.00     0.184 A 
ATOM      2  C   UNL     1      -3.133 -16.160   1.374  1.00  0.00     0.208 A 
ATOM      3  C   UNL     1      -4.424 -16.617   1.688  1.00  0.00     0.238 A 
ATOM      4  O   UNL     1      -5.409 -15.893   1.392  1.00  0.00    -0.285 OA
ATOM      5  C   UNL     1      -4.594 -17.889   2.285  1.00  0.00     0.111 A 
ATOM      6  C   UNL     1      -5.851 -18.437   2.682  1.00  0.00     0.134 A 
ATOM      7  C   UNL     1      -5.915 -19.757   3.146  1.00  0.00     0.093 A 
ATOM      8  C   UNL     1      -4.757 -20.526   3.289  1.00  0.00     0.123 A 
ATOM      9  C   UNL     1      -3.519 -19.980   2.959  1.00  0.00     0.094 A 
ATOM     10  C   UNL     1      -3.428 -18.680   2.460  1.00  0.00     0.146 A 
ATOM     11  O   UNL     1      -2.229 -18.202   2.148  1.00  0.00    -0.451 OA
ENDROOT
BRANCH   1  12
ATOM     12  C   UNL     1      -0.643 -16.561   1.360  1.00  0.00     0.063 A 
ATOM     13  C   UNL     1       1.166 -16.179  -0.223  1.00  0.00     0.047 A 
ATOM     14  C   UNL     1      -0.135 -16.609   0.049  1.00  0.00     0.020 A 
ATOM     15  C   UNL     1       1.974 -15.683   0.807  1.00  0.00     0.119 A 
ATOM     16  C   UNL     1       1.473 -15.619   2.111  1.00  0.00     0.093 A 
ATOM     17  C   UNL     1       0.170 -16.051   2.393  1.00  0.00     0.130 A 
BRANCH  15  18
ATOM     18  O   UNL     1       3.272 -15.251   0.546  1.00  0.00    -0.508 OA
ATOM     19  H   UNL     1       3.962 -15.170   1.284  1.00  0.00     0.293 HD
ENDBRANCH  15  18
BRANCH  17  20
ATOM     20  O   UNL     1      -0.314 -15.987   3.700  1.00  0.00    -0.507 OA
ATOM     21  H   UNL     1       0.233 -15.579   4.450  1.00  0.00     0.293 HD
ENDBRANCH  17  20
ENDBRANCH   1  12
BRANCH   2  22
ATOM     22  O   UNL     1      -2.942 -14.914   0.771  1.00  0.00    -0.502 OA
ATOM     23  H   UNL     1      -3.695 -14.403   0.327  1.00  0.00     0.293 HD
ENDBRANCH   2  22
BRANCH   6  24
ATOM     24  O   UNL     1      -7.053 -17.723   2.667  1.00  0.00    -0.507 OA
ATOM     25  H   UNL     1      -7.638 -17.601   1.854  1.00  0.00     0.293 HD
ENDBRANCH   6  24
BRANCH   8  26
ATOM     26  O   UNL     1      -4.827 -21.833   3.766  1.00  0.00    -0.508 OA
ATOM     27  H   UNL     1      -4.039 -22.467   3.694  1.00  0.00     0.293 HD
ENDBRANCH   8  26
TORSDOF 6
ENDMDL
MODEL 7
REMARK VINA RESULT:    -4.774      4.241      5.300
REMARK INTER + INTRA:          -6.236
REMARK INTER:                  -5.769
REMARK INTRA:                  -0.467
REMARK UNBOUND:                -0.484
REMARK SMILES O=c1c(O)c(-c2ccc(O)cc2O)oc2cc(O)cc(O)c12
REMARK SMILES IDX 5 1 3 2 2 3 1 4 22 5 20 6 19 7 17 8 16 9 15 10 14 11 6 12
REMARK SMILES IDX 8 13 7 14 9 15 11 16 12 17 10 18 13 20 4 22 21 24 18 26
REMARK H PARENT 10 19 13 21 4 23 21 25 18 27
REMARK Flexibility Score: inf
ROOT
ATOM      1  C   UNL     1      -1.739 -16.709   1.672  1.00  0.00     0.184 A 
ATOM      2  C   UNL     1      -2.842 -15.866   1.460  1.00  0.00     0.208 A 
ATOM      3  C   UNL     1      -4.133 -16.350   1.732  1.00  0.00     0.238 A 
ATOM      4  O   UNL     1      -5.120 -15.609   1.485  1.00  0.00    -0.285 OA
ATOM      5  C   UNL     1      -4.300 -17.663   2.232  1.00  0.00     0.111 A 
ATOM      6  C   UNL     1      -5.557 -18.243   2.581  1.00  0.00     0.134 A 
ATOM      7  C   UNL     1      -5.618 -19.594   2.945  1.00  0.00     0.093 A 
ATOM      8  C   UNL     1      -4.458 -20.368   3.036  1.00  0.00     0.123 A 
ATOM      9  C   UNL     1      -3.220 -19.794   2.755  1.00  0.00     0.094 A 
ATOM     10  C   UNL     1      -3.132 -18.460   2.354  1.00  0.00     0.146 A 
ATOM     11  O   UNL     1      -1.934 -17.956   2.085  1.00  0.00    -0.451 OA
ENDROOT
BRANCH   1  12
ATOM     12  C   UNL     1      -0.350 -16.255   1.429  1.00  0.00     0.063 A 
ATOM     13  C   UNL     1       1.666 -15.129   2.198  1.00  0.00     0.047 A 
ATOM     14  C   UNL     1       0.347 -15.535   2.416  1.00  0.00     0.020 A 
ATOM     15  C   UNL     1       2.312 -15.447   0.998  1.00  0.00     0.119 A 
ATOM     16  C   UNL     1       1.631 -16.174   0.016  1.00  0.00     0.093 A 
ATOM     17  C   UNL     1       0.306 -16.583   0.225  1.00  0.00     0.130 A 
BRANCH  15  18
ATOM     18  O   UNL     1       3.627 -15.048   0.771  1.00  0.00    -0.508 OA
ATOM     19  H   UNL     1       3.845 -14.132   0.398  1.00  0.00     0.293 HD
ENDBRANCH  15  18
BRANCH  17  20
ATOM     20  O   UNL     1      -0.362 -17.302  -0.766  1.00  0.00    -0.507 OA
ATOM     21  H   UNL     1       0.094 -17.563  -1.633  1.00  0.00     0.293 HD
ENDBRANCH  17  20
ENDBRANCH   1  12
BRANCH   2  22
ATOM     22  O   UNL     1      -2.653 -14.577   0.952  1.00  0.00    -0.502 OA
ATOM     23  H   UNL     1      -1.742 -14.231   0.673  1.00  0.00     0.293 HD
ENDBRANCH   2  22
BRANCH   6  24
ATOM     24  O   UNL     1      -6.762 -17.535   2.611  1.00  0.00    -0.507 OA
ATOM     25  H   UNL     1      -7.628 -17.857   2.205  1.00  0.00     0.293 HD
ENDBRANCH   6  24
BRANCH   8  26
ATOM     26  O   UNL     1      -4.525 -21.707   3.415  1.00  0.00    -0.508 OA
ATOM     27  H   UNL     1      -4.243 -22.011   4.341  1.00  0.00     0.293 HD
ENDBRANCH   8  26
TORSDOF 6
ENDMDL
MODEL 8
REMARK VINA RESULT:    -4.612      4.397      6.332
REMARK INTER + INTRA:          -6.040
REMARK INTER:                  -5.627
REMARK INTRA:                  -0.413
REMARK UNBOUND:                -0.484
REMARK SMILES O=c1c(O)c(-c2ccc(O)cc2O)oc2cc(O)cc(O)c12
REMARK SMILES IDX 5 1 3 2 2 3 1 4 22 5 20 6 19 7 17 8 16 9 15 10 14 11 6 12
REMARK SMILES IDX 8 13 7 14 9 15 11 16 12 17 10 18 13 20 4 22 21 24 18 26
REMARK H PARENT 10 19 13 21 4 23 21 25 18 27
REMARK Flexibility Score: inf
ROOT
ATOM      1  C   UNL     1      -2.372 -17.623   2.633  1.00  0.00     0.184 A 
ATOM      2  C   UNL     1      -1.857 -16.868   3.700  1.00  0.00     0.208 A 
ATOM      3  C   UNL     1      -0.692 -16.109   3.499  1.00  0.00     0.238 A 
ATOM      4  O   UNL     1      -0.204 -15.482   4.474  1.00  0.00    -0.285 OA
ATOM      5  C   UNL     1      -0.070 -16.100   2.228  1.00  0.00     0.111 A 
ATOM      6  C   UNL     1       1.090 -15.335   1.899  1.00  0.00     0.134 A 
ATOM      7  C   UNL     1       1.695 -15.501   0.647  1.00  0.00     0.093 A 
ATOM      8  C   UNL     1       1.143 -16.354  -0.313  1.00  0.00     0.123 A 
ATOM      9  C   UNL     1      -0.023 -17.059  -0.022  1.00  0.00     0.094 A 
ATOM     10  C   UNL     1      -0.628 -16.942   1.230  1.00  0.00     0.146 A 
ATOM     11  O   UNL     1      -1.731 -17.640   1.469  1.00  0.00    -0.451 OA
ENDROOT
BRANCH   1  12
ATOM     12  C   UNL     1      -3.609 -18.426   2.769  1.00  0.00     0.063 A 
ATOM     13  C   UNL     1      -4.798 -20.325   3.718  1.00  0.00     0.047 A 
ATOM     14  C   UNL     1      -3.624 -19.583   3.568  1.00  0.00     0.020 A 
ATOM     15  C   UNL     1      -5.976 -19.916   3.083  1.00  0.00     0.119 A 
ATOM     16  C   UNL     1      -5.975 -18.760   2.298  1.00  0.00     0.093 A 
ATOM     17  C   UNL     1      -4.801 -18.010   2.139  1.00  0.00     0.130 A 
BRANCH  15  18
ATOM     18  O   UNL     1      -7.152 -20.649   3.228  1.00  0.00    -0.508 OA
ATOM     19  H   UNL     1      -8.046 -20.282   2.922  1.00  0.00     0.293 HD
ENDBRANCH  15  18
BRANCH  17  20
ATOM     20  O   UNL     1      -4.813 -16.862   1.347  1.00  0.00    -0.507 OA
ATOM     21  H   UNL     1      -3.967 -16.502   0.919  1.00  0.00     0.293 HD
ENDBRANCH  17  20
ENDBRANCH   1  12
BRANCH   2  22
ATOM     22  O   UNL     1      -2.481 -16.905   4.950  1.00  0.00    -0.502 OA
ATOM     23  H   UNL     1      -3.161 -17.614   5.197  1.00  0.00     0.293 HD
ENDBRANCH   2  22
BRANCH   6  24
ATOM     24  O   UNL     1       1.668 -14.389   2.750  1.00  0.00    -0.507 OA
ATOM     25  H   UNL     1       1.651 -14.435   3.758  1.00  0.00     0.293 HD
ENDBRANCH   6  24
BRANCH   8  26
ATOM     26  O   UNL     1       1.742 -16.500  -1.562  1.00  0.00    -0.508 OA
ATOM     27  H   UNL     1       1.240 -16.901  -2.346  1.00  0.00     0.293 HD
ENDBRANCH   8  26
TORSDOF 6
ENDMDL
MODEL 9
REMARK VINA RESULT:    -4.608      3.023      6.259
REMARK INTER + INTRA:          -6.035
REMARK INTER:                  -5.709
REMARK INTRA:                  -0.327
REMARK UNBOUND:                -0.484
REMARK SMILES O=c1c(O)c(-c2ccc(O)cc2O)oc2cc(O)cc(O)c12
REMARK SMILES IDX 5 1 3 2 2 3 1 4 22 5 20 6 19 7 17 8 16 9 15 10 14 11 6 12
REMARK SMILES IDX 8 13 7 14 9 15 11 16 12 17 10 18 13 20 4 22 21 24 18 26
REMARK H PARENT 10 19 13 21 4 23 21 25 18 27
REMARK Flexibility Score: inf
ROOT
ATOM      1  C   UNL     1      -0.808 -16.643   1.859  1.00  0.00     0.184 A 
ATOM      2  C   UNL     1      -0.160 -16.621   0.612  1.00  0.00     0.208 A 
ATOM      3  C   UNL     1       1.130 -16.072   0.523  1.00  0.00     0.238 A 
ATOM      4  O   UNL     1       1.680 -16.004  -0.606  1.00  0.00    -0.285 OA
ATOM      5  C   UNL     1       1.762 -15.571   1.685  1.00  0.00     0.111 A 
ATOM      6  C   UNL     1       3.083 -15.030   1.720  1.00  0.00     0.134 A 
ATOM      7  C   UNL     1       3.560 -14.446   2.900  1.00  0.00     0.093 A 
ATOM      8  C   UNL     1       2.789 -14.443   4.066  1.00  0.00     0.123 A 
ATOM      9  C   UNL     1       1.522 -15.022   4.057  1.00  0.00     0.094 A 
ATOM     10  C   UNL     1       1.005 -15.579   2.886  1.00  0.00     0.146 A 
ATOM     11  O   UNL     1      -0.211 -16.111   2.920  1.00  0.00    -0.451 OA
ENDROOT
BRANCH   1  12
ATOM     12  C   UNL     1      -2.158 -17.229   2.028  1.00  0.00     0.063 A 
ATOM     13  C   UNL     1      -3.593 -19.020   2.835  1.00  0.00     0.047 A 
ATOM     14  C   UNL     1      -2.318 -18.479   2.651  1.00  0.00     0.020 A 
ATOM     15  C   UNL     1      -4.726 -18.315   2.412  1.00  0.00     0.119 A 
ATOM     16  C   UNL     1      -4.577 -17.065   1.804  1.00  0.00     0.093 A 
ATOM     17  C   UNL     1      -3.301 -16.515   1.613  1.00  0.00     0.130 A 
BRANCH  15  18
ATOM     18  O   UNL     1      -6.001 -18.846   2.591  1.00  0.00    -0.508 OA
ATOM     19  H   UNL     1      -6.225 -19.427   3.390  1.00  0.00     0.293 HD
ENDBRANCH  15  18
BRANCH  17  20
ATOM     20  O   UNL     1      -3.167 -15.270   0.999  1.00  0.00    -0.507 OA
ATOM     21  H   UNL     1      -2.297 -14.751   1.033  1.00  0.00     0.293 HD
ENDBRANCH  17  20
ENDBRANCH   1  12
BRANCH   2  22
ATOM     22  O   UNL     1      -0.811 -17.109  -0.524  1.00  0.00    -0.502 OA
ATOM     23  H   UNL     1      -1.368 -17.955  -0.511  1.00  0.00     0.293 HD
ENDBRANCH   2  22
BRANCH   6  24
ATOM     24  O   UNL     1       3.969 -15.063   0.639  1.00  0.00    -0.507 OA
ATOM     25  H   UNL     1       4.835 -15.581   0.622  1.00  0.00     0.293 HD
ENDBRANCH   6  24
BRANCH   8  26
ATOM     26  O   UNL     1       3.277 -13.875   5.240  1.00  0.00    -0.508 OA
ATOM     27  H   UNL     1       2.980 -12.956   5.548  1.00  0.00     0.293 HD
ENDBRANCH   8  26
TORSDOF 6
ENDMDL
