MODEL 1
REMARK VINA RESULT:    -4.612      0.000      0.000
REMARK INTER + INTRA:          -9.836
REMARK INTER:                  -8.656
REMARK INTRA:                  -1.180
REMARK UNBOUND:                -1.180
REMARK SMILES CCCCCCCCC=CCCCCCCCC(=O)[O-]
REMARK SMILES IDX 10 1 9 2 11 3 12 4 13 5 14 6 15 7 16 8 17 9 18 10 19 11
REMARK SMILES IDX 20 12 8 13 7 14 6 15 5 16 4 17 3 18 2 19 1 20
REMARK H PARENT
REMARK Flexibility Score: inf
ROOT
ATOM      1  C   UNL     1       4.226   2.482  32.841  1.00  0.00    -0.031 C 
ATOM      2  C   UNL     1       5.420   2.440  32.230  1.00  0.00    -0.031 C 
ENDROOT
BRANCH   1   3
ATOM      3  C   UNL     1       3.082   1.616  32.390  1.00  0.00     0.027 C 
BRANCH   3   4
ATOM      4  C   UNL     1       3.448   0.834  31.120  1.00  0.00     0.004 C 
BRANCH   4   5
ATOM      5  C   UNL     1       3.318  -0.692  31.314  1.00  0.00     0.000 C 
BRANCH   5   6
ATOM      6  C   UNL     1       3.186  -1.122  32.787  1.00  0.00     0.000 C 
BRANCH   6   7
ATOM      7  C   UNL     1       1.965  -2.005  33.098  1.00  0.00     0.000 C 
BRANCH   7   8
ATOM      8  C   UNL     1       2.245  -3.035  34.207  1.00  0.00     0.006 C 
BRANCH   8   9
ATOM      9  C   UNL     1       3.541  -2.727  34.970  1.00  0.00     0.053 C 
BRANCH   9  10
ATOM     10  C   UNL     1       4.465  -3.907  35.002  1.00  0.00     0.041 C 
ATOM     11  O   UNL     1       5.674  -3.757  35.324  1.00  0.00    -0.550 OA
ATOM     12  O   UNL     1       3.986  -5.176  34.698  1.00  0.00    -0.550 OA
ENDBRANCH   9  10
ENDBRANCH   8   9
ENDBRANCH   7   8
ENDBRANCH   6   7
ENDBRANCH   5   6
ENDBRANCH   4   5
ENDBRANCH   3   4
ENDBRANCH   1   3
BRANCH   2  13
ATOM     13  C   UNL     1       6.573   3.287  32.695  1.00  0.00     0.027 C 
BRANCH  13  14
ATOM     14  C   UNL     1       6.271   4.780  32.519  1.00  0.00     0.004 C 
BRANCH  14  15
ATOM     15  C   UNL     1       6.616   5.565  33.793  1.00  0.00     0.000 C 
BRANCH  15  16
ATOM     16  C   UNL     1       6.415   4.738  35.076  1.00  0.00     0.000 C 
BRANCH  16  17
ATOM     17  C   UNL     1       6.542   5.535  36.391  1.00  0.00    -0.000 C 
BRANCH  17  18
ATOM     18  C   UNL     1       5.399   5.314  37.402  1.00  0.00    -0.000 C 
BRANCH  18  19
ATOM     19  C   UNL     1       4.521   6.549  37.667  1.00  0.00    -0.003 C 
ATOM     20  C   UNL     1       5.135   7.843  37.134  1.00  0.00     0.004 C 
ENDBRANCH  18  19
ENDBRANCH  17  18
ENDBRANCH  16  17
ENDBRANCH  15  16
ENDBRANCH  14  15
ENDBRANCH  13  14
ENDBRANCH   2  13
TORSDOF 15
ENDMDL
MODEL 2
REMARK VINA RESULT:    -4.561      6.451      9.292
REMARK INTER + INTRA:          -9.740
REMARK INTER:                  -8.565
REMARK INTRA:                  -1.176
REMARK UNBOUND:                -1.180
REMARK SMILES CCCCCCCCC=CCCCCCCCC(=O)[O-]
REMARK SMILES IDX 10 1 9 2 11 3 12 4 13 5 14 6 15 7 16 8 17 9 18 10 19 11
REMARK SMILES IDX 20 12 8 13 7 14 6 15 5 16 4 17 3 18 2 19 1 20
REMARK H PARENT
REMARK Flexibility Score: inf
ROOT
ATOM      1  C   UNL     1       2.658   0.505  29.283  1.00  0.00    -0.031 C 
ATOM      2  C   UNL     1       3.738   0.879  29.987  1.00  0.00    -0.031 C 
ENDROOT
BRANCH   1   3
ATOM      3  C   UNL     1       2.785  -0.125  27.923  1.00  0.00     0.027 C 
BRANCH   3   4
ATOM      4  C   UNL     1       1.410  -0.523  27.368  1.00  0.00     0.004 C 
BRANCH   4   5
ATOM      5  C   UNL     1       0.358   0.591  27.556  1.00  0.00     0.000 C 
BRANCH   5   6
ATOM      6  C   UNL     1       0.270   1.570  26.370  1.00  0.00     0.000 C 
BRANCH   6   7
ATOM      7  C   UNL     1      -0.813   2.655  26.503  1.00  0.00     0.000 C 
BRANCH   7   8
ATOM      8  C   UNL     1      -0.357   3.848  27.361  1.00  0.00     0.006 C 
BRANCH   8   9
ATOM      9  C   UNL     1      -1.508   4.820  27.659  1.00  0.00     0.053 C 
BRANCH   9  10
ATOM     10  C   UNL     1      -2.018   5.480  26.414  1.00  0.00     0.041 C 
ATOM     11  O   UNL     1      -1.220   6.063  25.633  1.00  0.00    -0.550 OA
ATOM     12  O   UNL     1      -3.372   5.434  26.105  1.00  0.00    -0.550 OA
ENDBRANCH   9  10
ENDBRANCH   8   9
ENDBRANCH   7   8
ENDBRANCH   6   7
ENDBRANCH   5   6
ENDBRANCH   4   5
ENDBRANCH   3   4
ENDBRANCH   1   3
BRANCH   2  13
ATOM     13  C   UNL     1       3.614   1.486  31.357  1.00  0.00     0.027 C 
BRANCH  13  14
ATOM     14  C   UNL     1       2.932   0.519  32.333  1.00  0.00     0.004 C 
BRANCH  14  15
ATOM     15  C   UNL     1       3.784  -0.740  32.544  1.00  0.00     0.000 C 
BRANCH  15  16
ATOM     16  C   UNL     1       3.076  -2.026  32.080  1.00  0.00     0.000 C 
BRANCH  16  17
ATOM     17  C   UNL     1       1.937  -2.510  33.000  1.00  0.00    -0.000 C 
BRANCH  17  18
ATOM     18  C   UNL     1       2.355  -2.815  34.453  1.00  0.00    -0.000 C 
BRANCH  18  19
ATOM     19  C   UNL     1       3.561  -3.759  34.595  1.00  0.00    -0.003 C 
ATOM     20  C   UNL     1       4.690  -3.163  35.436  1.00  0.00     0.004 C 
ENDBRANCH  18  19
ENDBRANCH  17  18
ENDBRANCH  16  17
ENDBRANCH  15  16
ENDBRANCH  14  15
ENDBRANCH  13  14
ENDBRANCH   2  13
TORSDOF 15
ENDMDL
MODEL 3
REMARK VINA RESULT:    -4.526     12.634     14.690
REMARK INTER + INTRA:          -9.676
REMARK INTER:                  -7.188
REMARK INTRA:                  -2.488
REMARK UNBOUND:                -1.180
REMARK SMILES CCCCCCCCC=CCCCCCCCC(=O)[O-]
REMARK SMILES IDX 10 1 9 2 11 3 12 4 13 5 14 6 15 7 16 8 17 9 18 10 19 11
REMARK SMILES IDX 20 12 8 13 7 14 6 15 5 16 4 17 3 18 2 19 1 20
REMARK H PARENT
REMARK Flexibility Score: inf
ROOT
ATOM      1  C   UNL     1       2.921   3.742  22.230  1.00  0.00    -0.031 C 
ATOM      2  C   UNL     1       4.174   3.260  22.243  1.00  0.00    -0.031 C 
ENDROOT
BRANCH   1   3
ATOM      3  C   UNL     1       1.805   3.010  21.539  1.00  0.00     0.027 C 
BRANCH   3   4
ATOM      4  C   UNL     1       2.349   2.077  20.447  1.00  0.00     0.004 C 
BRANCH   4   5
ATOM      5  C   UNL     1       1.702   2.346  19.071  1.00  0.00     0.000 C 
BRANCH   5   6
ATOM      6  C   UNL     1       0.966   1.128  18.482  1.00  0.00     0.000 C 
BRANCH   6   7
ATOM      7  C   UNL     1       0.996  -0.136  19.360  1.00  0.00     0.000 C 
BRANCH   7   8
ATOM      8  C   UNL     1      -0.386  -0.494  19.934  1.00  0.00     0.006 C 
BRANCH   8   9
ATOM      9  C   UNL     1      -1.255   0.751  20.167  1.00  0.00     0.053 C 
BRANCH   9  10
ATOM     10  C   UNL     1      -2.677   0.390  20.471  1.00  0.00     0.041 C 
ATOM     11  O   UNL     1      -3.220  -0.591  19.895  1.00  0.00    -0.550 OA
ATOM     12  O   UNL     1      -3.398   1.122  21.407  1.00  0.00    -0.550 OA
ENDBRANCH   9  10
ENDBRANCH   8   9
ENDBRANCH   7   8
ENDBRANCH   6   7
ENDBRANCH   5   6
ENDBRANCH   4   5
ENDBRANCH   3   4
ENDBRANCH   1   3
BRANCH   2  13
ATOM     13  C   UNL     1       5.287   3.978  22.956  1.00  0.00     0.027 C 
BRANCH  13  14
ATOM     14  C   UNL     1       6.448   4.287  22.002  1.00  0.00     0.004 C 
BRANCH  14  15
ATOM     15  C   UNL     1       6.474   3.296  20.830  1.00  0.00     0.000 C 
BRANCH  15  16
ATOM     16  C   UNL     1       6.439   3.993  19.458  1.00  0.00     0.000 C 
BRANCH  16  17
ATOM     17  C   UNL     1       5.143   3.779  18.650  1.00  0.00    -0.000 C 
BRANCH  17  18
ATOM     18  C   UNL     1       4.407   5.070  18.239  1.00  0.00    -0.000 C 
BRANCH  18  19
ATOM     19  C   UNL     1       3.487   5.663  19.319  1.00  0.00    -0.003 C 
ATOM     20  C   UNL     1       4.197   6.676  20.218  1.00  0.00     0.004 C 
ENDBRANCH  18  19
ENDBRANCH  17  18
ENDBRANCH  16  17
ENDBRANCH  15  16
ENDBRANCH  14  15
ENDBRANCH  13  14
ENDBRANCH   2  13
TORSDOF 15
ENDMDL
MODEL 4
REMARK VINA RESULT:    -4.524      4.525      6.741
REMARK INTER + INTRA:          -9.671
REMARK INTER:                  -8.789
REMARK INTRA:                  -0.882
REMARK UNBOUND:                -1.180
REMARK SMILES CCCCCCCCC=CCCCCCCCC(=O)[O-]
REMARK SMILES IDX 10 1 9 2 11 3 12 4 13 5 14 6 15 7 16 8 17 9 18 10 19 11
REMARK SMILES IDX 20 12 8 13 7 14 6 15 5 16 4 17 3 18 2 19 1 20
REMARK H PARENT
REMARK Flexibility Score: inf
ROOT
ATOM      1  C   UNL     1       3.076   1.104  30.474  1.00  0.00    -0.031 C 
ATOM      2  C   UNL     1       2.759   0.218  29.517  1.00  0.00    -0.031 C 
ENDROOT
BRANCH   1   3
ATOM      3  C   UNL     1       3.184   0.696  31.918  1.00  0.00     0.027 C 
BRANCH   3   4
ATOM      4  C   UNL     1       4.185  -0.455  32.093  1.00  0.00     0.004 C 
BRANCH   4   5
ATOM      5  C   UNL     1       3.483  -1.816  32.291  1.00  0.00     0.000 C 
BRANCH   5   6
ATOM      6  C   UNL     1       2.280  -1.761  33.252  1.00  0.00     0.000 C 
BRANCH   6   7
ATOM      7  C   UNL     1       2.302  -2.807  34.380  1.00  0.00     0.000 C 
BRANCH   7   8
ATOM      8  C   UNL     1       3.593  -3.644  34.388  1.00  0.00     0.006 C 
BRANCH   8   9
ATOM      9  C   UNL     1       4.541  -3.235  35.525  1.00  0.00     0.053 C 
BRANCH   9  10
ATOM     10  C   UNL     1       4.876  -4.392  36.417  1.00  0.00     0.041 C 
ATOM     11  O   UNL     1       4.854  -5.568  35.964  1.00  0.00    -0.550 OA
ATOM     12  O   UNL     1       5.233  -4.171  37.741  1.00  0.00    -0.550 OA
ENDBRANCH   9  10
ENDBRANCH   8   9
ENDBRANCH   7   8
ENDBRANCH   6   7
ENDBRANCH   5   6
ENDBRANCH   4   5
ENDBRANCH   3   4
ENDBRANCH   1   3
BRANCH   2  13
ATOM     13  C   UNL     1       2.675   0.618  28.070  1.00  0.00     0.027 C 
BRANCH  13  14
ATOM     14  C   UNL     1       1.245   0.466  27.534  1.00  0.00     0.004 C 
BRANCH  14  15
ATOM     15  C   UNL     1       1.126   1.040  26.116  1.00  0.00     0.000 C 
BRANCH  15  16
ATOM     16  C   UNL     1      -0.023   2.055  25.977  1.00  0.00     0.000 C 
BRANCH  16  17
ATOM     17  C   UNL     1      -0.342   2.856  27.255  1.00  0.00    -0.000 C 
BRANCH  17  18
ATOM     18  C   UNL     1      -0.158   4.383  27.134  1.00  0.00    -0.000 C 
BRANCH  18  19
ATOM     19  C   UNL     1      -0.930   5.213  28.173  1.00  0.00    -0.003 C 
ATOM     20  C   UNL     1      -0.057   6.252  28.875  1.00  0.00     0.004 C 
ENDBRANCH  18  19
ENDBRANCH  17  18
ENDBRANCH  16  17
ENDBRANCH  15  16
ENDBRANCH  14  15
ENDBRANCH  13  14
ENDBRANCH   2  13
TORSDOF 15
ENDMDL
MODEL 5
REMARK VINA RESULT:    -4.464      3.819      8.710
REMARK INTER + INTRA:          -9.558
REMARK INTER:                  -8.521
REMARK INTRA:                  -1.037
REMARK UNBOUND:                -1.180
REMARK SMILES CCCCCCCCC=CCCCCCCCC(=O)[O-]
REMARK SMILES IDX 10 1 9 2 11 3 12 4 13 5 14 6 15 7 16 8 17 9 18 10 19 11
REMARK SMILES IDX 20 12 8 13 7 14 6 15 5 16 4 17 3 18 2 19 1 20
REMARK H PARENT
REMARK Flexibility Score: inf
ROOT
ATOM      1  C   UNL     1       5.283   2.337  31.851  1.00  0.00    -0.031 C 
ATOM      2  C   UNL     1       4.138   2.284  32.550  1.00  0.00    -0.031 C 
ENDROOT
BRANCH   1   3
ATOM      3  C   UNL     1       6.427   3.214  32.282  1.00  0.00     0.027 C 
BRANCH   3   4
ATOM      4  C   UNL     1       6.090   3.963  33.580  1.00  0.00     0.004 C 
BRANCH   4   5
ATOM      5  C   UNL     1       6.880   5.282  33.715  1.00  0.00     0.000 C 
BRANCH   5   6
ATOM      6  C   UNL     1       5.992   6.540  33.727  1.00  0.00     0.000 C 
BRANCH   6   7
ATOM      7  C   UNL     1       6.673   7.810  34.266  1.00  0.00     0.000 C 
BRANCH   7   8
ATOM      8  C   UNL     1       5.820   8.540  35.319  1.00  0.00     0.006 C 
BRANCH   8   9
ATOM      9  C   UNL     1       4.740   7.629  35.920  1.00  0.00     0.053 C 
BRANCH   9  10
ATOM     10  C   UNL     1       5.131   7.115  37.272  1.00  0.00     0.041 C 
ATOM     11  O   UNL     1       4.246   6.778  38.103  1.00  0.00    -0.550 OA
ATOM     12  O   UNL     1       6.474   6.988  37.608  1.00  0.00    -0.550 OA
ENDBRANCH   9  10
ENDBRANCH   8   9
ENDBRANCH   7   8
ENDBRANCH   6   7
ENDBRANCH   5   6
ENDBRANCH   4   5
ENDBRANCH   3   4
ENDBRANCH   1   3
BRANCH   2  13
ATOM     13  C   UNL     1       3.002   1.390  32.136  1.00  0.00     0.027 C 
BRANCH  13  14
ATOM     14  C   UNL     1       3.391   0.520  30.934  1.00  0.00     0.004 C 
BRANCH  14  15
ATOM     15  C   UNL     1       3.247  -0.972  31.265  1.00  0.00     0.000 C 
BRANCH  15  16
ATOM     16  C   UNL     1       3.208  -1.246  32.779  1.00  0.00     0.000 C 
BRANCH  16  17
ATOM     17  C   UNL     1       2.145  -2.269  33.229  1.00  0.00    -0.000 C 
BRANCH  17  18
ATOM     18  C   UNL     1       2.669  -3.400  34.138  1.00  0.00    -0.000 C 
BRANCH  18  19
ATOM     19  C   UNL     1       3.426  -2.926  35.390  1.00  0.00    -0.003 C 
ATOM     20  C   UNL     1       4.878  -3.401  35.424  1.00  0.00     0.004 C 
ENDBRANCH  18  19
ENDBRANCH  17  18
ENDBRANCH  16  17
ENDBRANCH  15  16
ENDBRANCH  14  15
ENDBRANCH  13  14
ENDBRANCH   2  13
TORSDOF 15
ENDMDL
MODEL 6
REMARK VINA RESULT:    -4.404      4.989      8.793
REMARK INTER + INTRA:          -9.446
REMARK INTER:                  -7.609
REMARK INTRA:                  -1.837
REMARK UNBOUND:                -1.180
REMARK SMILES CCCCCCCCC=CCCCCCCCC(=O)[O-]
REMARK SMILES IDX 10 1 9 2 11 3 12 4 13 5 14 6 15 7 16 8 17 9 18 10 19 11
REMARK SMILES IDX 20 12 8 13 7 14 6 15 5 16 4 17 3 18 2 19 1 20
REMARK H PARENT
REMARK Flexibility Score: inf
ROOT
ATOM      1  C   UNL     1       7.974   4.518  35.790  1.00  0.00    -0.031 C 
ATOM      2  C   UNL     1       7.982   5.552  34.934  1.00  0.00    -0.031 C 
ENDROOT
BRANCH   1   3
ATOM      3  C   UNL     1       7.618   4.700  37.239  1.00  0.00     0.027 C 
BRANCH   3   4
ATOM      4  C   UNL     1       6.975   6.074  37.481  1.00  0.00     0.004 C 
BRANCH   4   5
ATOM      5  C   UNL     1       5.435   6.027  37.372  1.00  0.00     0.000 C 
BRANCH   5   6
ATOM      6  C   UNL     1       4.761   7.406  37.494  1.00  0.00     0.000 C 
BRANCH   6   7
ATOM      7  C   UNL     1       4.150   7.948  36.190  1.00  0.00     0.000 C 
BRANCH   7   8
ATOM      8  C   UNL     1       4.948   7.530  34.942  1.00  0.00     0.006 C 
BRANCH   8   9
ATOM      9  C   UNL     1       5.495   8.742  34.173  1.00  0.00     0.053 C 
BRANCH   9  10
ATOM     10  C   UNL     1       6.953   8.961  34.439  1.00  0.00     0.041 C 
ATOM     11  O   UNL     1       7.781   8.938  33.489  1.00  0.00    -0.550 OA
ATOM     12  O   UNL     1       7.397   9.212  35.732  1.00  0.00    -0.550 OA
ENDBRANCH   9  10
ENDBRANCH   8   9
ENDBRANCH   7   8
ENDBRANCH   6   7
ENDBRANCH   5   6
ENDBRANCH   4   5
ENDBRANCH   3   4
ENDBRANCH   1   3
BRANCH   2  13
ATOM     13  C   UNL     1       8.314   5.367  33.478  1.00  0.00     0.027 C 
BRANCH  13  14
ATOM     14  C   UNL     1       7.075   5.567  32.597  1.00  0.00     0.004 C 
BRANCH  14  15
ATOM     15  C   UNL     1       6.040   4.460  32.844  1.00  0.00     0.000 C 
BRANCH  15  16
ATOM     16  C   UNL     1       6.329   3.181  32.039  1.00  0.00     0.000 C 
BRANCH  16  17
ATOM     17  C   UNL     1       5.503   1.948  32.455  1.00  0.00    -0.000 C 
BRANCH  17  18
ATOM     18  C   UNL     1       3.980   2.177  32.533  1.00  0.00    -0.000 C 
BRANCH  18  19
ATOM     19  C   UNL     1       3.124   1.052  31.927  1.00  0.00    -0.003 C 
ATOM     20  C   UNL     1       3.097   1.079  30.399  1.00  0.00     0.004 C 
ENDBRANCH  18  19
ENDBRANCH  17  18
ENDBRANCH  16  17
ENDBRANCH  15  16
ENDBRANCH  14  15
ENDBRANCH  13  14
ENDBRANCH   2  13
TORSDOF 15
ENDMDL
MODEL 7
REMARK VINA RESULT:    -4.386     13.016     14.820
REMARK INTER + INTRA:          -9.413
REMARK INTER:                  -7.495
REMARK INTRA:                  -1.918
REMARK UNBOUND:                -1.180
REMARK SMILES CCCCCCCCC=CCCCCCCCC(=O)[O-]
REMARK SMILES IDX 10 1 9 2 11 3 12 4 13 5 14 6 15 7 16 8 17 9 18 10 19 11
REMARK SMILES IDX 20 12 8 13 7 14 6 15 5 16 4 17 3 18 2 19 1 20
REMARK H PARENT
REMARK Flexibility Score: inf
ROOT
ATOM      1  C   UNL     1       3.911   5.120  18.256  1.00  0.00    -0.031 C 
ATOM      2  C   UNL     1       3.608   5.953  19.264  1.00  0.00    -0.031 C 
ENDROOT
BRANCH   1   3
ATOM      3  C   UNL     1       3.268   3.766  18.135  1.00  0.00     0.027 C 
BRANCH   3   4
ATOM      4  C   UNL     1       2.558   3.373  19.439  1.00  0.00     0.004 C 
BRANCH   4   5
ATOM      5  C   UNL     1       2.247   1.863  19.504  1.00  0.00     0.000 C 
BRANCH   5   6
ATOM      6  C   UNL     1       1.179   1.404  18.493  1.00  0.00     0.000 C 
BRANCH   6   7
ATOM      7  C   UNL     1       0.183   0.361  19.030  1.00  0.00     0.000 C 
BRANCH   7   8
ATOM      8  C   UNL     1      -0.643   0.886  20.218  1.00  0.00     0.006 C 
BRANCH   8   9
ATOM      9  C   UNL     1      -2.114   0.451  20.137  1.00  0.00     0.053 C 
BRANCH   9  10
ATOM     10  C   UNL     1      -2.291  -0.991  20.506  1.00  0.00     0.041 C 
ATOM     11  O   UNL     1      -3.032  -1.737  19.811  1.00  0.00    -0.550 OA
ATOM     12  O   UNL     1      -1.621  -1.518  21.604  1.00  0.00    -0.550 OA
ENDBRANCH   9  10
ENDBRANCH   8   9
ENDBRANCH   7   8
ENDBRANCH   6   7
ENDBRANCH   5   6
ENDBRANCH   4   5
ENDBRANCH   3   4
ENDBRANCH   1   3
BRANCH   2  13
ATOM     13  C   UNL     1       4.232   7.317  19.374  1.00  0.00     0.027 C 
BRANCH  13  14
ATOM     14  C   UNL     1       4.704   7.598  20.806  1.00  0.00     0.004 C 
BRANCH  14  15
ATOM     15  C   UNL     1       6.009   6.850  21.111  1.00  0.00     0.000 C 
BRANCH  15  16
ATOM     16  C   UNL     1       5.973   6.109  22.460  1.00  0.00     0.000 C 
BRANCH  16  17
ATOM     17  C   UNL     1       6.402   4.629  22.402  1.00  0.00    -0.000 C 
BRANCH  17  18
ATOM     18  C   UNL     1       5.655   3.772  21.360  1.00  0.00    -0.000 C 
BRANCH  18  19
ATOM     19  C   UNL     1       6.527   3.250  20.206  1.00  0.00    -0.003 C 
ATOM     20  C   UNL     1       6.117   1.856  19.730  1.00  0.00     0.004 C 
ENDBRANCH  18  19
ENDBRANCH  17  18
ENDBRANCH  16  17
ENDBRANCH  15  16
ENDBRANCH  14  15
ENDBRANCH  13  14
ENDBRANCH   2  13
TORSDOF 15
ENDMDL
MODEL 8
REMARK VINA RESULT:    -4.367     12.589     14.770
REMARK INTER + INTRA:          -9.378
REMARK INTER:                  -7.083
REMARK INTRA:                  -2.295
REMARK UNBOUND:                -1.180
REMARK SMILES CCCCCCCCC=CCCCCCCCC(=O)[O-]
REMARK SMILES IDX 10 1 9 2 11 3 12 4 13 5 14 6 15 7 16 8 17 9 18 10 19 11
REMARK SMILES IDX 20 12 8 13 7 14 6 15 5 16 4 17 3 18 2 19 1 20
REMARK H PARENT
REMARK Flexibility Score: inf
ROOT
ATOM      1  C   UNL     1       3.645   3.414  18.315  1.00  0.00    -0.031 C 
ATOM      2  C   UNL     1       3.847   4.608  18.892  1.00  0.00    -0.031 C 
ENDROOT
BRANCH   1   3
ATOM      3  C   UNL     1       2.259   2.894  18.048  1.00  0.00     0.027 C 
BRANCH   3   4
ATOM      4  C   UNL     1       1.531   2.562  19.359  1.00  0.00     0.004 C 
BRANCH   4   5
ATOM      5  C   UNL     1       0.512   1.415  19.188  1.00  0.00     0.000 C 
BRANCH   5   6
ATOM      6  C   UNL     1       0.787   0.199  20.093  1.00  0.00     0.000 C 
BRANCH   6   7
ATOM      7  C   UNL     1      -0.267  -0.919  20.015  1.00  0.00     0.000 C 
BRANCH   7   8
ATOM      8  C   UNL     1      -1.625  -0.420  19.491  1.00  0.00     0.006 C 
BRANCH   8   9
ATOM      9  C   UNL     1      -2.661  -0.275  20.616  1.00  0.00     0.053 C 
BRANCH   9  10
ATOM     10  C   UNL     1      -2.751   1.136  21.113  1.00  0.00     0.041 C 
ATOM     11  O   UNL     1      -2.116   1.488  22.143  1.00  0.00    -0.550 OA
ATOM     12  O   UNL     1      -3.520   2.069  20.427  1.00  0.00    -0.550 OA
ENDBRANCH   9  10
ENDBRANCH   8   9
ENDBRANCH   7   8
ENDBRANCH   6   7
ENDBRANCH   5   6
ENDBRANCH   4   5
ENDBRANCH   3   4
ENDBRANCH   1   3
BRANCH   2  13
ATOM     13  C   UNL     1       5.232   5.141  19.138  1.00  0.00     0.027 C 
BRANCH  13  14
ATOM     14  C   UNL     1       6.283   4.032  19.009  1.00  0.00     0.004 C 
BRANCH  14  15
ATOM     15  C   UNL     1       6.762   3.565  20.391  1.00  0.00     0.000 C 
BRANCH  15  16
ATOM     16  C   UNL     1       6.171   4.400  21.542  1.00  0.00     0.000 C 
BRANCH  16  17
ATOM     17  C   UNL     1       5.366   3.597  22.583  1.00  0.00    -0.000 C 
BRANCH  17  18
ATOM     18  C   UNL     1       4.169   2.806  22.016  1.00  0.00    -0.000 C 
BRANCH  18  19
ATOM     19  C   UNL     1       4.324   1.277  22.063  1.00  0.00    -0.003 C 
ATOM     20  C   UNL     1       4.483   0.650  20.678  1.00  0.00     0.004 C 
ENDBRANCH  18  19
ENDBRANCH  17  18
ENDBRANCH  16  17
ENDBRANCH  15  16
ENDBRANCH  14  15
ENDBRANCH  13  14
ENDBRANCH   2  13
TORSDOF 15
ENDMDL
MODEL 9
REMARK VINA RESULT:    -4.338      8.382      9.642
REMARK INTER + INTRA:          -9.322
REMARK INTER:                  -7.081
REMARK INTRA:                  -2.240
REMARK UNBOUND:                -1.180
REMARK SMILES CCCCCCCCC=CCCCCCCCC(=O)[O-]
REMARK SMILES IDX 10 1 9 2 11 3 12 4 13 5 14 6 15 7 16 8 17 9 18 10 19 11
REMARK SMILES IDX 20 12 8 13 7 14 6 15 5 16 4 17 3 18 2 19 1 20
REMARK H PARENT
REMARK Flexibility Score: inf
ROOT
ATOM      1  C   UNL     1      12.252   2.746  28.751  1.00  0.00    -0.031 C 
ATOM      2  C   UNL     1      13.209   3.684  28.675  1.00  0.00    -0.031 C 
ENDROOT
BRANCH   1   3
ATOM      3  C   UNL     1      12.589   1.295  28.960  1.00  0.00     0.027 C 
BRANCH   3   4
ATOM      4  C   UNL     1      13.103   1.048  30.386  1.00  0.00     0.004 C 
BRANCH   4   5
ATOM      5  C   UNL     1      14.194  -0.043  30.433  1.00  0.00     0.000 C 
BRANCH   5   6
ATOM      6  C   UNL     1      13.874  -1.202  31.396  1.00  0.00     0.000 C 
BRANCH   6   7
ATOM      7  C   UNL     1      13.095  -0.798  32.661  1.00  0.00     0.000 C 
BRANCH   7   8
ATOM      8  C   UNL     1      13.909  -1.005  33.950  1.00  0.00     0.006 C 
BRANCH   8   9
ATOM      9  C   UNL     1      13.913   0.248  34.838  1.00  0.00     0.053 C 
BRANCH   9  10
ATOM     10  C   UNL     1      14.032  -0.097  36.292  1.00  0.00     0.041 C 
ATOM     11  O   UNL     1      13.190   0.343  37.119  1.00  0.00    -0.550 OA
ATOM     12  O   UNL     1      15.061  -0.922  36.730  1.00  0.00    -0.550 OA
ENDBRANCH   9  10
ENDBRANCH   8   9
ENDBRANCH   7   8
ENDBRANCH   6   7
ENDBRANCH   5   6
ENDBRANCH   4   5
ENDBRANCH   3   4
ENDBRANCH   1   3
BRANCH   2  13
ATOM     13  C   UNL     1      12.873   5.139  28.491  1.00  0.00     0.027 C 
BRANCH  13  14
ATOM     14  C   UNL     1      13.661   6.018  29.469  1.00  0.00     0.004 C 
BRANCH  14  15
ATOM     15  C   UNL     1      14.623   5.173  30.316  1.00  0.00     0.000 C 
BRANCH  15  16
ATOM     16  C   UNL     1      14.335   5.271  31.825  1.00  0.00     0.000 C 
BRANCH  16  17
ATOM     17  C   UNL     1      13.659   4.030  32.441  1.00  0.00    -0.000 C 
BRANCH  17  18
ATOM     18  C   UNL     1      12.122   3.990  32.313  1.00  0.00    -0.000 C 
BRANCH  18  19
ATOM     19  C   UNL     1      11.422   5.347  32.503  1.00  0.00    -0.003 C 
ATOM     20  C   UNL     1      10.515   5.719  31.331  1.00  0.00     0.004 C 
ENDBRANCH  18  19
ENDBRANCH  17  18
ENDBRANCH  16  17
ENDBRANCH  15  16
ENDBRANCH  14  15
ENDBRANCH  13  14
ENDBRANCH   2  13
TORSDOF 15
ENDMDL
