MODEL 1
REMARK VINA RESULT:    -7.935      0.000      0.000
REMARK INTER + INTRA:          -9.839
REMARK INTER:                 -11.414
REMARK INTRA:                   1.575
REMARK UNBOUND:                 1.575
REMARK SMILES O=c1cc(-c2ccc(O)c(O)c2)oc2cc(O[C@H]3O[C@@H](CO)[C@H](O)[C@@H](O)[C@@H]3O)cc(O)c12
REMARK SMILES IDX 17 1 16 2 4 3 3 4 13 5 2 6 14 7 1 8 32 9 15 10 30 11 29 12
REMARK SMILES IDX 5 13 6 14 7 15 8 16 12 17 10 18 9 19 11 21 31 23 18 25 27 26
REMARK SMILES IDX 19 27 25 28 20 29 23 30 28 31 26 33 21 35 22 36 24 38
REMARK H PARENT 9 20 11 22 31 24 28 32 26 34 22 37 24 39
REMARK Flexibility Score: inf
ROOT
ATOM      1  O   UNL     1      -2.739  -0.057  12.141  1.00  0.00    -0.462 OA
ENDROOT
BRANCH   1   2
ATOM      2  C   UNL     1      -3.866  -0.891  12.062  1.00  0.00     0.130 A 
ATOM      3  C   UNL     1      -6.741  -4.230  13.902  1.00  0.00     0.138 A 
ATOM      4  C   UNL     1      -7.585  -4.209  12.779  1.00  0.00     0.100 A 
ATOM      5  O   UNL     1      -5.682  -3.423  13.940  1.00  0.00    -0.456 OA
ATOM      6  C   UNL     1      -7.292  -3.353  11.717  1.00  0.00     0.197 A 
ATOM      7  C   UNL     1      -5.363  -2.590  12.955  1.00  0.00     0.146 A 
ATOM      8  O   UNL     1      -8.056  -3.339  10.714  1.00  0.00    -0.289 OA
ATOM      9  C   UNL     1      -6.158  -2.519  11.787  1.00  0.00     0.107 A 
ATOM     10  C   UNL     1      -4.228  -1.784  13.086  1.00  0.00     0.094 A 
ATOM     11  C   UNL     1      -5.788  -1.626  10.755  1.00  0.00     0.134 A 
ATOM     12  C   UNL     1      -4.648  -0.826  10.906  1.00  0.00     0.093 A 
BRANCH   3  13
ATOM     13  C   UNL     1      -7.002  -5.118  15.062  1.00  0.00     0.021 A 
ATOM     14  C   UNL     1      -8.099  -5.992  15.030  1.00  0.00     0.016 A 
ATOM     15  C   UNL     1      -8.370  -6.831  16.112  1.00  0.00     0.051 A 
ATOM     16  C   UNL     1      -7.561  -6.812  17.252  1.00  0.00     0.157 A 
ATOM     17  C   UNL     1      -6.195  -5.086  16.215  1.00  0.00     0.062 A 
ATOM     18  C   UNL     1      -6.462  -5.923  17.307  1.00  0.00     0.158 A 
BRANCH  16  19
ATOM     19  O   UNL     1      -7.882  -7.680  18.297  1.00  0.00    -0.504 OA
ATOM     20  H   UNL     1      -7.720  -7.475  19.273  1.00  0.00     0.293 HD
ENDBRANCH  16  19
BRANCH  18  21
ATOM     21  O   UNL     1      -5.618  -5.835  18.416  1.00  0.00    -0.504 OA
ATOM     22  H   UNL     1      -5.878  -6.127  19.348  1.00  0.00     0.293 HD
ENDBRANCH  18  21
ENDBRANCH   3  13
BRANCH  11  23
ATOM     23  O   UNL     1      -6.544  -1.528   9.587  1.00  0.00    -0.507 OA
ATOM     24  H   UNL     1      -7.544  -1.688   9.584  1.00  0.00     0.293 HD
ENDBRANCH  11  23
ENDBRANCH   1   2
BRANCH   1  25
ATOM     25  C   UNL     1      -1.722   0.090  11.145  1.00  0.00     0.339 C 
ATOM     26  C   UNL     1      -1.786  -1.030  10.085  1.00  0.00     0.214 C 
ATOM     27  O   UNL     1      -0.441   0.182  11.751  1.00  0.00    -0.332 OA
ATOM     28  C   UNL     1      -1.371  -2.379  10.687  1.00  0.00     0.180 C 
ATOM     29  C   UNL     1       0.002  -1.021  12.374  1.00  0.00     0.179 C 
ATOM     30  C   UNL     1      -0.027  -2.250  11.433  1.00  0.00     0.177 C 
BRANCH  26  31
ATOM     31  O   UNL     1      -0.938  -0.692   9.015  1.00  0.00    -0.384 OA
ATOM     32  H   UNL     1      -0.479   0.151   9.266  1.00  0.00     0.211 HD
ENDBRANCH  26  31
BRANCH  28  33
ATOM     33  O   UNL     1      -2.378  -2.840  11.551  1.00  0.00    -0.387 OA
ATOM     34  H   UNL     1      -3.153  -2.229  11.443  1.00  0.00     0.211 HD
ENDBRANCH  28  33
BRANCH  29  35
ATOM     35  C   UNL     1      -0.661  -1.274  13.743  1.00  0.00     0.191 C 
BRANCH  35  36
ATOM     36  O   UNL     1      -0.932  -2.640  13.895  1.00  0.00    -0.394 OA
ATOM     37  H   UNL     1      -0.124  -3.119  13.575  1.00  0.00     0.210 HD
ENDBRANCH  35  36
ENDBRANCH  29  35
BRANCH  30  38
ATOM     38  O   UNL     1       1.020  -2.128  10.502  1.00  0.00    -0.387 OA
ATOM     39  H   UNL     1       1.247  -3.046  10.198  1.00  0.00     0.211 HD
ENDBRANCH  30  38
ENDBRANCH   1  25
TORSDOF 11
ENDMDL
MODEL 2
REMARK VINA RESULT:    -7.797      2.331      4.176
REMARK INTER + INTRA:          -9.640
REMARK INTER:                 -11.611
REMARK INTRA:                   1.971
REMARK UNBOUND:                 1.575
REMARK SMILES O=c1cc(-c2ccc(O)c(O)c2)oc2cc(O[C@H]3O[C@@H](CO)[C@H](O)[C@@H](O)[C@@H]3O)cc(O)c12
REMARK SMILES IDX 17 1 16 2 4 3 3 4 13 5 2 6 14 7 1 8 32 9 15 10 30 11 29 12
REMARK SMILES IDX 5 13 6 14 7 15 8 16 12 17 10 18 9 19 11 21 31 23 18 25 27 26
REMARK SMILES IDX 19 27 25 28 20 29 23 30 28 31 26 33 21 35 22 36 24 38
REMARK H PARENT 9 20 11 22 31 24 28 32 26 34 22 37 24 39
REMARK Flexibility Score: inf
ROOT
ATOM      1  O   UNL     1      -3.037  -2.329   9.875  1.00  0.00    -0.462 OA
ENDROOT
BRANCH   1   2
ATOM      2  C   UNL     1      -3.532  -2.073  11.163  1.00  0.00     0.130 A 
ATOM      3  C   UNL     1      -5.791  -3.462  15.135  1.00  0.00     0.138 A 
ATOM      4  C   UNL     1      -5.628  -2.206  15.740  1.00  0.00     0.100 A 
ATOM      5  O   UNL     1      -5.306  -3.668  13.911  1.00  0.00    -0.456 OA
ATOM      6  C   UNL     1      -4.974  -1.189  15.044  1.00  0.00     0.197 A 
ATOM      7  C   UNL     1      -4.675  -2.732  13.209  1.00  0.00     0.146 A 
ATOM      8  O   UNL     1      -4.832  -0.064  15.595  1.00  0.00    -0.289 OA
ATOM      9  C   UNL     1      -4.483  -1.437  13.747  1.00  0.00     0.107 A 
ATOM     10  C   UNL     1      -4.205  -3.042  11.930  1.00  0.00     0.094 A 
ATOM     11  C   UNL     1      -3.812  -0.463  12.972  1.00  0.00     0.134 A 
ATOM     12  C   UNL     1      -3.347  -0.793  11.692  1.00  0.00     0.093 A 
BRANCH   3  13
ATOM     13  C   UNL     1      -6.476  -4.583  15.827  1.00  0.00     0.021 A 
ATOM     14  C   UNL     1      -7.114  -4.351  17.054  1.00  0.00     0.016 A 
ATOM     15  C   UNL     1      -7.759  -5.390  17.727  1.00  0.00     0.051 A 
ATOM     16  C   UNL     1      -7.773  -6.684  17.198  1.00  0.00     0.157 A 
ATOM     17  C   UNL     1      -6.476  -5.889  15.299  1.00  0.00     0.062 A 
ATOM     18  C   UNL     1      -7.117  -6.938  15.971  1.00  0.00     0.158 A 
BRANCH  16  19
ATOM     19  O   UNL     1      -8.440  -7.677  17.918  1.00  0.00    -0.504 OA
ATOM     20  H   UNL     1      -9.016  -7.498  18.728  1.00  0.00     0.293 HD
ENDBRANCH  16  19
BRANCH  18  21
ATOM     21  O   UNL     1      -7.075  -8.206  15.388  1.00  0.00    -0.504 OA
ATOM     22  H   UNL     1      -7.240  -8.383  14.407  1.00  0.00     0.293 HD
ENDBRANCH  18  21
ENDBRANCH   3  13
BRANCH  11  23
ATOM     23  O   UNL     1      -3.604   0.826  13.465  1.00  0.00    -0.507 OA
ATOM     24  H   UNL     1      -4.133   1.619  13.122  1.00  0.00     0.293 HD
ENDBRANCH  11  23
ENDBRANCH   1   2
BRANCH   1  25
ATOM     25  C   UNL     1      -3.248  -1.525   8.711  1.00  0.00     0.339 C 
ATOM     26  C   UNL     1      -4.334  -0.452   8.939  1.00  0.00     0.214 C 
ATOM     27  O   UNL     1      -3.532  -2.342   7.585  1.00  0.00    -0.332 OA
ATOM     28  C   UNL     1      -5.721  -1.095   9.069  1.00  0.00     0.180 C 
ATOM     29  C   UNL     1      -4.787  -3.013   7.647  1.00  0.00     0.179 C 
ATOM     30  C   UNL     1      -5.983  -2.062   7.896  1.00  0.00     0.177 C 
BRANCH  26  31
ATOM     31  O   UNL     1      -4.314   0.451   7.862  1.00  0.00    -0.384 OA
ATOM     32  H   UNL     1      -5.087   1.061   7.983  1.00  0.00     0.211 HD
ENDBRANCH  26  31
BRANCH  28  33
ATOM     33  O   UNL     1      -5.817  -1.766  10.299  1.00  0.00    -0.387 OA
ATOM     34  H   UNL     1      -6.156  -2.679  10.104  1.00  0.00     0.211 HD
ENDBRANCH  28  33
BRANCH  29  35
ATOM     35  C   UNL     1      -4.772  -4.244   8.575  1.00  0.00     0.191 C 
BRANCH  35  36
ATOM     36  O   UNL     1      -5.959  -4.295   9.316  1.00  0.00    -0.394 OA
ATOM     37  H   UNL     1      -6.211  -3.353   9.500  1.00  0.00     0.210 HD
ENDBRANCH  35  36
ENDBRANCH  29  35
BRANCH  30  38
ATOM     38  O   UNL     1      -6.225  -1.326   6.722  1.00  0.00    -0.387 OA
ATOM     39  H   UNL     1      -5.727  -0.471   6.807  1.00  0.00     0.211 HD
ENDBRANCH  30  38
ENDBRANCH   1  25
TORSDOF 11
ENDMDL
MODEL 3
REMARK VINA RESULT:    -7.745      2.086      3.020
REMARK INTER + INTRA:          -9.566
REMARK INTER:                  -9.309
REMARK INTRA:                  -0.257
REMARK UNBOUND:                 1.575
REMARK SMILES O=c1cc(-c2ccc(O)c(O)c2)oc2cc(O[C@H]3O[C@@H](CO)[C@H](O)[C@@H](O)[C@@H]3O)cc(O)c12
REMARK SMILES IDX 17 1 16 2 4 3 3 4 13 5 2 6 14 7 1 8 32 9 15 10 30 11 29 12
REMARK SMILES IDX 5 13 6 14 7 15 8 16 12 17 10 18 9 19 11 21 31 23 18 25 27 26
REMARK SMILES IDX 19 27 25 28 20 29 23 30 28 31 26 33 21 35 22 36 24 38
REMARK H PARENT 9 20 11 22 31 24 28 32 26 34 22 37 24 39
REMARK Flexibility Score: inf
ROOT
ATOM      1  O   UNL     1      -3.227  -0.121  11.501  1.00  0.00    -0.462 OA
ENDROOT
BRANCH   1   2
ATOM      2  C   UNL     1      -4.292  -1.035  11.540  1.00  0.00     0.130 A 
ATOM      3  C   UNL     1      -6.877  -4.360  13.792  1.00  0.00     0.138 A 
ATOM      4  C   UNL     1      -7.745  -4.513  12.699  1.00  0.00     0.100 A 
ATOM      5  O   UNL     1      -5.879  -3.481  13.718  1.00  0.00    -0.456 OA
ATOM      6  C   UNL     1      -7.538  -3.753  11.547  1.00  0.00     0.197 A 
ATOM      7  C   UNL     1      -5.642  -2.734  12.644  1.00  0.00     0.146 A 
ATOM      8  O   UNL     1      -8.322  -3.897  10.571  1.00  0.00    -0.289 OA
ATOM      9  C   UNL     1      -6.466  -2.839  11.499  1.00  0.00     0.107 A 
ATOM     10  C   UNL     1      -4.567  -1.841  12.660  1.00  0.00     0.094 A 
ATOM     11  C   UNL     1      -6.185  -2.034  10.372  1.00  0.00     0.134 A 
ATOM     12  C   UNL     1      -5.102  -1.145  10.407  1.00  0.00     0.093 A 
BRANCH   3  13
ATOM     13  C   UNL     1      -7.048  -5.139  15.044  1.00  0.00     0.021 A 
ATOM     14  C   UNL     1      -8.107  -6.052  15.150  1.00  0.00     0.016 A 
ATOM     15  C   UNL     1      -8.293  -6.792  16.319  1.00  0.00     0.051 A 
ATOM     16  C   UNL     1      -7.435  -6.630  17.411  1.00  0.00     0.157 A 
ATOM     17  C   UNL     1      -6.191  -4.964  16.147  1.00  0.00     0.062 A 
ATOM     18  C   UNL     1      -6.373  -5.700  17.326  1.00  0.00     0.158 A 
BRANCH  16  19
ATOM     19  O   UNL     1      -7.671  -7.404  18.549  1.00  0.00    -0.504 OA
ATOM     20  H   UNL     1      -7.427  -8.381  18.629  1.00  0.00     0.293 HD
ENDBRANCH  16  19
BRANCH  18  21
ATOM     21  O   UNL     1      -5.484  -5.472  18.379  1.00  0.00    -0.504 OA
ATOM     22  H   UNL     1      -4.564  -5.885  18.442  1.00  0.00     0.293 HD
ENDBRANCH  18  21
ENDBRANCH   3  13
BRANCH  11  23
ATOM     23  O   UNL     1      -6.971  -2.110   9.222  1.00  0.00    -0.507 OA
ATOM     24  H   UNL     1      -6.723  -1.615   8.373  1.00  0.00     0.293 HD
ENDBRANCH  11  23
ENDBRANCH   1   2
BRANCH   1  25
ATOM     25  C   UNL     1      -3.223   1.146  10.837  1.00  0.00     0.339 C 
ATOM     26  C   UNL     1      -1.882   1.888  11.018  1.00  0.00     0.214 C 
ATOM     27  O   UNL     1      -4.330   1.931  11.253  1.00  0.00    -0.332 OA
ATOM     28  C   UNL     1      -1.704   2.352  12.470  1.00  0.00     0.180 C 
ATOM     29  C   UNL     1      -4.265   2.367  12.608  1.00  0.00     0.179 C 
ATOM     30  C   UNL     1      -2.954   3.117  12.952  1.00  0.00     0.177 C 
BRANCH  26  31
ATOM     31  O   UNL     1      -1.851   2.991  10.146  1.00  0.00    -0.384 OA
ATOM     32  H   UNL     1      -1.034   2.897   9.592  1.00  0.00     0.211 HD
ENDBRANCH  26  31
BRANCH  28  33
ATOM     33  O   UNL     1      -1.451   1.242  13.293  1.00  0.00    -0.387 OA
ATOM     34  H   UNL     1      -1.930   1.402  14.148  1.00  0.00     0.211 HD
ENDBRANCH  28  33
BRANCH  29  35
ATOM     35  C   UNL     1      -4.629   1.262  13.620  1.00  0.00     0.191 C 
BRANCH  35  36
ATOM     36  O   UNL     1      -6.021   1.116  13.683  1.00  0.00    -0.394 OA
ATOM     37  H   UNL     1      -6.251   1.076  14.648  1.00  0.00     0.210 HD
ENDBRANCH  35  36
ENDBRANCH  29  35
BRANCH  30  38
ATOM     38  O   UNL     1      -2.991   4.388  12.351  1.00  0.00    -0.387 OA
ATOM     39  H   UNL     1      -3.940   4.680  12.348  1.00  0.00     0.211 HD
ENDBRANCH  30  38
ENDBRANCH   1  25
TORSDOF 11
ENDMDL
MODEL 4
REMARK VINA RESULT:    -7.721      2.371      4.141
REMARK INTER + INTRA:          -9.531
REMARK INTER:                 -11.405
REMARK INTRA:                   1.874
REMARK UNBOUND:                 1.575
REMARK SMILES O=c1cc(-c2ccc(O)c(O)c2)oc2cc(O[C@H]3O[C@@H](CO)[C@H](O)[C@@H](O)[C@@H]3O)cc(O)c12
REMARK SMILES IDX 17 1 16 2 4 3 3 4 13 5 2 6 14 7 1 8 32 9 15 10 30 11 29 12
REMARK SMILES IDX 5 13 6 14 7 15 8 16 12 17 10 18 9 19 11 21 31 23 18 25 27 26
REMARK SMILES IDX 19 27 25 28 20 29 23 30 28 31 26 33 21 35 22 36 24 38
REMARK H PARENT 9 20 11 22 31 24 28 32 26 34 22 37 24 39
REMARK Flexibility Score: inf
ROOT
ATOM      1  O   UNL     1      -5.331  -0.062  10.530  1.00  0.00    -0.462 OA
ENDROOT
BRANCH   1   2
ATOM      2  C   UNL     1      -4.798  -1.201  11.155  1.00  0.00     0.130 A 
ATOM      3  C   UNL     1      -5.084  -4.759  14.326  1.00  0.00     0.138 A 
ATOM      4  C   UNL     1      -3.830  -5.271  13.956  1.00  0.00     0.100 A 
ATOM      5  O   UNL     1      -5.558  -3.677  13.710  1.00  0.00    -0.456 OA
ATOM      6  C   UNL     1      -3.094  -4.629  12.960  1.00  0.00     0.197 A 
ATOM      7  C   UNL     1      -4.895  -3.033  12.755  1.00  0.00     0.146 A 
ATOM      8  O   UNL     1      -1.969  -5.096  12.634  1.00  0.00    -0.289 OA
ATOM      9  C   UNL     1      -3.620  -3.481  12.336  1.00  0.00     0.107 A 
ATOM     10  C   UNL     1      -5.473  -1.903  12.169  1.00  0.00     0.094 A 
ATOM     11  C   UNL     1      -2.939  -2.770  11.321  1.00  0.00     0.134 A 
ATOM     12  C   UNL     1      -3.536  -1.640  10.745  1.00  0.00     0.093 A 
BRANCH   3  13
ATOM     13  C   UNL     1      -5.914  -5.400  15.377  1.00  0.00     0.021 A 
ATOM     14  C   UNL     1      -5.394  -6.482  16.104  1.00  0.00     0.016 A 
ATOM     15  C   UNL     1      -6.157  -7.105  17.092  1.00  0.00     0.051 A 
ATOM     16  C   UNL     1      -7.456  -6.671  17.372  1.00  0.00     0.157 A 
ATOM     17  C   UNL     1      -7.227  -4.971  15.647  1.00  0.00     0.062 A 
ATOM     18  C   UNL     1      -8.001  -5.594  16.635  1.00  0.00     0.158 A 
BRANCH  16  19
ATOM     19  O   UNL     1      -8.165  -7.334  18.376  1.00  0.00    -0.504 OA
ATOM     20  H   UNL     1      -7.740  -7.721  19.206  1.00  0.00     0.293 HD
ENDBRANCH  16  19
BRANCH  18  21
ATOM     21  O   UNL     1      -9.296  -5.115  16.846  1.00  0.00    -0.504 OA
ATOM     22  H   UNL     1     -10.132  -5.593  16.541  1.00  0.00     0.293 HD
ENDBRANCH  18  21
ENDBRANCH   3  13
BRANCH  11  23
ATOM     23  O   UNL     1      -1.680  -3.177  10.881  1.00  0.00    -0.507 OA
ATOM     24  H   UNL     1      -0.863  -2.587  10.983  1.00  0.00     0.293 HD
ENDBRANCH  11  23
ENDBRANCH   1   2
BRANCH   1  25
ATOM     25  C   UNL     1      -4.683   1.204  10.381  1.00  0.00     0.339 C 
ATOM     26  C   UNL     1      -3.401   1.301  11.234  1.00  0.00     0.214 C 
ATOM     27  O   UNL     1      -5.588   2.264  10.653  1.00  0.00    -0.332 OA
ATOM     28  C   UNL     1      -3.740   1.356  12.730  1.00  0.00     0.180 C 
ATOM     29  C   UNL     1      -5.990   2.357  12.017  1.00  0.00     0.179 C 
ATOM     30  C   UNL     1      -4.802   2.440  13.006  1.00  0.00     0.177 C 
BRANCH  26  31
ATOM     31  O   UNL     1      -2.687   2.451  10.854  1.00  0.00    -0.384 OA
ATOM     32  H   UNL     1      -2.909   3.159  11.513  1.00  0.00     0.211 HD
ENDBRANCH  26  31
BRANCH  28  33
ATOM     33  O   UNL     1      -4.192   0.096  13.157  1.00  0.00    -0.387 OA
ATOM     34  H   UNL     1      -4.388   0.174  14.128  1.00  0.00     0.211 HD
ENDBRANCH  28  33
BRANCH  29  35
ATOM     35  C   UNL     1      -7.051   1.309  12.410  1.00  0.00     0.191 C 
BRANCH  35  36
ATOM     36  O   UNL     1      -6.865   0.922  13.743  1.00  0.00    -0.394 OA
ATOM     37  H   UNL     1      -7.631   1.299  14.249  1.00  0.00     0.210 HD
ENDBRANCH  35  36
ENDBRANCH  29  35
BRANCH  30  38
ATOM     38  O   UNL     1      -4.215   3.713  12.899  1.00  0.00    -0.387 OA
ATOM     39  H   UNL     1      -4.013   3.861  11.938  1.00  0.00     0.211 HD
ENDBRANCH  30  38
ENDBRANCH   1  25
TORSDOF 11
ENDMDL
MODEL 5
REMARK VINA RESULT:    -7.669      1.930      2.680
REMARK INTER + INTRA:          -9.456
REMARK INTER:                  -8.413
REMARK INTRA:                  -1.043
REMARK UNBOUND:                 1.575
REMARK SMILES O=c1cc(-c2ccc(O)c(O)c2)oc2cc(O[C@H]3O[C@@H](CO)[C@H](O)[C@@H](O)[C@@H]3O)cc(O)c12
REMARK SMILES IDX 17 1 16 2 4 3 3 4 13 5 2 6 14 7 1 8 32 9 15 10 30 11 29 12
REMARK SMILES IDX 5 13 6 14 7 15 8 16 12 17 10 18 9 19 11 21 31 23 18 25 27 26
REMARK SMILES IDX 19 27 25 28 20 29 23 30 28 31 26 33 21 35 22 36 24 38
REMARK H PARENT 9 20 11 22 31 24 28 32 26 34 22 37 24 39
REMARK Flexibility Score: inf
ROOT
ATOM      1  O   UNL     1      -3.605  -0.154  10.707  1.00  0.00    -0.462 OA
ENDROOT
BRANCH   1   2
ATOM      2  C   UNL     1      -4.590  -1.115  10.989  1.00  0.00     0.130 A 
ATOM      3  C   UNL     1      -6.614  -4.302  13.912  1.00  0.00     0.138 A 
ATOM      4  C   UNL     1      -7.608  -4.622  12.974  1.00  0.00     0.100 A 
ATOM      5  O   UNL     1      -5.697  -3.385  13.608  1.00  0.00    -0.456 OA
ATOM      6  C   UNL     1      -7.611  -3.985  11.733  1.00  0.00     0.197 A 
ATOM      7  C   UNL     1      -5.659  -2.750  12.441  1.00  0.00     0.146 A 
ATOM      8  O   UNL     1      -8.508  -4.278  10.896  1.00  0.00    -0.289 OA
ATOM      9  C   UNL     1      -6.620  -3.026  11.440  1.00  0.00     0.107 A 
ATOM     10  C   UNL     1      -4.655  -1.805  12.213  1.00  0.00     0.094 A 
ATOM     11  C   UNL     1      -6.549  -2.337  10.208  1.00  0.00     0.134 A 
ATOM     12  C   UNL     1      -5.535  -1.392   9.999  1.00  0.00     0.093 A 
BRANCH   3  13
ATOM     13  C   UNL     1      -6.561  -4.946  15.249  1.00  0.00     0.021 A 
ATOM     14  C   UNL     1      -5.525  -5.845  15.542  1.00  0.00     0.016 A 
ATOM     15  C   UNL     1      -5.458  -6.468  16.790  1.00  0.00     0.051 A 
ATOM     16  C   UNL     1      -6.425  -6.216  17.767  1.00  0.00     0.157 A 
ATOM     17  C   UNL     1      -7.544  -4.702  16.227  1.00  0.00     0.062 A 
ATOM     18  C   UNL     1      -7.486  -5.326  17.480  1.00  0.00     0.158 A 
BRANCH  16  19
ATOM     19  O   UNL     1      -6.298  -6.867  18.996  1.00  0.00    -0.504 OA
ATOM     20  H   UNL     1      -6.086  -7.850  19.096  1.00  0.00     0.293 HD
ENDBRANCH  16  19
BRANCH  18  21
ATOM     21  O   UNL     1      -8.496  -5.036  18.399  1.00  0.00    -0.504 OA
ATOM     22  H   UNL     1      -9.391  -5.506  18.423  1.00  0.00     0.293 HD
ENDBRANCH  18  21
ENDBRANCH   3  13
BRANCH  11  23
ATOM     23  O   UNL     1      -7.475  -2.582   9.194  1.00  0.00    -0.507 OA
ATOM     24  H   UNL     1      -8.017  -3.438   9.163  1.00  0.00     0.293 HD
ENDBRANCH  11  23
ENDBRANCH   1   2
BRANCH   1  25
ATOM     25  C   UNL     1      -3.822   1.139  10.137  1.00  0.00     0.339 C 
ATOM     26  C   UNL     1      -3.244   1.247   8.710  1.00  0.00     0.214 C 
ATOM     27  O   UNL     1      -3.320   2.153  10.995  1.00  0.00    -0.332 OA
ATOM     28  C   UNL     1      -1.710   1.226   8.737  1.00  0.00     0.180 C 
ATOM     29  C   UNL     1      -1.900   2.174  11.112  1.00  0.00     0.179 C 
ATOM     30  C   UNL     1      -1.171   2.259   9.748  1.00  0.00     0.177 C 
BRANCH  26  31
ATOM     31  O   UNL     1      -3.705   2.437   8.121  1.00  0.00    -0.384 OA
ATOM     32  H   UNL     1      -2.962   2.791   7.567  1.00  0.00     0.211 HD
ENDBRANCH  26  31
BRANCH  28  33
ATOM     33  O   UNL     1      -1.261  -0.066   9.057  1.00  0.00    -0.387 OA
ATOM     34  H   UNL     1      -0.874  -0.451   8.227  1.00  0.00     0.211 HD
ENDBRANCH  28  33
BRANCH  29  35
ATOM     35  C   UNL     1      -1.350   1.073  12.040  1.00  0.00     0.191 C 
BRANCH  35  36
ATOM     36  O   UNL     1      -2.184   0.934  13.157  1.00  0.00    -0.394 OA
ATOM     37  H   UNL     1      -3.114   1.013  12.820  1.00  0.00     0.210 HD
ENDBRANCH  35  36
ENDBRANCH  29  35
BRANCH  30  38
ATOM     38  O   UNL     1      -1.333   3.556   9.230  1.00  0.00    -0.387 OA
ATOM     39  H   UNL     1      -0.753   3.623   8.427  1.00  0.00     0.211 HD
ENDBRANCH  30  38
ENDBRANCH   1  25
TORSDOF 11
ENDMDL
MODEL 6
REMARK VINA RESULT:    -7.622      3.050      4.536
REMARK INTER + INTRA:          -9.389
REMARK INTER:                  -8.420
REMARK INTRA:                  -0.969
REMARK UNBOUND:                 1.575
REMARK SMILES O=c1cc(-c2ccc(O)c(O)c2)oc2cc(O[C@H]3O[C@@H](CO)[C@H](O)[C@@H](O)[C@@H]3O)cc(O)c12
REMARK SMILES IDX 17 1 16 2 4 3 3 4 13 5 2 6 14 7 1 8 32 9 15 10 30 11 29 12
REMARK SMILES IDX 5 13 6 14 7 15 8 16 12 17 10 18 9 19 11 21 31 23 18 25 27 26
REMARK SMILES IDX 19 27 25 28 20 29 23 30 28 31 26 33 21 35 22 36 24 38
REMARK H PARENT 9 20 11 22 31 24 28 32 26 34 22 37 24 39
REMARK Flexibility Score: inf
ROOT
ATOM      1  O   UNL     1      -2.411   1.167   9.698  1.00  0.00    -0.462 OA
ENDROOT
BRANCH   1   2
ATOM      2  C   UNL     1      -3.087   1.004  10.918  1.00  0.00     0.130 A 
ATOM      3  C   UNL     1      -5.062  -1.759  14.275  1.00  0.00     0.138 A 
ATOM      4  C   UNL     1      -5.424  -0.651  15.060  1.00  0.00     0.100 A 
ATOM      5  O   UNL     1      -4.420  -1.564  13.124  1.00  0.00    -0.456 OA
ATOM      6  C   UNL     1      -5.119   0.635  14.613  1.00  0.00     0.197 A 
ATOM      7  C   UNL     1      -4.106  -0.359  12.658  1.00  0.00     0.146 A 
ATOM      8  O   UNL     1      -5.447   1.623  15.324  1.00  0.00    -0.289 OA
ATOM      9  C   UNL     1      -4.448   0.805  13.386  1.00  0.00     0.107 A 
ATOM     10  C   UNL     1      -3.435  -0.256  11.436  1.00  0.00     0.094 A 
ATOM     11  C   UNL     1      -4.104   2.072  12.860  1.00  0.00     0.134 A 
ATOM     12  C   UNL     1      -3.430   2.154  11.634  1.00  0.00     0.093 A 
BRANCH   3  13
ATOM     13  C   UNL     1      -5.358  -3.150  14.698  1.00  0.00     0.021 A 
ATOM     14  C   UNL     1      -4.736  -4.220  14.039  1.00  0.00     0.016 A 
ATOM     15  C   UNL     1      -5.003  -5.538  14.414  1.00  0.00     0.051 A 
ATOM     16  C   UNL     1      -5.903  -5.818  15.446  1.00  0.00     0.157 A 
ATOM     17  C   UNL     1      -6.276  -3.431  15.728  1.00  0.00     0.062 A 
ATOM     18  C   UNL     1      -6.552  -4.750  16.109  1.00  0.00     0.158 A 
BRANCH  16  19
ATOM     19  O   UNL     1      -6.122  -7.157  15.777  1.00  0.00    -0.504 OA
ATOM     20  H   UNL     1      -7.035  -7.555  15.945  1.00  0.00     0.293 HD
ENDBRANCH  16  19
BRANCH  18  21
ATOM     21  O   UNL     1      -7.475  -4.952  17.138  1.00  0.00    -0.504 OA
ATOM     22  H   UNL     1      -7.354  -5.626  17.881  1.00  0.00     0.293 HD
ENDBRANCH  18  21
ENDBRANCH   3  13
BRANCH  11  23
ATOM     23  O   UNL     1      -4.425   3.243  13.545  1.00  0.00    -0.507 OA
ATOM     24  H   UNL     1      -4.964   3.983  13.112  1.00  0.00     0.293 HD
ENDBRANCH  11  23
ENDBRANCH   1   2
BRANCH   1  25
ATOM     25  C   UNL     1      -1.749   2.353   9.248  1.00  0.00     0.339 C 
ATOM     26  C   UNL     1      -2.663   3.223   8.361  1.00  0.00     0.214 C 
ATOM     27  O   UNL     1      -0.528   2.027   8.601  1.00  0.00    -0.332 OA
ATOM     28  C   UNL     1      -2.928   2.542   7.011  1.00  0.00     0.180 C 
ATOM     29  C   UNL     1      -0.685   1.349   7.357  1.00  0.00     0.179 C 
ATOM     30  C   UNL     1      -1.603   2.097   6.359  1.00  0.00     0.177 C 
BRANCH  26  31
ATOM     31  O   UNL     1      -2.050   4.473   8.164  1.00  0.00    -0.384 OA
ATOM     32  H   UNL     1      -1.154   4.297   7.776  1.00  0.00     0.211 HD
ENDBRANCH  26  31
BRANCH  28  33
ATOM     33  O   UNL     1      -3.786   1.445   7.196  1.00  0.00    -0.387 OA
ATOM     34  H   UNL     1      -3.212   0.664   7.413  1.00  0.00     0.211 HD
ENDBRANCH  28  33
BRANCH  29  35
ATOM     35  C   UNL     1      -1.033  -0.144   7.519  1.00  0.00     0.191 C 
BRANCH  35  36
ATOM     36  O   UNL     1      -0.370  -0.668   8.636  1.00  0.00    -0.394 OA
ATOM     37  H   UNL     1      -0.188   0.102   9.236  1.00  0.00     0.210 HD
ENDBRANCH  35  36
ENDBRANCH  29  35
BRANCH  30  38
ATOM     38  O   UNL     1      -0.916   3.222   5.871  1.00  0.00    -0.387 OA
ATOM     39  H   UNL     1      -1.136   3.981   6.472  1.00  0.00     0.211 HD
ENDBRANCH  30  38
ENDBRANCH   1  25
TORSDOF 11
ENDMDL
MODEL 7
REMARK VINA RESULT:    -7.618      2.800      3.994
REMARK INTER + INTRA:          -9.383
REMARK INTER:                  -8.457
REMARK INTRA:                  -0.926
REMARK UNBOUND:                 1.575
REMARK SMILES O=c1cc(-c2ccc(O)c(O)c2)oc2cc(O[C@H]3O[C@@H](CO)[C@H](O)[C@@H](O)[C@@H]3O)cc(O)c12
REMARK SMILES IDX 17 1 16 2 4 3 3 4 13 5 2 6 14 7 1 8 32 9 15 10 30 11 29 12
REMARK SMILES IDX 5 13 6 14 7 15 8 16 12 17 10 18 9 19 11 21 31 23 18 25 27 26
REMARK SMILES IDX 19 27 25 28 20 29 23 30 28 31 26 33 21 35 22 36 24 38
REMARK H PARENT 9 20 11 22 31 24 28 32 26 34 22 37 24 39
REMARK Flexibility Score: inf
ROOT
ATOM      1  O   UNL     1      -3.240   1.166   8.977  1.00  0.00    -0.462 OA
ENDROOT
BRANCH   1   2
ATOM      2  C   UNL     1      -4.181   0.150   9.210  1.00  0.00     0.130 A 
ATOM      3  C   UNL     1      -6.343  -2.972  12.105  1.00  0.00     0.138 A 
ATOM      4  C   UNL     1      -7.175  -3.442  11.076  1.00  0.00     0.100 A 
ATOM      5  O   UNL     1      -5.463  -2.006  11.845  1.00  0.00    -0.456 OA
ATOM      6  C   UNL     1      -7.056  -2.900   9.796  1.00  0.00     0.197 A 
ATOM      7  C   UNL     1      -5.314  -1.457  10.644  1.00  0.00     0.146 A 
ATOM      8  O   UNL     1      -7.808  -3.328   8.879  1.00  0.00    -0.289 OA
ATOM      9  C   UNL     1      -6.108  -1.886   9.554  1.00  0.00     0.107 A 
ATOM     10  C   UNL     1      -4.360  -0.451  10.469  1.00  0.00     0.094 A 
ATOM     11  C   UNL     1      -5.922  -1.286   8.288  1.00  0.00     0.134 A 
ATOM     12  C   UNL     1      -4.961  -0.278   8.132  1.00  0.00     0.093 A 
BRANCH   3  13
ATOM     13  C   UNL     1      -6.424  -3.508  13.487  1.00  0.00     0.021 A 
ATOM     14  C   UNL     1      -5.696  -2.888  14.513  1.00  0.00     0.016 A 
ATOM     15  C   UNL     1      -5.751  -3.378  15.819  1.00  0.00     0.051 A 
ATOM     16  C   UNL     1      -6.523  -4.501  16.129  1.00  0.00     0.157 A 
ATOM     17  C   UNL     1      -7.191  -4.648  13.794  1.00  0.00     0.062 A 
ATOM     18  C   UNL     1      -7.248  -5.148  15.101  1.00  0.00     0.158 A 
BRANCH  16  19
ATOM     19  O   UNL     1      -6.540  -4.937  17.455  1.00  0.00    -0.504 OA
ATOM     20  H   UNL     1      -7.373  -5.234  17.942  1.00  0.00     0.293 HD
ENDBRANCH  16  19
BRANCH  18  21
ATOM     21  O   UNL     1      -8.029  -6.284  15.330  1.00  0.00    -0.504 OA
ATOM     22  H   UNL     1      -9.037  -6.299  15.265  1.00  0.00     0.293 HD
ENDBRANCH  18  21
ENDBRANCH   3  13
BRANCH  11  23
ATOM     23  O   UNL     1      -6.682  -1.682   7.188  1.00  0.00    -0.507 OA
ATOM     24  H   UNL     1      -7.611  -1.313   7.021  1.00  0.00     0.293 HD
ENDBRANCH  11  23
ENDBRANCH   1   2
BRANCH   1  25
ATOM     25  C   UNL     1      -3.167   2.004   7.820  1.00  0.00     0.339 C 
ATOM     26  C   UNL     1      -2.299   1.379   6.708  1.00  0.00     0.214 C 
ATOM     27  O   UNL     1      -2.725   3.306   8.175  1.00  0.00    -0.332 OA
ATOM     28  C   UNL     1      -0.819   1.360   7.112  1.00  0.00     0.180 C 
ATOM     29  C   UNL     1      -1.369   3.370   8.607  1.00  0.00     0.179 C 
ATOM     30  C   UNL     1      -0.370   2.755   7.595  1.00  0.00     0.177 C 
BRANCH  26  31
ATOM     31  O   UNL     1      -2.472   2.120   5.525  1.00  0.00    -0.384 OA
ATOM     32  H   UNL     1      -2.057   3.008   5.678  1.00  0.00     0.211 HD
ENDBRANCH  26  31
BRANCH  28  33
ATOM     33  O   UNL     1      -0.615   0.396   8.114  1.00  0.00    -0.387 OA
ATOM     34  H   UNL     1      -0.132   0.848   8.855  1.00  0.00     0.211 HD
ENDBRANCH  28  33
BRANCH  29  35
ATOM     35  C   UNL     1      -1.169   2.875  10.053  1.00  0.00     0.191 C 
BRANCH  35  36
ATOM     36  O   UNL     1      -2.260   3.259  10.842  1.00  0.00    -0.394 OA
ATOM     37  H   UNL     1      -1.946   4.018  11.398  1.00  0.00     0.210 HD
ENDBRANCH  35  36
ENDBRANCH  29  35
BRANCH  30  38
ATOM     38  O   UNL     1      -0.254   3.621   6.494  1.00  0.00    -0.387 OA
ATOM     39  H   UNL     1      -1.101   3.552   5.979  1.00  0.00     0.211 HD
ENDBRANCH  30  38
ENDBRANCH   1  25
TORSDOF 11
ENDMDL
MODEL 8
REMARK VINA RESULT:    -7.570      2.349      4.555
REMARK INTER + INTRA:          -9.314
REMARK INTER:                  -9.067
REMARK INTRA:                  -0.246
REMARK UNBOUND:                 1.575
REMARK SMILES O=c1cc(-c2ccc(O)c(O)c2)oc2cc(O[C@H]3O[C@@H](CO)[C@H](O)[C@@H](O)[C@@H]3O)cc(O)c12
REMARK SMILES IDX 17 1 16 2 4 3 3 4 13 5 2 6 14 7 1 8 32 9 15 10 30 11 29 12
REMARK SMILES IDX 5 13 6 14 7 15 8 16 12 17 10 18 9 19 11 21 31 23 18 25 27 26
REMARK SMILES IDX 19 27 25 28 20 29 23 30 28 31 26 33 21 35 22 36 24 38
REMARK H PARENT 9 20 11 22 31 24 28 32 26 34 22 37 24 39
REMARK Flexibility Score: inf
ROOT
ATOM      1  O   UNL     1      -4.431  -0.486  10.411  1.00  0.00    -0.462 OA
ENDROOT
BRANCH   1   2
ATOM      2  C   UNL     1      -4.028  -1.590  11.180  1.00  0.00     0.130 A 
ATOM      3  C   UNL     1      -4.902  -4.960  14.448  1.00  0.00     0.138 A 
ATOM      4  C   UNL     1      -3.609  -5.496  14.330  1.00  0.00     0.100 A 
ATOM      5  O   UNL     1      -5.248  -3.913  13.700  1.00  0.00    -0.456 OA
ATOM      6  C   UNL     1      -2.705  -4.915  13.441  1.00  0.00     0.197 A 
ATOM      7  C   UNL     1      -4.423  -3.326  12.839  1.00  0.00     0.146 A 
ATOM      8  O   UNL     1      -1.547  -5.403  13.340  1.00  0.00    -0.289 OA
ATOM      9  C   UNL     1      -3.101  -3.802  12.672  1.00  0.00     0.107 A 
ATOM     10  C   UNL     1      -4.877  -2.230  12.101  1.00  0.00     0.094 A 
ATOM     11  C   UNL     1      -2.247  -3.153  11.752  1.00  0.00     0.134 A 
ATOM     12  C   UNL     1      -2.721  -2.056  11.020  1.00  0.00     0.093 A 
BRANCH   3  13
ATOM     13  C   UNL     1      -5.908  -5.537  15.375  1.00  0.00     0.021 A 
ATOM     14  C   UNL     1      -5.602  -6.707  16.085  1.00  0.00     0.016 A 
ATOM     15  C   UNL     1      -6.534  -7.272  16.957  1.00  0.00     0.051 A 
ATOM     16  C   UNL     1      -7.793  -6.690  17.133  1.00  0.00     0.157 A 
ATOM     17  C   UNL     1      -7.180  -4.957  15.540  1.00  0.00     0.062 A 
ATOM     18  C   UNL     1      -8.122  -5.520  16.411  1.00  0.00     0.158 A 
BRANCH  16  19
ATOM     19  O   UNL     1      -8.677  -7.302  18.024  1.00  0.00    -0.504 OA
ATOM     20  H   UNL     1      -9.309  -6.797  18.629  1.00  0.00     0.293 HD
ENDBRANCH  16  19
BRANCH  18  21
ATOM     21  O   UNL     1      -9.364  -4.890  16.522  1.00  0.00    -0.504 OA
ATOM     22  H   UNL     1      -9.490  -3.888  16.540  1.00  0.00     0.293 HD
ENDBRANCH  18  21
ENDBRANCH   3  13
BRANCH  11  23
ATOM     23  O   UNL     1      -0.936  -3.589  11.559  1.00  0.00    -0.507 OA
ATOM     24  H   UNL     1      -0.217  -2.973  11.199  1.00  0.00     0.293 HD
ENDBRANCH  11  23
ENDBRANCH   1   2
BRANCH   1  25
ATOM     25  C   UNL     1      -4.042  -0.206   9.064  1.00  0.00     0.339 C 
ATOM     26  C   UNL     1      -4.682   1.095   8.536  1.00  0.00     0.214 C 
ATOM     27  O   UNL     1      -4.317  -1.317   8.223  1.00  0.00    -0.332 OA
ATOM     28  C   UNL     1      -6.195   0.922   8.341  1.00  0.00     0.180 C 
ATOM     29  C   UNL     1      -5.705  -1.575   8.026  1.00  0.00     0.179 C 
ATOM     30  C   UNL     1      -6.494  -0.345   7.514  1.00  0.00     0.177 C 
BRANCH  26  31
ATOM     31  O   UNL     1      -4.071   1.442   7.318  1.00  0.00    -0.384 OA
ATOM     32  H   UNL     1      -3.229   0.920   7.259  1.00  0.00     0.211 HD
ENDBRANCH  26  31
BRANCH  28  33
ATOM     33  O   UNL     1      -6.828   0.860   9.594  1.00  0.00    -0.387 OA
ATOM     34  H   UNL     1      -6.674  -0.053   9.951  1.00  0.00     0.211 HD
ENDBRANCH  28  33
BRANCH  29  35
ATOM     35  C   UNL     1      -6.367  -2.280   9.227  1.00  0.00     0.191 C 
BRANCH  35  36
ATOM     36  O   UNL     1      -6.012  -3.634   9.238  1.00  0.00    -0.394 OA
ATOM     37  H   UNL     1      -5.170  -3.695   9.760  1.00  0.00     0.210 HD
ENDBRANCH  35  36
ENDBRANCH  29  35
BRANCH  30  38
ATOM     38  O   UNL     1      -6.155  -0.121   6.168  1.00  0.00    -0.387 OA
ATOM     39  H   UNL     1      -6.334  -0.966   5.678  1.00  0.00     0.211 HD
ENDBRANCH  30  38
ENDBRANCH   1  25
TORSDOF 11
ENDMDL
MODEL 9
REMARK VINA RESULT:    -7.556      2.830      5.035
REMARK INTER + INTRA:          -9.294
REMARK INTER:                  -8.335
REMARK INTRA:                  -0.959
REMARK UNBOUND:                 1.575
REMARK SMILES O=c1cc(-c2ccc(O)c(O)c2)oc2cc(O[C@H]3O[C@@H](CO)[C@H](O)[C@@H](O)[C@@H]3O)cc(O)c12
REMARK SMILES IDX 17 1 16 2 4 3 3 4 13 5 2 6 14 7 1 8 32 9 15 10 30 11 29 12
REMARK SMILES IDX 5 13 6 14 7 15 8 16 12 17 10 18 9 19 11 21 31 23 18 25 27 26
REMARK SMILES IDX 19 27 25 28 20 29 23 30 28 31 26 33 21 35 22 36 24 38
REMARK H PARENT 9 20 11 22 31 24 28 32 26 34 22 37 24 39
REMARK Flexibility Score: inf
ROOT
ATOM      1  O   UNL     1      -2.249   0.379   8.864  1.00  0.00    -0.462 OA
ENDROOT
BRANCH   1   2
ATOM      2  C   UNL     1      -2.053  -0.685   9.760  1.00  0.00     0.130 A 
ATOM      3  C   UNL     1      -3.696  -3.810  12.974  1.00  0.00     0.138 A 
ATOM      4  C   UNL     1      -2.430  -4.394  13.144  1.00  0.00     0.100 A 
ATOM      5  O   UNL     1      -3.843  -2.803  12.115  1.00  0.00    -0.456 OA
ATOM      6  C   UNL     1      -1.344  -3.899  12.421  1.00  0.00     0.197 A 
ATOM      7  C   UNL     1      -2.840  -2.299  11.403  1.00  0.00     0.146 A 
ATOM      8  O   UNL     1      -0.212  -4.429  12.580  1.00  0.00    -0.289 OA
ATOM      9  C   UNL     1      -1.533  -2.826  11.528  1.00  0.00     0.107 A 
ATOM     10  C   UNL     1      -3.093  -1.238  10.528  1.00  0.00     0.094 A 
ATOM     11  C   UNL     1      -0.488  -2.264  10.760  1.00  0.00     0.134 A 
ATOM     12  C   UNL     1      -0.761  -1.201   9.888  1.00  0.00     0.093 A 
BRANCH   3  13
ATOM     13  C   UNL     1      -4.889  -4.294  13.714  1.00  0.00     0.021 A 
ATOM     14  C   UNL     1      -6.149  -3.751  13.424  1.00  0.00     0.016 A 
ATOM     15  C   UNL     1      -7.284  -4.186  14.111  1.00  0.00     0.051 A 
ATOM     16  C   UNL     1      -7.187  -5.161  15.107  1.00  0.00     0.157 A 
ATOM     17  C   UNL     1      -4.786  -5.267  14.727  1.00  0.00     0.062 A 
ATOM     18  C   UNL     1      -5.920  -5.705  15.424  1.00  0.00     0.158 A 
BRANCH  16  19
ATOM     19  O   UNL     1      -8.361  -5.556  15.753  1.00  0.00    -0.504 OA
ATOM     20  H   UNL     1      -9.180  -4.973  15.841  1.00  0.00     0.293 HD
ENDBRANCH  16  19
BRANCH  18  21
ATOM     21  O   UNL     1      -5.741  -6.671  16.416  1.00  0.00    -0.504 OA
ATOM     22  H   UNL     1      -6.309  -6.737  17.249  1.00  0.00     0.293 HD
ENDBRANCH  18  21
ENDBRANCH   3  13
BRANCH  11  23
ATOM     23  O   UNL     1       0.815  -2.753  10.856  1.00  0.00    -0.507 OA
ATOM     24  H   UNL     1       1.079  -3.431  11.560  1.00  0.00     0.293 HD
ENDBRANCH  11  23
ENDBRANCH   1   2
BRANCH   1  25
ATOM     25  C   UNL     1      -1.340   0.808   7.846  1.00  0.00     0.339 C 
ATOM     26  C   UNL     1      -0.396   1.920   8.346  1.00  0.00     0.214 C 
ATOM     27  O   UNL     1      -2.048   1.193   6.677  1.00  0.00    -0.332 OA
ATOM     28  C   UNL     1      -1.164   3.228   8.581  1.00  0.00     0.180 C 
ATOM     29  C   UNL     1      -2.826   2.378   6.823  1.00  0.00     0.179 C 
ATOM     30  C   UNL     1      -2.012   3.588   7.344  1.00  0.00     0.177 C 
BRANCH  26  31
ATOM     31  O   UNL     1       0.621   2.116   7.395  1.00  0.00    -0.384 OA
ATOM     32  H   UNL     1       0.853   3.081   7.414  1.00  0.00     0.211 HD
ENDBRANCH  26  31
BRANCH  28  33
ATOM     33  O   UNL     1      -1.973   3.102   9.721  1.00  0.00    -0.387 OA
ATOM     34  H   UNL     1      -1.856   3.933  10.252  1.00  0.00     0.211 HD
ENDBRANCH  28  33
BRANCH  29  35
ATOM     35  C   UNL     1      -4.147   2.147   7.584  1.00  0.00     0.191 C 
BRANCH  35  36
ATOM     36  O   UNL     1      -4.736   0.949   7.159  1.00  0.00    -0.394 OA
ATOM     37  H   UNL     1      -5.103   0.517   7.974  1.00  0.00     0.210 HD
ENDBRANCH  35  36
ENDBRANCH  29  35
BRANCH  30  38
ATOM     38  O   UNL     1      -1.173   4.044   6.312  1.00  0.00    -0.387 OA
ATOM     39  H   UNL     1      -1.446   4.976   6.105  1.00  0.00     0.211 HD
ENDBRANCH  30  38
ENDBRANCH   1  25
TORSDOF 11
ENDMDL
