MODEL 1
REMARK VINA RESULT:    -4.351      0.000      0.000
REMARK INTER + INTRA:          -7.849
REMARK INTER:                  -6.894
REMARK INTRA:                  -0.955
REMARK UNBOUND:                -0.955
REMARK SMILES CCCCCCCCCCCC(=O)[O-]
REMARK SMILES IDX 7 1 8 2 9 3 10 4 11 5 12 6 13 7 14 8 6 9 5 10 4 11 3 12 2 13
REMARK SMILES IDX 1 14
REMARK H PARENT
REMARK Flexibility Score: inf
ROOT
ATOM      1  C   UNL     1       6.863  -2.698 -34.311  1.00  0.00     0.000 C 
ENDROOT
BRANCH   1   2
ATOM      2  C   UNL     1       8.069  -2.387 -35.217  1.00  0.00     0.000 C 
BRANCH   2   3
ATOM      3  C   UNL     1       9.440  -2.416 -34.515  1.00  0.00     0.000 C 
BRANCH   3   4
ATOM      4  C   UNL     1      10.468  -1.430 -35.114  1.00  0.00     0.006 C 
BRANCH   4   5
ATOM      5  C   UNL     1      11.917  -1.852 -34.839  1.00  0.00     0.053 C 
BRANCH   5   6
ATOM      6  C   UNL     1      12.688  -1.936 -36.117  1.00  0.00     0.041 C 
ATOM      7  O   UNL     1      13.932  -1.737 -36.120  1.00  0.00    -0.550 OA
ATOM      8  O   UNL     1      12.045  -2.285 -37.298  1.00  0.00    -0.550 OA
ENDBRANCH   5   6
ENDBRANCH   4   5
ENDBRANCH   3   4
ENDBRANCH   2   3
ENDBRANCH   1   2
BRANCH   1   9
ATOM      9  C   UNL     1       5.655  -3.333 -35.025  1.00  0.00     0.000 C 
BRANCH   9  10
ATOM     10  C   UNL     1       5.935  -4.763 -35.517  1.00  0.00    -0.000 C 
BRANCH  10  11
ATOM     11  C   UNL     1       6.223  -5.738 -34.364  1.00  0.00    -0.000 C 
BRANCH  11  12
ATOM     12  C   UNL     1       7.708  -6.136 -34.278  1.00  0.00    -0.000 C 
BRANCH  12  13
ATOM     13  C   UNL     1       8.307  -5.868 -32.889  1.00  0.00    -0.003 C 
ATOM     14  C   UNL     1       7.254  -5.449 -31.862  1.00  0.00     0.004 C 
ENDBRANCH  12  13
ENDBRANCH  11  12
ENDBRANCH  10  11
ENDBRANCH   9  10
ENDBRANCH   1   9
TORSDOF 10
ENDMDL
MODEL 2
REMARK VINA RESULT:    -4.244      3.461      5.625
REMARK INTER + INTRA:          -7.680
REMARK INTER:                  -6.254
REMARK INTRA:                  -1.427
REMARK UNBOUND:                -0.955
REMARK SMILES CCCCCCCCCCCC(=O)[O-]
REMARK SMILES IDX 7 1 8 2 9 3 10 4 11 5 12 6 13 7 14 8 6 9 5 10 4 11 3 12 2 13
REMARK SMILES IDX 1 14
REMARK H PARENT
REMARK Flexibility Score: inf
ROOT
ATOM      1  C   UNL     1       5.338  -6.823 -32.534  1.00  0.00     0.000 C 
ENDROOT
BRANCH   1   2
ATOM      2  C   UNL     1       5.128  -8.126 -33.328  1.00  0.00     0.000 C 
BRANCH   2   3
ATOM      3  C   UNL     1       5.352  -8.010 -34.848  1.00  0.00     0.000 C 
BRANCH   3   4
ATOM      4  C   UNL     1       5.448  -6.554 -35.355  1.00  0.00     0.006 C 
BRANCH   4   5
ATOM      5  C   UNL     1       5.758  -6.472 -36.855  1.00  0.00     0.053 C 
BRANCH   5   6
ATOM      6  C   UNL     1       7.213  -6.204 -37.075  1.00  0.00     0.041 C 
ATOM      7  O   UNL     1       8.041  -7.153 -37.057  1.00  0.00    -0.550 OA
ATOM      8  O   UNL     1       7.649  -4.915 -37.352  1.00  0.00    -0.550 OA
ENDBRANCH   5   6
ENDBRANCH   4   5
ENDBRANCH   3   4
ENDBRANCH   2   3
ENDBRANCH   1   2
BRANCH   1   9
ATOM      9  C   UNL     1       6.500  -6.854 -31.522  1.00  0.00     0.000 C 
BRANCH   9  10
ATOM     10  C   UNL     1       7.480  -5.683 -31.702  1.00  0.00    -0.000 C 
BRANCH  10  11
ATOM     11  C   UNL     1       8.303  -5.795 -32.996  1.00  0.00    -0.000 C 
BRANCH  11  12
ATOM     12  C   UNL     1       8.231  -4.522 -33.859  1.00  0.00    -0.000 C 
BRANCH  12  13
ATOM     13  C   UNL     1       7.219  -3.502 -33.317  1.00  0.00    -0.003 C 
ATOM     14  C   UNL     1       6.134  -3.148 -34.335  1.00  0.00     0.004 C 
ENDBRANCH  12  13
ENDBRANCH  11  12
ENDBRANCH  10  11
ENDBRANCH   9  10
ENDBRANCH   1   9
TORSDOF 10
ENDMDL
MODEL 3
REMARK VINA RESULT:    -4.213      4.580      6.601
REMARK INTER + INTRA:          -7.631
REMARK INTER:                  -6.202
REMARK INTRA:                  -1.429
REMARK UNBOUND:                -0.955
REMARK SMILES CCCCCCCCCCCC(=O)[O-]
REMARK SMILES IDX 7 1 8 2 9 3 10 4 11 5 12 6 13 7 14 8 6 9 5 10 4 11 3 12 2 13
REMARK SMILES IDX 1 14
REMARK H PARENT
REMARK Flexibility Score: inf
ROOT
ATOM      1  C   UNL     1       7.348  -5.784 -31.658  1.00  0.00     0.000 C 
ENDROOT
BRANCH   1   2
ATOM      2  C   UNL     1       6.263  -6.877 -31.689  1.00  0.00     0.000 C 
BRANCH   2   3
ATOM      3  C   UNL     1       5.302  -6.812 -32.892  1.00  0.00     0.000 C 
BRANCH   3   4
ATOM      4  C   UNL     1       5.423  -8.015 -33.853  1.00  0.00     0.006 C 
BRANCH   4   5
ATOM      5  C   UNL     1       6.175  -7.665 -35.142  1.00  0.00     0.053 C 
BRANCH   5   6
ATOM      6  C   UNL     1       5.259  -7.748 -36.322  1.00  0.00     0.041 C 
ATOM      7  O   UNL     1       4.250  -6.998 -36.394  1.00  0.00    -0.550 OA
ATOM      8  O   UNL     1       5.548  -8.616 -37.368  1.00  0.00    -0.550 OA
ENDBRANCH   5   6
ENDBRANCH   4   5
ENDBRANCH   3   4
ENDBRANCH   2   3
ENDBRANCH   1   2
BRANCH   1   9
ATOM      9  C   UNL     1       8.398  -5.872 -32.781  1.00  0.00     0.000 C 
BRANCH   9  10
ATOM     10  C   UNL     1       8.222  -4.782 -33.851  1.00  0.00    -0.000 C 
BRANCH  10  11
ATOM     11  C   UNL     1       7.589  -3.500 -33.289  1.00  0.00    -0.000 C 
BRANCH  11  12
ATOM     12  C   UNL     1       6.261  -3.139 -33.980  1.00  0.00    -0.000 C 
BRANCH  12  13
ATOM     13  C   UNL     1       6.052  -3.914 -35.290  1.00  0.00    -0.003 C 
ATOM     14  C   UNL     1       4.795  -3.475 -36.041  1.00  0.00     0.004 C 
ENDBRANCH  12  13
ENDBRANCH  11  12
ENDBRANCH  10  11
ENDBRANCH   9  10
ENDBRANCH   1   9
TORSDOF 10
ENDMDL
MODEL 4
REMARK VINA RESULT:    -4.206      1.176      1.757
REMARK INTER + INTRA:          -7.620
REMARK INTER:                  -6.873
REMARK INTRA:                  -0.747
REMARK UNBOUND:                -0.955
REMARK SMILES CCCCCCCCCCCC(=O)[O-]
REMARK SMILES IDX 7 1 8 2 9 3 10 4 11 5 12 6 13 7 14 8 6 9 5 10 4 11 3 12 2 13
REMARK SMILES IDX 1 14
REMARK H PARENT
REMARK Flexibility Score: inf
ROOT
ATOM      1  C   UNL     1       7.850  -3.140 -35.768  1.00  0.00     0.000 C 
ENDROOT
BRANCH   1   2
ATOM      2  C   UNL     1       8.845  -2.008 -36.086  1.00  0.00     0.000 C 
BRANCH   2   3
ATOM      3  C   UNL     1       9.692  -1.525 -34.893  1.00  0.00     0.000 C 
BRANCH   3   4
ATOM      4  C   UNL     1      11.033  -2.275 -34.736  1.00  0.00     0.006 C 
BRANCH   4   5
ATOM      5  C   UNL     1      12.246  -1.363 -34.956  1.00  0.00     0.053 C 
BRANCH   5   6
ATOM      6  C   UNL     1      13.057  -1.842 -36.118  1.00  0.00     0.041 C 
ATOM      7  O   UNL     1      12.507  -2.483 -37.052  1.00  0.00    -0.550 OA
ATOM      8  O   UNL     1      14.410  -1.535 -36.197  1.00  0.00    -0.550 OA
ENDBRANCH   5   6
ENDBRANCH   4   5
ENDBRANCH   3   4
ENDBRANCH   2   3
ENDBRANCH   1   2
BRANCH   1   9
ATOM      9  C   UNL     1       6.903  -2.865 -34.584  1.00  0.00     0.000 C 
BRANCH   9  10
ATOM     10  C   UNL     1       7.312  -3.615 -33.305  1.00  0.00    -0.000 C 
BRANCH  10  11
ATOM     11  C   UNL     1       8.339  -4.727 -33.576  1.00  0.00    -0.000 C 
BRANCH  11  12
ATOM     12  C   UNL     1       8.011  -6.034 -32.830  1.00  0.00    -0.000 C 
BRANCH  12  13
ATOM     13  C   UNL     1       7.296  -5.783 -31.493  1.00  0.00    -0.003 C 
ATOM     14  C   UNL     1       6.324  -6.904 -31.124  1.00  0.00     0.004 C 
ENDBRANCH  12  13
ENDBRANCH  11  12
ENDBRANCH  10  11
ENDBRANCH   9  10
ENDBRANCH   1   9
TORSDOF 10
ENDMDL
MODEL 5
REMARK VINA RESULT:    -4.191      3.791      5.276
REMARK INTER + INTRA:          -7.596
REMARK INTER:                  -6.330
REMARK INTRA:                  -1.266
REMARK UNBOUND:                -0.955
REMARK SMILES CCCCCCCCCCCC(=O)[O-]
REMARK SMILES IDX 7 1 8 2 9 3 10 4 11 5 12 6 13 7 14 8 6 9 5 10 4 11 3 12 2 13
REMARK SMILES IDX 1 14
REMARK H PARENT
REMARK Flexibility Score: inf
ROOT
ATOM      1  C   UNL     1       6.490  -3.386 -35.465  1.00  0.00     0.000 C 
ENDROOT
BRANCH   1   2
ATOM      2  C   UNL     1       5.112  -3.943 -35.872  1.00  0.00     0.000 C 
BRANCH   2   3
ATOM      3  C   UNL     1       5.081  -5.452 -36.184  1.00  0.00     0.000 C 
BRANCH   3   4
ATOM      4  C   UNL     1       5.302  -6.349 -34.947  1.00  0.00     0.006 C 
BRANCH   4   5
ATOM      5  C   UNL     1       5.814  -7.746 -35.317  1.00  0.00     0.053 C 
BRANCH   5   6
ATOM      6  C   UNL     1       6.847  -7.656 -36.395  1.00  0.00     0.041 C 
ATOM      7  O   UNL     1       8.033  -7.343 -36.111  1.00  0.00    -0.550 OA
ATOM      8  O   UNL     1       6.514  -7.969 -37.707  1.00  0.00    -0.550 OA
ENDBRANCH   5   6
ENDBRANCH   4   5
ENDBRANCH   3   4
ENDBRANCH   2   3
ENDBRANCH   1   2
BRANCH   1   9
ATOM      9  C   UNL     1       6.533  -2.688 -34.093  1.00  0.00     0.000 C 
BRANCH   9  10
ATOM     10  C   UNL     1       7.275  -3.511 -33.026  1.00  0.00    -0.000 C 
BRANCH  10  11
ATOM     11  C   UNL     1       8.165  -4.605 -33.638  1.00  0.00    -0.000 C 
BRANCH  11  12
ATOM     12  C   UNL     1       8.175  -5.899 -32.804  1.00  0.00    -0.000 C 
BRANCH  12  13
ATOM     13  C   UNL     1       7.321  -5.785 -31.533  1.00  0.00    -0.003 C 
ATOM     14  C   UNL     1       6.350  -6.955 -31.367  1.00  0.00     0.004 C 
ENDBRANCH  12  13
ENDBRANCH  11  12
ENDBRANCH  10  11
ENDBRANCH   9  10
ENDBRANCH   1   9
TORSDOF 10
ENDMDL
MODEL 6
REMARK VINA RESULT:    -4.125      2.833      4.664
REMARK INTER + INTRA:          -7.492
REMARK INTER:                  -6.349
REMARK INTRA:                  -1.143
REMARK UNBOUND:                -0.955
REMARK SMILES CCCCCCCCCCCC(=O)[O-]
REMARK SMILES IDX 7 1 8 2 9 3 10 4 11 5 12 6 13 7 14 8 6 9 5 10 4 11 3 12 2 13
REMARK SMILES IDX 1 14
REMARK H PARENT
REMARK Flexibility Score: inf
ROOT
ATOM      1  C   UNL     1       5.957  -7.647 -32.153  1.00  0.00     0.000 C 
ENDROOT
BRANCH   1   2
ATOM      2  C   UNL     1       6.318  -6.349 -31.405  1.00  0.00     0.000 C 
BRANCH   2   3
ATOM      3  C   UNL     1       7.576  -5.624 -31.921  1.00  0.00     0.000 C 
BRANCH   3   4
ATOM      4  C   UNL     1       7.269  -4.389 -32.796  1.00  0.00     0.006 C 
BRANCH   4   5
ATOM      5  C   UNL     1       8.283  -4.208 -33.934  1.00  0.00     0.053 C 
BRANCH   5   6
ATOM      6  C   UNL     1       8.163  -2.841 -34.528  1.00  0.00     0.041 C 
ATOM      7  O   UNL     1       7.084  -2.476 -35.065  1.00  0.00    -0.550 OA
ATOM      8  O   UNL     1       9.225  -1.949 -34.442  1.00  0.00    -0.550 OA
ENDBRANCH   5   6
ENDBRANCH   4   5
ENDBRANCH   3   4
ENDBRANCH   2   3
ENDBRANCH   1   2
BRANCH   1   9
ATOM      9  C   UNL     1       4.848  -7.504 -33.212  1.00  0.00     0.000 C 
BRANCH   9  10
ATOM     10  C   UNL     1       5.368  -6.950 -34.550  1.00  0.00    -0.000 C 
BRANCH  10  11
ATOM     11  C   UNL     1       6.317  -7.925 -35.264  1.00  0.00    -0.000 C 
BRANCH  11  12
ATOM     12  C   UNL     1       7.596  -7.240 -35.781  1.00  0.00    -0.000 C 
BRANCH  12  13
ATOM     13  C   UNL     1       7.483  -6.823 -37.255  1.00  0.00    -0.003 C 
ATOM     14  C   UNL     1       7.468  -5.305 -37.439  1.00  0.00     0.004 C 
ENDBRANCH  12  13
ENDBRANCH  11  12
ENDBRANCH  10  11
ENDBRANCH   9  10
ENDBRANCH   1   9
TORSDOF 10
ENDMDL
MODEL 7
REMARK VINA RESULT:    -4.068      5.147      7.074
REMARK INTER + INTRA:          -7.402
REMARK INTER:                  -6.019
REMARK INTRA:                  -1.383
REMARK UNBOUND:                -0.955
REMARK SMILES CCCCCCCCCCCC(=O)[O-]
REMARK SMILES IDX 7 1 8 2 9 3 10 4 11 5 12 6 13 7 14 8 6 9 5 10 4 11 3 12 2 13
REMARK SMILES IDX 1 14
REMARK H PARENT
REMARK Flexibility Score: inf
ROOT
ATOM      1  C   UNL     1       5.329  -6.897 -32.703  1.00  0.00     0.000 C 
ENDROOT
BRANCH   1   2
ATOM      2  C   UNL     1       5.351  -8.101 -33.664  1.00  0.00     0.000 C 
BRANCH   2   3
ATOM      3  C   UNL     1       5.835  -7.790 -35.093  1.00  0.00     0.000 C 
BRANCH   3   4
ATOM      4  C   UNL     1       5.405  -6.399 -35.608  1.00  0.00     0.006 C 
BRANCH   4   5
ATOM      5  C   UNL     1       4.625  -6.476 -36.927  1.00  0.00     0.053 C 
BRANCH   5   6
ATOM      6  C   UNL     1       3.388  -7.300 -36.755  1.00  0.00     0.041 C 
ATOM      7  O   UNL     1       3.229  -8.350 -37.432  1.00  0.00    -0.550 OA
ATOM      8  O   UNL     1       2.436  -6.938 -35.810  1.00  0.00    -0.550 OA
ENDBRANCH   5   6
ENDBRANCH   4   5
ENDBRANCH   3   4
ENDBRANCH   2   3
ENDBRANCH   1   2
BRANCH   1   9
ATOM      9  C   UNL     1       6.341  -6.966 -31.544  1.00  0.00     0.000 C 
BRANCH   9  10
ATOM     10  C   UNL     1       7.356  -5.811 -31.567  1.00  0.00    -0.000 C 
BRANCH  10  11
ATOM     11  C   UNL     1       8.335  -5.910 -32.748  1.00  0.00    -0.000 C 
BRANCH  11  12
ATOM     12  C   UNL     1       8.218  -4.721 -33.719  1.00  0.00    -0.000 C 
BRANCH  12  13
ATOM     13  C   UNL     1       7.361  -3.580 -33.150  1.00  0.00    -0.003 C 
ATOM     14  C   UNL     1       6.291  -3.099 -34.130  1.00  0.00     0.004 C 
ENDBRANCH  12  13
ENDBRANCH  11  12
ENDBRANCH  10  11
ENDBRANCH   9  10
ENDBRANCH   1   9
TORSDOF 10
ENDMDL
MODEL 8
REMARK VINA RESULT:    -4.022      4.444      6.533
REMARK INTER + INTRA:          -7.328
REMARK INTER:                  -6.378
REMARK INTRA:                  -0.950
REMARK UNBOUND:                -0.955
REMARK SMILES CCCCCCCCCCCC(=O)[O-]
REMARK SMILES IDX 7 1 8 2 9 3 10 4 11 5 12 6 13 7 14 8 6 9 5 10 4 11 3 12 2 13
REMARK SMILES IDX 1 14
REMARK H PARENT
REMARK Flexibility Score: inf
ROOT
ATOM      1  C   UNL     1       5.406  -8.381 -34.786  1.00  0.00     0.000 C 
ENDROOT
BRANCH   1   2
ATOM      2  C   UNL     1       4.781  -8.119 -33.403  1.00  0.00     0.000 C 
BRANCH   2   3
ATOM      3  C   UNL     1       5.276  -6.845 -32.691  1.00  0.00     0.000 C 
BRANCH   3   4
ATOM      4  C   UNL     1       6.400  -7.103 -31.663  1.00  0.00     0.006 C 
BRANCH   4   5
ATOM      5  C   UNL     1       7.213  -5.840 -31.351  1.00  0.00     0.053 C 
BRANCH   5   6
ATOM      6  C   UNL     1       7.696  -5.204 -32.616  1.00  0.00     0.041 C 
ATOM      7  O   UNL     1       7.366  -4.021 -32.896  1.00  0.00    -0.550 OA
ATOM      8  O   UNL     1       8.555  -5.897 -33.460  1.00  0.00    -0.550 OA
ENDBRANCH   5   6
ENDBRANCH   4   5
ENDBRANCH   3   4
ENDBRANCH   2   3
ENDBRANCH   1   2
BRANCH   1   9
ATOM      9  C   UNL     1       4.420  -8.337 -35.969  1.00  0.00     0.000 C 
BRANCH   9  10
ATOM     10  C   UNL     1       3.612  -7.030 -36.025  1.00  0.00    -0.000 C 
BRANCH  10  11
ATOM     11  C   UNL     1       2.170  -7.248 -36.513  1.00  0.00    -0.000 C 
BRANCH  11  12
ATOM     12  C   UNL     1       1.396  -8.260 -35.648  1.00  0.00    -0.000 C 
BRANCH  12  13
ATOM     13  C   UNL     1       0.899  -7.647 -34.331  1.00  0.00    -0.003 C 
ATOM     14  C   UNL     1       1.035  -8.604 -33.146  1.00  0.00     0.004 C 
ENDBRANCH  12  13
ENDBRANCH  11  12
ENDBRANCH  10  11
ENDBRANCH   9  10
ENDBRANCH   1   9
TORSDOF 10
ENDMDL
MODEL 9
REMARK VINA RESULT:    -4.011     13.991     15.638
REMARK INTER + INTRA:          -7.312
REMARK INTER:                  -6.030
REMARK INTRA:                  -1.282
REMARK UNBOUND:                -0.955
REMARK SMILES CCCCCCCCCCCC(=O)[O-]
REMARK SMILES IDX 7 1 8 2 9 3 10 4 11 5 12 6 13 7 14 8 6 9 5 10 4 11 3 12 2 13
REMARK SMILES IDX 1 14
REMARK H PARENT
REMARK Flexibility Score: inf
ROOT
ATOM      1  C   UNL     1      14.004  -3.195 -22.373  1.00  0.00     0.000 C 
ENDROOT
BRANCH   1   2
ATOM      2  C   UNL     1      13.985  -4.735 -22.376  1.00  0.00     0.000 C 
BRANCH   2   3
ATOM      3  C   UNL     1      14.365  -5.392 -23.717  1.00  0.00     0.000 C 
BRANCH   3   4
ATOM      4  C   UNL     1      15.494  -6.439 -23.600  1.00  0.00     0.006 C 
BRANCH   4   5
ATOM      5  C   UNL     1      16.466  -6.130 -22.454  1.00  0.00     0.053 C 
BRANCH   5   6
ATOM      6  C   UNL     1      17.217  -7.361 -22.059  1.00  0.00     0.041 C 
ATOM      7  O   UNL     1      18.167  -7.287 -21.236  1.00  0.00    -0.550 OA
ATOM      8  O   UNL     1      16.836  -8.600 -22.559  1.00  0.00    -0.550 OA
ENDBRANCH   5   6
ENDBRANCH   4   5
ENDBRANCH   3   4
ENDBRANCH   2   3
ENDBRANCH   1   2
BRANCH   1   9
ATOM      9  C   UNL     1      14.116  -2.545 -20.981  1.00  0.00     0.000 C 
BRANCH   9  10
ATOM     10  C   UNL     1      15.509  -2.718 -20.351  1.00  0.00    -0.000 C 
BRANCH  10  11
ATOM     11  C   UNL     1      15.476  -3.564 -19.068  1.00  0.00    -0.000 C 
BRANCH  11  12
ATOM     12  C   UNL     1      16.517  -4.699 -19.078  1.00  0.00    -0.000 C 
BRANCH  12  13
ATOM     13  C   UNL     1      15.888  -6.075 -18.814  1.00  0.00    -0.003 C 
ATOM     14  C   UNL     1      14.374  -6.083 -19.029  1.00  0.00     0.004 C 
ENDBRANCH  12  13
ENDBRANCH  11  12
ENDBRANCH  10  11
ENDBRANCH   9  10
ENDBRANCH   1   9
TORSDOF 10
ENDMDL
