MODEL 1
REMARK VINA RESULT:    -5.786      0.000      0.000
REMARK INTER + INTRA:         -15.228
REMARK INTER:                 -12.550
REMARK INTRA:                  -2.678
REMARK UNBOUND:                -2.678
REMARK SMILES CCCCCCCCCCCCCCCCCCCCCC(=O)[O-]
REMARK SMILES IDX 12 1 11 2 10 3 9 4 8 5 7 6 6 7 5 8 4 9 3 10 2 11 1 12 13 13
REMARK SMILES IDX 14 14 15 15 16 16 17 17 18 18 19 19 20 20 21 21 22 22 23 23
REMARK SMILES IDX 24 24
REMARK H PARENT
REMARK Flexibility Score: inf
ROOT
ATOM      1  C   UNL     1      -8.747 -15.127  -6.187  1.00  0.00     0.000 C 
ENDROOT
BRANCH   1   2
ATOM      2  C   UNL     1      -8.457 -13.752  -5.567  1.00  0.00     0.000 C 
BRANCH   2   3
ATOM      3  C   UNL     1      -6.964 -13.605  -5.234  1.00  0.00     0.000 C 
BRANCH   3   4
ATOM      4  C   UNL     1      -6.723 -13.058  -3.817  1.00  0.00    -0.000 C 
BRANCH   4   5
ATOM      5  C   UNL     1      -6.619 -14.175  -2.763  1.00  0.00    -0.000 C 
BRANCH   5   6
ATOM      6  C   UNL     1      -6.122 -15.504  -3.357  1.00  0.00    -0.000 C 
BRANCH   6   7
ATOM      7  C   UNL     1      -5.625 -16.485  -2.280  1.00  0.00    -0.000 C 
BRANCH   7   8
ATOM      8  C   UNL     1      -4.235 -16.113  -1.739  1.00  0.00    -0.000 C 
BRANCH   8   9
ATOM      9  C   UNL     1      -3.846 -16.927  -0.493  1.00  0.00    -0.000 C 
BRANCH   9  10
ATOM     10  C   UNL     1      -2.419 -17.492  -0.580  1.00  0.00    -0.000 C 
BRANCH  10  11
ATOM     11  C   UNL     1      -1.729 -17.157  -1.910  1.00  0.00    -0.003 C 
ATOM     12  C   UNL     1      -0.839 -18.308  -2.371  1.00  0.00     0.004 C 
ENDBRANCH  10  11
ENDBRANCH   9  10
ENDBRANCH   8   9
ENDBRANCH   7   8
ENDBRANCH   6   7
ENDBRANCH   5   6
ENDBRANCH   4   5
ENDBRANCH   3   4
ENDBRANCH   2   3
ENDBRANCH   1   2
BRANCH   1  13
ATOM     13  C   UNL     1      -7.513 -15.763  -6.853  1.00  0.00     0.000 C 
BRANCH  13  14
ATOM     14  C   UNL     1      -7.171 -17.188  -6.379  1.00  0.00     0.000 C 
BRANCH  14  15
ATOM     15  C   UNL     1      -8.315 -17.850  -5.593  1.00  0.00     0.000 C 
BRANCH  15  16
ATOM     16  C   UNL     1      -9.156 -18.810  -6.455  1.00  0.00     0.000 C 
BRANCH  16  17
ATOM     17  C   UNL     1     -10.510 -18.248  -6.933  1.00  0.00     0.000 C 
BRANCH  17  18
ATOM     18  C   UNL     1     -10.631 -18.036  -8.455  1.00  0.00     0.000 C 
BRANCH  18  19
ATOM     19  C   UNL     1      -9.372 -18.392  -9.267  1.00  0.00     0.000 C 
BRANCH  19  20
ATOM     20  C   UNL     1      -8.688 -17.206  -9.976  1.00  0.00     0.006 C 
BRANCH  20  21
ATOM     21  C   UNL     1      -9.552 -15.932 -10.040  1.00  0.00     0.053 C 
BRANCH  21  22
ATOM     22  C   UNL     1     -10.212 -15.747 -11.372  1.00  0.00     0.041 C 
ATOM     23  O   UNL     1      -9.555 -15.299 -12.350  1.00  0.00    -0.550 OA
ATOM     24  O   UNL     1     -11.543 -16.103 -11.546  1.00  0.00    -0.550 OA
ENDBRANCH  21  22
ENDBRANCH  20  21
ENDBRANCH  19  20
ENDBRANCH  18  19
ENDBRANCH  17  18
ENDBRANCH  16  17
ENDBRANCH  15  16
ENDBRANCH  14  15
ENDBRANCH  13  14
ENDBRANCH   1  13
TORSDOF 20
ENDMDL
MODEL 2
REMARK VINA RESULT:    -5.765      4.906      9.494
REMARK INTER + INTRA:         -15.183
REMARK INTER:                 -12.640
REMARK INTRA:                  -2.544
REMARK UNBOUND:                -2.678
REMARK SMILES CCCCCCCCCCCCCCCCCCCCCC(=O)[O-]
REMARK SMILES IDX 12 1 11 2 10 3 9 4 8 5 7 6 6 7 5 8 4 9 3 10 2 11 1 12 13 13
REMARK SMILES IDX 14 14 15 15 16 16 17 17 18 18 19 19 20 20 21 21 22 22 23 23
REMARK SMILES IDX 24 24
REMARK H PARENT
REMARK Flexibility Score: inf
ROOT
ATOM      1  C   UNL     1      -8.423 -13.886  -5.634  1.00  0.00     0.000 C 
ENDROOT
BRANCH   1   2
ATOM      2  C   UNL     1      -8.670 -15.347  -6.036  1.00  0.00     0.000 C 
BRANCH   2   3
ATOM      3  C   UNL     1      -7.384 -15.992  -6.576  1.00  0.00     0.000 C 
BRANCH   3   4
ATOM      4  C   UNL     1      -6.992 -17.267  -5.811  1.00  0.00    -0.000 C 
BRANCH   4   5
ATOM      5  C   UNL     1      -8.216 -18.071  -5.336  1.00  0.00    -0.000 C 
BRANCH   5   6
ATOM      6  C   UNL     1      -8.812 -18.951  -6.448  1.00  0.00    -0.000 C 
BRANCH   6   7
ATOM      7  C   UNL     1     -10.192 -18.457  -6.918  1.00  0.00    -0.000 C 
BRANCH   7   8
ATOM      8  C   UNL     1     -10.282 -18.321  -8.446  1.00  0.00    -0.000 C 
BRANCH   8   9
ATOM      9  C   UNL     1      -8.943 -18.614  -9.147  1.00  0.00    -0.000 C 
BRANCH   9  10
ATOM     10  C   UNL     1      -8.320 -17.356  -9.776  1.00  0.00    -0.000 C 
BRANCH  10  11
ATOM     11  C   UNL     1      -9.283 -16.161  -9.789  1.00  0.00    -0.003 C 
ATOM     12  C   UNL     1      -9.902 -15.971 -11.170  1.00  0.00     0.004 C 
ENDBRANCH  10  11
ENDBRANCH   9  10
ENDBRANCH   8   9
ENDBRANCH   7   8
ENDBRANCH   6   7
ENDBRANCH   5   6
ENDBRANCH   4   5
ENDBRANCH   3   4
ENDBRANCH   2   3
ENDBRANCH   1   2
BRANCH   1  13
ATOM     13  C   UNL     1      -6.984 -13.627  -5.152  1.00  0.00     0.000 C 
BRANCH  13  14
ATOM     14  C   UNL     1      -6.864 -12.973  -3.762  1.00  0.00     0.000 C 
BRANCH  14  15
ATOM     15  C   UNL     1      -6.111 -13.851  -2.748  1.00  0.00     0.000 C 
BRANCH  15  16
ATOM     16  C   UNL     1      -6.722 -15.257  -2.603  1.00  0.00     0.000 C 
BRANCH  16  17
ATOM     17  C   UNL     1      -5.702 -16.407  -2.486  1.00  0.00     0.000 C 
BRANCH  17  18
ATOM     18  C   UNL     1      -4.349 -16.022  -1.858  1.00  0.00     0.000 C 
BRANCH  18  19
ATOM     19  C   UNL     1      -3.935 -16.858  -0.633  1.00  0.00     0.000 C 
BRANCH  19  20
ATOM     20  C   UNL     1      -2.590 -17.600  -0.766  1.00  0.00     0.006 C 
BRANCH  20  21
ATOM     21  C   UNL     1      -1.391 -16.834  -0.177  1.00  0.00     0.053 C 
BRANCH  21  22
ATOM     22  C   UNL     1      -1.261 -17.011   1.305  1.00  0.00     0.041 C 
ATOM     23  O   UNL     1      -0.933 -18.130   1.784  1.00  0.00    -0.550 OA
ATOM     24  O   UNL     1      -1.467 -15.933   2.156  1.00  0.00    -0.550 OA
ENDBRANCH  21  22
ENDBRANCH  20  21
ENDBRANCH  19  20
ENDBRANCH  18  19
ENDBRANCH  17  18
ENDBRANCH  16  17
ENDBRANCH  15  16
ENDBRANCH  14  15
ENDBRANCH  13  14
ENDBRANCH   1  13
TORSDOF 20
ENDMDL
MODEL 3
REMARK VINA RESULT:    -5.701      4.310      9.239
REMARK INTER + INTRA:         -15.044
REMARK INTER:                 -12.602
REMARK INTRA:                  -2.442
REMARK UNBOUND:                -2.678
REMARK SMILES CCCCCCCCCCCCCCCCCCCCCC(=O)[O-]
REMARK SMILES IDX 12 1 11 2 10 3 9 4 8 5 7 6 6 7 5 8 4 9 3 10 2 11 1 12 13 13
REMARK SMILES IDX 14 14 15 15 16 16 17 17 18 18 19 19 20 20 21 21 22 22 23 23
REMARK SMILES IDX 24 24
REMARK H PARENT
REMARK Flexibility Score: inf
ROOT
ATOM      1  C   UNL     1      -8.360 -13.725  -5.632  1.00  0.00     0.000 C 
ENDROOT
BRANCH   1   2
ATOM      2  C   UNL     1      -8.608 -15.154  -6.136  1.00  0.00     0.000 C 
BRANCH   2   3
ATOM      3  C   UNL     1      -7.310 -15.782  -6.666  1.00  0.00     0.000 C 
BRANCH   3   4
ATOM      4  C   UNL     1      -7.058 -17.190  -6.104  1.00  0.00    -0.000 C 
BRANCH   4   5
ATOM      5  C   UNL     1      -8.343 -17.856  -5.580  1.00  0.00    -0.000 C 
BRANCH   5   6
ATOM      6  C   UNL     1      -9.007 -18.764  -6.630  1.00  0.00    -0.000 C 
BRANCH   6   7
ATOM      7  C   UNL     1     -10.411 -18.277  -7.031  1.00  0.00    -0.000 C 
BRANCH   7   8
ATOM      8  C   UNL     1     -10.512 -17.937  -8.527  1.00  0.00    -0.000 C 
BRANCH   8   9
ATOM      9  C   UNL     1      -9.139 -17.674  -9.170  1.00  0.00    -0.000 C 
BRANCH   9  10
ATOM     10  C   UNL     1      -9.154 -16.462 -10.116  1.00  0.00    -0.000 C 
BRANCH  10  11
ATOM     11  C   UNL     1     -10.482 -16.315 -10.871  1.00  0.00    -0.003 C 
ATOM     12  C   UNL     1     -10.671 -14.888 -11.377  1.00  0.00     0.004 C 
ENDBRANCH  10  11
ENDBRANCH   9  10
ENDBRANCH   8   9
ENDBRANCH   7   8
ENDBRANCH   6   7
ENDBRANCH   5   6
ENDBRANCH   4   5
ENDBRANCH   3   4
ENDBRANCH   2   3
ENDBRANCH   1   2
BRANCH   1  13
ATOM     13  C   UNL     1      -6.935 -13.515  -5.089  1.00  0.00     0.000 C 
BRANCH  13  14
ATOM     14  C   UNL     1      -6.852 -12.889  -3.684  1.00  0.00     0.000 C 
BRANCH  14  15
ATOM     15  C   UNL     1      -6.318 -13.866  -2.622  1.00  0.00     0.000 C 
BRANCH  15  16
ATOM     16  C   UNL     1      -6.786 -15.315  -2.852  1.00  0.00     0.000 C 
BRANCH  16  17
ATOM     17  C   UNL     1      -5.681 -16.386  -2.748  1.00  0.00     0.000 C 
BRANCH  17  18
ATOM     18  C   UNL     1      -4.478 -16.002  -1.865  1.00  0.00     0.000 C 
BRANCH  18  19
ATOM     19  C   UNL     1      -4.118 -17.023  -0.769  1.00  0.00     0.000 C 
BRANCH  19  20
ATOM     20  C   UNL     1      -2.660 -17.521  -0.786  1.00  0.00     0.006 C 
BRANCH  20  21
ATOM     21  C   UNL     1      -1.791 -16.879  -1.884  1.00  0.00     0.053 C 
BRANCH  21  22
ATOM     22  C   UNL     1      -0.531 -16.273  -1.345  1.00  0.00     0.041 C 
ATOM     23  O   UNL     1      -0.249 -16.378  -0.121  1.00  0.00    -0.550 OA
ATOM     24  O   UNL     1       0.351 -15.624  -2.199  1.00  0.00    -0.550 OA
ENDBRANCH  21  22
ENDBRANCH  20  21
ENDBRANCH  19  20
ENDBRANCH  18  19
ENDBRANCH  17  18
ENDBRANCH  16  17
ENDBRANCH  15  16
ENDBRANCH  14  15
ENDBRANCH  13  14
ENDBRANCH   1  13
TORSDOF 20
ENDMDL
MODEL 4
REMARK VINA RESULT:    -5.692      4.901      9.531
REMARK INTER + INTRA:         -15.026
REMARK INTER:                 -12.591
REMARK INTRA:                  -2.434
REMARK UNBOUND:                -2.678
REMARK SMILES CCCCCCCCCCCCCCCCCCCCCC(=O)[O-]
REMARK SMILES IDX 12 1 11 2 10 3 9 4 8 5 7 6 6 7 5 8 4 9 3 10 2 11 1 12 13 13
REMARK SMILES IDX 14 14 15 15 16 16 17 17 18 18 19 19 20 20 21 21 22 22 23 23
REMARK SMILES IDX 24 24
REMARK H PARENT
REMARK Flexibility Score: inf
ROOT
ATOM      1  C   UNL     1      -7.010 -13.445  -5.197  1.00  0.00     0.000 C 
ENDROOT
BRANCH   1   2
ATOM      2  C   UNL     1      -8.462 -13.662  -5.646  1.00  0.00     0.000 C 
BRANCH   2   3
ATOM      3  C   UNL     1      -8.676 -15.103  -6.136  1.00  0.00     0.000 C 
BRANCH   3   4
ATOM      4  C   UNL     1      -7.396 -15.730  -6.712  1.00  0.00    -0.000 C 
BRANCH   4   5
ATOM      5  C   UNL     1      -7.171 -17.171  -6.219  1.00  0.00    -0.000 C 
BRANCH   5   6
ATOM      6  C   UNL     1      -8.412 -17.758  -5.525  1.00  0.00    -0.000 C 
BRANCH   6   7
ATOM      7  C   UNL     1      -9.211 -18.703  -6.441  1.00  0.00    -0.000 C 
BRANCH   7   8
ATOM      8  C   UNL     1     -10.405 -18.003  -7.111  1.00  0.00    -0.000 C 
BRANCH   8   9
ATOM      9  C   UNL     1     -10.461 -18.249  -8.629  1.00  0.00    -0.000 C 
BRANCH   9  10
ATOM     10  C   UNL     1      -9.067 -18.466  -9.242  1.00  0.00    -0.000 C 
BRANCH  10  11
ATOM     11  C   UNL     1      -8.445 -17.166  -9.774  1.00  0.00    -0.003 C 
ATOM     12  C   UNL     1      -9.525 -16.178 -10.203  1.00  0.00     0.004 C 
ENDBRANCH  10  11
ENDBRANCH   9  10
ENDBRANCH   8   9
ENDBRANCH   7   8
ENDBRANCH   6   7
ENDBRANCH   5   6
ENDBRANCH   4   5
ENDBRANCH   3   4
ENDBRANCH   2   3
ENDBRANCH   1   2
BRANCH   1  13
ATOM     13  C   UNL     1      -6.896 -12.894  -3.764  1.00  0.00     0.000 C 
BRANCH  13  14
ATOM     14  C   UNL     1      -6.379 -13.896  -2.714  1.00  0.00     0.000 C 
BRANCH  14  15
ATOM     15  C   UNL     1      -6.835 -15.340  -2.986  1.00  0.00     0.000 C 
BRANCH  15  16
ATOM     16  C   UNL     1      -5.750 -16.382  -2.657  1.00  0.00     0.000 C 
BRANCH  16  17
ATOM     17  C   UNL     1      -4.527 -15.837  -1.893  1.00  0.00     0.000 C 
BRANCH  17  18
ATOM     18  C   UNL     1      -3.798 -16.865  -1.004  1.00  0.00     0.000 C 
BRANCH  18  19
ATOM     19  C   UNL     1      -2.338 -17.152  -1.399  1.00  0.00     0.000 C 
BRANCH  19  20
ATOM     20  C   UNL     1      -1.722 -18.418  -0.770  1.00  0.00     0.006 C 
BRANCH  20  21
ATOM     21  C   UNL     1      -0.412 -18.162  -0.002  1.00  0.00     0.053 C 
BRANCH  21  22
ATOM     22  C   UNL     1      -0.598 -17.248   1.170  1.00  0.00     0.041 C 
ATOM     23  O   UNL     1      -1.238 -17.636   2.184  1.00  0.00    -0.550 OA
ATOM     24  O   UNL     1      -0.035 -15.978   1.160  1.00  0.00    -0.550 OA
ENDBRANCH  21  22
ENDBRANCH  20  21
ENDBRANCH  19  20
ENDBRANCH  18  19
ENDBRANCH  17  18
ENDBRANCH  16  17
ENDBRANCH  15  16
ENDBRANCH  14  15
ENDBRANCH  13  14
ENDBRANCH   1  13
TORSDOF 20
ENDMDL
MODEL 5
REMARK VINA RESULT:    -5.655      4.512      9.420
REMARK INTER + INTRA:         -14.944
REMARK INTER:                 -12.735
REMARK INTRA:                  -2.210
REMARK UNBOUND:                -2.678
REMARK SMILES CCCCCCCCCCCCCCCCCCCCCC(=O)[O-]
REMARK SMILES IDX 12 1 11 2 10 3 9 4 8 5 7 6 6 7 5 8 4 9 3 10 2 11 1 12 13 13
REMARK SMILES IDX 14 14 15 15 16 16 17 17 18 18 19 19 20 20 21 21 22 22 23 23
REMARK SMILES IDX 24 24
REMARK H PARENT
REMARK Flexibility Score: inf
ROOT
ATOM      1  C   UNL     1      -8.652 -15.227  -6.204  1.00  0.00     0.000 C 
ENDROOT
BRANCH   1   2
ATOM      2  C   UNL     1      -7.410 -15.826  -6.882  1.00  0.00     0.000 C 
BRANCH   2   3
ATOM      3  C   UNL     1      -6.881 -17.032  -6.091  1.00  0.00     0.000 C 
BRANCH   3   4
ATOM      4  C   UNL     1      -8.005 -17.859  -5.447  1.00  0.00    -0.000 C 
BRANCH   4   5
ATOM      5  C   UNL     1      -8.429 -19.058  -6.315  1.00  0.00    -0.000 C 
BRANCH   5   6
ATOM      6  C   UNL     1      -9.896 -18.966  -6.772  1.00  0.00    -0.000 C 
BRANCH   6   7
ATOM      7  C   UNL     1     -10.040 -18.968  -8.304  1.00  0.00    -0.000 C 
BRANCH   7   8
ATOM      8  C   UNL     1     -10.274 -17.560  -8.877  1.00  0.00    -0.000 C 
BRANCH   8   9
ATOM      9  C   UNL     1      -9.063 -17.033  -9.668  1.00  0.00    -0.000 C 
BRANCH   9  10
ATOM     10  C   UNL     1      -9.454 -16.502 -11.057  1.00  0.00    -0.000 C 
BRANCH  10  11
ATOM     11  C   UNL     1     -10.496 -15.376 -10.989  1.00  0.00    -0.003 C 
ATOM     12  C   UNL     1     -11.313 -15.308 -12.276  1.00  0.00     0.004 C 
ENDBRANCH  10  11
ENDBRANCH   9  10
ENDBRANCH   8   9
ENDBRANCH   7   8
ENDBRANCH   6   7
ENDBRANCH   5   6
ENDBRANCH   4   5
ENDBRANCH   3   4
ENDBRANCH   2   3
ENDBRANCH   1   2
BRANCH   1  13
ATOM     13  C   UNL     1      -8.406 -13.821  -5.627  1.00  0.00     0.000 C 
BRANCH  13  14
ATOM     14  C   UNL     1      -6.958 -13.534  -5.189  1.00  0.00     0.000 C 
BRANCH  14  15
ATOM     15  C   UNL     1      -6.872 -12.826  -3.826  1.00  0.00     0.000 C 
BRANCH  15  16
ATOM     16  C   UNL     1      -6.326 -13.738  -2.711  1.00  0.00     0.000 C 
BRANCH  16  17
ATOM     17  C   UNL     1      -6.719 -15.224  -2.827  1.00  0.00     0.000 C 
BRANCH  17  18
ATOM     18  C   UNL     1      -5.539 -16.206  -2.966  1.00  0.00     0.000 C 
BRANCH  18  19
ATOM     19  C   UNL     1      -4.848 -16.590  -1.644  1.00  0.00     0.000 C 
BRANCH  19  20
ATOM     20  C   UNL     1      -3.372 -16.164  -1.524  1.00  0.00     0.006 C 
BRANCH  20  21
ATOM     21  C   UNL     1      -2.400 -17.333  -1.276  1.00  0.00     0.053 C 
BRANCH  21  22
ATOM     22  C   UNL     1      -2.076 -17.517   0.175  1.00  0.00     0.041 C 
ATOM     23  O   UNL     1      -2.537 -16.719   1.036  1.00  0.00    -0.550 OA
ATOM     24  O   UNL     1      -1.295 -18.590   0.584  1.00  0.00    -0.550 OA
ENDBRANCH  21  22
ENDBRANCH  20  21
ENDBRANCH  19  20
ENDBRANCH  18  19
ENDBRANCH  17  18
ENDBRANCH  16  17
ENDBRANCH  15  16
ENDBRANCH  14  15
ENDBRANCH  13  14
ENDBRANCH   1  13
TORSDOF 20
ENDMDL
MODEL 6
REMARK VINA RESULT:    -5.612      4.280      9.015
REMARK INTER + INTRA:         -14.851
REMARK INTER:                 -12.411
REMARK INTRA:                  -2.440
REMARK UNBOUND:                -2.678
REMARK SMILES CCCCCCCCCCCCCCCCCCCCCC(=O)[O-]
REMARK SMILES IDX 12 1 11 2 10 3 9 4 8 5 7 6 6 7 5 8 4 9 3 10 2 11 1 12 13 13
REMARK SMILES IDX 14 14 15 15 16 16 17 17 18 18 19 19 20 20 21 21 22 22 23 23
REMARK SMILES IDX 24 24
REMARK H PARENT
REMARK Flexibility Score: inf
ROOT
ATOM      1  C   UNL     1      -6.996 -13.291  -5.181  1.00  0.00     0.000 C 
ENDROOT
BRANCH   1   2
ATOM      2  C   UNL     1      -8.428 -13.600  -5.645  1.00  0.00     0.000 C 
BRANCH   2   3
ATOM      3  C   UNL     1      -8.576 -15.084  -6.015  1.00  0.00     0.000 C 
BRANCH   3   4
ATOM      4  C   UNL     1      -7.296 -15.675  -6.627  1.00  0.00    -0.000 C 
BRANCH   4   5
ATOM      5  C   UNL     1      -6.872 -16.992  -5.953  1.00  0.00    -0.000 C 
BRANCH   5   6
ATOM      6  C   UNL     1      -8.045 -17.703  -5.255  1.00  0.00    -0.000 C 
BRANCH   6   7
ATOM      7  C   UNL     1      -8.327 -19.097  -5.843  1.00  0.00    -0.000 C 
BRANCH   7   8
ATOM      8  C   UNL     1      -8.996 -19.030  -7.226  1.00  0.00    -0.000 C 
BRANCH   8   9
ATOM      9  C   UNL     1     -10.295 -18.205  -7.218  1.00  0.00    -0.000 C 
BRANCH   9  10
ATOM     10  C   UNL     1     -10.888 -18.025  -8.625  1.00  0.00    -0.000 C 
BRANCH  10  11
ATOM     11  C   UNL     1      -9.809 -17.913  -9.712  1.00  0.00    -0.003 C 
ATOM     12  C   UNL     1      -9.141 -16.541  -9.681  1.00  0.00     0.004 C 
ENDBRANCH  10  11
ENDBRANCH   9  10
ENDBRANCH   8   9
ENDBRANCH   7   8
ENDBRANCH   6   7
ENDBRANCH   5   6
ENDBRANCH   4   5
ENDBRANCH   3   4
ENDBRANCH   2   3
ENDBRANCH   1   2
BRANCH   1  13
ATOM     13  C   UNL     1      -6.907 -12.958  -3.681  1.00  0.00     0.000 C 
BRANCH  13  14
ATOM     14  C   UNL     1      -6.076 -13.943  -2.837  1.00  0.00     0.000 C 
BRANCH  14  15
ATOM     15  C   UNL     1      -6.767 -15.304  -2.648  1.00  0.00     0.000 C 
BRANCH  15  16
ATOM     16  C   UNL     1      -5.770 -16.471  -2.526  1.00  0.00     0.000 C 
BRANCH  16  17
ATOM     17  C   UNL     1      -4.425 -16.118  -1.860  1.00  0.00     0.000 C 
BRANCH  17  18
ATOM     18  C   UNL     1      -3.993 -17.058  -0.717  1.00  0.00     0.000 C 
BRANCH  18  19
ATOM     19  C   UNL     1      -2.515 -17.489  -0.748  1.00  0.00     0.000 C 
BRANCH  19  20
ATOM     20  C   UNL     1      -1.613 -16.681  -1.702  1.00  0.00     0.006 C 
BRANCH  20  21
ATOM     21  C   UNL     1      -0.337 -16.129  -1.039  1.00  0.00     0.053 C 
BRANCH  21  22
ATOM     22  C   UNL     1       0.640 -15.580  -2.034  1.00  0.00     0.041 C 
ATOM     23  O   UNL     1       1.489 -14.717  -1.681  1.00  0.00    -0.550 OA
ATOM     24  O   UNL     1       0.639 -16.045  -3.342  1.00  0.00    -0.550 OA
ENDBRANCH  21  22
ENDBRANCH  20  21
ENDBRANCH  19  20
ENDBRANCH  18  19
ENDBRANCH  17  18
ENDBRANCH  16  17
ENDBRANCH  15  16
ENDBRANCH  14  15
ENDBRANCH  13  14
ENDBRANCH   1  13
TORSDOF 20
ENDMDL
MODEL 7
REMARK VINA RESULT:    -5.568      0.774      1.588
REMARK INTER + INTRA:         -14.756
REMARK INTER:                 -12.434
REMARK INTRA:                  -2.322
REMARK UNBOUND:                -2.678
REMARK SMILES CCCCCCCCCCCCCCCCCCCCCC(=O)[O-]
REMARK SMILES IDX 12 1 11 2 10 3 9 4 8 5 7 6 6 7 5 8 4 9 3 10 2 11 1 12 13 13
REMARK SMILES IDX 14 14 15 15 16 16 17 17 18 18 19 19 20 20 21 21 22 22 23 23
REMARK SMILES IDX 24 24
REMARK H PARENT
REMARK Flexibility Score: inf
ROOT
ATOM      1  C   UNL     1      -8.377 -13.657  -5.627  1.00  0.00     0.000 C 
ENDROOT
BRANCH   1   2
ATOM      2  C   UNL     1      -6.977 -13.392  -5.051  1.00  0.00     0.000 C 
BRANCH   2   3
ATOM      3  C   UNL     1      -7.062 -12.964  -3.578  1.00  0.00     0.000 C 
BRANCH   3   4
ATOM      4  C   UNL     1      -6.258 -13.884  -2.645  1.00  0.00    -0.000 C 
BRANCH   4   5
ATOM      5  C   UNL     1      -6.746 -15.344  -2.690  1.00  0.00    -0.000 C 
BRANCH   5   6
ATOM      6  C   UNL     1      -5.586 -16.353  -2.729  1.00  0.00    -0.000 C 
BRANCH   6   7
ATOM      7  C   UNL     1      -4.388 -15.912  -1.869  1.00  0.00    -0.000 C 
BRANCH   7   8
ATOM      8  C   UNL     1      -4.081 -16.903  -0.734  1.00  0.00    -0.000 C 
BRANCH   8   9
ATOM      9  C   UNL     1      -2.617 -17.378  -0.741  1.00  0.00    -0.000 C 
BRANCH   9  10
ATOM     10  C   UNL     1      -1.773 -16.670  -1.814  1.00  0.00    -0.000 C 
BRANCH  10  11
ATOM     11  C   UNL     1      -0.366 -16.307  -1.317  1.00  0.00    -0.003 C 
ATOM     12  C   UNL     1       0.181 -17.386  -0.386  1.00  0.00     0.004 C 
ENDBRANCH  10  11
ENDBRANCH   9  10
ENDBRANCH   8   9
ENDBRANCH   7   8
ENDBRANCH   6   7
ENDBRANCH   5   6
ENDBRANCH   4   5
ENDBRANCH   3   4
ENDBRANCH   2   3
ENDBRANCH   1   2
BRANCH   1  13
ATOM     13  C   UNL     1      -8.636 -15.146  -5.922  1.00  0.00     0.000 C 
BRANCH  13  14
ATOM     14  C   UNL     1      -7.577 -15.836  -6.800  1.00  0.00     0.000 C 
BRANCH  14  15
ATOM     15  C   UNL     1      -6.894 -17.022  -6.098  1.00  0.00     0.000 C 
BRANCH  15  16
ATOM     16  C   UNL     1      -7.822 -18.240  -5.940  1.00  0.00     0.000 C 
BRANCH  16  17
ATOM     17  C   UNL     1      -8.511 -18.713  -7.236  1.00  0.00     0.000 C 
BRANCH  17  18
ATOM     18  C   UNL     1     -10.043 -18.546  -7.261  1.00  0.00     0.000 C 
BRANCH  18  19
ATOM     19  C   UNL     1     -10.612 -17.921  -8.549  1.00  0.00     0.000 C 
BRANCH  19  20
ATOM     20  C   UNL     1      -9.570 -17.586  -9.634  1.00  0.00     0.006 C 
BRANCH  20  21
ATOM     21  C   UNL     1      -9.453 -16.083  -9.948  1.00  0.00     0.053 C 
BRANCH  21  22
ATOM     22  C   UNL     1     -10.211 -15.687 -11.178  1.00  0.00     0.041 C 
ATOM     23  O   UNL     1     -11.472 -15.675 -11.170  1.00  0.00    -0.550 OA
ATOM     24  O   UNL     1      -9.529 -15.297 -12.323  1.00  0.00    -0.550 OA
ENDBRANCH  21  22
ENDBRANCH  20  21
ENDBRANCH  19  20
ENDBRANCH  18  19
ENDBRANCH  17  18
ENDBRANCH  16  17
ENDBRANCH  15  16
ENDBRANCH  14  15
ENDBRANCH  13  14
ENDBRANCH   1  13
TORSDOF 20
ENDMDL
MODEL 8
REMARK VINA RESULT:    -5.482      1.183      2.670
REMARK INTER + INTRA:         -14.568
REMARK INTER:                 -12.114
REMARK INTRA:                  -2.454
REMARK UNBOUND:                -2.678
REMARK SMILES CCCCCCCCCCCCCCCCCCCCCC(=O)[O-]
REMARK SMILES IDX 12 1 11 2 10 3 9 4 8 5 7 6 6 7 5 8 4 9 3 10 2 11 1 12 13 13
REMARK SMILES IDX 14 14 15 15 16 16 17 17 18 18 19 19 20 20 21 21 22 22 23 23
REMARK SMILES IDX 24 24
REMARK H PARENT
REMARK Flexibility Score: inf
ROOT
ATOM      1  C   UNL     1      -6.896 -13.486  -5.091  1.00  0.00     0.000 C 
ENDROOT
BRANCH   1   2
ATOM      2  C   UNL     1      -6.863 -12.940  -3.656  1.00  0.00     0.000 C 
BRANCH   2   3
ATOM      3  C   UNL     1      -6.158 -13.924  -2.710  1.00  0.00     0.000 C 
BRANCH   3   4
ATOM      4  C   UNL     1      -6.832 -15.306  -2.681  1.00  0.00    -0.000 C 
BRANCH   4   5
ATOM      5  C   UNL     1      -5.814 -16.458  -2.602  1.00  0.00    -0.000 C 
BRANCH   5   6
ATOM      6  C   UNL     1      -4.538 -16.067  -1.836  1.00  0.00    -0.000 C 
BRANCH   6   7
ATOM      7  C   UNL     1      -4.192 -17.063  -0.714  1.00  0.00    -0.000 C 
BRANCH   7   8
ATOM      8  C   UNL     1      -2.679 -17.296  -0.579  1.00  0.00    -0.000 C 
BRANCH   8   9
ATOM      9  C   UNL     1      -1.922 -17.057  -1.897  1.00  0.00    -0.000 C 
BRANCH   9  10
ATOM     10  C   UNL     1      -0.544 -17.740  -1.918  1.00  0.00    -0.000 C 
BRANCH  10  11
ATOM     11  C   UNL     1       0.615 -16.735  -1.995  1.00  0.00    -0.003 C 
ATOM     12  C   UNL     1       0.095 -15.313  -2.184  1.00  0.00     0.004 C 
ENDBRANCH  10  11
ENDBRANCH   9  10
ENDBRANCH   8   9
ENDBRANCH   7   8
ENDBRANCH   6   7
ENDBRANCH   5   6
ENDBRANCH   4   5
ENDBRANCH   3   4
ENDBRANCH   2   3
ENDBRANCH   1   2
BRANCH   1  13
ATOM     13  C   UNL     1      -8.325 -13.710  -5.619  1.00  0.00     0.000 C 
BRANCH  13  14
ATOM     14  C   UNL     1      -8.637 -15.146  -6.082  1.00  0.00     0.000 C 
BRANCH  14  15
ATOM     15  C   UNL     1      -7.448 -15.821  -6.786  1.00  0.00     0.000 C 
BRANCH  15  16
ATOM     16  C   UNL     1      -6.897 -17.028  -6.005  1.00  0.00     0.000 C 
BRANCH  16  17
ATOM     17  C   UNL     1      -7.952 -17.857  -5.246  1.00  0.00     0.000 C 
BRANCH  17  18
ATOM     18  C   UNL     1      -8.571 -19.021  -6.045  1.00  0.00     0.000 C 
BRANCH  18  19
ATOM     19  C   UNL     1     -10.026 -18.803  -6.498  1.00  0.00     0.000 C 
BRANCH  19  20
ATOM     20  C   UNL     1     -10.195 -18.194  -7.904  1.00  0.00     0.006 C 
BRANCH  20  21
ATOM     21  C   UNL     1      -9.004 -18.454  -8.846  1.00  0.00     0.053 C 
BRANCH  21  22
ATOM     22  C   UNL     1      -8.875 -17.414  -9.916  1.00  0.00     0.041 C 
ATOM     23  O   UNL     1      -8.326 -17.698 -11.015  1.00  0.00    -0.550 OA
ATOM     24  O   UNL     1      -9.392 -16.140  -9.717  1.00  0.00    -0.550 OA
ENDBRANCH  21  22
ENDBRANCH  20  21
ENDBRANCH  19  20
ENDBRANCH  18  19
ENDBRANCH  17  18
ENDBRANCH  16  17
ENDBRANCH  15  16
ENDBRANCH  14  15
ENDBRANCH  13  14
ENDBRANCH   1  13
TORSDOF 20
ENDMDL
MODEL 9
REMARK VINA RESULT:    -5.461      5.438     10.047
REMARK INTER + INTRA:         -14.524
REMARK INTER:                 -12.355
REMARK INTRA:                  -2.169
REMARK UNBOUND:                -2.678
REMARK SMILES CCCCCCCCCCCCCCCCCCCCCC(=O)[O-]
REMARK SMILES IDX 12 1 11 2 10 3 9 4 8 5 7 6 6 7 5 8 4 9 3 10 2 11 1 12 13 13
REMARK SMILES IDX 14 14 15 15 16 16 17 17 18 18 19 19 20 20 21 21 22 22 23 23
REMARK SMILES IDX 24 24
REMARK H PARENT
REMARK Flexibility Score: inf
ROOT
ATOM      1  C   UNL     1      -6.118 -13.834  -2.780  1.00  0.00     0.000 C 
ENDROOT
BRANCH   1   2
ATOM      2  C   UNL     1      -6.974 -12.834  -3.571  1.00  0.00     0.000 C 
BRANCH   2   3
ATOM      3  C   UNL     1      -6.925 -13.140  -5.076  1.00  0.00     0.000 C 
BRANCH   3   4
ATOM      4  C   UNL     1      -8.308 -13.472  -5.659  1.00  0.00    -0.000 C 
BRANCH   4   5
ATOM      5  C   UNL     1      -8.483 -14.975  -5.944  1.00  0.00    -0.000 C 
BRANCH   5   6
ATOM      6  C   UNL     1      -7.212 -15.618  -6.526  1.00  0.00    -0.000 C 
BRANCH   6   7
ATOM      7  C   UNL     1      -7.034 -17.082  -6.085  1.00  0.00    -0.000 C 
BRANCH   7   8
ATOM      8  C   UNL     1      -8.335 -17.698  -5.545  1.00  0.00    -0.000 C 
BRANCH   8   9
ATOM      9  C   UNL     1      -9.061 -18.562  -6.591  1.00  0.00    -0.000 C 
BRANCH   9  10
ATOM     10  C   UNL     1     -10.332 -17.887  -7.132  1.00  0.00    -0.000 C 
BRANCH  10  11
ATOM     11  C   UNL     1     -10.364 -17.829  -8.666  1.00  0.00    -0.003 C 
ATOM     12  C   UNL     1      -9.283 -16.895  -9.202  1.00  0.00     0.004 C 
ENDBRANCH  10  11
ENDBRANCH   9  10
ENDBRANCH   8   9
ENDBRANCH   7   8
ENDBRANCH   6   7
ENDBRANCH   5   6
ENDBRANCH   4   5
ENDBRANCH   3   4
ENDBRANCH   2   3
ENDBRANCH   1   2
BRANCH   1  13
ATOM     13  C   UNL     1      -6.740 -15.241  -2.712  1.00  0.00     0.000 C 
BRANCH  13  14
ATOM     14  C   UNL     1      -5.734 -16.407  -2.739  1.00  0.00     0.000 C 
BRANCH  14  15
ATOM     15  C   UNL     1      -4.472 -16.130  -1.904  1.00  0.00     0.000 C 
BRANCH  15  16
ATOM     16  C   UNL     1      -4.279 -17.141  -0.758  1.00  0.00     0.000 C 
BRANCH  16  17
ATOM     17  C   UNL     1      -2.826 -17.311  -0.270  1.00  0.00     0.000 C 
BRANCH  17  18
ATOM     18  C   UNL     1      -1.815 -17.725  -1.357  1.00  0.00     0.000 C 
BRANCH  18  19
ATOM     19  C   UNL     1      -0.523 -18.380  -0.832  1.00  0.00     0.000 C 
BRANCH  19  20
ATOM     20  C   UNL     1      -0.477 -18.619   0.690  1.00  0.00     0.006 C 
BRANCH  20  21
ATOM     21  C   UNL     1       0.217 -17.494   1.480  1.00  0.00     0.053 C 
BRANCH  21  22
ATOM     22  C   UNL     1      -0.345 -17.322   2.858  1.00  0.00     0.041 C 
ATOM     23  O   UNL     1       0.400 -17.442   3.867  1.00  0.00    -0.550 OA
ATOM     24  O   UNL     1      -1.684 -16.995   3.029  1.00  0.00    -0.550 OA
ENDBRANCH  21  22
ENDBRANCH  20  21
ENDBRANCH  19  20
ENDBRANCH  18  19
ENDBRANCH  17  18
ENDBRANCH  16  17
ENDBRANCH  15  16
ENDBRANCH  14  15
ENDBRANCH  13  14
ENDBRANCH   1  13
TORSDOF 20
ENDMDL
