MODEL 1
REMARK VINA RESULT:    -5.251      0.000      0.000
REMARK INTER + INTRA:         -12.108
REMARK INTER:                 -10.163
REMARK INTRA:                  -1.945
REMARK UNBOUND:                -1.945
REMARK SMILES CCCCCCCCCCCCCCCCCC(=O)[O-]
REMARK SMILES IDX 10 1 11 2 12 3 13 4 14 5 15 6 16 7 17 8 18 9 19 10 20 11
REMARK SMILES IDX 9 12 8 13 7 14 6 15 5 16 4 17 3 18 2 19 1 20
REMARK H PARENT
REMARK Flexibility Score: inf
ROOT
ATOM      1  C   UNL     1      11.655  16.925 163.637  1.00  0.00     0.000 C 
ENDROOT
BRANCH   1   2
ATOM      2  C   UNL     1      11.219  18.087 162.731  1.00  0.00     0.000 C 
BRANCH   2   3
ATOM      3  C   UNL     1      11.209  17.657 161.256  1.00  0.00     0.000 C 
BRANCH   3   4
ATOM      4  C   UNL     1      11.278  16.129 161.075  1.00  0.00     0.000 C 
BRANCH   4   5
ATOM      5  C   UNL     1      12.097  15.656 159.859  1.00  0.00     0.000 C 
BRANCH   5   6
ATOM      6  C   UNL     1      13.471  15.045 160.197  1.00  0.00     0.000 C 
BRANCH   6   7
ATOM      7  C   UNL     1      13.608  14.595 161.666  1.00  0.00     0.006 C 
BRANCH   7   8
ATOM      8  C   UNL     1      14.730  15.337 162.405  1.00  0.00     0.053 C 
BRANCH   8   9
ATOM      9  C   UNL     1      15.744  14.367 162.924  1.00  0.00     0.041 C 
ATOM     10  O   UNL     1      15.462  13.610 163.889  1.00  0.00    -0.550 OA
ATOM     11  O   UNL     1      17.019  14.333 162.372  1.00  0.00    -0.550 OA
ENDBRANCH   8   9
ENDBRANCH   7   8
ENDBRANCH   6   7
ENDBRANCH   5   6
ENDBRANCH   4   5
ENDBRANCH   3   4
ENDBRANCH   2   3
ENDBRANCH   1   2
BRANCH   1  12
ATOM     12  C   UNL     1      10.617  16.593 164.722  1.00  0.00     0.000 C 
BRANCH  12  13
ATOM     13  C   UNL     1      11.034  15.394 165.590  1.00  0.00    -0.000 C 
BRANCH  13  14
ATOM     14  C   UNL     1      12.007  14.451 164.864  1.00  0.00    -0.000 C 
BRANCH  14  15
ATOM     15  C   UNL     1      11.349  13.121 164.461  1.00  0.00    -0.000 C 
BRANCH  15  16
ATOM     16  C   UNL     1      11.610  12.748 162.991  1.00  0.00    -0.000 C 
BRANCH  16  17
ATOM     17  C   UNL     1      10.342  12.762 162.113  1.00  0.00    -0.000 C 
BRANCH  17  18
ATOM     18  C   UNL     1      10.184  11.465 161.302  1.00  0.00    -0.000 C 
BRANCH  18  19
ATOM     19  C   UNL     1       9.405  10.411 162.096  1.00  0.00    -0.003 C 
ATOM     20  C   UNL     1       9.231   9.129 161.288  1.00  0.00     0.004 C 
ENDBRANCH  18  19
ENDBRANCH  17  18
ENDBRANCH  16  17
ENDBRANCH  15  16
ENDBRANCH  14  15
ENDBRANCH  13  14
ENDBRANCH  12  13
ENDBRANCH   1  12
TORSDOF 16
ENDMDL
MODEL 2
REMARK VINA RESULT:    -5.222      3.666      5.831
REMARK INTER + INTRA:         -12.051
REMARK INTER:                  -9.398
REMARK INTRA:                  -2.653
REMARK UNBOUND:                -1.945
REMARK SMILES CCCCCCCCCCCCCCCCCC(=O)[O-]
REMARK SMILES IDX 10 1 11 2 12 3 13 4 14 5 15 6 16 7 17 8 18 9 19 10 20 11
REMARK SMILES IDX 9 12 8 13 7 14 6 15 5 16 4 17 3 18 2 19 1 20
REMARK H PARENT
REMARK Flexibility Score: inf
ROOT
ATOM      1  C   UNL     1      10.464  16.465 161.473  1.00  0.00     0.000 C 
ENDROOT
BRANCH   1   2
ATOM      2  C   UNL     1      11.229  17.772 161.732  1.00  0.00     0.000 C 
BRANCH   2   3
ATOM      3  C   UNL     1      11.440  17.994 163.237  1.00  0.00     0.000 C 
BRANCH   3   4
ATOM      4  C   UNL     1      11.538  16.677 164.030  1.00  0.00     0.000 C 
BRANCH   4   5
ATOM      5  C   UNL     1      10.411  16.452 165.056  1.00  0.00     0.000 C 
BRANCH   5   6
ATOM      6  C   UNL     1       9.283  17.502 165.027  1.00  0.00     0.000 C 
BRANCH   6   7
ATOM      7  C   UNL     1       8.356  17.454 166.260  1.00  0.00     0.006 C 
BRANCH   7   8
ATOM      8  C   UNL     1       8.610  16.222 167.138  1.00  0.00     0.053 C 
BRANCH   8   9
ATOM      9  C   UNL     1       7.371  15.854 167.892  1.00  0.00     0.041 C 
ATOM     10  O   UNL     1       6.246  15.903 167.327  1.00  0.00    -0.550 OA
ATOM     11  O   UNL     1       7.453  15.502 169.233  1.00  0.00    -0.550 OA
ENDBRANCH   8   9
ENDBRANCH   7   8
ENDBRANCH   6   7
ENDBRANCH   5   6
ENDBRANCH   4   5
ENDBRANCH   3   4
ENDBRANCH   2   3
ENDBRANCH   1   2
BRANCH   1  12
ATOM     12  C   UNL     1      10.983  15.705 160.241  1.00  0.00     0.000 C 
BRANCH  12  13
ATOM     13  C   UNL     1      12.506  15.836 160.065  1.00  0.00    -0.000 C 
BRANCH  13  14
ATOM     14  C   UNL     1      13.266  14.602 160.580  1.00  0.00    -0.000 C 
BRANCH  14  15
ATOM     15  C   UNL     1      14.020  14.881 161.891  1.00  0.00    -0.000 C 
BRANCH  15  16
ATOM     16  C   UNL     1      13.628  13.913 163.021  1.00  0.00    -0.000 C 
BRANCH  16  17
ATOM     17  C   UNL     1      12.584  12.858 162.599  1.00  0.00    -0.000 C 
BRANCH  17  18
ATOM     18  C   UNL     1      11.214  13.105 163.250  1.00  0.00    -0.000 C 
BRANCH  18  19
ATOM     19  C   UNL     1      10.077  12.839 162.257  1.00  0.00    -0.003 C 
ATOM     20  C   UNL     1      10.565  12.022 161.066  1.00  0.00     0.004 C 
ENDBRANCH  18  19
ENDBRANCH  17  18
ENDBRANCH  16  17
ENDBRANCH  15  16
ENDBRANCH  14  15
ENDBRANCH  13  14
ENDBRANCH  12  13
ENDBRANCH   1  12
TORSDOF 16
ENDMDL
MODEL 3
REMARK VINA RESULT:    -5.220      3.901      6.267
REMARK INTER + INTRA:         -12.049
REMARK INTER:                  -9.582
REMARK INTRA:                  -2.466
REMARK UNBOUND:                -1.945
REMARK SMILES CCCCCCCCCCCCCCCCCC(=O)[O-]
REMARK SMILES IDX 10 1 11 2 12 3 13 4 14 5 15 6 16 7 17 8 18 9 19 10 20 11
REMARK SMILES IDX 9 12 8 13 7 14 6 15 5 16 4 17 3 18 2 19 1 20
REMARK H PARENT
REMARK Flexibility Score: inf
ROOT
ATOM      1  C   UNL     1      13.271  16.464 163.863  1.00  0.00     0.000 C 
ENDROOT
BRANCH   1   2
ATOM      2  C   UNL     1      12.518  17.655 163.252  1.00  0.00     0.000 C 
BRANCH   2   3
ATOM      3  C   UNL     1      11.038  17.636 163.662  1.00  0.00     0.000 C 
BRANCH   3   4
ATOM      4  C   UNL     1      10.715  16.543 164.697  1.00  0.00     0.000 C 
BRANCH   4   5
ATOM      5  C   UNL     1       9.285  16.591 165.267  1.00  0.00     0.000 C 
BRANCH   5   6
ATOM      6  C   UNL     1       8.688  18.004 165.415  1.00  0.00     0.000 C 
BRANCH   6   7
ATOM      7  C   UNL     1       7.397  18.050 166.259  1.00  0.00     0.006 C 
BRANCH   7   8
ATOM      8  C   UNL     1       7.627  17.604 167.709  1.00  0.00     0.053 C 
BRANCH   8   9
ATOM      9  C   UNL     1       6.901  16.326 167.984  1.00  0.00     0.041 C 
ATOM     10  O   UNL     1       6.138  15.829 167.114  1.00  0.00    -0.550 OA
ATOM     11  O   UNL     1       7.030  15.706 169.220  1.00  0.00    -0.550 OA
ENDBRANCH   8   9
ENDBRANCH   7   8
ENDBRANCH   6   7
ENDBRANCH   5   6
ENDBRANCH   4   5
ENDBRANCH   3   4
ENDBRANCH   2   3
ENDBRANCH   1   2
BRANCH   1  12
ATOM     12  C   UNL     1      14.043  15.646 162.815  1.00  0.00     0.000 C 
BRANCH  12  13
ATOM     13  C   UNL     1      14.408  14.238 163.316  1.00  0.00    -0.000 C 
BRANCH  13  14
ATOM     14  C   UNL     1      13.416  13.167 162.834  1.00  0.00    -0.000 C 
BRANCH  14  15
ATOM     15  C   UNL     1      12.120  13.150 163.662  1.00  0.00    -0.000 C 
BRANCH  15  16
ATOM     16  C   UNL     1      10.855  13.119 162.787  1.00  0.00    -0.000 C 
BRANCH  16  17
ATOM     17  C   UNL     1      11.005  13.878 161.452  1.00  0.00    -0.000 C 
BRANCH  17  18
ATOM     18  C   UNL     1      10.027  15.058 161.342  1.00  0.00    -0.000 C 
BRANCH  18  19
ATOM     19  C   UNL     1      10.565  16.132 160.390  1.00  0.00    -0.003 C 
ATOM     20  C   UNL     1      12.003  15.835 159.980  1.00  0.00     0.004 C 
ENDBRANCH  18  19
ENDBRANCH  17  18
ENDBRANCH  16  17
ENDBRANCH  15  16
ENDBRANCH  14  15
ENDBRANCH  13  14
ENDBRANCH  12  13
ENDBRANCH   1  12
TORSDOF 16
ENDMDL
MODEL 4
REMARK VINA RESULT:    -5.213      1.134      2.946
REMARK INTER + INTRA:         -12.034
REMARK INTER:                  -9.471
REMARK INTRA:                  -2.563
REMARK UNBOUND:                -1.945
REMARK SMILES CCCCCCCCCCCCCCCCCC(=O)[O-]
REMARK SMILES IDX 10 1 11 2 12 3 13 4 14 5 15 6 16 7 17 8 18 9 19 10 20 11
REMARK SMILES IDX 9 12 8 13 7 14 6 15 5 16 4 17 3 18 2 19 1 20
REMARK H PARENT
REMARK Flexibility Score: inf
ROOT
ATOM      1  C   UNL     1      11.246  18.580 162.165  1.00  0.00     0.000 C 
ENDROOT
BRANCH   1   2
ATOM      2  C   UNL     1      11.709  17.702 163.339  1.00  0.00     0.000 C 
BRANCH   2   3
ATOM      3  C   UNL     1      10.520  17.304 164.226  1.00  0.00     0.000 C 
BRANCH   3   4
ATOM      4  C   UNL     1      10.760  15.994 164.999  1.00  0.00     0.000 C 
BRANCH   4   5
ATOM      5  C   UNL     1      12.184  15.419 164.876  1.00  0.00     0.000 C 
BRANCH   5   6
ATOM      6  C   UNL     1      12.259  13.964 164.374  1.00  0.00     0.000 C 
BRANCH   6   7
ATOM      7  C   UNL     1      13.125  13.787 163.108  1.00  0.00     0.006 C 
BRANCH   7   8
ATOM      8  C   UNL     1      14.597  13.508 163.438  1.00  0.00     0.053 C 
BRANCH   8   9
ATOM      9  C   UNL     1      15.468  14.600 162.901  1.00  0.00     0.041 C 
ATOM     10  O   UNL     1      15.003  15.758 162.733  1.00  0.00    -0.550 OA
ATOM     11  O   UNL     1      16.781  14.326 162.541  1.00  0.00    -0.550 OA
ENDBRANCH   8   9
ENDBRANCH   7   8
ENDBRANCH   6   7
ENDBRANCH   5   6
ENDBRANCH   4   5
ENDBRANCH   3   4
ENDBRANCH   2   3
ENDBRANCH   1   2
BRANCH   1  12
ATOM     12  C   UNL     1      11.200  17.816 160.832  1.00  0.00     0.000 C 
BRANCH  12  13
ATOM     13  C   UNL     1      11.811  16.407 160.936  1.00  0.00    -0.000 C 
BRANCH  13  14
ATOM     14  C   UNL     1      10.829  15.307 160.501  1.00  0.00    -0.000 C 
BRANCH  14  15
ATOM     15  C   UNL     1       9.733  15.048 161.548  1.00  0.00    -0.000 C 
BRANCH  15  16
ATOM     16  C   UNL     1       9.631  13.566 161.949  1.00  0.00    -0.000 C 
BRANCH  16  17
ATOM     17  C   UNL     1      10.362  12.610 160.984  1.00  0.00    -0.000 C 
BRANCH  17  18
ATOM     18  C   UNL     1      10.648  11.244 161.627  1.00  0.00    -0.000 C 
BRANCH  18  19
ATOM     19  C   UNL     1       9.345  10.504 161.949  1.00  0.00    -0.003 C 
ATOM     20  C   UNL     1       9.341   9.104 161.343  1.00  0.00     0.004 C 
ENDBRANCH  18  19
ENDBRANCH  17  18
ENDBRANCH  16  17
ENDBRANCH  15  16
ENDBRANCH  14  15
ENDBRANCH  13  14
ENDBRANCH  12  13
ENDBRANCH   1  12
TORSDOF 16
ENDMDL
MODEL 5
REMARK VINA RESULT:    -5.062      3.793      6.182
REMARK INTER + INTRA:         -11.741
REMARK INTER:                  -9.394
REMARK INTRA:                  -2.348
REMARK UNBOUND:                -1.945
REMARK SMILES CCCCCCCCCCCCCCCCCC(=O)[O-]
REMARK SMILES IDX 10 1 11 2 12 3 13 4 14 5 15 6 16 7 17 8 18 9 19 10 20 11
REMARK SMILES IDX 9 12 8 13 7 14 6 15 5 16 4 17 3 18 2 19 1 20
REMARK H PARENT
REMARK Flexibility Score: inf
ROOT
ATOM      1  C   UNL     1      11.474  16.167 161.289  1.00  0.00     0.000 C 
ENDROOT
BRANCH   1   2
ATOM      2  C   UNL     1      11.180  17.666 161.455  1.00  0.00     0.000 C 
BRANCH   2   3
ATOM      3  C   UNL     1      11.419  18.114 162.904  1.00  0.00     0.000 C 
BRANCH   3   4
ATOM      4  C   UNL     1      11.412  16.943 163.904  1.00  0.00     0.000 C 
BRANCH   4   5
ATOM      5  C   UNL     1      10.134  16.824 164.757  1.00  0.00     0.000 C 
BRANCH   5   6
ATOM      6  C   UNL     1       9.239  18.078 164.767  1.00  0.00     0.000 C 
BRANCH   6   7
ATOM      7  C   UNL     1       8.175  18.074 165.885  1.00  0.00     0.006 C 
BRANCH   7   8
ATOM      8  C   UNL     1       8.305  16.862 166.815  1.00  0.00     0.053 C 
BRANCH   8   9
ATOM      9  C   UNL     1       6.952  16.353 167.203  1.00  0.00     0.041 C 
ATOM     10  O   UNL     1       6.782  15.788 168.315  1.00  0.00    -0.550 OA
ATOM     11  O   UNL     1       5.889  16.461 166.315  1.00  0.00    -0.550 OA
ENDBRANCH   8   9
ENDBRANCH   7   8
ENDBRANCH   6   7
ENDBRANCH   5   6
ENDBRANCH   4   5
ENDBRANCH   3   4
ENDBRANCH   2   3
ENDBRANCH   1   2
BRANCH   1  12
ATOM     12  C   UNL     1      10.265  15.376 160.764  1.00  0.00     0.000 C 
BRANCH  12  13
ATOM     13  C   UNL     1       9.665  14.440 161.828  1.00  0.00    -0.000 C 
BRANCH  13  14
ATOM     14  C   UNL     1       9.933  12.957 161.524  1.00  0.00    -0.000 C 
BRANCH  14  15
ATOM     15  C   UNL     1      11.077  12.379 162.374  1.00  0.00    -0.000 C 
BRANCH  15  16
ATOM     16  C   UNL     1      11.246  13.107 163.718  1.00  0.00    -0.000 C 
BRANCH  16  17
ATOM     17  C   UNL     1      12.676  13.633 163.964  1.00  0.00    -0.000 C 
BRANCH  17  18
ATOM     18  C   UNL     1      13.654  13.188 162.865  1.00  0.00    -0.000 C 
BRANCH  18  19
ATOM     19  C   UNL     1      14.956  13.994 162.928  1.00  0.00    -0.003 C 
ATOM     20  C   UNL     1      14.677  15.494 162.915  1.00  0.00     0.004 C 
ENDBRANCH  18  19
ENDBRANCH  17  18
ENDBRANCH  16  17
ENDBRANCH  15  16
ENDBRANCH  14  15
ENDBRANCH  13  14
ENDBRANCH  12  13
ENDBRANCH   1  12
TORSDOF 16
ENDMDL
MODEL 6
REMARK VINA RESULT:    -5.041      2.331      5.515
REMARK INTER + INTRA:         -11.702
REMARK INTER:                  -9.795
REMARK INTRA:                  -1.907
REMARK UNBOUND:                -1.945
REMARK SMILES CCCCCCCCCCCCCCCCCC(=O)[O-]
REMARK SMILES IDX 10 1 11 2 12 3 13 4 14 5 15 6 16 7 17 8 18 9 19 10 20 11
REMARK SMILES IDX 9 12 8 13 7 14 6 15 5 16 4 17 3 18 2 19 1 20
REMARK H PARENT
REMARK Flexibility Score: inf
ROOT
ATOM      1  C   UNL     1      10.939  18.351 162.101  1.00  0.00     0.000 C 
ENDROOT
BRANCH   1   2
ATOM      2  C   UNL     1      11.609  17.393 163.098  1.00  0.00     0.000 C 
BRANCH   2   3
ATOM      3  C   UNL     1      10.556  16.601 163.888  1.00  0.00     0.000 C 
BRANCH   3   4
ATOM      4  C   UNL     1      11.128  15.942 165.157  1.00  0.00     0.000 C 
BRANCH   4   5
ATOM      5  C   UNL     1      12.044  14.730 164.902  1.00  0.00     0.000 C 
BRANCH   5   6
ATOM      6  C   UNL     1      11.330  13.365 164.881  1.00  0.00     0.000 C 
BRANCH   6   7
ATOM      7  C   UNL     1      11.448  12.621 163.535  1.00  0.00     0.006 C 
BRANCH   7   8
ATOM      8  C   UNL     1      10.212  12.815 162.646  1.00  0.00     0.053 C 
BRANCH   8   9
ATOM      9  C   UNL     1      10.145  11.744 161.604  1.00  0.00     0.041 C 
ATOM     10  O   UNL     1      10.519  11.981 160.425  1.00  0.00    -0.550 OA
ATOM     11  O   UNL     1       9.624  10.496 161.923  1.00  0.00    -0.550 OA
ENDBRANCH   8   9
ENDBRANCH   7   8
ENDBRANCH   6   7
ENDBRANCH   5   6
ENDBRANCH   4   5
ENDBRANCH   3   4
ENDBRANCH   2   3
ENDBRANCH   1   2
BRANCH   1  12
ATOM     12  C   UNL     1      11.272  18.017 160.638  1.00  0.00     0.000 C 
BRANCH  12  13
ATOM     13  C   UNL     1      11.086  16.524 160.316  1.00  0.00    -0.000 C 
BRANCH  13  14
ATOM     14  C   UNL     1      12.405  15.839 159.921  1.00  0.00    -0.000 C 
BRANCH  14  15
ATOM     15  C   UNL     1      12.744  14.645 160.830  1.00  0.00    -0.000 C 
BRANCH  15  16
ATOM     16  C   UNL     1      13.970  14.904 161.721  1.00  0.00    -0.000 C 
BRANCH  16  17
ATOM     17  C   UNL     1      14.374  13.693 162.589  1.00  0.00    -0.000 C 
BRANCH  17  18
ATOM     18  C   UNL     1      15.692  13.933 163.341  1.00  0.00    -0.000 C 
BRANCH  18  19
ATOM     19  C   UNL     1      16.739  14.578 162.426  1.00  0.00    -0.003 C 
ATOM     20  C   UNL     1      18.050  13.799 162.453  1.00  0.00     0.004 C 
ENDBRANCH  18  19
ENDBRANCH  17  18
ENDBRANCH  16  17
ENDBRANCH  15  16
ENDBRANCH  14  15
ENDBRANCH  13  14
ENDBRANCH  12  13
ENDBRANCH   1  12
TORSDOF 16
ENDMDL
MODEL 7
REMARK VINA RESULT:    -5.035      2.686      5.671
REMARK INTER + INTRA:         -11.690
REMARK INTER:                  -9.226
REMARK INTRA:                  -2.464
REMARK UNBOUND:                -1.945
REMARK SMILES CCCCCCCCCCCCCCCCCC(=O)[O-]
REMARK SMILES IDX 10 1 11 2 12 3 13 4 14 5 15 6 16 7 17 8 18 9 19 10 20 11
REMARK SMILES IDX 9 12 8 13 7 14 6 15 5 16 4 17 3 18 2 19 1 20
REMARK H PARENT
REMARK Flexibility Score: inf
ROOT
ATOM      1  C   UNL     1      10.978  15.616 160.209  1.00  0.00     0.000 C 
ENDROOT
BRANCH   1   2
ATOM      2  C   UNL     1      12.491  15.785 160.002  1.00  0.00     0.000 C 
BRANCH   2   3
ATOM      3  C   UNL     1      13.266  14.649 160.685  1.00  0.00     0.000 C 
BRANCH   3   4
ATOM      4  C   UNL     1      13.864  15.060 162.043  1.00  0.00     0.000 C 
BRANCH   4   5
ATOM      5  C   UNL     1      13.547  14.105 163.209  1.00  0.00     0.000 C 
BRANCH   5   6
ATOM      6  C   UNL     1      12.668  12.895 162.839  1.00  0.00     0.000 C 
BRANCH   6   7
ATOM      7  C   UNL     1      11.273  12.913 163.499  1.00  0.00     0.006 C 
BRANCH   7   8
ATOM      8  C   UNL     1      10.140  13.029 162.472  1.00  0.00     0.053 C 
BRANCH   8   9
ATOM      9  C   UNL     1      10.143  11.848 161.554  1.00  0.00     0.041 C 
ATOM     10  O   UNL     1      10.519  11.974 160.359  1.00  0.00    -0.550 OA
ATOM     11  O   UNL     1       9.686  10.616 162.006  1.00  0.00    -0.550 OA
ENDBRANCH   8   9
ENDBRANCH   7   8
ENDBRANCH   6   7
ENDBRANCH   5   6
ENDBRANCH   4   5
ENDBRANCH   3   4
ENDBRANCH   2   3
ENDBRANCH   1   2
BRANCH   1  12
ATOM     12  C   UNL     1      10.446  16.422 161.405  1.00  0.00     0.000 C 
BRANCH  12  13
ATOM     13  C   UNL     1      11.306  17.660 161.713  1.00  0.00    -0.000 C 
BRANCH  13  14
ATOM     14  C   UNL     1      11.489  17.889 163.222  1.00  0.00    -0.000 C 
BRANCH  14  15
ATOM     15  C   UNL     1      11.098  16.657 164.056  1.00  0.00    -0.000 C 
BRANCH  15  16
ATOM     16  C   UNL     1       9.847  16.896 164.919  1.00  0.00    -0.000 C 
BRANCH  16  17
ATOM     17  C   UNL     1       9.247  18.309 164.766  1.00  0.00    -0.000 C 
BRANCH  17  18
ATOM     18  C   UNL     1       8.204  18.618 165.852  1.00  0.00    -0.000 C 
BRANCH  18  19
ATOM     19  C   UNL     1       7.492  17.340 166.310  1.00  0.00    -0.003 C 
ATOM     20  C   UNL     1       7.401  17.274 167.831  1.00  0.00     0.004 C 
ENDBRANCH  18  19
ENDBRANCH  17  18
ENDBRANCH  16  17
ENDBRANCH  15  16
ENDBRANCH  14  15
ENDBRANCH  13  14
ENDBRANCH  12  13
ENDBRANCH   1  12
TORSDOF 16
ENDMDL
MODEL 8
REMARK VINA RESULT:    -5.021      3.657      6.107
REMARK INTER + INTRA:         -11.663
REMARK INTER:                  -9.525
REMARK INTRA:                  -2.137
REMARK UNBOUND:                -1.945
REMARK SMILES CCCCCCCCCCCCCCCCCC(=O)[O-]
REMARK SMILES IDX 10 1 11 2 12 3 13 4 14 5 15 6 16 7 17 8 18 9 19 10 20 11
REMARK SMILES IDX 9 12 8 13 7 14 6 15 5 16 4 17 3 18 2 19 1 20
REMARK H PARENT
REMARK Flexibility Score: inf
ROOT
ATOM      1  C   UNL     1      12.892  13.995 163.990  1.00  0.00     0.000 C 
ENDROOT
BRANCH   1   2
ATOM      2  C   UNL     1      12.750  15.491 164.307  1.00  0.00     0.000 C 
BRANCH   2   3
ATOM      3  C   UNL     1      11.692  15.722 165.395  1.00  0.00     0.000 C 
BRANCH   3   4
ATOM      4  C   UNL     1      10.302  16.056 164.821  1.00  0.00     0.000 C 
BRANCH   4   5
ATOM      5  C   UNL     1      10.072  17.545 164.503  1.00  0.00     0.000 C 
BRANCH   5   6
ATOM      6  C   UNL     1       8.911  18.205 165.272  1.00  0.00     0.000 C 
BRANCH   6   7
ATOM      7  C   UNL     1       7.937  17.195 165.915  1.00  0.00     0.006 C 
BRANCH   7   8
ATOM      8  C   UNL     1       7.963  17.248 167.448  1.00  0.00     0.053 C 
BRANCH   8   9
ATOM      9  C   UNL     1       7.126  16.150 168.023  1.00  0.00     0.041 C 
ATOM     10  O   UNL     1       5.940  15.986 167.634  1.00  0.00    -0.550 OA
ATOM     11  O   UNL     1       7.641  15.336 169.024  1.00  0.00    -0.550 OA
ENDBRANCH   8   9
ENDBRANCH   7   8
ENDBRANCH   6   7
ENDBRANCH   5   6
ENDBRANCH   4   5
ENDBRANCH   3   4
ENDBRANCH   2   3
ENDBRANCH   1   2
BRANCH   1  12
ATOM     12  C   UNL     1      13.520  13.735 162.610  1.00  0.00     0.000 C 
BRANCH  12  13
ATOM     13  C   UNL     1      13.714  15.026 161.797  1.00  0.00    -0.000 C 
BRANCH  13  14
ATOM     14  C   UNL     1      12.993  14.981 160.440  1.00  0.00    -0.000 C 
BRANCH  14  15
ATOM     15  C   UNL     1      11.894  16.051 160.321  1.00  0.00    -0.000 C 
BRANCH  15  16
ATOM     16  C   UNL     1      10.787  15.886 161.376  1.00  0.00    -0.000 C 
BRANCH  16  17
ATOM     17  C   UNL     1       9.763  14.784 161.035  1.00  0.00    -0.000 C 
BRANCH  17  18
ATOM     18  C   UNL     1       9.870  13.579 161.982  1.00  0.00    -0.000 C 
BRANCH  18  19
ATOM     19  C   UNL     1      10.533  12.386 161.283  1.00  0.00    -0.003 C 
ATOM     20  C   UNL     1       9.846  11.077 161.657  1.00  0.00     0.004 C 
ENDBRANCH  18  19
ENDBRANCH  17  18
ENDBRANCH  16  17
ENDBRANCH  15  16
ENDBRANCH  14  15
ENDBRANCH  13  14
ENDBRANCH  12  13
ENDBRANCH   1  12
TORSDOF 16
ENDMDL
MODEL 9
REMARK VINA RESULT:    -5.005      1.274      2.107
REMARK INTER + INTRA:         -11.632
REMARK INTER:                  -8.958
REMARK INTRA:                  -2.674
REMARK UNBOUND:                -1.945
REMARK SMILES CCCCCCCCCCCCCCCCCC(=O)[O-]
REMARK SMILES IDX 10 1 11 2 12 3 13 4 14 5 15 6 16 7 17 8 18 9 19 10 20 11
REMARK SMILES IDX 9 12 8 13 7 14 6 15 5 16 4 17 3 18 2 19 1 20
REMARK H PARENT
REMARK Flexibility Score: inf
ROOT
ATOM      1  C   UNL     1      11.415  18.325 162.286  1.00  0.00     0.000 C 
ENDROOT
BRANCH   1   2
ATOM      2  C   UNL     1      11.195  18.844 160.857  1.00  0.00     0.000 C 
BRANCH   2   3
ATOM      3  C   UNL     1      11.276  17.697 159.839  1.00  0.00     0.000 C 
BRANCH   3   4
ATOM      4  C   UNL     1      11.391  16.312 160.502  1.00  0.00     0.000 C 
BRANCH   4   5
ATOM      5  C   UNL     1      12.432  15.372 159.865  1.00  0.00     0.000 C 
BRANCH   5   6
ATOM      6  C   UNL     1      13.584  14.947 160.796  1.00  0.00     0.000 C 
BRANCH   6   7
ATOM      7  C   UNL     1      13.456  15.494 162.234  1.00  0.00     0.006 C 
BRANCH   7   8
ATOM      8  C   UNL     1      14.820  15.716 162.900  1.00  0.00     0.053 C 
BRANCH   8   9
ATOM      9  C   UNL     1      15.554  14.420 163.035  1.00  0.00     0.041 C 
ATOM     10  O   UNL     1      15.054  13.474 163.700  1.00  0.00    -0.550 OA
ATOM     11  O   UNL     1      16.812  14.271 162.465  1.00  0.00    -0.550 OA
ENDBRANCH   8   9
ENDBRANCH   7   8
ENDBRANCH   6   7
ENDBRANCH   5   6
ENDBRANCH   4   5
ENDBRANCH   3   4
ENDBRANCH   2   3
ENDBRANCH   1   2
BRANCH   1  12
ATOM     12  C   UNL     1      10.439  18.942 163.301  1.00  0.00     0.000 C 
BRANCH  12  13
ATOM     13  C   UNL     1       9.944  17.920 164.340  1.00  0.00    -0.000 C 
BRANCH  13  14
ATOM     14  C   UNL     1      10.489  16.506 164.080  1.00  0.00    -0.000 C 
BRANCH  14  15
ATOM     15  C   UNL     1      11.328  15.974 165.253  1.00  0.00    -0.000 C 
BRANCH  15  16
ATOM     16  C   UNL     1      11.766  14.512 165.057  1.00  0.00    -0.000 C 
BRANCH  16  17
ATOM     17  C   UNL     1      10.952  13.759 163.984  1.00  0.00    -0.000 C 
BRANCH  17  18
ATOM     18  C   UNL     1      11.772  12.651 163.306  1.00  0.00    -0.000 C 
BRANCH  18  19
ATOM     19  C   UNL     1      11.219  12.332 161.912  1.00  0.00    -0.003 C 
ATOM     20  C   UNL     1       9.916  13.081 161.651  1.00  0.00     0.004 C 
ENDBRANCH  18  19
ENDBRANCH  17  18
ENDBRANCH  16  17
ENDBRANCH  15  16
ENDBRANCH  14  15
ENDBRANCH  13  14
ENDBRANCH  12  13
ENDBRANCH   1  12
TORSDOF 16
ENDMDL
