MODEL 1
REMARK VINA RESULT:    -5.248      0.000      0.000
REMARK INTER + INTRA:          -6.636
REMARK INTER:                  -6.322
REMARK INTRA:                  -0.313
REMARK UNBOUND:                -0.313
REMARK SMILES O=c1c(O)c(-c2ccc(O)c(O)c2)oc2cc(O)cc(O)c12
REMARK SMILES IDX 5 1 3 2 2 3 1 4 22 5 20 6 19 7 17 8 16 9 15 10 14 11 6 12
REMARK SMILES IDX 7 13 8 14 9 15 13 16 11 17 10 18 12 20 4 22 21 24 18 26
REMARK H PARENT 10 19 12 21 4 23 21 25 18 27
REMARK Flexibility Score: inf
ROOT
ATOM      1  C   UNL     1      15.356  34.868  52.582  1.00  0.00     0.180 A 
ATOM      2  C   UNL     1      16.448  34.111  53.054  1.00  0.00     0.208 A 
ATOM      3  C   UNL     1      16.271  33.299  54.184  1.00  0.00     0.238 A 
ATOM      4  O   UNL     1      17.238  32.609  54.609  1.00  0.00    -0.285 OA
ATOM      5  C   UNL     1      15.020  33.271  54.835  1.00  0.00     0.111 A 
ATOM      6  C   UNL     1      14.761  32.482  55.982  1.00  0.00     0.134 A 
ATOM      7  C   UNL     1      13.492  32.515  56.576  1.00  0.00     0.093 A 
ATOM      8  C   UNL     1      12.478  33.320  56.050  1.00  0.00     0.123 A 
ATOM      9  C   UNL     1      12.728  34.100  54.916  1.00  0.00     0.094 A 
ATOM     10  C   UNL     1      13.986  34.080  54.308  1.00  0.00     0.146 A 
ATOM     11  O   UNL     1      14.195  34.827  53.230  1.00  0.00    -0.452 OA
ENDROOT
BRANCH   1  12
ATOM     12  C   UNL     1      15.458  35.733  51.385  1.00  0.00     0.025 A 
ATOM     13  C   UNL     1      15.755  37.103  51.494  1.00  0.00     0.016 A 
ATOM     14  C   UNL     1      15.870  37.894  50.348  1.00  0.00     0.051 A 
ATOM     15  C   UNL     1      15.702  37.328  49.078  1.00  0.00     0.157 A 
ATOM     16  C   UNL     1      15.311  35.165  50.109  1.00  0.00     0.062 A 
ATOM     17  C   UNL     1      15.425  35.956  48.958  1.00  0.00     0.158 A 
BRANCH  15  18
ATOM     18  O   UNL     1      15.815  38.120  47.936  1.00  0.00    -0.504 OA
ATOM     19  H   UNL     1      15.570  37.767  47.019  1.00  0.00     0.293 HD
ENDBRANCH  15  18
BRANCH  17  20
ATOM     20  O   UNL     1      15.259  35.359  47.709  1.00  0.00    -0.504 OA
ATOM     21  H   UNL     1      14.342  35.178  47.317  1.00  0.00     0.293 HD
ENDBRANCH  17  20
ENDBRANCH   1  12
BRANCH   2  22
ATOM     22  O   UNL     1      17.690  34.195  52.421  1.00  0.00    -0.502 OA
ATOM     23  H   UNL     1      17.962  34.996  51.863  1.00  0.00     0.293 HD
ENDBRANCH   2  22
BRANCH   6  24
ATOM     24  O   UNL     1      15.752  31.668  56.532  1.00  0.00    -0.507 OA
ATOM     25  H   UNL     1      15.525  30.829  57.053  1.00  0.00     0.293 HD
ENDBRANCH   6  24
BRANCH   8  26
ATOM     26  O   UNL     1      11.226  33.336  56.660  1.00  0.00    -0.508 OA
ATOM     27  H   UNL     1      10.373  33.403  56.118  1.00  0.00     0.293 HD
ENDBRANCH   8  26
TORSDOF 6
ENDMDL
MODEL 2
REMARK VINA RESULT:    -5.236      1.651      3.679
REMARK INTER + INTRA:          -6.621
REMARK INTER:                  -6.344
REMARK INTRA:                  -0.277
REMARK UNBOUND:                -0.313
REMARK SMILES O=c1c(O)c(-c2ccc(O)c(O)c2)oc2cc(O)cc(O)c12
REMARK SMILES IDX 5 1 3 2 2 3 1 4 22 5 20 6 19 7 17 8 16 9 15 10 14 11 6 12
REMARK SMILES IDX 7 13 8 14 9 15 13 16 11 17 10 18 12 20 4 22 21 24 18 26
REMARK H PARENT 10 19 12 21 4 23 21 25 18 27
REMARK Flexibility Score: inf
ROOT
ATOM      1  C   UNL     1      14.262  33.876  54.014  1.00  0.00     0.180 A 
ATOM      2  C   UNL     1      12.931  34.008  54.457  1.00  0.00     0.208 A 
ATOM      3  C   UNL     1      12.587  33.514  55.725  1.00  0.00     0.238 A 
ATOM      4  O   UNL     1      11.401  33.635  56.136  1.00  0.00    -0.285 OA
ATOM      5  C   UNL     1      13.567  32.881  56.517  1.00  0.00     0.111 A 
ATOM      6  C   UNL     1      13.301  32.352  57.803  1.00  0.00     0.134 A 
ATOM      7  C   UNL     1      14.329  31.730  58.525  1.00  0.00     0.093 A 
ATOM      8  C   UNL     1      15.615  31.624  57.989  1.00  0.00     0.123 A 
ATOM      9  C   UNL     1      15.883  32.145  56.719  1.00  0.00     0.094 A 
ATOM     10  C   UNL     1      14.873  32.771  55.984  1.00  0.00     0.146 A 
ATOM     11  O   UNL     1      15.156  33.261  54.782  1.00  0.00    -0.452 OA
ENDROOT
BRANCH   1  12
ATOM     12  C   UNL     1      14.707  34.389  52.698  1.00  0.00     0.025 A 
ATOM     13  C   UNL     1      14.407  33.707  51.507  1.00  0.00     0.016 A 
ATOM     14  C   UNL     1      14.817  34.224  50.275  1.00  0.00     0.051 A 
ATOM     15  C   UNL     1      15.521  35.434  50.214  1.00  0.00     0.157 A 
ATOM     16  C   UNL     1      15.394  35.613  52.631  1.00  0.00     0.062 A 
ATOM     17  C   UNL     1      15.807  36.133  51.398  1.00  0.00     0.158 A 
BRANCH  15  18
ATOM     18  O   UNL     1      15.930  35.945  48.983  1.00  0.00    -0.504 OA
ATOM     19  H   UNL     1      15.439  35.721  48.126  1.00  0.00     0.293 HD
ENDBRANCH  15  18
BRANCH  17  20
ATOM     20  O   UNL     1      16.499  37.343  51.372  1.00  0.00    -0.504 OA
ATOM     21  H   UNL     1      17.342  37.469  50.825  1.00  0.00     0.293 HD
ENDBRANCH  17  20
ENDBRANCH   1  12
BRANCH   2  22
ATOM     22  O   UNL     1      11.967  34.594  53.633  1.00  0.00    -0.502 OA
ATOM     23  H   UNL     1      11.303  34.046  53.101  1.00  0.00     0.293 HD
ENDBRANCH   2  22
BRANCH   6  24
ATOM     24  O   UNL     1      12.028  32.442  58.367  1.00  0.00    -0.507 OA
ATOM     25  H   UNL     1      11.371  33.162  58.088  1.00  0.00     0.293 HD
ENDBRANCH   6  24
BRANCH   8  26
ATOM     26  O   UNL     1      16.618  31.000  58.726  1.00  0.00    -0.508 OA
ATOM     27  H   UNL     1      16.412  30.496  59.580  1.00  0.00     0.293 HD
ENDBRANCH   8  26
TORSDOF 6
ENDMDL
MODEL 3
REMARK VINA RESULT:    -5.066      4.893      7.839
REMARK INTER + INTRA:          -6.416
REMARK INTER:                  -6.091
REMARK INTRA:                  -0.326
REMARK UNBOUND:                -0.313
REMARK SMILES O=c1c(O)c(-c2ccc(O)c(O)c2)oc2cc(O)cc(O)c12
REMARK SMILES IDX 5 1 3 2 2 3 1 4 22 5 20 6 19 7 17 8 16 9 15 10 14 11 6 12
REMARK SMILES IDX 7 13 8 14 9 15 13 16 11 17 10 18 12 20 4 22 21 24 18 26
REMARK H PARENT 10 19 12 21 4 23 21 25 18 27
REMARK Flexibility Score: inf
ROOT
ATOM      1  C   UNL     1      11.780  36.218  48.346  1.00  0.00     0.180 A 
ATOM      2  C   UNL     1      12.459  36.254  47.111  1.00  0.00     0.208 A 
ATOM      3  C   UNL     1      13.807  36.642  47.089  1.00  0.00     0.238 A 
ATOM      4  O   UNL     1      14.427  36.668  45.991  1.00  0.00    -0.285 OA
ATOM      5  C   UNL     1      14.447  37.006  48.291  1.00  0.00     0.111 A 
ATOM      6  C   UNL     1      15.802  37.413  48.355  1.00  0.00     0.134 A 
ATOM      7  C   UNL     1      16.364  37.768  49.590  1.00  0.00     0.093 A 
ATOM      8  C   UNL     1      15.601  37.726  50.760  1.00  0.00     0.123 A 
ATOM      9  C   UNL     1      14.263  37.324  50.703  1.00  0.00     0.094 A 
ATOM     10  C   UNL     1      13.684  36.965  49.483  1.00  0.00     0.146 A 
ATOM     11  O   UNL     1      12.412  36.583  49.457  1.00  0.00    -0.452 OA
ENDROOT
BRANCH   1  12
ATOM     12  C   UNL     1      10.364  35.801  48.453  1.00  0.00     0.025 A 
ATOM     13  C   UNL     1       9.315  36.728  48.323  1.00  0.00     0.016 A 
ATOM     14  C   UNL     1       7.985  36.306  48.404  1.00  0.00     0.051 A 
ATOM     15  C   UNL     1       7.683  34.953  48.603  1.00  0.00     0.157 A 
ATOM     16  C   UNL     1      10.056  34.442  48.631  1.00  0.00     0.062 A 
ATOM     17  C   UNL     1       8.725  34.017  48.713  1.00  0.00     0.158 A 
BRANCH  15  18
ATOM     18  O   UNL     1       6.356  34.535  48.685  1.00  0.00    -0.504 OA
ATOM     19  H   UNL     1       5.635  34.941  48.100  1.00  0.00     0.293 HD
ENDBRANCH  15  18
BRANCH  17  20
ATOM     20  O   UNL     1       8.459  32.661  48.905  1.00  0.00    -0.504 OA
ATOM     21  H   UNL     1       9.028  31.936  48.483  1.00  0.00     0.293 HD
ENDBRANCH  17  20
ENDBRANCH   1  12
BRANCH   2  22
ATOM     22  O   UNL     1      11.787  35.936  45.928  1.00  0.00    -0.502 OA
ATOM     23  H   UNL     1      10.862  35.524  45.923  1.00  0.00     0.293 HD
ENDBRANCH   2  22
BRANCH   6  24
ATOM     24  O   UNL     1      16.590  37.466  47.205  1.00  0.00    -0.507 OA
ATOM     25  H   UNL     1      17.196  36.699  46.939  1.00  0.00     0.293 HD
ENDBRANCH   6  24
BRANCH   8  26
ATOM     26  O   UNL     1      16.183  38.085  51.973  1.00  0.00    -0.508 OA
ATOM     27  H   UNL     1      17.035  38.631  52.011  1.00  0.00     0.293 HD
ENDBRANCH   8  26
TORSDOF 6
ENDMDL
MODEL 4
REMARK VINA RESULT:    -4.978      3.928      6.454
REMARK INTER + INTRA:          -6.310
REMARK INTER:                  -6.844
REMARK INTRA:                   0.534
REMARK UNBOUND:                -0.313
REMARK SMILES O=c1c(O)c(-c2ccc(O)c(O)c2)oc2cc(O)cc(O)c12
REMARK SMILES IDX 5 1 3 2 2 3 1 4 22 5 20 6 19 7 17 8 16 9 15 10 14 11 6 12
REMARK SMILES IDX 7 13 8 14 9 15 13 16 11 17 10 18 12 20 4 22 21 24 18 26
REMARK H PARENT 10 19 12 21 4 23 21 25 18 27
REMARK Flexibility Score: inf
ROOT
ATOM      1  C   UNL     1      14.324  32.125  57.878  1.00  0.00     0.180 A 
ATOM      2  C   UNL     1      15.731  32.048  57.884  1.00  0.00     0.208 A 
ATOM      3  C   UNL     1      16.370  31.410  58.959  1.00  0.00     0.238 A 
ATOM      4  O   UNL     1      17.628  31.326  58.970  1.00  0.00    -0.285 OA
ATOM      5  C   UNL     1      15.600  30.881  60.015  1.00  0.00     0.111 A 
ATOM      6  C   UNL     1      16.166  30.228  61.136  1.00  0.00     0.134 A 
ATOM      7  C   UNL     1      15.332  29.736  62.149  1.00  0.00     0.093 A 
ATOM      8  C   UNL     1      13.945  29.885  62.066  1.00  0.00     0.123 A 
ATOM      9  C   UNL     1      13.380  30.528  60.961  1.00  0.00     0.094 A 
ATOM     10  C   UNL     1      14.194  31.024  59.939  1.00  0.00     0.146 A 
ATOM     11  O   UNL     1      13.631  31.627  58.898  1.00  0.00    -0.452 OA
ENDROOT
BRANCH   1  12
ATOM     12  C   UNL     1      13.576  32.764  56.772  1.00  0.00     0.025 A 
ATOM     13  C   UNL     1      12.171  32.743  56.729  1.00  0.00     0.016 A 
ATOM     14  C   UNL     1      11.487  33.374  55.687  1.00  0.00     0.051 A 
ATOM     15  C   UNL     1      12.194  34.044  54.680  1.00  0.00     0.157 A 
ATOM     16  C   UNL     1      14.280  33.455  55.772  1.00  0.00     0.062 A 
ATOM     17  C   UNL     1      13.597  34.087  54.726  1.00  0.00     0.158 A 
BRANCH  15  18
ATOM     18  O   UNL     1      11.508  34.671  53.640  1.00  0.00    -0.504 OA
ATOM     19  H   UNL     1      10.898  35.462  53.809  1.00  0.00     0.293 HD
ENDBRANCH  15  18
BRANCH  17  20
ATOM     20  O   UNL     1      14.331  34.752  53.743  1.00  0.00    -0.504 OA
ATOM     21  H   UNL     1      14.140  35.714  53.488  1.00  0.00     0.293 HD
ENDBRANCH  17  20
ENDBRANCH   1  12
BRANCH   2  22
ATOM     22  O   UNL     1      16.474  32.623  56.851  1.00  0.00    -0.502 OA
ATOM     23  H   UNL     1      17.341  33.120  57.017  1.00  0.00     0.293 HD
ENDBRANCH   2  22
BRANCH   6  24
ATOM     24  O   UNL     1      17.547  30.064  61.248  1.00  0.00    -0.507 OA
ATOM     25  H   UNL     1      18.176  30.300  60.489  1.00  0.00     0.293 HD
ENDBRANCH   6  24
BRANCH   8  26
ATOM     26  O   UNL     1      13.138  29.388  63.088  1.00  0.00    -0.508 OA
ATOM     27  H   UNL     1      12.923  28.401  63.161  1.00  0.00     0.293 HD
ENDBRANCH   8  26
TORSDOF 6
ENDMDL
MODEL 5
REMARK VINA RESULT:    -4.947      3.598      8.250
REMARK INTER + INTRA:          -6.272
REMARK INTER:                  -5.946
REMARK INTRA:                  -0.326
REMARK UNBOUND:                -0.313
REMARK SMILES O=c1c(O)c(-c2ccc(O)c(O)c2)oc2cc(O)cc(O)c12
REMARK SMILES IDX 5 1 3 2 2 3 1 4 22 5 20 6 19 7 17 8 16 9 15 10 14 11 6 12
REMARK SMILES IDX 7 13 8 14 9 15 13 16 11 17 10 18 12 20 4 22 21 24 18 26
REMARK H PARENT 10 19 12 21 4 23 21 25 18 27
REMARK Flexibility Score: inf
ROOT
ATOM      1  C   UNL     1      15.842  31.780  57.964  1.00  0.00     0.180 A 
ATOM      2  C   UNL     1      14.629  31.621  58.665  1.00  0.00     0.208 A 
ATOM      3  C   UNL     1      13.445  32.107  58.089  1.00  0.00     0.238 A 
ATOM      4  O   UNL     1      12.353  31.961  58.702  1.00  0.00    -0.285 OA
ATOM      5  C   UNL     1      13.492  32.757  56.839  1.00  0.00     0.111 A 
ATOM      6  C   UNL     1      12.346  33.279  56.193  1.00  0.00     0.134 A 
ATOM      7  C   UNL     1      12.478  33.920  54.953  1.00  0.00     0.093 A 
ATOM      8  C   UNL     1      13.730  34.053  54.348  1.00  0.00     0.123 A 
ATOM      9  C   UNL     1      14.866  33.538  54.981  1.00  0.00     0.094 A 
ATOM     10  C   UNL     1      14.756  32.894  56.216  1.00  0.00     0.146 A 
ATOM     11  O   UNL     1      15.850  32.411  56.794  1.00  0.00    -0.452 OA
ENDROOT
BRANCH   1  12
ATOM     12  C   UNL     1      17.128  31.277  58.496  1.00  0.00     0.025 A 
ATOM     13  C   UNL     1      17.620  30.007  58.147  1.00  0.00     0.016 A 
ATOM     14  C   UNL     1      18.849  29.565  58.643  1.00  0.00     0.051 A 
ATOM     15  C   UNL     1      19.611  30.388  59.483  1.00  0.00     0.157 A 
ATOM     16  C   UNL     1      17.905  32.108  59.321  1.00  0.00     0.062 A 
ATOM     17  C   UNL     1      19.137  31.667  59.820  1.00  0.00     0.158 A 
BRANCH  15  18
ATOM     18  O   UNL     1      20.836  29.943  59.977  1.00  0.00    -0.504 OA
ATOM     19  H   UNL     1      20.947  29.011  60.359  1.00  0.00     0.293 HD
ENDBRANCH  15  18
BRANCH  17  20
ATOM     20  O   UNL     1      19.874  32.514  60.648  1.00  0.00    -0.504 OA
ATOM     21  H   UNL     1      19.542  32.793  61.563  1.00  0.00     0.293 HD
ENDBRANCH  17  20
ENDBRANCH   1  12
BRANCH   2  22
ATOM     22  O   UNL     1      14.616  31.017  59.924  1.00  0.00    -0.502 OA
ATOM     23  H   UNL     1      14.376  30.042  60.056  1.00  0.00     0.293 HD
ENDBRANCH   2  22
BRANCH   6  24
ATOM     24  O   UNL     1      11.082  33.163  56.771  1.00  0.00    -0.507 OA
ATOM     25  H   UNL     1      10.308  32.730  56.280  1.00  0.00     0.293 HD
ENDBRANCH   6  24
BRANCH   8  26
ATOM     26  O   UNL     1      13.834  34.696  53.116  1.00  0.00    -0.508 OA
ATOM     27  H   UNL     1      13.360  34.344  52.293  1.00  0.00     0.293 HD
ENDBRANCH   8  26
TORSDOF 6
ENDMDL
MODEL 6
REMARK VINA RESULT:    -4.930      4.230      7.030
REMARK INTER + INTRA:          -6.253
REMARK INTER:                  -6.174
REMARK INTRA:                  -0.079
REMARK UNBOUND:                -0.313
REMARK SMILES O=c1c(O)c(-c2ccc(O)c(O)c2)oc2cc(O)cc(O)c12
REMARK SMILES IDX 5 1 3 2 2 3 1 4 22 5 20 6 19 7 17 8 16 9 15 10 14 11 6 12
REMARK SMILES IDX 7 13 8 14 9 15 13 16 11 17 10 18 12 20 4 22 21 24 18 26
REMARK H PARENT 10 19 12 21 4 23 21 25 18 27
REMARK Flexibility Score: inf
ROOT
ATOM      1  C   UNL     1      14.709  31.863  57.670  1.00  0.00     0.180 A 
ATOM      2  C   UNL     1      14.298  30.600  58.144  1.00  0.00     0.208 A 
ATOM      3  C   UNL     1      15.079  29.954  59.114  1.00  0.00     0.238 A 
ATOM      4  O   UNL     1      14.715  28.829  59.553  1.00  0.00    -0.285 OA
ATOM      5  C   UNL     1      16.261  30.565  59.579  1.00  0.00     0.111 A 
ATOM      6  C   UNL     1      17.106  29.979  60.553  1.00  0.00     0.134 A 
ATOM      7  C   UNL     1      18.270  30.647  60.957  1.00  0.00     0.093 A 
ATOM      8  C   UNL     1      18.608  31.887  60.408  1.00  0.00     0.123 A 
ATOM      9  C   UNL     1      17.777  32.471  59.447  1.00  0.00     0.094 A 
ATOM     10  C   UNL     1      16.611  31.823  59.032  1.00  0.00     0.146 A 
ATOM     11  O   UNL     1      15.837  32.402  58.121  1.00  0.00    -0.452 OA
ENDROOT
BRANCH   1  12
ATOM     12  C   UNL     1      13.929  32.616  56.661  1.00  0.00     0.025 A 
ATOM     13  C   UNL     1      14.487  32.972  55.421  1.00  0.00     0.016 A 
ATOM     14  C   UNL     1      13.723  33.661  54.476  1.00  0.00     0.051 A 
ATOM     15  C   UNL     1      12.390  33.994  54.749  1.00  0.00     0.157 A 
ATOM     16  C   UNL     1      12.586  32.932  56.923  1.00  0.00     0.062 A 
ATOM     17  C   UNL     1      11.819  33.625  55.978  1.00  0.00     0.158 A 
BRANCH  15  18
ATOM     18  O   UNL     1      11.632  34.684  53.805  1.00  0.00    -0.504 OA
ATOM     19  H   UNL     1      11.552  34.358  52.849  1.00  0.00     0.293 HD
ENDBRANCH  15  18
BRANCH  17  20
ATOM     20  O   UNL     1      10.493  33.934  56.279  1.00  0.00    -0.504 OA
ATOM     21  H   UNL     1       9.732  33.712  55.648  1.00  0.00     0.293 HD
ENDBRANCH  17  20
ENDBRANCH   1  12
BRANCH   2  22
ATOM     22  O   UNL     1      13.149  29.994  57.630  1.00  0.00    -0.502 OA
ATOM     23  H   UNL     1      12.378  30.528  57.249  1.00  0.00     0.293 HD
ENDBRANCH   2  22
BRANCH   6  24
ATOM     24  O   UNL     1      16.797  28.742  61.119  1.00  0.00    -0.507 OA
ATOM     25  H   UNL     1      16.462  27.967  60.558  1.00  0.00     0.293 HD
ENDBRANCH   6  24
BRANCH   8  26
ATOM     26  O   UNL     1      19.771  32.530  60.826  1.00  0.00    -0.508 OA
ATOM     27  H   UNL     1      20.674  32.074  60.780  1.00  0.00     0.293 HD
ENDBRANCH   8  26
TORSDOF 6
ENDMDL
MODEL 7
REMARK VINA RESULT:    -4.817      1.944      7.136
REMARK INTER + INTRA:          -6.117
REMARK INTER:                  -5.792
REMARK INTRA:                  -0.325
REMARK UNBOUND:                -0.313
REMARK SMILES O=c1c(O)c(-c2ccc(O)c(O)c2)oc2cc(O)cc(O)c12
REMARK SMILES IDX 5 1 3 2 2 3 1 4 22 5 20 6 19 7 17 8 16 9 15 10 14 11 6 12
REMARK SMILES IDX 7 13 8 14 9 15 13 16 11 17 10 18 12 20 4 22 21 24 18 26
REMARK H PARENT 10 19 12 21 4 23 21 25 18 27
REMARK Flexibility Score: inf
ROOT
ATOM      1  C   UNL     1      14.032  34.098  53.349  1.00  0.00     0.180 A 
ATOM      2  C   UNL     1      12.865  34.096  52.559  1.00  0.00     0.208 A 
ATOM      3  C   UNL     1      12.817  34.911  51.418  1.00  0.00     0.238 A 
ATOM      4  O   UNL     1      11.782  34.909  50.698  1.00  0.00    -0.285 OA
ATOM      5  C   UNL     1      13.921  35.727  51.096  1.00  0.00     0.111 A 
ATOM      6  C   UNL     1      13.951  36.581  49.967  1.00  0.00     0.134 A 
ATOM      7  C   UNL     1      15.085  37.368  49.721  1.00  0.00     0.093 A 
ATOM      8  C   UNL     1      16.186  37.321  50.579  1.00  0.00     0.123 A 
ATOM      9  C   UNL     1      16.162  36.479  51.696  1.00  0.00     0.094 A 
ATOM     10  C   UNL     1      15.043  35.685  51.958  1.00  0.00     0.146 A 
ATOM     11  O   UNL     1      15.048  34.892  53.023  1.00  0.00    -0.452 OA
ENDROOT
BRANCH   1  12
ATOM     12  C   UNL     1      14.166  33.251  54.556  1.00  0.00     0.025 A 
ATOM     13  C   UNL     1      13.736  33.699  55.817  1.00  0.00     0.016 A 
ATOM     14  C   UNL     1      13.851  32.872  56.937  1.00  0.00     0.051 A 
ATOM     15  C   UNL     1      14.386  31.583  56.813  1.00  0.00     0.157 A 
ATOM     16  C   UNL     1      14.682  31.951  54.432  1.00  0.00     0.062 A 
ATOM     17  C   UNL     1      14.800  31.120  55.553  1.00  0.00     0.158 A 
BRANCH  15  18
ATOM     18  O   UNL     1      14.501  30.762  57.933  1.00  0.00    -0.504 OA
ATOM     19  H   UNL     1      14.197  31.069  58.850  1.00  0.00     0.293 HD
ENDBRANCH  15  18
BRANCH  17  20
ATOM     20  O   UNL     1      15.329  29.840  55.394  1.00  0.00    -0.504 OA
ATOM     21  H   UNL     1      15.944  29.423  56.083  1.00  0.00     0.293 HD
ENDBRANCH  17  20
ENDBRANCH   1  12
BRANCH   2  22
ATOM     22  O   UNL     1      11.766  33.315  52.926  1.00  0.00    -0.502 OA
ATOM     23  H   UNL     1      11.584  32.407  52.516  1.00  0.00     0.293 HD
ENDBRANCH   2  22
BRANCH   6  24
ATOM     24  O   UNL     1      12.868  36.650  49.091  1.00  0.00    -0.507 OA
ATOM     25  H   UNL     1      12.226  37.434  49.098  1.00  0.00     0.293 HD
ENDBRANCH   6  24
BRANCH   8  26
ATOM     26  O   UNL     1      17.300  38.115  50.312  1.00  0.00    -0.508 OA
ATOM     27  H   UNL     1      17.206  39.094  50.070  1.00  0.00     0.293 HD
ENDBRANCH   8  26
TORSDOF 6
ENDMDL
MODEL 8
REMARK VINA RESULT:    -4.782      2.403      6.314
REMARK INTER + INTRA:          -6.074
REMARK INTER:                  -5.828
REMARK INTRA:                  -0.246
REMARK UNBOUND:                -0.313
REMARK SMILES O=c1c(O)c(-c2ccc(O)c(O)c2)oc2cc(O)cc(O)c12
REMARK SMILES IDX 5 1 3 2 2 3 1 4 22 5 20 6 19 7 17 8 16 9 15 10 14 11 6 12
REMARK SMILES IDX 7 13 8 14 9 15 13 16 11 17 10 18 12 20 4 22 21 24 18 26
REMARK H PARENT 10 19 12 21 4 23 21 25 18 27
REMARK Flexibility Score: inf
ROOT
ATOM      1  C   UNL     1      12.867  33.192  54.299  1.00  0.00     0.180 A 
ATOM      2  C   UNL     1      13.726  32.244  54.890  1.00  0.00     0.208 A 
ATOM      3  C   UNL     1      15.102  32.321  54.629  1.00  0.00     0.238 A 
ATOM      4  O   UNL     1      15.882  31.484  55.160  1.00  0.00    -0.285 OA
ATOM      5  C   UNL     1      15.595  33.325  53.769  1.00  0.00     0.111 A 
ATOM      6  C   UNL     1      16.967  33.468  53.450  1.00  0.00     0.134 A 
ATOM      7  C   UNL     1      17.376  34.488  52.580  1.00  0.00     0.093 A 
ATOM      8  C   UNL     1      16.443  35.366  52.021  1.00  0.00     0.123 A 
ATOM      9  C   UNL     1      15.087  35.229  52.334  1.00  0.00     0.094 A 
ATOM     10  C   UNL     1      14.658  34.221  53.200  1.00  0.00     0.146 A 
ATOM     11  O   UNL     1      13.365  34.116  53.483  1.00  0.00    -0.452 OA
ENDROOT
BRANCH   1  12
ATOM     12  C   UNL     1      11.407  33.190  54.542  1.00  0.00     0.025 A 
ATOM     13  C   UNL     1      10.871  33.556  55.789  1.00  0.00     0.016 A 
ATOM     14  C   UNL     1       9.488  33.569  55.987  1.00  0.00     0.051 A 
ATOM     15  C   UNL     1       8.620  33.230  54.941  1.00  0.00     0.157 A 
ATOM     16  C   UNL     1      10.533  32.871  53.490  1.00  0.00     0.062 A 
ATOM     17  C   UNL     1       9.146  32.882  53.686  1.00  0.00     0.158 A 
BRANCH  15  18
ATOM     18  O   UNL     1       7.240  33.242  55.142  1.00  0.00    -0.504 OA
ATOM     19  H   UNL     1       6.826  32.887  55.996  1.00  0.00     0.293 HD
ENDBRANCH  15  18
BRANCH  17  20
ATOM     20  O   UNL     1       8.310  32.546  52.621  1.00  0.00    -0.504 OA
ATOM     21  H   UNL     1       8.595  31.896  51.899  1.00  0.00     0.293 HD
ENDBRANCH  17  20
ENDBRANCH   1  12
BRANCH   2  22
ATOM     22  O   UNL     1      13.208  31.230  55.698  1.00  0.00    -0.502 OA
ATOM     23  H   UNL     1      13.753  30.783  56.426  1.00  0.00     0.293 HD
ENDBRANCH   2  22
BRANCH   6  24
ATOM     24  O   UNL     1      17.922  32.607  53.992  1.00  0.00    -0.507 OA
ATOM     25  H   UNL     1      18.889  32.625  53.688  1.00  0.00     0.293 HD
ENDBRANCH   6  24
BRANCH   8  26
ATOM     26  O   UNL     1      16.876  36.370  51.158  1.00  0.00    -0.508 OA
ATOM     27  H   UNL     1      16.603  36.384  50.183  1.00  0.00     0.293 HD
ENDBRANCH   8  26
TORSDOF 6
ENDMDL
MODEL 9
REMARK VINA RESULT:    -4.774      2.652      3.986
REMARK INTER + INTRA:          -6.064
REMARK INTER:                  -5.768
REMARK INTRA:                  -0.296
REMARK UNBOUND:                -0.313
REMARK SMILES O=c1c(O)c(-c2ccc(O)c(O)c2)oc2cc(O)cc(O)c12
REMARK SMILES IDX 5 1 3 2 2 3 1 4 22 5 20 6 19 7 17 8 16 9 15 10 14 11 6 12
REMARK SMILES IDX 7 13 8 14 9 15 13 16 11 17 10 18 12 20 4 22 21 24 18 26
REMARK H PARENT 10 19 12 21 4 23 21 25 18 27
REMARK Flexibility Score: inf
ROOT
ATOM      1  C   UNL     1      13.155  34.905  51.487  1.00  0.00     0.180 A 
ATOM      2  C   UNL     1      12.178  34.377  50.619  1.00  0.00     0.208 A 
ATOM      3  C   UNL     1      11.089  33.681  51.167  1.00  0.00     0.238 A 
ATOM      4  O   UNL     1      10.204  33.213  50.401  1.00  0.00    -0.285 OA
ATOM      5  C   UNL     1      11.004  33.507  52.564  1.00  0.00     0.111 A 
ATOM      6  C   UNL     1       9.942  32.815  53.196  1.00  0.00     0.134 A 
ATOM      7  C   UNL     1       9.935  32.677  54.591  1.00  0.00     0.093 A 
ATOM      8  C   UNL     1      10.965  33.214  55.367  1.00  0.00     0.123 A 
ATOM      9  C   UNL     1      12.016  33.900  54.748  1.00  0.00     0.094 A 
ATOM     10  C   UNL     1      12.042  34.050  53.359  1.00  0.00     0.146 A 
ATOM     11  O   UNL     1      13.049  34.708  52.798  1.00  0.00    -0.452 OA
ENDROOT
BRANCH   1  12
ATOM     12  C   UNL     1      14.321  35.667  50.987  1.00  0.00     0.025 A 
ATOM     13  C   UNL     1      14.201  37.007  50.581  1.00  0.00     0.016 A 
ATOM     14  C   UNL     1      15.322  37.713  50.135  1.00  0.00     0.051 A 
ATOM     15  C   UNL     1      16.579  37.096  50.101  1.00  0.00     0.157 A 
ATOM     16  C   UNL     1      15.587  35.059  50.971  1.00  0.00     0.062 A 
ATOM     17  C   UNL     1      16.712  35.764  50.525  1.00  0.00     0.158 A 
BRANCH  15  18
ATOM     18  O   UNL     1      17.695  37.803  49.654  1.00  0.00    -0.504 OA
ATOM     19  H   UNL     1      17.645  38.420  48.852  1.00  0.00     0.293 HD
ENDBRANCH  15  18
BRANCH  17  20
ATOM     20  O   UNL     1      17.950  35.122  50.510  1.00  0.00    -0.504 OA
ATOM     21  H   UNL     1      18.503  35.000  51.351  1.00  0.00     0.293 HD
ENDBRANCH  17  20
ENDBRANCH   1  12
BRANCH   2  22
ATOM     22  O   UNL     1      12.311  34.520  49.236  1.00  0.00    -0.502 OA
ATOM     23  H   UNL     1      12.265  35.422  48.778  1.00  0.00     0.293 HD
ENDBRANCH   2  22
BRANCH   6  24
ATOM     24  O   UNL     1       8.899  32.267  52.449  1.00  0.00    -0.507 OA
ATOM     25  H   UNL     1       8.022  32.757  52.320  1.00  0.00     0.293 HD
ENDBRANCH   6  24
BRANCH   8  26
ATOM     26  O   UNL     1      10.934  33.063  56.751  1.00  0.00    -0.508 OA
ATOM     27  H   UNL     1      10.478  32.270  57.187  1.00  0.00     0.293 HD
ENDBRANCH   8  26
TORSDOF 6
ENDMDL
