MODEL 1
REMARK VINA RESULT:    -4.325      0.000      0.000
REMARK INTER + INTRA:          -8.015
REMARK INTER:                  -7.358
REMARK INTRA:                  -0.657
REMARK UNBOUND:                -0.657
REMARK SMILES CCCCCCCCCCCCCC(=O)[O-]
REMARK SMILES IDX 8 1 9 2 10 3 11 4 12 5 13 6 14 7 15 8 16 9 7 10 6 11 5 12
REMARK SMILES IDX 4 13 3 14 2 15 1 16
REMARK H PARENT
REMARK Flexibility Score: inf
ROOT
ATOM      1  C   UNL     1     -26.354 -11.805  35.065  1.00  0.00     0.000 C 
ENDROOT
BRANCH   1   2
ATOM      2  C   UNL     1     -27.659 -10.990  35.096  1.00  0.00     0.000 C 
BRANCH   2   3
ATOM      3  C   UNL     1     -27.977 -10.333  33.744  1.00  0.00     0.000 C 
BRANCH   3   4
ATOM      4  C   UNL     1     -28.582  -8.929  33.893  1.00  0.00     0.000 C 
BRANCH   4   5
ATOM      5  C   UNL     1     -30.097  -9.008  34.135  1.00  0.00     0.006 C 
BRANCH   5   6
ATOM      6  C   UNL     1     -30.876  -8.005  33.273  1.00  0.00     0.053 C 
BRANCH   6   7
ATOM      7  C   UNL     1     -32.017  -7.393  34.024  1.00  0.00     0.041 C 
ATOM      8  O   UNL     1     -32.677  -8.082  34.846  1.00  0.00    -0.550 OA
ATOM      9  O   UNL     1     -32.330  -6.051  33.845  1.00  0.00    -0.550 OA
ENDBRANCH   6   7
ENDBRANCH   5   6
ENDBRANCH   4   5
ENDBRANCH   3   4
ENDBRANCH   2   3
ENDBRANCH   1   2
BRANCH   1  10
ATOM     10  C   UNL     1     -25.593 -11.670  33.734  1.00  0.00     0.000 C 
BRANCH  10  11
ATOM     11  C   UNL     1     -24.058 -11.690  33.850  1.00  0.00    -0.000 C 
BRANCH  11  12
ATOM     12  C   UNL     1     -23.566 -11.689  35.307  1.00  0.00    -0.000 C 
BRANCH  12  13
ATOM     13  C   UNL     1     -22.387 -12.649  35.534  1.00  0.00    -0.000 C 
BRANCH  13  14
ATOM     14  C   UNL     1     -22.011 -12.788  37.017  1.00  0.00    -0.000 C 
BRANCH  14  15
ATOM     15  C   UNL     1     -23.099 -12.191  37.916  1.00  0.00    -0.003 C 
ATOM     16  C   UNL     1     -22.513 -11.176  38.893  1.00  0.00     0.004 C 
ENDBRANCH  14  15
ENDBRANCH  13  14
ENDBRANCH  12  13
ENDBRANCH  11  12
ENDBRANCH  10  11
ENDBRANCH   1  10
TORSDOF 12
ENDMDL
MODEL 2
REMARK VINA RESULT:    -4.312      4.064      7.698
REMARK INTER + INTRA:          -7.994
REMARK INTER:                  -7.497
REMARK INTRA:                  -0.497
REMARK UNBOUND:                -0.657
REMARK SMILES CCCCCCCCCCCCCC(=O)[O-]
REMARK SMILES IDX 8 1 9 2 10 3 11 4 12 5 13 6 14 7 15 8 16 9 7 10 6 11 5 12
REMARK SMILES IDX 4 13 3 14 2 15 1 16
REMARK H PARENT
REMARK Flexibility Score: inf
ROOT
ATOM      1  C   UNL     1     -33.567  -8.688  32.202  1.00  0.00     0.000 C 
ENDROOT
BRANCH   1   2
ATOM      2  C   UNL     1     -34.465  -7.482  31.875  1.00  0.00     0.000 C 
BRANCH   2   3
ATOM      3  C   UNL     1     -35.772  -7.484  32.684  1.00  0.00     0.000 C 
BRANCH   3   4
ATOM      4  C   UNL     1     -36.925  -6.780  31.952  1.00  0.00     0.000 C 
BRANCH   4   5
ATOM      5  C   UNL     1     -38.252  -6.980  32.699  1.00  0.00     0.006 C 
BRANCH   5   6
ATOM      6  C   UNL     1     -38.629  -5.761  33.551  1.00  0.00     0.053 C 
BRANCH   6   7
ATOM      7  C   UNL     1     -38.220  -5.934  34.981  1.00  0.00     0.041 C 
ATOM      8  O   UNL     1     -38.474  -7.007  35.588  1.00  0.00    -0.550 OA
ATOM      9  O   UNL     1     -37.526  -4.923  35.634  1.00  0.00    -0.550 OA
ENDBRANCH   6   7
ENDBRANCH   5   6
ENDBRANCH   4   5
ENDBRANCH   3   4
ENDBRANCH   2   3
ENDBRANCH   1   2
BRANCH   1  10
ATOM     10  C   UNL     1     -32.787  -8.518  33.518  1.00  0.00     0.000 C 
BRANCH  10  11
ATOM     11  C   UNL     1     -31.602  -7.536  33.459  1.00  0.00    -0.000 C 
BRANCH  11  12
ATOM     12  C   UNL     1     -30.271  -8.223  33.110  1.00  0.00    -0.000 C 
BRANCH  12  13
ATOM     13  C   UNL     1     -29.784  -9.165  34.223  1.00  0.00    -0.000 C 
BRANCH  13  14
ATOM     14  C   UNL     1     -28.259  -9.352  34.218  1.00  0.00    -0.000 C 
BRANCH  14  15
ATOM     15  C   UNL     1     -27.879 -10.777  34.636  1.00  0.00    -0.003 C 
ATOM     16  C   UNL     1     -27.445 -11.609  33.433  1.00  0.00     0.004 C 
ENDBRANCH  14  15
ENDBRANCH  13  14
ENDBRANCH  12  13
ENDBRANCH  11  12
ENDBRANCH  10  11
ENDBRANCH   1  10
TORSDOF 12
ENDMDL
MODEL 3
REMARK VINA RESULT:    -4.207      1.526      2.374
REMARK INTER + INTRA:          -7.815
REMARK INTER:                  -7.286
REMARK INTRA:                  -0.529
REMARK UNBOUND:                -0.657
REMARK SMILES CCCCCCCCCCCCCC(=O)[O-]
REMARK SMILES IDX 8 1 9 2 10 3 11 4 12 5 13 6 14 7 15 8 16 9 7 10 6 11 5 12
REMARK SMILES IDX 4 13 3 14 2 15 1 16
REMARK H PARENT
REMARK Flexibility Score: inf
ROOT
ATOM      1  C   UNL     1     -27.442 -11.384  33.476  1.00  0.00     0.000 C 
ENDROOT
BRANCH   1   2
ATOM      2  C   UNL     1     -27.878 -11.024  34.907  1.00  0.00     0.000 C 
BRANCH   2   3
ATOM      3  C   UNL     1     -28.295  -9.551  35.043  1.00  0.00     0.000 C 
BRANCH   3   4
ATOM      4  C   UNL     1     -29.009  -9.017  33.792  1.00  0.00     0.000 C 
BRANCH   4   5
ATOM      5  C   UNL     1     -30.483  -8.706  34.093  1.00  0.00     0.006 C 
BRANCH   5   6
ATOM      6  C   UNL     1     -31.138  -7.870  32.987  1.00  0.00     0.053 C 
BRANCH   6   7
ATOM      7  C   UNL     1     -32.242  -7.009  33.518  1.00  0.00     0.041 C 
ATOM      8  O   UNL     1     -32.097  -5.760  33.581  1.00  0.00    -0.550 OA
ATOM      9  O   UNL     1     -33.446  -7.582  33.909  1.00  0.00    -0.550 OA
ENDBRANCH   6   7
ENDBRANCH   5   6
ENDBRANCH   4   5
ENDBRANCH   3   4
ENDBRANCH   2   3
ENDBRANCH   1   2
BRANCH   1  10
ATOM     10  C   UNL     1     -25.940 -11.702  33.366  1.00  0.00     0.000 C 
BRANCH  10  11
ATOM     11  C   UNL     1     -25.463 -12.150  31.972  1.00  0.00    -0.000 C 
BRANCH  11  12
ATOM     12  C   UNL     1     -23.935 -12.305  31.883  1.00  0.00    -0.000 C 
BRANCH  12  13
ATOM     13  C   UNL     1     -23.294 -12.627  33.243  1.00  0.00    -0.000 C 
BRANCH  13  14
ATOM     14  C   UNL     1     -22.082 -13.564  33.120  1.00  0.00    -0.000 C 
BRANCH  14  15
ATOM     15  C   UNL     1     -21.299 -13.622  34.437  1.00  0.00    -0.003 C 
ATOM     16  C   UNL     1     -22.044 -12.899  35.555  1.00  0.00     0.004 C 
ENDBRANCH  14  15
ENDBRANCH  13  14
ENDBRANCH  12  13
ENDBRANCH  11  12
ENDBRANCH  10  11
ENDBRANCH   1  10
TORSDOF 12
ENDMDL
MODEL 4
REMARK VINA RESULT:    -4.108      6.768      8.377
REMARK INTER + INTRA:          -7.646
REMARK INTER:                  -5.696
REMARK INTRA:                  -1.950
REMARK UNBOUND:                -0.657
REMARK SMILES CCCCCCCCCCCCCC(=O)[O-]
REMARK SMILES IDX 8 1 9 2 10 3 11 4 12 5 13 6 14 7 15 8 16 9 7 10 6 11 5 12
REMARK SMILES IDX 4 13 3 14 2 15 1 16
REMARK H PARENT
REMARK Flexibility Score: inf
ROOT
ATOM      1  C   UNL     1     -22.654 -10.864  39.254  1.00  0.00     0.000 C 
ENDROOT
BRANCH   1   2
ATOM      2  C   UNL     1     -23.458 -12.173  39.162  1.00  0.00     0.000 C 
BRANCH   2   3
ATOM      3  C   UNL     1     -23.810 -12.548  37.714  1.00  0.00     0.000 C 
BRANCH   3   4
ATOM      4  C   UNL     1     -22.680 -12.223  36.724  1.00  0.00     0.000 C 
BRANCH   4   5
ATOM      5  C   UNL     1     -21.926 -13.497  36.316  1.00  0.00     0.006 C 
BRANCH   5   6
ATOM      6  C   UNL     1     -20.649 -13.188  35.524  1.00  0.00     0.053 C 
BRANCH   6   7
ATOM      7  C   UNL     1     -20.865 -13.310  34.048  1.00  0.00     0.041 C 
ATOM      8  O   UNL     1     -19.921 -13.075  33.248  1.00  0.00    -0.550 OA
ATOM      9  O   UNL     1     -22.098 -13.719  33.555  1.00  0.00    -0.550 OA
ENDBRANCH   6   7
ENDBRANCH   5   6
ENDBRANCH   4   5
ENDBRANCH   3   4
ENDBRANCH   2   3
ENDBRANCH   1   2
BRANCH   1  10
ATOM     10  C   UNL     1     -21.338 -11.020  40.037  1.00  0.00     0.000 C 
BRANCH  10  11
ATOM     11  C   UNL     1     -20.245 -11.841  39.329  1.00  0.00    -0.000 C 
BRANCH  11  12
ATOM     12  C   UNL     1     -19.855 -13.113  40.102  1.00  0.00    -0.000 C 
BRANCH  12  13
ATOM     13  C   UNL     1     -20.421 -14.390  39.461  1.00  0.00    -0.000 C 
BRANCH  13  14
ATOM     14  C   UNL     1     -21.503 -15.058  40.324  1.00  0.00    -0.000 C 
BRANCH  14  15
ATOM     15  C   UNL     1     -21.641 -14.349  41.676  1.00  0.00    -0.003 C 
ATOM     16  C   UNL     1     -23.092 -14.327  42.144  1.00  0.00     0.004 C 
ENDBRANCH  14  15
ENDBRANCH  13  14
ENDBRANCH  12  13
ENDBRANCH  11  12
ENDBRANCH  10  11
ENDBRANCH   1  10
TORSDOF 12
ENDMDL
MODEL 5
REMARK VINA RESULT:    -4.065      4.396     10.884
REMARK INTER + INTRA:          -7.574
REMARK INTER:                  -7.256
REMARK INTRA:                  -0.318
REMARK UNBOUND:                -0.657
REMARK SMILES CCCCCCCCCCCCCC(=O)[O-]
REMARK SMILES IDX 8 1 9 2 10 3 11 4 12 5 13 6 14 7 15 8 16 9 7 10 6 11 5 12
REMARK SMILES IDX 4 13 3 14 2 15 1 16
REMARK H PARENT
REMARK Flexibility Score: inf
ROOT
ATOM      1  C   UNL     1     -33.100  -6.716  33.193  1.00  0.00     0.000 C 
ENDROOT
BRANCH   1   2
ATOM      2  C   UNL     1     -31.673  -7.124  32.788  1.00  0.00     0.000 C 
BRANCH   2   3
ATOM      3  C   UNL     1     -31.347  -8.579  33.163  1.00  0.00     0.000 C 
BRANCH   3   4
ATOM      4  C   UNL     1     -30.345  -8.683  34.322  1.00  0.00     0.000 C 
BRANCH   4   5
ATOM      5  C   UNL     1     -28.953  -9.084  33.810  1.00  0.00     0.006 C 
BRANCH   5   6
ATOM      6  C   UNL     1     -28.290 -10.145  34.698  1.00  0.00     0.053 C 
BRANCH   6   7
ATOM      7  C   UNL     1     -27.421 -11.072  33.906  1.00  0.00     0.041 C 
ATOM      8  O   UNL     1     -26.255 -11.338  34.299  1.00  0.00    -0.550 OA
ATOM      9  O   UNL     1     -27.912 -11.671  32.753  1.00  0.00    -0.550 OA
ENDBRANCH   6   7
ENDBRANCH   5   6
ENDBRANCH   4   5
ENDBRANCH   3   4
ENDBRANCH   2   3
ENDBRANCH   1   2
BRANCH   1  10
ATOM     10  C   UNL     1     -34.174  -7.239  32.223  1.00  0.00     0.000 C 
BRANCH  10  11
ATOM     11  C   UNL     1     -35.566  -7.464  32.841  1.00  0.00    -0.000 C 
BRANCH  11  12
ATOM     12  C   UNL     1     -36.714  -7.124  31.875  1.00  0.00    -0.000 C 
BRANCH  12  13
ATOM     13  C   UNL     1     -37.818  -6.287  32.542  1.00  0.00    -0.000 C 
BRANCH  13  14
ATOM     14  C   UNL     1     -38.135  -6.754  33.971  1.00  0.00    -0.000 C 
BRANCH  14  15
ATOM     15  C   UNL     1     -37.552  -5.787  35.007  1.00  0.00    -0.003 C 
ATOM     16  C   UNL     1     -38.656  -5.047  35.755  1.00  0.00     0.004 C 
ENDBRANCH  14  15
ENDBRANCH  13  14
ENDBRANCH  12  13
ENDBRANCH  11  12
ENDBRANCH  10  11
ENDBRANCH   1  10
TORSDOF 12
ENDMDL
MODEL 6
REMARK VINA RESULT:    -4.061      7.381      9.604
REMARK INTER + INTRA:          -7.567
REMARK INTER:                  -5.455
REMARK INTRA:                  -2.111
REMARK UNBOUND:                -0.657
REMARK SMILES CCCCCCCCCCCCCC(=O)[O-]
REMARK SMILES IDX 8 1 9 2 10 3 11 4 12 5 13 6 14 7 15 8 16 9 7 10 6 11 5 12
REMARK SMILES IDX 4 13 3 14 2 15 1 16
REMARK H PARENT
REMARK Flexibility Score: inf
ROOT
ATOM      1  C   UNL     1     -22.065 -10.808  39.340  1.00  0.00     0.000 C 
ENDROOT
BRANCH   1   2
ATOM      2  C   UNL     1     -20.895 -11.390  40.153  1.00  0.00     0.000 C 
BRANCH   2   3
ATOM      3  C   UNL     1     -21.360 -12.388  41.224  1.00  0.00     0.000 C 
BRANCH   3   4
ATOM      4  C   UNL     1     -20.597 -13.720  41.167  1.00  0.00     0.000 C 
BRANCH   4   5
ATOM      5  C   UNL     1     -21.522 -14.897  41.514  1.00  0.00     0.006 C 
BRANCH   5   6
ATOM      6  C   UNL     1     -22.961 -14.444  41.790  1.00  0.00     0.053 C 
BRANCH   6   7
ATOM      7  C   UNL     1     -23.395 -14.782  43.182  1.00  0.00     0.041 C 
ATOM      8  O   UNL     1     -22.772 -15.652  43.846  1.00  0.00    -0.550 OA
ATOM      9  O   UNL     1     -24.466 -14.112  43.761  1.00  0.00    -0.550 OA
ENDBRANCH   6   7
ENDBRANCH   5   6
ENDBRANCH   4   5
ENDBRANCH   3   4
ENDBRANCH   2   3
ENDBRANCH   1   2
BRANCH   1  10
ATOM     10  C   UNL     1     -23.374 -11.596  39.522  1.00  0.00     0.000 C 
BRANCH  10  11
ATOM     11  C   UNL     1     -23.834 -12.401  38.293  1.00  0.00    -0.000 C 
BRANCH  11  12
ATOM     12  C   UNL     1     -23.466 -13.892  38.381  1.00  0.00    -0.000 C 
BRANCH  12  13
ATOM     13  C   UNL     1     -22.080 -14.194  37.789  1.00  0.00    -0.000 C 
BRANCH  13  14
ATOM     14  C   UNL     1     -21.801 -13.407  36.499  1.00  0.00    -0.000 C 
BRANCH  14  15
ATOM     15  C   UNL     1     -20.294 -13.262  36.261  1.00  0.00    -0.003 C 
ATOM     16  C   UNL     1     -19.506 -13.492  37.547  1.00  0.00     0.004 C 
ENDBRANCH  14  15
ENDBRANCH  13  14
ENDBRANCH  12  13
ENDBRANCH  11  12
ENDBRANCH  10  11
ENDBRANCH   1  10
TORSDOF 12
ENDMDL
MODEL 7
REMARK VINA RESULT:    -4.012      7.093      9.303
REMARK INTER + INTRA:          -7.484
REMARK INTER:                  -5.776
REMARK INTRA:                  -1.709
REMARK UNBOUND:                -0.657
REMARK SMILES CCCCCCCCCCCCCC(=O)[O-]
REMARK SMILES IDX 8 1 9 2 10 3 11 4 12 5 13 6 14 7 15 8 16 9 7 10 6 11 5 12
REMARK SMILES IDX 4 13 3 14 2 15 1 16
REMARK H PARENT
REMARK Flexibility Score: inf
ROOT
ATOM      1  C   UNL     1     -22.387 -10.729  39.364  1.00  0.00     0.000 C 
ENDROOT
BRANCH   1   2
ATOM      2  C   UNL     1     -21.297 -11.326  40.272  1.00  0.00     0.000 C 
BRANCH   2   3
ATOM      3  C   UNL     1     -19.894 -11.232  39.650  1.00  0.00     0.000 C 
BRANCH   3   4
ATOM      4  C   UNL     1     -19.534 -12.465  38.807  1.00  0.00     0.000 C 
BRANCH   4   5
ATOM      5  C   UNL     1     -19.535 -13.737  39.668  1.00  0.00     0.006 C 
BRANCH   5   6
ATOM      6  C   UNL     1     -20.256 -14.903  38.980  1.00  0.00     0.053 C 
BRANCH   6   7
ATOM      7  C   UNL     1     -21.663 -15.056  39.469  1.00  0.00     0.041 C 
ATOM      8  O   UNL     1     -21.961 -14.740  40.650  1.00  0.00    -0.550 OA
ATOM      9  O   UNL     1     -22.653 -15.513  38.609  1.00  0.00    -0.550 OA
ENDBRANCH   6   7
ENDBRANCH   5   6
ENDBRANCH   4   5
ENDBRANCH   3   4
ENDBRANCH   2   3
ENDBRANCH   1   2
BRANCH   1  10
ATOM     10  C   UNL     1     -23.632 -11.627  39.250  1.00  0.00     0.000 C 
BRANCH  10  11
ATOM     11  C   UNL     1     -23.725 -12.460  37.958  1.00  0.00    -0.000 C 
BRANCH  11  12
ATOM     12  C   UNL     1     -22.804 -11.942  36.841  1.00  0.00    -0.000 C 
BRANCH  12  13
ATOM     13  C   UNL     1     -21.954 -13.057  36.211  1.00  0.00    -0.000 C 
BRANCH  13  14
ATOM     14  C   UNL     1     -22.020 -13.058  34.676  1.00  0.00    -0.000 C 
BRANCH  14  15
ATOM     15  C   UNL     1     -20.631 -13.285  34.068  1.00  0.00    -0.003 C 
ATOM     16  C   UNL     1     -19.548 -13.269  35.142  1.00  0.00     0.004 C 
ENDBRANCH  14  15
ENDBRANCH  13  14
ENDBRANCH  12  13
ENDBRANCH  11  12
ENDBRANCH  10  11
ENDBRANCH   1  10
TORSDOF 12
ENDMDL
MODEL 8
REMARK VINA RESULT:    -4.010      4.986      8.909
REMARK INTER + INTRA:          -7.480
REMARK INTER:                  -6.951
REMARK INTRA:                  -0.530
REMARK UNBOUND:                -0.657
REMARK SMILES CCCCCCCCCCCCCC(=O)[O-]
REMARK SMILES IDX 8 1 9 2 10 3 11 4 12 5 13 6 14 7 15 8 16 9 7 10 6 11 5 12
REMARK SMILES IDX 4 13 3 14 2 15 1 16
REMARK H PARENT
REMARK Flexibility Score: inf
ROOT
ATOM      1  C   UNL     1     -25.698 -11.486  33.365  1.00  0.00     0.000 C 
ENDROOT
BRANCH   1   2
ATOM      2  C   UNL     1     -25.257 -12.423  32.226  1.00  0.00     0.000 C 
BRANCH   2   3
ATOM      3  C   UNL     1     -23.765 -12.279  31.888  1.00  0.00     0.000 C 
BRANCH   3   4
ATOM      4  C   UNL     1     -23.013 -13.617  31.936  1.00  0.00     0.000 C 
BRANCH   4   5
ATOM      5  C   UNL     1     -21.826 -13.544  32.908  1.00  0.00     0.006 C 
BRANCH   5   6
ATOM      6  C   UNL     1     -22.254 -13.113  34.317  1.00  0.00     0.053 C 
BRANCH   6   7
ATOM      7  C   UNL     1     -21.175 -13.356  35.326  1.00  0.00     0.041 C 
ATOM      8  O   UNL     1     -19.971 -13.130  35.034  1.00  0.00    -0.550 OA
ATOM      9  O   UNL     1     -21.500 -13.797  36.603  1.00  0.00    -0.550 OA
ENDBRANCH   6   7
ENDBRANCH   5   6
ENDBRANCH   4   5
ENDBRANCH   3   4
ENDBRANCH   2   3
ENDBRANCH   1   2
BRANCH   1  10
ATOM     10  C   UNL     1     -27.226 -11.324  33.453  1.00  0.00     0.000 C 
BRANCH  10  11
ATOM     11  C   UNL     1     -27.797 -11.239  34.880  1.00  0.00    -0.000 C 
BRANCH  11  12
ATOM     12  C   UNL     1     -28.450  -9.880  35.185  1.00  0.00    -0.000 C 
BRANCH  12  13
ATOM     13  C   UNL     1     -28.974  -9.180  33.921  1.00  0.00    -0.000 C 
BRANCH  13  14
ATOM     14  C   UNL     1     -30.439  -8.735  34.053  1.00  0.00    -0.000 C 
BRANCH  14  15
ATOM     15  C   UNL     1     -30.865  -7.887  32.850  1.00  0.00    -0.003 C 
ATOM     16  C   UNL     1     -32.261  -8.270  32.370  1.00  0.00     0.004 C 
ENDBRANCH  14  15
ENDBRANCH  13  14
ENDBRANCH  12  13
ENDBRANCH  11  12
ENDBRANCH  10  11
ENDBRANCH   1  10
TORSDOF 12
ENDMDL
MODEL 9
REMARK VINA RESULT:    -3.953      7.255      8.777
REMARK INTER + INTRA:          -7.384
REMARK INTER:                  -5.259
REMARK INTRA:                  -2.125
REMARK UNBOUND:                -0.657
REMARK SMILES CCCCCCCCCCCCCC(=O)[O-]
REMARK SMILES IDX 8 1 9 2 10 3 11 4 12 5 13 6 14 7 15 8 16 9 7 10 6 11 5 12
REMARK SMILES IDX 4 13 3 14 2 15 1 16
REMARK H PARENT
REMARK Flexibility Score: inf
ROOT
ATOM      1  C   UNL     1     -23.069 -13.577  40.067  1.00  0.00     0.000 C 
ENDROOT
BRANCH   1   2
ATOM      2  C   UNL     1     -22.222 -14.771  39.592  1.00  0.00     0.000 C 
BRANCH   2   3
ATOM      3  C   UNL     1     -21.779 -14.633  38.126  1.00  0.00     0.000 C 
BRANCH   3   4
ATOM      4  C   UNL     1     -20.335 -14.127  37.987  1.00  0.00     0.000 C 
BRANCH   4   5
ATOM      5  C   UNL     1     -20.221 -13.101  36.850  1.00  0.00     0.006 C 
BRANCH   5   6
ATOM      6  C   UNL     1     -21.441 -13.127  35.919  1.00  0.00     0.053 C 
BRANCH   6   7
ATOM      7  C   UNL     1     -21.059 -13.454  34.509  1.00  0.00     0.041 C 
ATOM      8  O   UNL     1     -19.848 -13.455  34.164  1.00  0.00    -0.550 OA
ATOM      9  O   UNL     1     -22.037 -13.794  33.583  1.00  0.00    -0.550 OA
ENDBRANCH   6   7
ENDBRANCH   5   6
ENDBRANCH   4   5
ENDBRANCH   3   4
ENDBRANCH   2   3
ENDBRANCH   1   2
BRANCH   1  10
ATOM     10  C   UNL     1     -23.533 -12.671  38.912  1.00  0.00     0.000 C 
BRANCH  10  11
ATOM     11  C   UNL     1     -22.857 -11.289  38.849  1.00  0.00    -0.000 C 
BRANCH  11  12
ATOM     12  C   UNL     1     -22.035 -10.965  40.108  1.00  0.00    -0.000 C 
BRANCH  12  13
ATOM     13  C   UNL     1     -20.523 -10.931  39.834  1.00  0.00    -0.000 C 
BRANCH  13  14
ATOM     14  C   UNL     1     -19.686 -11.286  41.072  1.00  0.00    -0.000 C 
BRANCH  14  15
ATOM     15  C   UNL     1     -19.469 -12.800  41.172  1.00  0.00    -0.003 C 
ATOM     16  C   UNL     1     -20.125 -13.372  42.424  1.00  0.00     0.004 C 
ENDBRANCH  14  15
ENDBRANCH  13  14
ENDBRANCH  12  13
ENDBRANCH  11  12
ENDBRANCH  10  11
ENDBRANCH   1  10
TORSDOF 12
ENDMDL
