MODEL 1
REMARK VINA RESULT:     1.753      0.000      0.000
REMARK INTER + INTRA:           2.028
REMARK INTER:                   1.907
REMARK INTRA:                   0.121
REMARK UNBOUND:                 0.121
REMARK SMILES CC1(C)CC[C@@]2(C(=O)[O-])CC[C@@]3(C)C(=CC[C@H]4[C@@]5(C)CC[C@H](O)C(C)(C)[C@@H]5CC[C@]43C)[C@H]2C1
REMARK SMILES IDX 6 1 5 2 10 3 32 4 4 5 11 6 14 7 33 8 2 9 12 10 15 11 1 12
REMARK SMILES IDX 3 13 13 14 30 15 16 16 17 17 29 18 31 19 18 20 28 21 27 22
REMARK SMILES IDX 20 23 19 24 24 25 21 26 22 27 25 28 26 29 7 30 8 31 9 32
REMARK SMILES IDX 23 33
REMARK H PARENT 23 34
REMARK Flexibility Score: inf
ROOT
ATOM      1  C   UNL     1      45.898  28.085  -4.466  1.00  0.00     0.017 C 
ATOM      2  C   UNL     1      45.615  29.196  -5.526  1.00  0.00     0.014 C 
ATOM      3  C   UNL     1      46.828  28.634  -3.362  1.00  0.00     0.014 C 
ATOM      4  C   UNL     1      44.541  27.557  -3.855  1.00  0.00     0.028 C 
ATOM      5  C   UNL     1      44.698  28.710  -6.665  1.00  0.00     0.007 C 
ATOM      6  C   UNL     1      46.142  29.638  -2.435  1.00  0.00     0.013 C 
ATOM      7  C   UNL     1      44.360  27.817  -2.347  1.00  0.00    -0.064 C 
ATOM      8  C   UNL     1      43.278  28.024  -4.630  1.00  0.00     0.015 C 
ATOM      9  C   UNL     1      43.424  27.945  -6.173  1.00  0.00    -0.035 C 
ATOM     10  C   UNL     1      44.914  29.057  -1.630  1.00  0.00    -0.006 C 
ATOM     11  C   UNL     1      43.563  26.964  -1.687  1.00  0.00    -0.027 C 
ATOM     12  C   UNL     1      42.168  28.581  -6.810  1.00  0.00     0.011 C 
ATOM     13  C   UNL     1      43.479  26.467  -6.625  1.00  0.00     0.011 C 
ATOM     14  C   UNL     1      43.777  30.124  -1.684  1.00  0.00     0.017 C 
ATOM     15  C   UNL     1      45.292  28.732  -0.094  1.00  0.00    -0.020 C 
ATOM     16  C   UNL     1      43.403  26.909  -0.206  1.00  0.00     0.032 C 
ATOM     17  C   UNL     1      44.076  28.023   0.659  1.00  0.00     0.006 C 
ATOM     18  C   UNL     1      46.525  27.778  -0.024  1.00  0.00     0.008 C 
ATOM     19  C   UNL     1      45.649  30.089   0.617  1.00  0.00     0.012 C 
ATOM     20  C   UNL     1      44.412  27.490   2.141  1.00  0.00    -0.025 C 
ATOM     21  C   UNL     1      46.879  27.273   1.388  1.00  0.00     0.005 C 
ATOM     22  C   UNL     1      45.687  26.562   2.073  1.00  0.00     0.003 C 
ATOM     23  C   UNL     1      43.216  26.650   2.720  1.00  0.00     0.010 C 
ATOM     24  C   UNL     1      44.589  28.711   3.105  1.00  0.00     0.012 C 
ATOM     25  C   UNL     1      46.047  25.775   3.401  1.00  0.00    -0.006 C 
ATOM     26  C   UNL     1      43.540  25.922   4.035  1.00  0.00     0.033 C 
ATOM     27  C   UNL     1      44.774  25.017   3.900  1.00  0.00     0.120 C 
ATOM     28  C   UNL     1      47.125  24.698   3.092  1.00  0.00     0.014 C 
ATOM     29  C   UNL     1      46.628  26.680   4.520  1.00  0.00     0.014 C 
ENDROOT
BRANCH   1  30
ATOM     30  C   UNL     1      46.683  26.943  -5.116  1.00  0.00     0.048 C 
ATOM     31  O   UNL     1      47.094  27.031  -6.304  1.00  0.00    -0.550 OA
ATOM     32  O   UNL     1      47.077  25.843  -4.360  1.00  0.00    -0.550 OA
ENDBRANCH   1  30
BRANCH  27  33
ATOM     33  O   UNL     1      45.029  24.394   5.137  1.00  0.00    -0.393 OA
ATOM     34  H   UNL     1      44.676  24.996   5.844  1.00  0.00     0.210 HD
ENDBRANCH  27  33
TORSDOF 2
ENDMDL
MODEL 2
REMARK VINA RESULT:     3.428      2.248      8.092
REMARK INTER + INTRA:           3.849
REMARK INTER:                   3.972
REMARK INTRA:                  -0.122
REMARK UNBOUND:                 0.121
REMARK SMILES CC1(C)CC[C@@]2(C(=O)[O-])CC[C@@]3(C)C(=CC[C@H]4[C@@]5(C)CC[C@H](O)C(C)(C)[C@@H]5CC[C@]43C)[C@H]2C1
REMARK SMILES IDX 6 1 5 2 10 3 32 4 4 5 11 6 14 7 33 8 2 9 12 10 15 11 1 12
REMARK SMILES IDX 3 13 13 14 30 15 16 16 17 17 29 18 31 19 18 20 28 21 27 22
REMARK SMILES IDX 20 23 19 24 24 25 21 26 22 27 25 28 26 29 7 30 8 31 9 32
REMARK SMILES IDX 23 33
REMARK H PARENT 23 34
REMARK Flexibility Score: inf
ROOT
ATOM      1  C   UNL     1      45.089  28.751   2.274  1.00  0.00     0.017 C 
ATOM      2  C   UNL     1      46.286  28.506   3.244  1.00  0.00     0.014 C 
ATOM      3  C   UNL     1      45.482  29.791   1.203  1.00  0.00     0.014 C 
ATOM      4  C   UNL     1      44.640  27.391   1.608  1.00  0.00     0.028 C 
ATOM      5  C   UNL     1      45.957  27.483   4.348  1.00  0.00     0.007 C 
ATOM      6  C   UNL     1      46.478  29.255   0.173  1.00  0.00     0.013 C 
ATOM      7  C   UNL     1      44.814  27.325   0.080  1.00  0.00    -0.064 C 
ATOM      8  C   UNL     1      45.263  26.131   2.270  1.00  0.00     0.015 C 
ATOM      9  C   UNL     1      45.273  26.177   3.822  1.00  0.00    -0.035 C 
ATOM     10  C   UNL     1      45.953  28.030  -0.673  1.00  0.00    -0.006 C 
ATOM     11  C   UNL     1      43.991  26.496  -0.579  1.00  0.00    -0.027 C 
ATOM     12  C   UNL     1      46.055  24.947   4.335  1.00  0.00     0.011 C 
ATOM     13  C   UNL     1      43.828  26.072   4.364  1.00  0.00     0.011 C 
ATOM     14  C   UNL     1      47.114  26.991  -0.758  1.00  0.00     0.017 C 
ATOM     15  C   UNL     1      45.497  28.468  -2.159  1.00  0.00    -0.020 C 
ATOM     16  C   UNL     1      43.853  26.420  -2.061  1.00  0.00     0.032 C 
ATOM     17  C   UNL     1      44.846  27.241  -2.946  1.00  0.00     0.006 C 
ATOM     18  C   UNL     1      44.438  29.613  -2.091  1.00  0.00     0.008 C 
ATOM     19  C   UNL     1      46.768  28.987  -2.926  1.00  0.00     0.012 C 
ATOM     20  C   UNL     1      44.190  27.615  -4.368  1.00  0.00    -0.025 C 
ATOM     21  C   UNL     1      43.813  30.004  -3.444  1.00  0.00     0.005 C 
ATOM     22  C   UNL     1      43.163  28.796  -4.161  1.00  0.00     0.003 C 
ATOM     23  C   UNL     1      43.419  26.386  -4.972  1.00  0.00     0.010 C 
ATOM     24  C   UNL     1      45.325  27.959  -5.390  1.00  0.00     0.012 C 
ATOM     25  C   UNL     1      42.263  29.163  -5.413  1.00  0.00    -0.006 C 
ATOM     26  C   UNL     1      42.582  26.722  -6.218  1.00  0.00     0.033 C 
ATOM     27  C   UNL     1      41.585  27.859  -5.948  1.00  0.00     0.120 C 
ATOM     28  C   UNL     1      41.120  30.120  -4.970  1.00  0.00     0.014 C 
ATOM     29  C   UNL     1      43.039  29.888  -6.544  1.00  0.00     0.014 C 
ENDROOT
BRANCH   1  30
ATOM     30  C   UNL     1      43.928  29.391   3.042  1.00  0.00     0.048 C 
ATOM     31  O   UNL     1      44.139  30.116   4.051  1.00  0.00    -0.550 OA
ATOM     32  O   UNL     1      42.628  29.295   2.555  1.00  0.00    -0.550 OA
ENDBRANCH   1  30
BRANCH  27  33
ATOM     33  O   UNL     1      40.862  28.131  -7.125  1.00  0.00    -0.393 OA
ATOM     34  H   UNL     1      40.352  27.308  -7.349  1.00  0.00     0.210 HD
ENDBRANCH  27  33
TORSDOF 2
ENDMDL
