MODEL 1
REMARK VINA RESULT:    -4.521      0.000      0.000
REMARK INTER + INTRA:          -9.331
REMARK INTER:                  -7.693
REMARK INTRA:                  -1.638
REMARK UNBOUND:                -1.638
REMARK SMILES CCCCCCCCCCCCCC(=O)[O-]
REMARK SMILES IDX 8 1 9 2 10 3 11 4 12 5 13 6 14 7 15 8 16 9 7 10 6 11 5 12
REMARK SMILES IDX 4 13 3 14 2 15 1 16
REMARK H PARENT
REMARK Flexibility Score: inf
ROOT
ATOM      1  C   UNL     1      15.236 -34.384  20.303  1.00  0.00     0.000 C 
ENDROOT
BRANCH   1   2
ATOM      2  C   UNL     1      15.292 -34.066  21.802  1.00  0.00     0.000 C 
BRANCH   2   3
ATOM      3  C   UNL     1      14.442 -32.834  22.136  1.00  0.00     0.000 C 
BRANCH   3   4
ATOM      4  C   UNL     1      13.878 -32.193  20.858  1.00  0.00     0.000 C 
BRANCH   4   5
ATOM      5  C   UNL     1      13.474 -30.724  21.062  1.00  0.00     0.006 C 
BRANCH   5   6
ATOM      6  C   UNL     1      12.190 -30.573  21.888  1.00  0.00     0.053 C 
BRANCH   6   7
ATOM      7  C   UNL     1      12.383 -29.559  22.972  1.00  0.00     0.041 C 
ATOM      8  O   UNL     1      11.691 -28.508  22.986  1.00  0.00    -0.550 OA
ATOM      9  O   UNL     1      13.292 -29.798  23.994  1.00  0.00    -0.550 OA
ENDBRANCH   6   7
ENDBRANCH   5   6
ENDBRANCH   4   5
ENDBRANCH   3   4
ENDBRANCH   2   3
ENDBRANCH   1   2
BRANCH   1  10
ATOM     10  C   UNL     1      16.173 -35.549  19.952  1.00  0.00     0.000 C 
BRANCH  10  11
ATOM     11  C   UNL     1      17.466 -35.085  19.263  1.00  0.00    -0.000 C 
BRANCH  11  12
ATOM     12  C   UNL     1      17.486 -33.571  19.003  1.00  0.00    -0.000 C 
BRANCH  12  13
ATOM     13  C   UNL     1      18.366 -32.849  20.032  1.00  0.00    -0.000 C 
BRANCH  13  14
ATOM     14  C   UNL     1      17.732 -31.517  20.461  1.00  0.00    -0.000 C 
BRANCH  14  15
ATOM     15  C   UNL     1      17.858 -31.263  21.970  1.00  0.00    -0.003 C 
ATOM     16  C   UNL     1      16.971 -30.116  22.454  1.00  0.00     0.004 C 
ENDBRANCH  14  15
ENDBRANCH  13  14
ENDBRANCH  12  13
ENDBRANCH  11  12
ENDBRANCH  10  11
ENDBRANCH   1  10
TORSDOF 12
ENDMDL
MODEL 2
REMARK VINA RESULT:    -4.409      1.199      3.088
REMARK INTER + INTRA:          -9.140
REMARK INTER:                  -7.414
REMARK INTRA:                  -1.726
REMARK UNBOUND:                -1.638
REMARK SMILES CCCCCCCCCCCCCC(=O)[O-]
REMARK SMILES IDX 8 1 9 2 10 3 11 4 12 5 13 6 14 7 15 8 16 9 7 10 6 11 5 12
REMARK SMILES IDX 4 13 3 14 2 15 1 16
REMARK H PARENT
REMARK Flexibility Score: inf
ROOT
ATOM      1  C   UNL     1      17.627 -30.923  22.048  1.00  0.00     0.000 C 
ENDROOT
BRANCH   1   2
ATOM      2  C   UNL     1      17.424 -32.115  22.991  1.00  0.00     0.000 C 
BRANCH   2   3
ATOM      3  C   UNL     1      16.077 -32.020  23.717  1.00  0.00     0.000 C 
BRANCH   3   4
ATOM      4  C   UNL     1      15.309 -30.760  23.287  1.00  0.00     0.000 C 
BRANCH   4   5
ATOM      5  C   UNL     1      13.803 -30.856  23.582  1.00  0.00     0.006 C 
BRANCH   5   6
ATOM      6  C   UNL     1      12.961 -29.989  22.637  1.00  0.00     0.053 C 
BRANCH   6   7
ATOM      7  C   UNL     1      12.236 -28.931  23.408  1.00  0.00     0.041 C 
ATOM      8  O   UNL     1      12.734 -28.465  24.466  1.00  0.00    -0.550 OA
ATOM      9  O   UNL     1      11.034 -28.424  22.932  1.00  0.00    -0.550 OA
ENDBRANCH   6   7
ENDBRANCH   5   6
ENDBRANCH   4   5
ENDBRANCH   3   4
ENDBRANCH   2   3
ENDBRANCH   1   2
BRANCH   1  10
ATOM     10  C   UNL     1      17.668 -31.381  20.582  1.00  0.00     0.000 C 
BRANCH  10  11
ATOM     11  C   UNL     1      18.479 -32.672  20.387  1.00  0.00    -0.000 C 
BRANCH  11  12
ATOM     12  C   UNL     1      17.851 -33.613  19.347  1.00  0.00    -0.000 C 
BRANCH  12  13
ATOM     13  C   UNL     1      17.325 -34.892  20.011  1.00  0.00    -0.000 C 
BRANCH  13  14
ATOM     14  C   UNL     1      15.794 -34.976  19.908  1.00  0.00    -0.000 C 
BRANCH  14  15
ATOM     15  C   UNL     1      15.083 -34.207  21.031  1.00  0.00    -0.003 C 
ATOM     16  C   UNL     1      14.286 -33.009  20.517  1.00  0.00     0.004 C 
ENDBRANCH  14  15
ENDBRANCH  13  14
ENDBRANCH  12  13
ENDBRANCH  11  12
ENDBRANCH  10  11
ENDBRANCH   1  10
TORSDOF 12
ENDMDL
MODEL 3
REMARK VINA RESULT:    -4.370      3.274      5.451
REMARK INTER + INTRA:          -9.073
REMARK INTER:                  -7.246
REMARK INTRA:                  -1.827
REMARK UNBOUND:                -1.638
REMARK SMILES CCCCCCCCCCCCCC(=O)[O-]
REMARK SMILES IDX 8 1 9 2 10 3 11 4 12 5 13 6 14 7 15 8 16 9 7 10 6 11 5 12
REMARK SMILES IDX 4 13 3 14 2 15 1 16
REMARK H PARENT
REMARK Flexibility Score: inf
ROOT
ATOM      1  C   UNL     1      13.319 -31.452  22.929  1.00  0.00     0.000 C 
ENDROOT
BRANCH   1   2
ATOM      2  C   UNL     1      14.277 -32.472  23.556  1.00  0.00     0.000 C 
BRANCH   2   3
ATOM      3  C   UNL     1      14.944 -33.336  22.480  1.00  0.00     0.000 C 
BRANCH   3   4
ATOM      4  C   UNL     1      14.472 -32.928  21.076  1.00  0.00     0.000 C 
BRANCH   4   5
ATOM      5  C   UNL     1      15.199 -33.695  19.961  1.00  0.00     0.006 C 
BRANCH   5   6
ATOM      6  C   UNL     1      15.240 -35.208  20.214  1.00  0.00     0.053 C 
BRANCH   6   7
ATOM      7  C   UNL     1      16.653 -35.703  20.186  1.00  0.00     0.041 C 
ATOM      8  O   UNL     1      17.215 -35.950  19.087  1.00  0.00    -0.550 OA
ATOM      9  O   UNL     1      17.364 -35.845  21.371  1.00  0.00    -0.550 OA
ENDBRANCH   6   7
ENDBRANCH   5   6
ENDBRANCH   4   5
ENDBRANCH   3   4
ENDBRANCH   2   3
ENDBRANCH   1   2
BRANCH   1  10
ATOM     10  C   UNL     1      13.381 -30.109  23.671  1.00  0.00     0.000 C 
BRANCH  10  11
ATOM     11  C   UNL     1      14.605 -29.268  23.276  1.00  0.00    -0.000 C 
BRANCH  11  12
ATOM     12  C   UNL     1      14.903 -29.330  21.770  1.00  0.00    -0.000 C 
BRANCH  12  13
ATOM     13  C   UNL     1      16.406 -29.177  21.502  1.00  0.00    -0.000 C 
BRANCH  13  14
ATOM     14  C   UNL     1      17.156 -30.480  21.815  1.00  0.00    -0.000 C 
BRANCH  14  15
ATOM     15  C   UNL     1      18.010 -30.968  20.635  1.00  0.00    -0.003 C 
ATOM     16  C   UNL     1      18.477 -32.413  20.799  1.00  0.00     0.004 C 
ENDBRANCH  14  15
ENDBRANCH  13  14
ENDBRANCH  12  13
ENDBRANCH  11  12
ENDBRANCH  10  11
ENDBRANCH   1  10
TORSDOF 12
ENDMDL
MODEL 4
REMARK VINA RESULT:    -4.360      1.431      2.035
REMARK INTER + INTRA:          -9.057
REMARK INTER:                  -7.138
REMARK INTRA:                  -1.919
REMARK UNBOUND:                -1.638
REMARK SMILES CCCCCCCCCCCCCC(=O)[O-]
REMARK SMILES IDX 8 1 9 2 10 3 11 4 12 5 13 6 14 7 15 8 16 9 7 10 6 11 5 12
REMARK SMILES IDX 4 13 3 14 2 15 1 16
REMARK H PARENT
REMARK Flexibility Score: inf
ROOT
ATOM      1  C   UNL     1      15.389 -35.178  20.248  1.00  0.00     0.000 C 
ENDROOT
BRANCH   1   2
ATOM      2  C   UNL     1      15.147 -33.702  19.909  1.00  0.00     0.000 C 
BRANCH   2   3
ATOM      3  C   UNL     1      14.299 -33.021  20.990  1.00  0.00     0.000 C 
BRANCH   3   4
ATOM      4  C   UNL     1      14.934 -33.197  22.379  1.00  0.00     0.000 C 
BRANCH   4   5
ATOM      5  C   UNL     1      14.698 -31.986  23.295  1.00  0.00     0.006 C 
BRANCH   5   6
ATOM      6  C   UNL     1      14.415 -30.698  22.511  1.00  0.00     0.053 C 
BRANCH   6   7
ATOM      7  C   UNL     1      13.123 -30.088  22.959  1.00  0.00     0.041 C 
ATOM      8  O   UNL     1      12.092 -30.195  22.245  1.00  0.00    -0.550 OA
ATOM      9  O   UNL     1      13.047 -29.444  24.187  1.00  0.00    -0.550 OA
ENDBRANCH   6   7
ENDBRANCH   5   6
ENDBRANCH   4   5
ENDBRANCH   3   4
ENDBRANCH   2   3
ENDBRANCH   1   2
BRANCH   1  10
ATOM     10  C   UNL     1      16.592 -35.731  19.469  1.00  0.00     0.000 C 
BRANCH  10  11
ATOM     11  C   UNL     1      17.648 -36.371  20.384  1.00  0.00    -0.000 C 
BRANCH  11  12
ATOM     12  C   UNL     1      17.752 -35.671  21.747  1.00  0.00    -0.000 C 
BRANCH  12  13
ATOM     13  C   UNL     1      18.979 -34.751  21.799  1.00  0.00    -0.000 C 
BRANCH  13  14
ATOM     14  C   UNL     1      18.558 -33.278  21.905  1.00  0.00    -0.000 C 
BRANCH  14  15
ATOM     15  C   UNL     1      18.534 -32.572  20.541  1.00  0.00    -0.003 C 
ATOM     16  C   UNL     1      17.824 -31.219  20.587  1.00  0.00     0.004 C 
ENDBRANCH  14  15
ENDBRANCH  13  14
ENDBRANCH  12  13
ENDBRANCH  11  12
ENDBRANCH  10  11
ENDBRANCH   1  10
TORSDOF 12
ENDMDL
MODEL 5
REMARK VINA RESULT:    -4.336      3.416      6.172
REMARK INTER + INTRA:          -9.016
REMARK INTER:                  -7.549
REMARK INTRA:                  -1.467
REMARK UNBOUND:                -1.638
REMARK SMILES CCCCCCCCCCCCCC(=O)[O-]
REMARK SMILES IDX 8 1 9 2 10 3 11 4 12 5 13 6 14 7 15 8 16 9 7 10 6 11 5 12
REMARK SMILES IDX 4 13 3 14 2 15 1 16
REMARK H PARENT
REMARK Flexibility Score: inf
ROOT
ATOM      1  C   UNL     1      15.790 -30.465  23.130  1.00  0.00     0.000 C 
ENDROOT
BRANCH   1   2
ATOM      2  C   UNL     1      17.142 -31.187  23.095  1.00  0.00     0.000 C 
BRANCH   2   3
ATOM      3  C   UNL     1      17.169 -32.253  21.992  1.00  0.00     0.000 C 
BRANCH   3   4
ATOM      4  C   UNL     1      16.501 -33.552  22.468  1.00  0.00     0.000 C 
BRANCH   4   5
ATOM      5  C   UNL     1      15.431 -34.060  21.489  1.00  0.00     0.006 C 
BRANCH   5   6
ATOM      6  C   UNL     1      15.832 -33.864  20.021  1.00  0.00     0.053 C 
BRANCH   6   7
ATOM      7  C   UNL     1      16.663 -35.016  19.550  1.00  0.00     0.041 C 
ATOM      8  O   UNL     1      17.843 -34.826  19.154  1.00  0.00    -0.550 OA
ATOM      9  O   UNL     1      16.152 -36.307  19.595  1.00  0.00    -0.550 OA
ENDBRANCH   6   7
ENDBRANCH   5   6
ENDBRANCH   4   5
ENDBRANCH   3   4
ENDBRANCH   2   3
ENDBRANCH   1   2
BRANCH   1  10
ATOM     10  C   UNL     1      15.371 -30.013  21.723  1.00  0.00     0.000 C 
BRANCH  10  11
ATOM     11  C   UNL     1      14.043 -30.641  21.270  1.00  0.00    -0.000 C 
BRANCH  11  12
ATOM     12  C   UNL     1      13.002 -30.700  22.398  1.00  0.00    -0.000 C 
BRANCH  12  13
ATOM     13  C   UNL     1      11.754 -29.883  22.037  1.00  0.00    -0.000 C 
BRANCH  13  14
ATOM     14  C   UNL     1      11.569 -28.706  23.006  1.00  0.00    -0.000 C 
BRANCH  14  15
ATOM     15  C   UNL     1      12.664 -28.648  24.081  1.00  0.00    -0.003 C 
ATOM     16  C   UNL     1      12.722 -27.298  24.796  1.00  0.00     0.004 C 
ENDBRANCH  14  15
ENDBRANCH  13  14
ENDBRANCH  12  13
ENDBRANCH  11  12
ENDBRANCH  10  11
ENDBRANCH   1  10
TORSDOF 12
ENDMDL
MODEL 6
REMARK VINA RESULT:    -4.295      2.367      4.975
REMARK INTER + INTRA:          -8.946
REMARK INTER:                  -7.360
REMARK INTRA:                  -1.586
REMARK UNBOUND:                -1.638
REMARK SMILES CCCCCCCCCCCCCC(=O)[O-]
REMARK SMILES IDX 8 1 9 2 10 3 11 4 12 5 13 6 14 7 15 8 16 9 7 10 6 11 5 12
REMARK SMILES IDX 4 13 3 14 2 15 1 16
REMARK H PARENT
REMARK Flexibility Score: inf
ROOT
ATOM      1  C   UNL     1      14.324 -32.862  22.021  1.00  0.00     0.000 C 
ENDROOT
BRANCH   1   2
ATOM      2  C   UNL     1      15.425 -33.926  21.952  1.00  0.00     0.000 C 
BRANCH   2   3
ATOM      3  C   UNL     1      16.719 -33.424  22.603  1.00  0.00     0.000 C 
BRANCH   3   4
ATOM      4  C   UNL     1      16.413 -32.480  23.777  1.00  0.00     0.000 C 
BRANCH   4   5
ATOM      5  C   UNL     1      17.113 -31.119  23.640  1.00  0.00     0.006 C 
BRANCH   5   6
ATOM      6  C   UNL     1      16.134 -29.979  23.333  1.00  0.00     0.053 C 
BRANCH   6   7
ATOM      7  C   UNL     1      16.190 -29.621  21.880  1.00  0.00     0.041 C 
ATOM      8  O   UNL     1      15.461 -28.701  21.426  1.00  0.00    -0.550 OA
ATOM      9  O   UNL     1      17.083 -30.271  21.038  1.00  0.00    -0.550 OA
ENDBRANCH   6   7
ENDBRANCH   5   6
ENDBRANCH   4   5
ENDBRANCH   3   4
ENDBRANCH   2   3
ENDBRANCH   1   2
BRANCH   1  10
ATOM     10  C   UNL     1      13.862 -32.456  20.613  1.00  0.00     0.000 C 
BRANCH  10  11
ATOM     11  C   UNL     1      13.013 -31.175  20.614  1.00  0.00    -0.000 C 
BRANCH  11  12
ATOM     12  C   UNL     1      12.487 -30.815  22.011  1.00  0.00    -0.000 C 
BRANCH  12  13
ATOM     13  C   UNL     1      11.170 -30.034  21.918  1.00  0.00    -0.000 C 
BRANCH  13  14
ATOM     14  C   UNL     1      11.230 -28.750  22.758  1.00  0.00    -0.000 C 
BRANCH  14  15
ATOM     15  C   UNL     1      12.348 -28.786  23.811  1.00  0.00    -0.003 C 
ATOM     16  C   UNL     1      13.183 -27.506  23.832  1.00  0.00     0.004 C 
ENDBRANCH  14  15
ENDBRANCH  13  14
ENDBRANCH  12  13
ENDBRANCH  11  12
ENDBRANCH  10  11
ENDBRANCH   1  10
TORSDOF 12
ENDMDL
MODEL 7
REMARK VINA RESULT:    -4.273      1.673      2.830
REMARK INTER + INTRA:          -8.908
REMARK INTER:                  -6.950
REMARK INTRA:                  -1.958
REMARK UNBOUND:                -1.638
REMARK SMILES CCCCCCCCCCCCCC(=O)[O-]
REMARK SMILES IDX 8 1 9 2 10 3 11 4 12 5 13 6 14 7 15 8 16 9 7 10 6 11 5 12
REMARK SMILES IDX 4 13 3 14 2 15 1 16
REMARK H PARENT
REMARK Flexibility Score: inf
ROOT
ATOM      1  C   UNL     1      16.184 -34.014  21.700  1.00  0.00     0.000 C 
ENDROOT
BRANCH   1   2
ATOM      2  C   UNL     1      14.878 -33.306  22.078  1.00  0.00     0.000 C 
BRANCH   2   3
ATOM      3  C   UNL     1      14.158 -32.776  20.832  1.00  0.00     0.000 C 
BRANCH   3   4
ATOM      4  C   UNL     1      13.688 -31.328  21.044  1.00  0.00     0.000 C 
BRANCH   4   5
ATOM      5  C   UNL     1      12.834 -31.163  22.312  1.00  0.00     0.006 C 
BRANCH   5   6
ATOM      6  C   UNL     1      13.241 -29.939  23.143  1.00  0.00     0.053 C 
BRANCH   6   7
ATOM      7  C   UNL     1      12.099 -28.977  23.248  1.00  0.00     0.041 C 
ATOM      8  O   UNL     1      12.119 -28.062  24.111  1.00  0.00    -0.550 OA
ATOM      9  O   UNL     1      11.034 -29.063  22.360  1.00  0.00    -0.550 OA
ENDBRANCH   6   7
ENDBRANCH   5   6
ENDBRANCH   4   5
ENDBRANCH   3   4
ENDBRANCH   2   3
ENDBRANCH   1   2
BRANCH   1  10
ATOM     10  C   UNL     1      17.096 -34.178  22.926  1.00  0.00     0.000 C 
BRANCH  10  11
ATOM     11  C   UNL     1      16.762 -33.184  24.050  1.00  0.00    -0.000 C 
BRANCH  11  12
ATOM     12  C   UNL     1      18.003 -32.449  24.577  1.00  0.00    -0.000 C 
BRANCH  12  13
ATOM     13  C   UNL     1      18.178 -31.095  23.876  1.00  0.00    -0.000 C 
BRANCH  13  14
ATOM     14  C   UNL     1      16.817 -30.485  23.512  1.00  0.00    -0.000 C 
BRANCH  14  15
ATOM     15  C   UNL     1      16.824 -29.805  22.135  1.00  0.00    -0.003 C 
ATOM     16  C   UNL     1      17.572 -30.617  21.078  1.00  0.00     0.004 C 
ENDBRANCH  14  15
ENDBRANCH  13  14
ENDBRANCH  12  13
ENDBRANCH  11  12
ENDBRANCH  10  11
ENDBRANCH   1  10
TORSDOF 12
ENDMDL
MODEL 8
REMARK VINA RESULT:    -4.261      2.587      6.090
REMARK INTER + INTRA:          -8.889
REMARK INTER:                  -7.557
REMARK INTRA:                  -1.332
REMARK UNBOUND:                -1.638
REMARK SMILES CCCCCCCCCCCCCC(=O)[O-]
REMARK SMILES IDX 8 1 9 2 10 3 11 4 12 5 13 6 14 7 15 8 16 9 7 10 6 11 5 12
REMARK SMILES IDX 4 13 3 14 2 15 1 16
REMARK H PARENT
REMARK Flexibility Score: inf
ROOT
ATOM      1  C   UNL     1      15.225 -29.238  21.673  1.00  0.00     0.000 C 
ENDROOT
BRANCH   1   2
ATOM      2  C   UNL     1      16.464 -29.832  22.352  1.00  0.00     0.000 C 
BRANCH   2   3
ATOM      3  C   UNL     1      17.654 -29.876  21.386  1.00  0.00     0.000 C 
BRANCH   3   4
ATOM      4  C   UNL     1      17.663 -31.188  20.585  1.00  0.00     0.000 C 
BRANCH   4   5
ATOM      5  C   UNL     1      17.515 -32.429  21.480  1.00  0.00     0.006 C 
BRANCH   5   6
ATOM      6  C   UNL     1      16.939 -33.635  20.727  1.00  0.00     0.053 C 
BRANCH   6   7
ATOM      7  C   UNL     1      15.457 -33.712  20.920  1.00  0.00     0.041 C 
ATOM      8  O   UNL     1      14.975 -33.835  22.076  1.00  0.00    -0.550 OA
ATOM      9  O   UNL     1      14.607 -33.598  19.828  1.00  0.00    -0.550 OA
ENDBRANCH   6   7
ENDBRANCH   5   6
ENDBRANCH   4   5
ENDBRANCH   3   4
ENDBRANCH   2   3
ENDBRANCH   1   2
BRANCH   1  10
ATOM     10  C   UNL     1      14.097 -30.277  21.579  1.00  0.00     0.000 C 
BRANCH  10  11
ATOM     11  C   UNL     1      13.615 -30.754  22.958  1.00  0.00    -0.000 C 
BRANCH  11  12
ATOM     12  C   UNL     1      13.093 -29.604  23.833  1.00  0.00    -0.000 C 
BRANCH  12  13
ATOM     13  C   UNL     1      11.872 -28.935  23.188  1.00  0.00    -0.000 C 
BRANCH  13  14
ATOM     14  C   UNL     1      11.770 -27.460  23.603  1.00  0.00    -0.000 C 
BRANCH  14  15
ATOM     15  C   UNL     1      13.138 -26.844  23.934  1.00  0.00    -0.003 C 
ATOM     16  C   UNL     1      13.222 -25.361  23.574  1.00  0.00     0.004 C 
ENDBRANCH  14  15
ENDBRANCH  13  14
ENDBRANCH  12  13
ENDBRANCH  11  12
ENDBRANCH  10  11
ENDBRANCH   1  10
TORSDOF 12
ENDMDL
MODEL 9
REMARK VINA RESULT:    -4.181      0.943      3.039
REMARK INTER + INTRA:          -8.753
REMARK INTER:                  -6.970
REMARK INTRA:                  -1.782
REMARK UNBOUND:                -1.638
REMARK SMILES CCCCCCCCCCCCCC(=O)[O-]
REMARK SMILES IDX 8 1 9 2 10 3 11 4 12 5 13 6 14 7 15 8 16 9 7 10 6 11 5 12
REMARK SMILES IDX 4 13 3 14 2 15 1 16
REMARK H PARENT
REMARK Flexibility Score: inf
ROOT
ATOM      1  C   UNL     1      16.410 -31.566  23.488  1.00  0.00     0.000 C 
ENDROOT
BRANCH   1   2
ATOM      2  C   UNL     1      15.681 -32.898  23.278  1.00  0.00     0.000 C 
BRANCH   2   3
ATOM      3  C   UNL     1      14.242 -32.668  22.800  1.00  0.00     0.000 C 
BRANCH   3   4
ATOM      4  C   UNL     1      14.216 -32.227  21.328  1.00  0.00     0.000 C 
BRANCH   4   5
ATOM      5  C   UNL     1      13.562 -30.849  21.135  1.00  0.00     0.006 C 
BRANCH   5   6
ATOM      6  C   UNL     1      12.445 -30.578  22.151  1.00  0.00     0.053 C 
BRANCH   6   7
ATOM      7  C   UNL     1      12.724 -29.319  22.910  1.00  0.00     0.041 C 
ATOM      8  O   UNL     1      13.872 -28.804  22.881  1.00  0.00    -0.550 OA
ATOM      9  O   UNL     1      11.704 -28.687  23.609  1.00  0.00    -0.550 OA
ENDBRANCH   6   7
ENDBRANCH   5   6
ENDBRANCH   4   5
ENDBRANCH   3   4
ENDBRANCH   2   3
ENDBRANCH   1   2
BRANCH   1  10
ATOM     10  C   UNL     1      17.791 -31.582  22.816  1.00  0.00     0.000 C 
BRANCH  10  11
ATOM     11  C   UNL     1      17.825 -30.772  21.511  1.00  0.00    -0.000 C 
BRANCH  11  12
ATOM     12  C   UNL     1      17.672 -31.654  20.263  1.00  0.00    -0.000 C 
BRANCH  12  13
ATOM     13  C   UNL     1      18.365 -33.008  20.460  1.00  0.00    -0.000 C 
BRANCH  13  14
ATOM     14  C   UNL     1      18.019 -33.974  19.317  1.00  0.00    -0.000 C 
BRANCH  14  15
ATOM     15  C   UNL     1      16.507 -34.197  19.169  1.00  0.00    -0.003 C 
ATOM     16  C   UNL     1      15.972 -35.272  20.114  1.00  0.00     0.004 C 
ENDBRANCH  14  15
ENDBRANCH  13  14
ENDBRANCH  12  13
ENDBRANCH  11  12
ENDBRANCH  10  11
ENDBRANCH   1  10
TORSDOF 12
ENDMDL
