MODEL 1
REMARK VINA RESULT:    -4.271      0.000      0.000
REMARK INTER + INTRA:         -11.678
REMARK INTER:                  -9.265
REMARK INTRA:                  -2.414
REMARK UNBOUND:                -2.414
REMARK SMILES CCCCCCCCCCCCCCCCCCCCCC(=O)[O-]
REMARK SMILES IDX 12 1 11 2 10 3 9 4 8 5 7 6 6 7 5 8 4 9 3 10 2 11 1 12 13 13
REMARK SMILES IDX 14 14 15 15 16 16 17 17 18 18 19 19 20 20 21 21 22 22 23 23
REMARK SMILES IDX 24 24
REMARK H PARENT
REMARK Flexibility Score: inf
ROOT
ATOM      1  C   UNL     1      84.582 124.438 127.297  1.00  0.00     0.000 C 
ENDROOT
BRANCH   1   2
ATOM      2  C   UNL     1      83.696 124.871 128.479  1.00  0.00     0.000 C 
BRANCH   2   3
ATOM      3  C   UNL     1      83.542 123.770 129.542  1.00  0.00     0.000 C 
BRANCH   3   4
ATOM      4  C   UNL     1      82.313 123.991 130.440  1.00  0.00    -0.000 C 
BRANCH   4   5
ATOM      5  C   UNL     1      82.698 124.260 131.905  1.00  0.00    -0.000 C 
BRANCH   5   6
ATOM      6  C   UNL     1      83.168 125.704 132.143  1.00  0.00    -0.000 C 
BRANCH   6   7
ATOM      7  C   UNL     1      82.000 126.699 132.262  1.00  0.00    -0.000 C 
BRANCH   7   8
ATOM      8  C   UNL     1      82.071 127.832 131.222  1.00  0.00    -0.000 C 
BRANCH   8   9
ATOM      9  C   UNL     1      83.327 127.825 130.326  1.00  0.00    -0.000 C 
BRANCH   9  10
ATOM     10  C   UNL     1      84.267 129.032 130.508  1.00  0.00    -0.000 C 
BRANCH  10  11
ATOM     11  C   UNL     1      84.870 129.110 131.920  1.00  0.00    -0.003 C 
ATOM     12  C   UNL     1      84.449 130.395 132.627  1.00  0.00     0.004 C 
ENDBRANCH  10  11
ENDBRANCH   9  10
ENDBRANCH   8   9
ENDBRANCH   7   8
ENDBRANCH   6   7
ENDBRANCH   5   6
ENDBRANCH   4   5
ENDBRANCH   3   4
ENDBRANCH   2   3
ENDBRANCH   1   2
BRANCH   1  13
ATOM     13  C   UNL     1      83.840 124.255 125.960  1.00  0.00     0.000 C 
BRANCH  13  14
ATOM     14  C   UNL     1      82.318 124.050 126.118  1.00  0.00     0.000 C 
BRANCH  14  15
ATOM     15  C   UNL     1      81.907 122.581 125.916  1.00  0.00     0.000 C 
BRANCH  15  16
ATOM     16  C   UNL     1      82.633 121.912 124.737  1.00  0.00     0.000 C 
BRANCH  16  17
ATOM     17  C   UNL     1      83.423 120.633 125.090  1.00  0.00     0.000 C 
BRANCH  17  18
ATOM     18  C   UNL     1      84.559 120.818 126.117  1.00  0.00     0.000 C 
BRANCH  18  19
ATOM     19  C   UNL     1      84.458 119.898 127.355  1.00  0.00     0.000 C 
BRANCH  19  20
ATOM     20  C   UNL     1      84.922 120.568 128.662  1.00  0.00     0.006 C 
BRANCH  20  21
ATOM     21  C   UNL     1      86.128 119.885 129.324  1.00  0.00     0.053 C 
BRANCH  21  22
ATOM     22  C   UNL     1      86.852 120.796 130.272  1.00  0.00     0.041 C 
ATOM     23  O   UNL     1      87.788 121.530 129.860  1.00  0.00    -0.550 OA
ATOM     24  O   UNL     1      86.517 120.803 131.621  1.00  0.00    -0.550 OA
ENDBRANCH  21  22
ENDBRANCH  20  21
ENDBRANCH  19  20
ENDBRANCH  18  19
ENDBRANCH  17  18
ENDBRANCH  16  17
ENDBRANCH  15  16
ENDBRANCH  14  15
ENDBRANCH  13  14
ENDBRANCH   1  13
TORSDOF 20
ENDMDL
MODEL 2
REMARK VINA RESULT:    -4.118      1.607      3.659
REMARK INTER + INTRA:         -11.346
REMARK INTER:                  -8.653
REMARK INTRA:                  -2.693
REMARK UNBOUND:                -2.414
REMARK SMILES CCCCCCCCCCCCCCCCCCCCCC(=O)[O-]
REMARK SMILES IDX 12 1 11 2 10 3 9 4 8 5 7 6 6 7 5 8 4 9 3 10 2 11 1 12 13 13
REMARK SMILES IDX 14 14 15 15 16 16 17 17 18 18 19 19 20 20 21 21 22 22 23 23
REMARK SMILES IDX 24 24
REMARK H PARENT
REMARK Flexibility Score: inf
ROOT
ATOM      1  C   UNL     1      83.413 121.532 124.147  1.00  0.00     0.000 C 
ENDROOT
BRANCH   1   2
ATOM      2  C   UNL     1      84.502 122.338 124.876  1.00  0.00     0.000 C 
BRANCH   2   3
ATOM      3  C   UNL     1      83.993 123.697 125.387  1.00  0.00     0.000 C 
BRANCH   3   4
ATOM      4  C   UNL     1      82.584 123.604 125.995  1.00  0.00    -0.000 C 
BRANCH   4   5
ATOM      5  C   UNL     1      82.425 124.487 127.246  1.00  0.00    -0.000 C 
BRANCH   5   6
ATOM      6  C   UNL     1      83.668 124.470 128.150  1.00  0.00    -0.000 C 
BRANCH   6   7
ATOM      7  C   UNL     1      83.349 124.843 129.608  1.00  0.00    -0.000 C 
BRANCH   7   8
ATOM      8  C   UNL     1      82.095 125.728 129.738  1.00  0.00    -0.000 C 
BRANCH   8   9
ATOM      9  C   UNL     1      82.177 126.832 130.813  1.00  0.00    -0.000 C 
BRANCH   9  10
ATOM     10  C   UNL     1      83.539 127.544 130.917  1.00  0.00    -0.000 C 
BRANCH  10  11
ATOM     11  C   UNL     1      83.547 128.918 130.229  1.00  0.00    -0.003 C 
ATOM     12  C   UNL     1      83.421 130.045 131.252  1.00  0.00     0.004 C 
ENDBRANCH  10  11
ENDBRANCH   9  10
ENDBRANCH   8   9
ENDBRANCH   7   8
ENDBRANCH   6   7
ENDBRANCH   5   6
ENDBRANCH   4   5
ENDBRANCH   3   4
ENDBRANCH   2   3
ENDBRANCH   1   2
BRANCH   1  13
ATOM     13  C   UNL     1      82.981 120.234 124.854  1.00  0.00     0.000 C 
BRANCH  13  14
ATOM     14  C   UNL     1      83.721 119.977 126.185  1.00  0.00     0.000 C 
BRANCH  14  15
ATOM     15  C   UNL     1      82.801 120.153 127.405  1.00  0.00     0.000 C 
BRANCH  15  16
ATOM     16  C   UNL     1      83.499 120.842 128.589  1.00  0.00     0.000 C 
BRANCH  16  17
ATOM     17  C   UNL     1      85.015 121.075 128.415  1.00  0.00     0.000 C 
BRANCH  17  18
ATOM     18  C   UNL     1      85.927 120.166 129.265  1.00  0.00     0.000 C 
BRANCH  18  19
ATOM     19  C   UNL     1      86.946 120.927 130.145  1.00  0.00     0.000 C 
BRANCH  19  20
ATOM     20  C   UNL     1      86.715 120.743 131.657  1.00  0.00     0.006 C 
BRANCH  20  21
ATOM     21  C   UNL     1      85.428 119.980 132.007  1.00  0.00     0.053 C 
BRANCH  21  22
ATOM     22  C   UNL     1      84.308 120.898 132.398  1.00  0.00     0.041 C 
ATOM     23  O   UNL     1      83.294 120.447 132.995  1.00  0.00    -0.550 OA
ATOM     24  O   UNL     1      84.365 122.246 132.067  1.00  0.00    -0.550 OA
ENDBRANCH  21  22
ENDBRANCH  20  21
ENDBRANCH  19  20
ENDBRANCH  18  19
ENDBRANCH  17  18
ENDBRANCH  16  17
ENDBRANCH  15  16
ENDBRANCH  14  15
ENDBRANCH  13  14
ENDBRANCH   1  13
TORSDOF 20
ENDMDL
MODEL 3
REMARK VINA RESULT:    -3.962      2.471      4.601
REMARK INTER + INTRA:         -11.008
REMARK INTER:                  -8.032
REMARK INTRA:                  -2.976
REMARK UNBOUND:                -2.414
REMARK SMILES CCCCCCCCCCCCCCCCCCCCCC(=O)[O-]
REMARK SMILES IDX 12 1 11 2 10 3 9 4 8 5 7 6 6 7 5 8 4 9 3 10 2 11 1 12 13 13
REMARK SMILES IDX 14 14 15 15 16 16 17 17 18 18 19 19 20 20 21 21 22 22 23 23
REMARK SMILES IDX 24 24
REMARK H PARENT
REMARK Flexibility Score: inf
ROOT
ATOM      1  C   UNL     1      85.950 119.742 131.040  1.00  0.00     0.000 C 
ENDROOT
BRANCH   1   2
ATOM      2  C   UNL     1      86.355 120.786 132.096  1.00  0.00     0.000 C 
BRANCH   2   3
ATOM      3  C   UNL     1      85.179 121.212 132.992  1.00  0.00     0.000 C 
BRANCH   3   4
ATOM      4  C   UNL     1      84.383 122.386 132.395  1.00  0.00    -0.000 C 
BRANCH   4   5
ATOM      5  C   UNL     1      82.863 122.204 132.552  1.00  0.00    -0.000 C 
BRANCH   5   6
ATOM      6  C   UNL     1      82.104 123.540 132.600  1.00  0.00    -0.000 C 
BRANCH   6   7
ATOM      7  C   UNL     1      82.916 124.707 132.010  1.00  0.00    -0.000 C 
BRANCH   7   8
ATOM      8  C   UNL     1      82.033 125.895 131.586  1.00  0.00    -0.000 C 
BRANCH   8   9
ATOM      9  C   UNL     1      82.477 126.620 130.299  1.00  0.00    -0.000 C 
BRANCH   9  10
ATOM     10  C   UNL     1      82.648 128.146 130.434  1.00  0.00    -0.000 C 
BRANCH  10  11
ATOM     11  C   UNL     1      84.089 128.609 130.169  1.00  0.00    -0.003 C 
ATOM     12  C   UNL     1      84.755 129.093 131.456  1.00  0.00     0.004 C 
ENDBRANCH  10  11
ENDBRANCH   9  10
ENDBRANCH   8   9
ENDBRANCH   7   8
ENDBRANCH   6   7
ENDBRANCH   5   6
ENDBRANCH   4   5
ENDBRANCH   3   4
ENDBRANCH   2   3
ENDBRANCH   1   2
BRANCH   1  13
ATOM     13  C   UNL     1      86.299 120.117 129.588  1.00  0.00     0.000 C 
BRANCH  13  14
ATOM     14  C   UNL     1      85.091 120.063 128.627  1.00  0.00     0.000 C 
BRANCH  14  15
ATOM     15  C   UNL     1      83.778 120.459 129.323  1.00  0.00     0.000 C 
BRANCH  15  16
ATOM     16  C   UNL     1      82.862 121.316 128.433  1.00  0.00     0.000 C 
BRANCH  16  17
ATOM     17  C   UNL     1      82.759 122.804 128.831  1.00  0.00     0.000 C 
BRANCH  17  18
ATOM     18  C   UNL     1      84.089 123.584 128.828  1.00  0.00     0.000 C 
BRANCH  18  19
ATOM     19  C   UNL     1      84.262 124.548 127.632  1.00  0.00     0.000 C 
BRANCH  19  20
ATOM     20  C   UNL     1      84.695 123.845 126.330  1.00  0.00     0.006 C 
BRANCH  20  21
ATOM     21  C   UNL     1      83.601 123.789 125.254  1.00  0.00     0.053 C 
BRANCH  21  22
ATOM     22  C   UNL     1      83.475 122.427 124.638  1.00  0.00     0.041 C 
ATOM     23  O   UNL     1      82.572 122.191 123.791  1.00  0.00    -0.550 OA
ATOM     24  O   UNL     1      84.332 121.404 125.029  1.00  0.00    -0.550 OA
ENDBRANCH  21  22
ENDBRANCH  20  21
ENDBRANCH  19  20
ENDBRANCH  18  19
ENDBRANCH  17  18
ENDBRANCH  16  17
ENDBRANCH  15  16
ENDBRANCH  14  15
ENDBRANCH  13  14
ENDBRANCH   1  13
TORSDOF 20
ENDMDL
MODEL 4
REMARK VINA RESULT:    -3.774      2.448      4.597
REMARK INTER + INTRA:         -10.601
REMARK INTER:                  -8.199
REMARK INTRA:                  -2.402
REMARK UNBOUND:                -2.414
REMARK SMILES CCCCCCCCCCCCCCCCCCCCCC(=O)[O-]
REMARK SMILES IDX 12 1 11 2 10 3 9 4 8 5 7 6 6 7 5 8 4 9 3 10 2 11 1 12 13 13
REMARK SMILES IDX 14 14 15 15 16 16 17 17 18 18 19 19 20 20 21 21 22 22 23 23
REMARK SMILES IDX 24 24
REMARK H PARENT
REMARK Flexibility Score: inf
ROOT
ATOM      1  C   UNL     1      85.087 121.676 131.744  1.00  0.00     0.000 C 
ENDROOT
BRANCH   1   2
ATOM      2  C   UNL     1      83.614 121.600 132.184  1.00  0.00     0.000 C 
BRANCH   2   3
ATOM      3  C   UNL     1      83.088 122.938 132.733  1.00  0.00     0.000 C 
BRANCH   3   4
ATOM      4  C   UNL     1      83.017 124.028 131.650  1.00  0.00    -0.000 C 
BRANCH   4   5
ATOM      5  C   UNL     1      83.590 125.372 132.132  1.00  0.00    -0.000 C 
BRANCH   5   6
ATOM      6  C   UNL     1      82.739 126.576 131.695  1.00  0.00    -0.000 C 
BRANCH   6   7
ATOM      7  C   UNL     1      83.001 126.991 130.236  1.00  0.00    -0.000 C 
BRANCH   7   8
ATOM      8  C   UNL     1      83.782 128.313 130.123  1.00  0.00    -0.000 C 
BRANCH   8   9
ATOM      9  C   UNL     1      84.503 128.764 131.410  1.00  0.00    -0.000 C 
BRANCH   9  10
ATOM     10  C   UNL     1      84.030 130.112 131.987  1.00  0.00    -0.000 C 
BRANCH  10  11
ATOM     11  C   UNL     1      82.764 130.644 131.296  1.00  0.00    -0.003 C 
ATOM     12  C   UNL     1      82.534 132.116 131.629  1.00  0.00     0.004 C 
ENDBRANCH  10  11
ENDBRANCH   9  10
ENDBRANCH   8   9
ENDBRANCH   7   8
ENDBRANCH   6   7
ENDBRANCH   5   6
ENDBRANCH   4   5
ENDBRANCH   3   4
ENDBRANCH   2   3
ENDBRANCH   1   2
BRANCH   1  13
ATOM     13  C   UNL     1      85.899 120.387 131.967  1.00  0.00     0.000 C 
BRANCH  13  14
ATOM     14  C   UNL     1      85.501 119.231 131.023  1.00  0.00     0.000 C 
BRANCH  14  15
ATOM     15  C   UNL     1      85.657 119.613 129.541  1.00  0.00     0.000 C 
BRANCH  15  16
ATOM     16  C   UNL     1      84.318 119.645 128.785  1.00  0.00     0.000 C 
BRANCH  16  17
ATOM     17  C   UNL     1      83.924 121.018 128.202  1.00  0.00     0.000 C 
BRANCH  17  18
ATOM     18  C   UNL     1      85.040 122.083 128.198  1.00  0.00     0.000 C 
BRANCH  18  19
ATOM     19  C   UNL     1      84.538 123.536 128.357  1.00  0.00     0.000 C 
BRANCH  19  20
ATOM     20  C   UNL     1      83.206 123.813 127.632  1.00  0.00     0.006 C 
BRANCH  20  21
ATOM     21  C   UNL     1      83.370 124.349 126.202  1.00  0.00     0.053 C 
BRANCH  21  22
ATOM     22  C   UNL     1      83.524 123.249 125.194  1.00  0.00     0.041 C 
ATOM     23  O   UNL     1      82.512 122.644 124.752  1.00  0.00    -0.550 OA
ATOM     24  O   UNL     1      84.792 122.865 124.771  1.00  0.00    -0.550 OA
ENDBRANCH  21  22
ENDBRANCH  20  21
ENDBRANCH  19  20
ENDBRANCH  18  19
ENDBRANCH  17  18
ENDBRANCH  16  17
ENDBRANCH  15  16
ENDBRANCH  14  15
ENDBRANCH  13  14
ENDBRANCH   1  13
TORSDOF 20
ENDMDL
MODEL 5
REMARK VINA RESULT:    -3.591      2.394      6.489
REMARK INTER + INTRA:         -10.202
REMARK INTER:                  -6.932
REMARK INTRA:                  -3.271
REMARK UNBOUND:                -2.414
REMARK SMILES CCCCCCCCCCCCCCCCCCCCCC(=O)[O-]
REMARK SMILES IDX 12 1 11 2 10 3 9 4 8 5 7 6 6 7 5 8 4 9 3 10 2 11 1 12 13 13
REMARK SMILES IDX 14 14 15 15 16 16 17 17 18 18 19 19 20 20 21 21 22 22 23 23
REMARK SMILES IDX 24 24
REMARK H PARENT
REMARK Flexibility Score: inf
ROOT
ATOM      1  C   UNL     1      83.672 125.225 132.993  1.00  0.00     0.000 C 
ENDROOT
BRANCH   1   2
ATOM      2  C   UNL     1      82.872 123.932 132.755  1.00  0.00     0.000 C 
BRANCH   2   3
ATOM      3  C   UNL     1      83.776 122.705 132.544  1.00  0.00     0.000 C 
BRANCH   3   4
ATOM      4  C   UNL     1      82.987 121.472 132.071  1.00  0.00    -0.000 C 
BRANCH   4   5
ATOM      5  C   UNL     1      82.255 121.719 130.741  1.00  0.00    -0.000 C 
BRANCH   5   6
ATOM      6  C   UNL     1      81.875 120.417 130.017  1.00  0.00    -0.000 C 
BRANCH   6   7
ATOM      7  C   UNL     1      83.073 119.468 129.832  1.00  0.00    -0.000 C 
BRANCH   7   8
ATOM      8  C   UNL     1      84.087 119.981 128.793  1.00  0.00    -0.000 C 
BRANCH   8   9
ATOM      9  C   UNL     1      85.569 119.853 129.201  1.00  0.00    -0.000 C 
BRANCH   9  10
ATOM     10  C   UNL     1      86.210 121.140 129.753  1.00  0.00    -0.000 C 
BRANCH  10  11
ATOM     11  C   UNL     1      87.058 120.892 131.011  1.00  0.00    -0.003 C 
ATOM     12  C   UNL     1      86.269 120.111 132.059  1.00  0.00     0.004 C 
ENDBRANCH  10  11
ENDBRANCH   9  10
ENDBRANCH   8   9
ENDBRANCH   7   8
ENDBRANCH   6   7
ENDBRANCH   5   6
ENDBRANCH   4   5
ENDBRANCH   3   4
ENDBRANCH   2   3
ENDBRANCH   1   2
BRANCH   1  13
ATOM     13  C   UNL     1      82.935 126.524 132.616  1.00  0.00     0.000 C 
BRANCH  13  14
ATOM     14  C   UNL     1      83.695 127.393 131.590  1.00  0.00     0.000 C 
BRANCH  14  15
ATOM     15  C   UNL     1      82.949 127.490 130.248  1.00  0.00     0.000 C 
BRANCH  15  16
ATOM     16  C   UNL     1      81.940 126.349 130.038  1.00  0.00     0.000 C 
BRANCH  16  17
ATOM     17  C   UNL     1      82.352 125.287 128.996  1.00  0.00     0.000 C 
BRANCH  17  18
ATOM     18  C   UNL     1      83.730 124.634 129.224  1.00  0.00     0.000 C 
BRANCH  18  19
ATOM     19  C   UNL     1      84.188 123.694 128.085  1.00  0.00     0.000 C 
BRANCH  19  20
ATOM     20  C   UNL     1      84.480 124.425 126.760  1.00  0.00     0.006 C 
BRANCH  20  21
ATOM     21  C   UNL     1      83.578 123.993 125.594  1.00  0.00     0.053 C 
BRANCH  21  22
ATOM     22  C   UNL     1      83.718 122.535 125.273  1.00  0.00     0.041 C 
ATOM     23  O   UNL     1      84.711 122.119 124.618  1.00  0.00    -0.550 OA
ATOM     24  O   UNL     1      82.730 121.638 125.663  1.00  0.00    -0.550 OA
ENDBRANCH  21  22
ENDBRANCH  20  21
ENDBRANCH  19  20
ENDBRANCH  18  19
ENDBRANCH  17  18
ENDBRANCH  16  17
ENDBRANCH  15  16
ENDBRANCH  14  15
ENDBRANCH  13  14
ENDBRANCH   1  13
TORSDOF 20
ENDMDL
MODEL 6
REMARK VINA RESULT:    -3.232     12.389     15.394
REMARK INTER + INTRA:          -9.424
REMARK INTER:                  -8.653
REMARK INTRA:                  -0.771
REMARK UNBOUND:                -2.414
REMARK SMILES CCCCCCCCCCCCCCCCCCCCCC(=O)[O-]
REMARK SMILES IDX 12 1 11 2 10 3 9 4 8 5 7 6 6 7 5 8 4 9 3 10 2 11 1 12 13 13
REMARK SMILES IDX 14 14 15 15 16 16 17 17 18 18 19 19 20 20 21 21 22 22 23 23
REMARK SMILES IDX 24 24
REMARK H PARENT
REMARK Flexibility Score: inf
ROOT
ATOM      1  C   UNL     1      94.889 123.066 125.495  1.00  0.00     0.000 C 
ENDROOT
BRANCH   1   2
ATOM      2  C   UNL     1      95.531 124.037 124.488  1.00  0.00     0.000 C 
BRANCH   2   3
ATOM      3  C   UNL     1      96.885 124.584 124.970  1.00  0.00     0.000 C 
BRANCH   3   4
ATOM      4  C   UNL     1      97.388 123.871 126.237  1.00  0.00    -0.000 C 
BRANCH   4   5
ATOM      5  C   UNL     1      98.837 124.250 126.588  1.00  0.00    -0.000 C 
BRANCH   5   6
ATOM      6  C   UNL     1      99.807 123.061 126.490  1.00  0.00    -0.000 C 
BRANCH   6   7
ATOM      7  C   UNL     1      99.091 121.701 126.575  1.00  0.00    -0.000 C 
BRANCH   7   8
ATOM      8  C   UNL     1     100.040 120.548 126.949  1.00  0.00    -0.000 C 
BRANCH   8   9
ATOM      9  C   UNL     1     101.436 120.606 126.294  1.00  0.00    -0.000 C 
BRANCH   9  10
ATOM     10  C   UNL     1     101.507 120.058 124.856  1.00  0.00    -0.000 C 
BRANCH  10  11
ATOM     11  C   UNL     1     100.174 119.459 124.381  1.00  0.00    -0.003 C 
ATOM     12  C   UNL     1     100.168 119.265 122.866  1.00  0.00     0.004 C 
ENDBRANCH  10  11
ENDBRANCH   9  10
ENDBRANCH   8   9
ENDBRANCH   7   8
ENDBRANCH   6   7
ENDBRANCH   5   6
ENDBRANCH   4   5
ENDBRANCH   3   4
ENDBRANCH   2   3
ENDBRANCH   1   2
BRANCH   1  13
ATOM     13  C   UNL     1      93.594 122.389 125.011  1.00  0.00     0.000 C 
BRANCH  13  14
ATOM     14  C   UNL     1      92.536 123.381 124.481  1.00  0.00     0.000 C 
BRANCH  14  15
ATOM     15  C   UNL     1      92.693 123.646 122.974  1.00  0.00     0.000 C 
BRANCH  15  16
ATOM     16  C   UNL     1      92.728 122.356 122.138  1.00  0.00     0.000 C 
BRANCH  16  17
ATOM     17  C   UNL     1      92.803 122.562 120.610  1.00  0.00     0.000 C 
BRANCH  17  18
ATOM     18  C   UNL     1      93.633 121.515 119.839  1.00  0.00     0.000 C 
BRANCH  18  19
ATOM     19  C   UNL     1      93.175 121.284 118.381  1.00  0.00     0.000 C 
BRANCH  19  20
ATOM     20  C   UNL     1      92.267 122.402 117.834  1.00  0.00     0.006 C 
BRANCH  20  21
ATOM     21  C   UNL     1      91.423 121.988 116.620  1.00  0.00     0.053 C 
BRANCH  21  22
ATOM     22  C   UNL     1      92.061 120.884 115.830  1.00  0.00     0.041 C 
ATOM     23  O   UNL     1      91.562 119.728 115.832  1.00  0.00    -0.550 OA
ATOM     24  O   UNL     1      93.233 121.123 115.121  1.00  0.00    -0.550 OA
ENDBRANCH  21  22
ENDBRANCH  20  21
ENDBRANCH  19  20
ENDBRANCH  18  19
ENDBRANCH  17  18
ENDBRANCH  16  17
ENDBRANCH  15  16
ENDBRANCH  14  15
ENDBRANCH  13  14
ENDBRANCH   1  13
TORSDOF 20
ENDMDL
MODEL 7
REMARK VINA RESULT:    -3.218     12.453     15.347
REMARK INTER + INTRA:          -9.394
REMARK INTER:                  -8.179
REMARK INTRA:                  -1.215
REMARK UNBOUND:                -2.414
REMARK SMILES CCCCCCCCCCCCCCCCCCCCCC(=O)[O-]
REMARK SMILES IDX 12 1 11 2 10 3 9 4 8 5 7 6 6 7 5 8 4 9 3 10 2 11 1 12 13 13
REMARK SMILES IDX 14 14 15 15 16 16 17 17 18 18 19 19 20 20 21 21 22 22 23 23
REMARK SMILES IDX 24 24
REMARK H PARENT
REMARK Flexibility Score: inf
ROOT
ATOM      1  C   UNL     1      94.676 123.186 125.042  1.00  0.00     0.000 C 
ENDROOT
BRANCH   1   2
ATOM      2  C   UNL     1      95.381 124.100 124.025  1.00  0.00     0.000 C 
BRANCH   2   3
ATOM      3  C   UNL     1      96.584 124.845 124.629  1.00  0.00     0.000 C 
BRANCH   3   4
ATOM      4  C   UNL     1      96.952 124.325 126.028  1.00  0.00    -0.000 C 
BRANCH   4   5
ATOM      5  C   UNL     1      98.330 124.826 126.497  1.00  0.00    -0.000 C 
BRANCH   5   6
ATOM      6  C   UNL     1      99.325 123.683 126.758  1.00  0.00    -0.000 C 
BRANCH   6   7
ATOM      7  C   UNL     1      98.765 122.305 126.362  1.00  0.00    -0.000 C 
BRANCH   7   8
ATOM      8  C   UNL     1      99.596 121.138 126.926  1.00  0.00    -0.000 C 
BRANCH   8   9
ATOM      9  C   UNL     1     101.053 121.065 126.422  1.00  0.00    -0.000 C 
BRANCH   9  10
ATOM     10  C   UNL     1     101.528 119.662 125.998  1.00  0.00    -0.000 C 
BRANCH  10  11
ATOM     11  C   UNL     1     101.671 119.517 124.475  1.00  0.00    -0.003 C 
ATOM     12  C   UNL     1     100.310 119.588 123.786  1.00  0.00     0.004 C 
ENDBRANCH  10  11
ENDBRANCH   9  10
ENDBRANCH   8   9
ENDBRANCH   7   8
ENDBRANCH   6   7
ENDBRANCH   5   6
ENDBRANCH   4   5
ENDBRANCH   3   4
ENDBRANCH   2   3
ENDBRANCH   1   2
BRANCH   1  13
ATOM     13  C   UNL     1      93.171 122.974 124.793  1.00  0.00     0.000 C 
BRANCH  13  14
ATOM     14  C   UNL     1      92.688 123.502 123.425  1.00  0.00     0.000 C 
BRANCH  14  15
ATOM     15  C   UNL     1      92.542 122.375 122.388  1.00  0.00     0.000 C 
BRANCH  15  16
ATOM     16  C   UNL     1      93.742 122.281 121.430  1.00  0.00     0.000 C 
BRANCH  16  17
ATOM     17  C   UNL     1      93.407 121.811 119.998  1.00  0.00     0.000 C 
BRANCH  17  18
ATOM     18  C   UNL     1      92.033 122.258 119.458  1.00  0.00     0.000 C 
BRANCH  18  19
ATOM     19  C   UNL     1      92.104 123.249 118.273  1.00  0.00     0.000 C 
BRANCH  19  20
ATOM     20  C   UNL     1      91.834 122.596 116.904  1.00  0.00     0.006 C 
BRANCH  20  21
ATOM     21  C   UNL     1      91.955 121.065 116.905  1.00  0.00     0.053 C 
BRANCH  21  22
ATOM     22  C   UNL     1      92.165 120.508 115.528  1.00  0.00     0.041 C 
ATOM     23  O   UNL     1      92.977 121.056 114.736  1.00  0.00    -0.550 OA
ATOM     24  O   UNL     1      91.434 119.404 115.104  1.00  0.00    -0.550 OA
ENDBRANCH  21  22
ENDBRANCH  20  21
ENDBRANCH  19  20
ENDBRANCH  18  19
ENDBRANCH  17  18
ENDBRANCH  16  17
ENDBRANCH  15  16
ENDBRANCH  14  15
ENDBRANCH  13  14
ENDBRANCH   1  13
TORSDOF 20
ENDMDL
MODEL 8
REMARK VINA RESULT:    -2.742      1.574      3.914
REMARK INTER + INTRA:          -8.362
REMARK INTER:                  -6.706
REMARK INTRA:                  -1.656
REMARK UNBOUND:                -2.414
REMARK SMILES CCCCCCCCCCCCCCCCCCCCCC(=O)[O-]
REMARK SMILES IDX 12 1 11 2 10 3 9 4 8 5 7 6 6 7 5 8 4 9 3 10 2 11 1 12 13 13
REMARK SMILES IDX 14 14 15 15 16 16 17 17 18 18 19 19 20 20 21 21 22 22 23 23
REMARK SMILES IDX 24 24
REMARK H PARENT
REMARK Flexibility Score: inf
ROOT
ATOM      1  C   UNL     1      83.893 120.696 125.193  1.00  0.00     0.000 C 
ENDROOT
BRANCH   1   2
ATOM      2  C   UNL     1      84.364 121.586 126.356  1.00  0.00     0.000 C 
BRANCH   2   3
ATOM      3  C   UNL     1      84.757 123.002 125.900  1.00  0.00     0.000 C 
BRANCH   3   4
ATOM      4  C   UNL     1      83.543 123.831 125.451  1.00  0.00    -0.000 C 
BRANCH   4   5
ATOM      5  C   UNL     1      82.637 124.230 126.629  1.00  0.00    -0.000 C 
BRANCH   5   6
ATOM      6  C   UNL     1      83.413 124.411 127.944  1.00  0.00    -0.000 C 
BRANCH   6   7
ATOM      7  C   UNL     1      82.819 123.590 129.103  1.00  0.00    -0.000 C 
BRANCH   7   8
ATOM      8  C   UNL     1      82.476 124.453 130.332  1.00  0.00    -0.000 C 
BRANCH   8   9
ATOM      9  C   UNL     1      82.330 125.964 130.055  1.00  0.00    -0.000 C 
BRANCH   9  10
ATOM     10  C   UNL     1      83.342 126.864 130.789  1.00  0.00    -0.000 C 
BRANCH  10  11
ATOM     11  C   UNL     1      83.646 128.163 130.026  1.00  0.00    -0.003 C 
ATOM     12  C   UNL     1      84.403 129.153 130.907  1.00  0.00     0.004 C 
ENDBRANCH  10  11
ENDBRANCH   9  10
ENDBRANCH   8   9
ENDBRANCH   7   8
ENDBRANCH   6   7
ENDBRANCH   5   6
ENDBRANCH   4   5
ENDBRANCH   3   4
ENDBRANCH   2   3
ENDBRANCH   1   2
BRANCH   1  13
ATOM     13  C   UNL     1      82.957 119.540 125.595  1.00  0.00     0.000 C 
BRANCH  13  14
ATOM     14  C   UNL     1      83.217 118.999 127.018  1.00  0.00     0.000 C 
BRANCH  14  15
ATOM     15  C   UNL     1      81.930 118.937 127.859  1.00  0.00     0.000 C 
BRANCH  15  16
ATOM     16  C   UNL     1      82.201 118.935 129.372  1.00  0.00     0.000 C 
BRANCH  16  17
ATOM     17  C   UNL     1      83.445 119.733 129.820  1.00  0.00     0.000 C 
BRANCH  17  18
ATOM     18  C   UNL     1      84.491 118.934 130.623  1.00  0.00     0.000 C 
BRANCH  18  19
ATOM     19  C   UNL     1      84.908 119.590 131.960  1.00  0.00     0.000 C 
BRANCH  19  20
ATOM     20  C   UNL     1      86.212 120.406 131.867  1.00  0.00     0.006 C 
BRANCH  20  21
ATOM     21  C   UNL     1      86.260 121.379 130.680  1.00  0.00     0.053 C 
BRANCH  21  22
ATOM     22  C   UNL     1      87.660 121.632 130.204  1.00  0.00     0.041 C 
ATOM     23  O   UNL     1      87.885 122.496 129.316  1.00  0.00    -0.550 OA
ATOM     24  O   UNL     1      88.714 120.884 130.715  1.00  0.00    -0.550 OA
ENDBRANCH  21  22
ENDBRANCH  20  21
ENDBRANCH  19  20
ENDBRANCH  18  19
ENDBRANCH  17  18
ENDBRANCH  16  17
ENDBRANCH  15  16
ENDBRANCH  14  15
ENDBRANCH  13  14
ENDBRANCH   1  13
TORSDOF 20
ENDMDL
MODEL 9
REMARK VINA RESULT:    -2.691      2.881      6.503
REMARK INTER + INTRA:          -8.251
REMARK INTER:                  -6.754
REMARK INTRA:                  -1.496
REMARK UNBOUND:                -2.414
REMARK SMILES CCCCCCCCCCCCCCCCCCCCCC(=O)[O-]
REMARK SMILES IDX 12 1 11 2 10 3 9 4 8 5 7 6 6 7 5 8 4 9 3 10 2 11 1 12 13 13
REMARK SMILES IDX 14 14 15 15 16 16 17 17 18 18 19 19 20 20 21 21 22 22 23 23
REMARK SMILES IDX 24 24
REMARK H PARENT
REMARK Flexibility Score: inf
ROOT
ATOM      1  C   UNL     1      84.046 127.866 131.594  1.00  0.00     0.000 C 
ENDROOT
BRANCH   1   2
ATOM      2  C   UNL     1      83.298 127.232 132.780  1.00  0.00     0.000 C 
BRANCH   2   3
ATOM      3  C   UNL     1      83.814 125.824 133.123  1.00  0.00     0.000 C 
BRANCH   3   4
ATOM      4  C   UNL     1      82.810 124.723 132.742  1.00  0.00    -0.000 C 
BRANCH   4   5
ATOM      5  C   UNL     1      83.308 123.318 133.125  1.00  0.00    -0.000 C 
BRANCH   5   6
ATOM      6  C   UNL     1      84.719 123.018 132.592  1.00  0.00    -0.000 C 
BRANCH   6   7
ATOM      7  C   UNL     1      85.146 121.558 132.825  1.00  0.00    -0.000 C 
BRANCH   7   8
ATOM      8  C   UNL     1      84.995 120.683 131.567  1.00  0.00    -0.000 C 
BRANCH   8   9
ATOM      9  C   UNL     1      86.317 120.184 130.950  1.00  0.00    -0.000 C 
BRANCH   9  10
ATOM     10  C   UNL     1      86.275 119.927 129.431  1.00  0.00    -0.000 C 
BRANCH  10  11
ATOM     11  C   UNL     1      84.845 119.753 128.897  1.00  0.00    -0.003 C 
ATOM     12  C   UNL     1      84.802 119.912 127.379  1.00  0.00     0.004 C 
ENDBRANCH  10  11
ENDBRANCH   9  10
ENDBRANCH   8   9
ENDBRANCH   7   8
ENDBRANCH   6   7
ENDBRANCH   5   6
ENDBRANCH   4   5
ENDBRANCH   3   4
ENDBRANCH   2   3
ENDBRANCH   1   2
BRANCH   1  13
ATOM     13  C   UNL     1      83.360 127.697 130.226  1.00  0.00     0.000 C 
BRANCH  13  14
ATOM     14  C   UNL     1      82.138 126.754 130.257  1.00  0.00     0.000 C 
BRANCH  14  15
ATOM     15  C   UNL     1      81.963 125.985 128.936  1.00  0.00     0.000 C 
BRANCH  15  16
ATOM     16  C   UNL     1      81.982 124.459 129.122  1.00  0.00     0.000 C 
BRANCH  16  17
ATOM     17  C   UNL     1      82.261 123.643 127.842  1.00  0.00     0.000 C 
BRANCH  17  18
ATOM     18  C   UNL     1      83.660 123.836 127.224  1.00  0.00     0.000 C 
BRANCH  18  19
ATOM     19  C   UNL     1      83.678 123.863 125.678  1.00  0.00     0.000 C 
BRANCH  19  20
ATOM     20  C   UNL     1      83.692 122.463 125.036  1.00  0.00     0.006 C 
BRANCH  20  21
ATOM     21  C   UNL     1      82.667 122.280 123.906  1.00  0.00     0.053 C 
BRANCH  21  22
ATOM     22  C   UNL     1      82.620 120.869 123.400  1.00  0.00     0.041 C 
ATOM     23  O   UNL     1      82.449 120.638 122.173  1.00  0.00    -0.550 OA
ATOM     24  O   UNL     1      82.726 119.806 124.290  1.00  0.00    -0.550 OA
ENDBRANCH  21  22
ENDBRANCH  20  21
ENDBRANCH  19  20
ENDBRANCH  18  19
ENDBRANCH  17  18
ENDBRANCH  16  17
ENDBRANCH  15  16
ENDBRANCH  14  15
ENDBRANCH  13  14
ENDBRANCH   1  13
TORSDOF 20
ENDMDL
