MODEL 1
REMARK VINA RESULT:    -4.364      0.000      0.000
REMARK INTER + INTRA:          -6.239
REMARK INTER:                  -5.384
REMARK INTRA:                  -0.855
REMARK UNBOUND:                -0.855
REMARK SMILES C=CC(=C)CCC=C(C)C
REMARK SMILES IDX 5 1 6 2 7 3 9 4 8 5 10 6 3 7 4 8 2 9 1 10
REMARK H PARENT
REMARK Flexibility Score: inf
ROOT
ATOM      1  C   UNL     1     143.583 145.402 133.609  1.00  0.00     0.039 C 
ENDROOT
BRANCH   1   2
ATOM      2  C   UNL     1     144.540 146.529 134.020  1.00  0.00     0.032 C 
BRANCH   2   3
ATOM      3  C   UNL     1     145.071 147.268 132.814  1.00  0.00    -0.028 C 
ATOM      4  C   UNL     1     147.285 146.094 132.844  1.00  0.00     0.039 C 
ATOM      5  C   UNL     1     146.291 147.069 132.265  1.00  0.00    -0.080 C 
ATOM      6  C   UNL     1     146.685 147.826 131.023  1.00  0.00     0.039 C 
ENDBRANCH   2   3
ENDBRANCH   1   2
BRANCH   1   7
ATOM      7  C   UNL     1     144.326 144.140 133.218  1.00  0.00    -0.055 C 
ATOM      8  C   UNL     1     145.100 143.533 134.124  1.00  0.00     0.012 C 
BRANCH   7   9
ATOM      9  C   UNL     1     144.194 143.527 131.871  1.00  0.00    -0.005 C 
ATOM     10  C   UNL     1     144.759 144.020 130.768  1.00  0.00     0.009 C 
ENDBRANCH   7   9
ENDBRANCH   1   7
TORSDOF 4
ENDMDL
MODEL 2
REMARK VINA RESULT:    -4.358      1.661      2.696
REMARK INTER + INTRA:          -6.233
REMARK INTER:                  -5.356
REMARK INTRA:                  -0.877
REMARK UNBOUND:                -0.855
REMARK SMILES C=CC(=C)CCC=C(C)C
REMARK SMILES IDX 5 1 6 2 7 3 9 4 8 5 10 6 3 7 4 8 2 9 1 10
REMARK H PARENT
REMARK Flexibility Score: inf
ROOT
ATOM      1  C   UNL     1     145.204 147.282 133.580  1.00  0.00     0.039 C 
ENDROOT
BRANCH   1   2
ATOM      2  C   UNL     1     146.392 146.381 133.944  1.00  0.00     0.032 C 
BRANCH   2   3
ATOM      3  C   UNL     1     147.066 145.833 132.707  1.00  0.00    -0.028 C 
ATOM      4  C   UNL     1     146.152 143.519 133.014  1.00  0.00     0.039 C 
ATOM      5  C   UNL     1     146.950 144.559 132.268  1.00  0.00    -0.080 C 
ATOM      6  C   UNL     1     147.624 144.145 130.985  1.00  0.00     0.039 C 
ENDBRANCH   2   3
ENDBRANCH   1   2
BRANCH   1   7
ATOM      7  C   UNL     1     143.978 146.478 133.194  1.00  0.00    -0.055 C 
ATOM      8  C   UNL     1     143.362 145.743 134.125  1.00  0.00     0.012 C 
BRANCH   7   9
ATOM      9  C   UNL     1     143.410 146.509 131.820  1.00  0.00    -0.005 C 
ATOM     10  C   UNL     1     144.074 146.122 130.730  1.00  0.00     0.009 C 
ENDBRANCH   7   9
ENDBRANCH   1   7
TORSDOF 4
ENDMDL
MODEL 3
REMARK VINA RESULT:    -4.341      1.111      3.876
REMARK INTER + INTRA:          -6.211
REMARK INTER:                  -5.324
REMARK INTRA:                  -0.887
REMARK UNBOUND:                -0.855
REMARK SMILES C=CC(=C)CCC=C(C)C
REMARK SMILES IDX 5 1 6 2 7 3 9 4 8 5 10 6 3 7 4 8 2 9 1 10
REMARK H PARENT
REMARK Flexibility Score: inf
ROOT
ATOM      1  C   UNL     1     147.112 145.333 133.609  1.00  0.00     0.039 C 
ENDROOT
BRANCH   1   2
ATOM      2  C   UNL     1     146.148 144.205 133.999  1.00  0.00     0.032 C 
BRANCH   2   3
ATOM      3  C   UNL     1     145.628 143.480 132.780  1.00  0.00    -0.028 C 
ATOM      4  C   UNL     1     143.394 144.615 132.836  1.00  0.00     0.039 C 
ATOM      5  C   UNL     1     144.404 143.669 132.236  1.00  0.00    -0.080 C 
ATOM      6  C   UNL     1     144.020 142.929 130.981  1.00  0.00     0.039 C 
ENDBRANCH   2   3
ENDBRANCH   1   2
BRANCH   1   7
ATOM      7  C   UNL     1     146.376 146.599 133.217  1.00  0.00    -0.055 C 
ATOM      8  C   UNL     1     145.614 147.217 134.125  1.00  0.00     0.012 C 
BRANCH   7   9
ATOM      9  C   UNL     1     146.503 147.202 131.864  1.00  0.00    -0.005 C 
ATOM     10  C   UNL     1     145.859 146.755 130.785  1.00  0.00     0.009 C 
ENDBRANCH   7   9
ENDBRANCH   1   7
TORSDOF 4
ENDMDL
MODEL 4
REMARK VINA RESULT:    -4.336      1.683      2.715
REMARK INTER + INTRA:          -6.205
REMARK INTER:                  -5.289
REMARK INTRA:                  -0.917
REMARK UNBOUND:                -0.855
REMARK SMILES C=CC(=C)CCC=C(C)C
REMARK SMILES IDX 5 1 6 2 7 3 9 4 8 5 10 6 3 7 4 8 2 9 1 10
REMARK H PARENT
REMARK Flexibility Score: inf
ROOT
ATOM      1  C   UNL     1     145.382 143.522 133.641  1.00  0.00     0.039 C 
ENDROOT
BRANCH   1   2
ATOM      2  C   UNL     1     144.261 144.509 133.991  1.00  0.00     0.032 C 
BRANCH   2   3
ATOM      3  C   UNL     1     143.601 145.057 132.748  1.00  0.00    -0.028 C 
ATOM      4  C   UNL     1     144.663 147.317 132.959  1.00  0.00     0.039 C 
ATOM      5  C   UNL     1     143.788 146.305 132.262  1.00  0.00    -0.080 C 
ATOM      6  C   UNL     1     143.118 146.717 130.976  1.00  0.00     0.039 C 
ENDBRANCH   2   3
ENDBRANCH   1   2
BRANCH   1   7
ATOM      7  C   UNL     1     146.658 144.231 133.232  1.00  0.00    -0.055 C 
ATOM      8  C   UNL     1     147.290 145.000 134.125  1.00  0.00     0.012 C 
BRANCH   7   9
ATOM      9  C   UNL     1     147.256 144.071 131.881  1.00  0.00    -0.005 C 
ATOM     10  C   UNL     1     146.778 144.654 130.780  1.00  0.00     0.009 C 
ENDBRANCH   7   9
ENDBRANCH   1   7
TORSDOF 4
ENDMDL
MODEL 5
REMARK VINA RESULT:    -4.326      1.114      1.912
REMARK INTER + INTRA:          -6.192
REMARK INTER:                  -5.272
REMARK INTRA:                  -0.920
REMARK UNBOUND:                -0.855
REMARK SMILES C=CC(=C)CCC=C(C)C
REMARK SMILES IDX 5 1 6 2 7 3 9 4 8 5 10 6 3 7 4 8 2 9 1 10
REMARK H PARENT
REMARK Flexibility Score: inf
ROOT
ATOM      1  C   UNL     1     143.450 145.392 133.697  1.00  0.00     0.039 C 
ENDROOT
BRANCH   1   2
ATOM      2  C   UNL     1     143.524 146.454 132.592  1.00  0.00     0.032 C 
BRANCH   2   3
ATOM      3  C   UNL     1     144.812 147.239 132.669  1.00  0.00    -0.028 C 
ATOM      4  C   UNL     1     145.798 146.170 130.628  1.00  0.00     0.039 C 
ATOM      5  C   UNL     1     145.831 147.137 131.785  1.00  0.00    -0.080 C 
ATOM      6  C   UNL     1     147.044 148.018 131.934  1.00  0.00     0.039 C 
ENDBRANCH   2   3
ENDBRANCH   1   2
BRANCH   1   7
ATOM      7  C   UNL     1     144.279 144.168 133.364  1.00  0.00    -0.055 C 
ATOM      8  C   UNL     1     143.919 143.397 132.332  1.00  0.00     0.012 C 
BRANCH   7   9
ATOM      9  C   UNL     1     145.507 143.812 134.123  1.00  0.00    -0.005 C 
ATOM     10  C   UNL     1     146.725 144.264 133.823  1.00  0.00     0.009 C 
ENDBRANCH   7   9
ENDBRANCH   1   7
TORSDOF 4
ENDMDL
MODEL 6
REMARK VINA RESULT:    -4.254      1.195      2.536
REMARK INTER + INTRA:          -6.104
REMARK INTER:                  -5.263
REMARK INTRA:                  -0.840
REMARK UNBOUND:                -0.855
REMARK SMILES C=CC(=C)CCC=C(C)C
REMARK SMILES IDX 5 1 6 2 7 3 9 4 8 5 10 6 3 7 4 8 2 9 1 10
REMARK H PARENT
REMARK Flexibility Score: inf
ROOT
ATOM      1  C   UNL     1     145.829 143.475 133.768  1.00  0.00     0.039 C 
ENDROOT
BRANCH   1   2
ATOM      2  C   UNL     1     146.918 143.947 132.796  1.00  0.00     0.032 C 
BRANCH   2   3
ATOM      3  C   UNL     1     147.117 145.442 132.877  1.00  0.00    -0.028 C 
ATOM      4  C   UNL     1     145.942 145.900 130.711  1.00  0.00     0.039 C 
ATOM      5  C   UNL     1     146.668 146.330 131.961  1.00  0.00    -0.080 C 
ATOM      6  C   UNL     1     146.877 147.806 132.183  1.00  0.00     0.039 C 
ENDBRANCH   2   3
ENDBRANCH   1   2
BRANCH   1   7
ATOM      7  C   UNL     1     144.450 143.948 133.351  1.00  0.00    -0.055 C 
ATOM      8  C   UNL     1     143.810 143.304 132.370  1.00  0.00     0.012 C 
BRANCH   7   9
ATOM      9  C   UNL     1     143.765 145.083 134.023  1.00  0.00    -0.005 C 
ATOM     10  C   UNL     1     143.246 146.128 133.378  1.00  0.00     0.009 C 
ENDBRANCH   7   9
ENDBRANCH   1   7
TORSDOF 4
ENDMDL
MODEL 7
REMARK VINA RESULT:    -4.232      1.211      3.669
REMARK INTER + INTRA:          -6.076
REMARK INTER:                  -5.240
REMARK INTRA:                  -0.836
REMARK UNBOUND:                -0.855
REMARK SMILES C=CC(=C)CCC=C(C)C
REMARK SMILES IDX 5 1 6 2 7 3 9 4 8 5 10 6 3 7 4 8 2 9 1 10
REMARK H PARENT
REMARK Flexibility Score: inf
ROOT
ATOM      1  C   UNL     1     145.066 147.268 133.872  1.00  0.00     0.039 C 
ENDROOT
BRANCH   1   2
ATOM      2  C   UNL     1     143.881 146.866 132.984  1.00  0.00     0.032 C 
BRANCH   2   3
ATOM      3  C   UNL     1     143.664 145.371 132.999  1.00  0.00    -0.028 C 
ATOM      4  C   UNL     1     144.660 145.021 130.726  1.00  0.00     0.039 C 
ATOM      5  C   UNL     1     144.026 144.530 132.003  1.00  0.00    -0.080 C 
ATOM      6  C   UNL     1     143.810 143.047 132.160  1.00  0.00     0.039 C 
ENDBRANCH   2   3
ENDBRANCH   1   2
BRANCH   1   7
ATOM      7  C   UNL     1     146.394 146.851 133.271  1.00  0.00    -0.055 C 
ATOM      8  C   UNL     1     146.908 147.569 132.267  1.00  0.00     0.012 C 
BRANCH   7   9
ATOM      9  C   UNL     1     147.169 145.691 133.786  1.00  0.00    -0.005 C 
ATOM     10  C   UNL     1     147.529 144.646 133.041  1.00  0.00     0.009 C 
ENDBRANCH   7   9
ENDBRANCH   1   7
TORSDOF 4
ENDMDL
MODEL 8
REMARK VINA RESULT:    -4.224      1.571      3.619
REMARK INTER + INTRA:          -6.066
REMARK INTER:                  -5.266
REMARK INTRA:                  -0.801
REMARK UNBOUND:                -0.855
REMARK SMILES C=CC(=C)CCC=C(C)C
REMARK SMILES IDX 5 1 6 2 7 3 9 4 8 5 10 6 3 7 4 8 2 9 1 10
REMARK H PARENT
REMARK Flexibility Score: inf
ROOT
ATOM      1  C   UNL     1     144.008 146.157 130.868  1.00  0.00     0.039 C 
ENDROOT
BRANCH   1   2
ATOM      2  C   UNL     1     144.629 144.770 130.652  1.00  0.00     0.032 C 
BRANCH   2   3
ATOM      3  C   UNL     1     146.025 144.698 131.224  1.00  0.00    -0.028 C 
ATOM      4  C   UNL     1     145.379 143.145 133.082  1.00  0.00     0.039 C 
ATOM      5  C   UNL     1     146.380 143.958 132.299  1.00  0.00    -0.080 C 
ATOM      6  C   UNL     1     147.820 143.919 132.740  1.00  0.00     0.039 C 
ENDBRANCH   2   3
ENDBRANCH   1   2
BRANCH   1   7
ATOM      7  C   UNL     1     143.934 146.525 132.336  1.00  0.00    -0.055 C 
ATOM      8  C   UNL     1     143.034 145.915 133.115  1.00  0.00     0.012 C 
BRANCH   7   9
ATOM      9  C   UNL     1     144.855 147.515 132.953  1.00  0.00    -0.005 C 
ATOM     10  C   UNL     1     145.656 147.245 133.985  1.00  0.00     0.009 C 
ENDBRANCH   7   9
ENDBRANCH   1   7
TORSDOF 4
ENDMDL
