MODEL 1
REMARK VINA RESULT:    -3.555      0.000      0.000
REMARK INTER + INTRA:          -3.619
REMARK INTER:                  -3.867
REMARK INTRA:                   0.248
REMARK UNBOUND:                 0.248
REMARK SMILES COc1cc2ccc(=O)oc2cc1O
REMARK SMILES IDX 3 1 13 2 12 3 11 4 5 5 4 6 6 7 7 8 8 9 9 10 10 11 2 12 1 13
REMARK SMILES IDX 14 14
REMARK H PARENT 14 15
REMARK Flexibility Score: inf
ROOT
ATOM      1  C   UNL     1      11.600  -3.175  10.842  1.00  0.00     0.161 A 
ATOM      2  C   UNL     1      11.210  -1.828  10.871  1.00  0.00     0.161 A 
ATOM      3  C   UNL     1      12.082  -0.848  11.365  1.00  0.00     0.098 A 
ATOM      4  C   UNL     1      13.349  -1.204  11.832  1.00  0.00     0.142 A 
ATOM      5  C   UNL     1      13.750  -2.557  11.807  1.00  0.00     0.022 A 
ATOM      6  C   UNL     1      12.879  -3.537  11.314  1.00  0.00     0.062 A 
ATOM      7  C   UNL     1      15.025  -2.882  12.282  1.00  0.00     0.019 A 
ATOM      8  C   UNL     1      15.856  -1.871  12.763  1.00  0.00     0.094 A 
ATOM      9  C   UNL     1      15.390  -0.552  12.758  1.00  0.00     0.336 A 
ATOM     10  O   UNL     1      16.125   0.375  13.188  1.00  0.00    -0.246 OA
ATOM     11  O   UNL     1      14.173  -0.270  12.300  1.00  0.00    -0.423 OA
ENDROOT
BRANCH   1  12
ATOM     12  O   UNL     1      10.694  -4.123  10.339  1.00  0.00    -0.493 OA
ATOM     13  C   UNL     1      10.186  -4.125   9.009  1.00  0.00     0.278 C 
ENDBRANCH   1  12
BRANCH   2  14
ATOM     14  O   UNL     1       9.945  -1.469  10.406  1.00  0.00    -0.504 OA
ATOM     15  H   UNL     1       9.202  -1.199  11.040  1.00  0.00     0.293 HD
ENDBRANCH   2  14
TORSDOF 2
ENDMDL
MODEL 2
REMARK VINA RESULT:    -2.942      1.415      5.385
REMARK INTER + INTRA:          -2.952
REMARK INTER:                  -2.907
REMARK INTRA:                  -0.045
REMARK UNBOUND:                 0.248
REMARK SMILES COc1cc2ccc(=O)oc2cc1O
REMARK SMILES IDX 3 1 13 2 12 3 11 4 5 5 4 6 6 7 7 8 8 9 9 10 10 11 2 12 1 13
REMARK SMILES IDX 14 14
REMARK H PARENT 14 15
REMARK Flexibility Score: inf
ROOT
ATOM      1  C   UNL     1      14.910  -1.633  12.659  1.00  0.00     0.161 A 
ATOM      2  C   UNL     1      15.003  -3.033  12.617  1.00  0.00     0.161 A 
ATOM      3  C   UNL     1      13.976  -3.794  12.040  1.00  0.00     0.098 A 
ATOM      4  C   UNL     1      12.851  -3.165  11.502  1.00  0.00     0.142 A 
ATOM      5  C   UNL     1      12.749  -1.759  11.541  1.00  0.00     0.022 A 
ATOM      6  C   UNL     1      13.775  -0.997  12.118  1.00  0.00     0.062 A 
ATOM      7  C   UNL     1      11.610  -1.158  10.995  1.00  0.00     0.019 A 
ATOM      8  C   UNL     1      10.617  -1.959  10.432  1.00  0.00     0.094 A 
ATOM      9  C   UNL     1      10.786  -3.347  10.429  1.00  0.00     0.336 A 
ATOM     10  O   UNL     1       9.901  -4.087   9.926  1.00  0.00    -0.246 OA
ATOM     11  O   UNL     1      11.880  -3.893  10.956  1.00  0.00    -0.423 OA
ENDROOT
BRANCH   1  12
ATOM     12  O   UNL     1      15.962  -0.912  13.247  1.00  0.00    -0.493 OA
ATOM     13  C   UNL     1      16.125   0.499  13.148  1.00  0.00     0.278 C 
ENDBRANCH   1  12
BRANCH   2  14
ATOM     14  O   UNL     1      16.125  -3.664  13.153  1.00  0.00    -0.504 OA
ATOM     15  H   UNL     1      16.827  -3.149  13.671  1.00  0.00     0.293 HD
ENDBRANCH   2  14
TORSDOF 2
ENDMDL
MODEL 3
REMARK VINA RESULT:    -0.824      1.395      4.895
REMARK INTER + INTRA:          -0.648
REMARK INTER:                  -0.585
REMARK INTRA:                  -0.063
REMARK UNBOUND:                 0.248
REMARK SMILES COc1cc2ccc(=O)oc2cc1O
REMARK SMILES IDX 3 1 13 2 12 3 11 4 5 5 4 6 6 7 7 8 8 9 9 10 10 11 2 12 1 13
REMARK SMILES IDX 14 14
REMARK H PARENT 14 15
REMARK Flexibility Score: inf
ROOT
ATOM      1  C   UNL     1      14.830  -2.477  12.698  1.00  0.00     0.161 A 
ATOM      2  C   UNL     1      14.498  -1.128  12.497  1.00  0.00     0.161 A 
ATOM      3  C   UNL     1      13.305  -0.780  11.848  1.00  0.00     0.098 A 
ATOM      4  C   UNL     1      12.435  -1.775  11.396  1.00  0.00     0.142 A 
ATOM      5  C   UNL     1      12.760  -3.134  11.593  1.00  0.00     0.022 A 
ATOM      6  C   UNL     1      13.953  -3.482  12.242  1.00  0.00     0.062 A 
ATOM      7  C   UNL     1      11.869  -4.106  11.128  1.00  0.00     0.019 A 
ATOM      8  C   UNL     1      10.694  -3.710  10.490  1.00  0.00     0.094 A 
ATOM      9  C   UNL     1      10.439  -2.344  10.329  1.00  0.00     0.336 A 
ATOM     10  O   UNL     1       9.385  -1.966   9.754  1.00  0.00    -0.246 OA
ATOM     11  O   UNL     1      11.304  -1.440  10.780  1.00  0.00    -0.423 OA
ENDROOT
BRANCH   1  12
ATOM     12  O   UNL     1      16.035  -2.778  13.353  1.00  0.00    -0.493 OA
ATOM     13  C   UNL     1      16.125  -3.400  14.630  1.00  0.00     0.278 C 
ENDBRANCH   1  12
BRANCH   2  14
ATOM     14  O   UNL     1      15.365  -0.133  12.948  1.00  0.00    -0.504 OA
ATOM     15  H   UNL     1      15.314   0.816  12.595  1.00  0.00     0.293 HD
ENDBRANCH   2  14
TORSDOF 2
ENDMDL
