MODEL 1
REMARK VINA RESULT:    -3.337      0.000      0.000
REMARK INTER + INTRA:          -7.822
REMARK INTER:                  -5.678
REMARK INTRA:                  -2.144
REMARK UNBOUND:                -2.144
REMARK SMILES CCCCCCCCCCCCCC(=O)[O-]
REMARK SMILES IDX 8 1 9 2 10 3 11 4 12 5 13 6 14 7 15 8 16 9 7 10 6 11 5 12
REMARK SMILES IDX 4 13 3 14 2 15 1 16
REMARK H PARENT
REMARK Flexibility Score: inf
ROOT
ATOM      1  C   UNL     1       2.168   9.844  39.014  1.00  0.00     0.000 C 
ENDROOT
BRANCH   1   2
ATOM      2  C   UNL     1       1.550   8.682  39.810  1.00  0.00     0.000 C 
BRANCH   2   3
ATOM      3  C   UNL     1       0.136   8.999  40.327  1.00  0.00     0.000 C 
BRANCH   3   4
ATOM      4  C   UNL     1      -0.820   9.412  39.189  1.00  0.00     0.000 C 
BRANCH   4   5
ATOM      5  C   UNL     1      -1.999   8.443  38.994  1.00  0.00     0.006 C 
BRANCH   5   6
ATOM      6  C   UNL     1      -2.460   7.793  40.303  1.00  0.00     0.053 C 
BRANCH   6   7
ATOM      7  C   UNL     1      -2.472   6.303  40.172  1.00  0.00     0.041 C 
ATOM      8  O   UNL     1      -3.298   5.741  39.406  1.00  0.00    -0.550 OA
ATOM      9  O   UNL     1      -1.538   5.538  40.859  1.00  0.00    -0.550 OA
ENDBRANCH   6   7
ENDBRANCH   5   6
ENDBRANCH   4   5
ENDBRANCH   3   4
ENDBRANCH   2   3
ENDBRANCH   1   2
BRANCH   1  10
ATOM     10  C   UNL     1       2.586   9.430  37.593  1.00  0.00     0.000 C 
BRANCH  10  11
ATOM     11  C   UNL     1       1.659  10.010  36.512  1.00  0.00    -0.000 C 
BRANCH  11  12
ATOM     12  C   UNL     1       0.816   8.933  35.808  1.00  0.00    -0.000 C 
BRANCH  12  13
ATOM     13  C   UNL     1       1.280   7.504  36.166  1.00  0.00    -0.000 C 
BRANCH  13  14
ATOM     14  C   UNL     1       0.150   6.604  36.701  1.00  0.00    -0.000 C 
BRANCH  14  15
ATOM     15  C   UNL     1       0.517   5.790  37.952  1.00  0.00    -0.003 C 
ATOM     16  C   UNL     1       2.014   5.494  38.049  1.00  0.00     0.004 C 
ENDBRANCH  14  15
ENDBRANCH  13  14
ENDBRANCH  12  13
ENDBRANCH  11  12
ENDBRANCH  10  11
ENDBRANCH   1  10
TORSDOF 12
ENDMDL
MODEL 2
REMARK VINA RESULT:    -3.315      1.728      3.267
REMARK INTER + INTRA:          -7.785
REMARK INTER:                  -6.060
REMARK INTRA:                  -1.725
REMARK UNBOUND:                -2.144
REMARK SMILES CCCCCCCCCCCCCC(=O)[O-]
REMARK SMILES IDX 8 1 9 2 10 3 11 4 12 5 13 6 14 7 15 8 16 9 7 10 6 11 5 12
REMARK SMILES IDX 4 13 3 14 2 15 1 16
REMARK H PARENT
REMARK Flexibility Score: inf
ROOT
ATOM      1  C   UNL     1      -0.266   9.412  36.601  1.00  0.00     0.000 C 
ENDROOT
BRANCH   1   2
ATOM      2  C   UNL     1      -1.420  10.077  37.369  1.00  0.00     0.000 C 
BRANCH   2   3
ATOM      3  C   UNL     1      -1.926   9.222  38.544  1.00  0.00     0.000 C 
BRANCH   3   4
ATOM      4  C   UNL     1      -1.451   7.757  38.442  1.00  0.00     0.000 C 
BRANCH   4   5
ATOM      5  C   UNL     1      -2.068   6.835  39.508  1.00  0.00     0.006 C 
BRANCH   5   6
ATOM      6  C   UNL     1      -2.528   7.593  40.759  1.00  0.00     0.053 C 
BRANCH   6   7
ATOM      7  C   UNL     1      -2.247   6.791  41.990  1.00  0.00     0.041 C 
ATOM      8  O   UNL     1      -2.298   7.334  43.125  1.00  0.00    -0.550 OA
ATOM      9  O   UNL     1      -1.976   5.433  41.887  1.00  0.00    -0.550 OA
ENDBRANCH   6   7
ENDBRANCH   5   6
ENDBRANCH   4   5
ENDBRANCH   3   4
ENDBRANCH   2   3
ENDBRANCH   1   2
BRANCH   1  10
ATOM     10  C   UNL     1       1.079  10.125  36.823  1.00  0.00     0.000 C 
BRANCH  10  11
ATOM     11  C   UNL     1       2.223   9.146  37.132  1.00  0.00    -0.000 C 
BRANCH  11  12
ATOM     12  C   UNL     1       2.195   8.635  38.583  1.00  0.00    -0.000 C 
BRANCH  12  13
ATOM     13  C   UNL     1       1.867   9.759  39.590  1.00  0.00    -0.000 C 
BRANCH  13  14
ATOM     14  C   UNL     1       0.801   9.364  40.631  1.00  0.00    -0.000 C 
BRANCH  14  15
ATOM     15  C   UNL     1       1.139   8.107  41.449  1.00  0.00    -0.003 C 
ATOM     16  C   UNL     1       1.477   8.422  42.907  1.00  0.00     0.004 C 
ENDBRANCH  14  15
ENDBRANCH  13  14
ENDBRANCH  12  13
ENDBRANCH  11  12
ENDBRANCH  10  11
ENDBRANCH   1  10
TORSDOF 12
ENDMDL
MODEL 3
REMARK VINA RESULT:    -3.295      1.894      2.623
REMARK INTER + INTRA:          -7.750
REMARK INTER:                  -5.634
REMARK INTRA:                  -2.117
REMARK UNBOUND:                -2.144
REMARK SMILES CCCCCCCCCCCCCC(=O)[O-]
REMARK SMILES IDX 8 1 9 2 10 3 11 4 12 5 13 6 14 7 15 8 16 9 7 10 6 11 5 12
REMARK SMILES IDX 4 13 3 14 2 15 1 16
REMARK H PARENT
REMARK Flexibility Score: inf
ROOT
ATOM      1  C   UNL     1       0.352   9.869  39.385  1.00  0.00     0.000 C 
ENDROOT
BRANCH   1   2
ATOM      2  C   UNL     1      -0.473   9.978  38.091  1.00  0.00     0.000 C 
BRANCH   2   3
ATOM      3  C   UNL     1      -1.723   9.081  38.103  1.00  0.00     0.000 C 
BRANCH   3   4
ATOM      4  C   UNL     1      -2.228   8.807  39.535  1.00  0.00     0.000 C 
BRANCH   4   5
ATOM      5  C   UNL     1      -2.564   7.328  39.796  1.00  0.00     0.006 C 
BRANCH   5   6
ATOM      6  C   UNL     1      -1.781   6.736  40.973  1.00  0.00     0.053 C 
BRANCH   6   7
ATOM      7  C   UNL     1      -1.809   7.670  42.142  1.00  0.00     0.041 C 
ATOM      8  O   UNL     1      -2.877   7.850  42.784  1.00  0.00    -0.550 OA
ATOM      9  O   UNL     1      -0.644   8.305  42.551  1.00  0.00    -0.550 OA
ENDBRANCH   6   7
ENDBRANCH   5   6
ENDBRANCH   4   5
ENDBRANCH   3   4
ENDBRANCH   2   3
ENDBRANCH   1   2
BRANCH   1  10
ATOM     10  C   UNL     1       1.860   9.739  39.114  1.00  0.00     0.000 C 
BRANCH  10  11
ATOM     11  C   UNL     1       2.263   8.318  38.686  1.00  0.00    -0.000 C 
BRANCH  11  12
ATOM     12  C   UNL     1       1.494   7.225  39.448  1.00  0.00    -0.000 C 
BRANCH  12  13
ATOM     13  C   UNL     1       1.184   6.002  38.558  1.00  0.00    -0.000 C 
BRANCH  13  14
ATOM     14  C   UNL     1       0.375   6.348  37.293  1.00  0.00    -0.000 C 
BRANCH  14  15
ATOM     15  C   UNL     1      -0.796   5.396  37.001  1.00  0.00    -0.003 C 
ATOM     16  C   UNL     1      -1.019   4.370  38.112  1.00  0.00     0.004 C 
ENDBRANCH  14  15
ENDBRANCH  13  14
ENDBRANCH  12  13
ENDBRANCH  11  12
ENDBRANCH  10  11
ENDBRANCH   1  10
TORSDOF 12
ENDMDL
MODEL 4
REMARK VINA RESULT:    -3.278      2.319      4.535
REMARK INTER + INTRA:          -7.721
REMARK INTER:                  -5.698
REMARK INTRA:                  -2.023
REMARK UNBOUND:                -2.144
REMARK SMILES CCCCCCCCCCCCCC(=O)[O-]
REMARK SMILES IDX 8 1 9 2 10 3 11 4 12 5 13 6 14 7 15 8 16 9 7 10 6 11 5 12
REMARK SMILES IDX 4 13 3 14 2 15 1 16
REMARK H PARENT
REMARK Flexibility Score: inf
ROOT
ATOM      1  C   UNL     1      -1.752   9.623  38.064  1.00  0.00     0.000 C 
ENDROOT
BRANCH   1   2
ATOM      2  C   UNL     1      -1.259   9.178  36.677  1.00  0.00     0.000 C 
BRANCH   2   3
ATOM      3  C   UNL     1       0.272   9.233  36.542  1.00  0.00     0.000 C 
BRANCH   3   4
ATOM      4  C   UNL     1       0.893   7.829  36.383  1.00  0.00     0.000 C 
BRANCH   4   5
ATOM      5  C   UNL     1       2.191   7.636  37.187  1.00  0.00     0.006 C 
BRANCH   5   6
ATOM      6  C   UNL     1       1.972   6.872  38.498  1.00  0.00     0.053 C 
BRANCH   6   7
ATOM      7  C   UNL     1       2.700   5.565  38.469  1.00  0.00     0.041 C 
ATOM      8  O   UNL     1       2.356   4.631  39.240  1.00  0.00    -0.550 OA
ATOM      9  O   UNL     1       3.727   5.362  37.556  1.00  0.00    -0.550 OA
ENDBRANCH   6   7
ENDBRANCH   5   6
ENDBRANCH   4   5
ENDBRANCH   3   4
ENDBRANCH   2   3
ENDBRANCH   1   2
BRANCH   1  10
ATOM     10  C   UNL     1      -0.728   9.337  39.175  1.00  0.00     0.000 C 
BRANCH  10  11
ATOM     11  C   UNL     1      -1.188   8.223  40.130  1.00  0.00    -0.000 C 
BRANCH  11  12
ATOM     12  C   UNL     1      -2.606   7.716  39.817  1.00  0.00    -0.000 C 
BRANCH  12  13
ATOM     13  C   UNL     1      -2.652   6.183  39.639  1.00  0.00    -0.000 C 
BRANCH  13  14
ATOM     14  C   UNL     1      -1.444   5.614  38.870  1.00  0.00    -0.000 C 
BRANCH  14  15
ATOM     15  C   UNL     1      -1.696   5.362  37.375  1.00  0.00    -0.003 C 
ATOM     16  C   UNL     1      -0.624   4.481  36.734  1.00  0.00     0.004 C 
ENDBRANCH  14  15
ENDBRANCH  13  14
ENDBRANCH  12  13
ENDBRANCH  11  12
ENDBRANCH  10  11
ENDBRANCH   1  10
TORSDOF 12
ENDMDL
MODEL 5
REMARK VINA RESULT:    -3.258      2.898      4.654
REMARK INTER + INTRA:          -7.688
REMARK INTER:                  -5.723
REMARK INTRA:                  -1.965
REMARK UNBOUND:                -2.144
REMARK SMILES CCCCCCCCCCCCCC(=O)[O-]
REMARK SMILES IDX 8 1 9 2 10 3 11 4 12 5 13 6 14 7 15 8 16 9 7 10 6 11 5 12
REMARK SMILES IDX 4 13 3 14 2 15 1 16
REMARK H PARENT
REMARK Flexibility Score: inf
ROOT
ATOM      1  C   UNL     1       0.203   9.149  40.093  1.00  0.00     0.000 C 
ENDROOT
BRANCH   1   2
ATOM      2  C   UNL     1       1.577   8.721  39.550  1.00  0.00     0.000 C 
BRANCH   2   3
ATOM      3  C   UNL     1       2.292   9.848  38.784  1.00  0.00     0.000 C 
BRANCH   3   4
ATOM      4  C   UNL     1       2.399   9.547  37.274  1.00  0.00     0.000 C 
BRANCH   4   5
ATOM      5  C   UNL     1       1.916   8.137  36.892  1.00  0.00     0.006 C 
BRANCH   5   6
ATOM      6  C   UNL     1       0.884   8.146  35.759  1.00  0.00     0.053 C 
BRANCH   6   7
ATOM      7  C   UNL     1       1.488   7.616  34.497  1.00  0.00     0.041 C 
ATOM      8  O   UNL     1       1.929   6.438  34.452  1.00  0.00    -0.550 OA
ATOM      9  O   UNL     1       1.520   8.408  33.356  1.00  0.00    -0.550 OA
ENDBRANCH   6   7
ENDBRANCH   5   6
ENDBRANCH   4   5
ENDBRANCH   3   4
ENDBRANCH   2   3
ENDBRANCH   1   2
BRANCH   1  10
ATOM     10  C   UNL     1      -0.690   9.780  39.012  1.00  0.00     0.000 C 
BRANCH  10  11
ATOM     11  C   UNL     1      -1.845   8.858  38.587  1.00  0.00    -0.000 C 
BRANCH  11  12
ATOM     12  C   UNL     1      -2.312   7.927  39.718  1.00  0.00    -0.000 C 
BRANCH  12  13
ATOM     13  C   UNL     1      -2.202   6.436  39.330  1.00  0.00    -0.000 C 
BRANCH  13  14
ATOM     14  C   UNL     1      -1.290   6.180  38.115  1.00  0.00    -0.000 C 
BRANCH  14  15
ATOM     15  C   UNL     1      -0.047   5.326  38.414  1.00  0.00    -0.003 C 
ATOM     16  C   UNL     1       0.317   5.309  39.899  1.00  0.00     0.004 C 
ENDBRANCH  14  15
ENDBRANCH  13  14
ENDBRANCH  12  13
ENDBRANCH  11  12
ENDBRANCH  10  11
ENDBRANCH   1  10
TORSDOF 12
ENDMDL
MODEL 6
REMARK VINA RESULT:    -3.235      2.322      4.273
REMARK INTER + INTRA:          -7.649
REMARK INTER:                  -5.405
REMARK INTRA:                  -2.244
REMARK UNBOUND:                -2.144
REMARK SMILES CCCCCCCCCCCCCC(=O)[O-]
REMARK SMILES IDX 8 1 9 2 10 3 11 4 12 5 13 6 14 7 15 8 16 9 7 10 6 11 5 12
REMARK SMILES IDX 4 13 3 14 2 15 1 16
REMARK H PARENT
REMARK Flexibility Score: inf
ROOT
ATOM      1  C   UNL     1      -1.744   8.898  38.379  1.00  0.00     0.000 C 
ENDROOT
BRANCH   1   2
ATOM      2  C   UNL     1      -2.337   8.331  39.681  1.00  0.00     0.000 C 
BRANCH   2   3
ATOM      3  C   UNL     1      -2.416   6.795  39.681  1.00  0.00     0.000 C 
BRANCH   3   4
ATOM      4  C   UNL     1      -1.537   6.168  38.578  1.00  0.00     0.000 C 
BRANCH   4   5
ATOM      5  C   UNL     1      -0.205   5.602  39.100  1.00  0.00     0.006 C 
BRANCH   5   6
ATOM      6  C   UNL     1       1.004   6.073  38.283  1.00  0.00     0.053 C 
BRANCH   6   7
ATOM      7  C   UNL     1       0.722   5.958  36.818  1.00  0.00     0.041 C 
ATOM      8  O   UNL     1       0.657   6.993  36.103  1.00  0.00    -0.550 OA
ATOM      9  O   UNL     1       0.580   4.707  36.235  1.00  0.00    -0.550 OA
ENDBRANCH   6   7
ENDBRANCH   5   6
ENDBRANCH   4   5
ENDBRANCH   3   4
ENDBRANCH   2   3
ENDBRANCH   1   2
BRANCH   1  10
ATOM     10  C   UNL     1      -0.805  10.089  38.628  1.00  0.00     0.000 C 
BRANCH  10  11
ATOM     11  C   UNL     1       0.584   9.889  37.998  1.00  0.00    -0.000 C 
BRANCH  11  12
ATOM     12  C   UNL     1       1.685   9.652  39.045  1.00  0.00    -0.000 C 
BRANCH  12  13
ATOM     13  C   UNL     1       1.141   9.715  40.488  1.00  0.00    -0.000 C 
BRANCH  13  14
ATOM     14  C   UNL     1       1.169   8.358  41.218  1.00  0.00    -0.000 C 
BRANCH  14  15
ATOM     15  C   UNL     1       0.189   8.243  42.396  1.00  0.00    -0.003 C 
ATOM     16  C   UNL     1      -0.189   6.796  42.713  1.00  0.00     0.004 C 
ENDBRANCH  14  15
ENDBRANCH  13  14
ENDBRANCH  12  13
ENDBRANCH  11  12
ENDBRANCH  10  11
ENDBRANCH   1  10
TORSDOF 12
ENDMDL
MODEL 7
REMARK VINA RESULT:    -3.228      1.264      2.240
REMARK INTER + INTRA:          -7.637
REMARK INTER:                  -5.517
REMARK INTRA:                  -2.120
REMARK UNBOUND:                -2.144
REMARK SMILES CCCCCCCCCCCCCC(=O)[O-]
REMARK SMILES IDX 8 1 9 2 10 3 11 4 12 5 13 6 14 7 15 8 16 9 7 10 6 11 5 12
REMARK SMILES IDX 4 13 3 14 2 15 1 16
REMARK H PARENT
REMARK Flexibility Score: inf
ROOT
ATOM      1  C   UNL     1      -0.864   9.457  36.296  1.00  0.00     0.000 C 
ENDROOT
BRANCH   1   2
ATOM      2  C   UNL     1      -1.489  10.121  37.535  1.00  0.00     0.000 C 
BRANCH   2   3
ATOM      3  C   UNL     1      -1.887   9.104  38.619  1.00  0.00     0.000 C 
BRANCH   3   4
ATOM      4  C   UNL     1      -0.821   8.992  39.729  1.00  0.00     0.000 C 
BRANCH   4   5
ATOM      5  C   UNL     1      -1.163   7.948  40.807  1.00  0.00     0.006 C 
BRANCH   5   6
ATOM      6  C   UNL     1      -2.420   7.136  40.473  1.00  0.00     0.053 C 
BRANCH   6   7
ATOM      7  C   UNL     1      -2.238   5.704  40.864  1.00  0.00     0.041 C 
ATOM      8  O   UNL     1      -2.987   4.815  40.381  1.00  0.00    -0.550 OA
ATOM      9  O   UNL     1      -1.209   5.345  41.725  1.00  0.00    -0.550 OA
ENDBRANCH   6   7
ENDBRANCH   5   6
ENDBRANCH   4   5
ENDBRANCH   3   4
ENDBRANCH   2   3
ENDBRANCH   1   2
BRANCH   1  10
ATOM     10  C   UNL     1       0.519  10.034  35.952  1.00  0.00     0.000 C 
BRANCH  10  11
ATOM     11  C   UNL     1       1.576   9.714  37.023  1.00  0.00    -0.000 C 
BRANCH  11  12
ATOM     12  C   UNL     1       2.109   8.275  36.923  1.00  0.00    -0.000 C 
BRANCH  12  13
ATOM     13  C   UNL     1       2.048   7.536  38.278  1.00  0.00    -0.000 C 
BRANCH  13  14
ATOM     14  C   UNL     1       1.154   6.281  38.258  1.00  0.00    -0.000 C 
BRANCH  14  15
ATOM     15  C   UNL     1       0.307   6.117  36.985  1.00  0.00    -0.003 C 
ATOM     16  C   UNL     1      -1.123   5.666  37.280  1.00  0.00     0.004 C 
ENDBRANCH  14  15
ENDBRANCH  13  14
ENDBRANCH  12  13
ENDBRANCH  11  12
ENDBRANCH  10  11
ENDBRANCH   1  10
TORSDOF 12
ENDMDL
MODEL 8
REMARK VINA RESULT:    -3.199      1.522      2.921
REMARK INTER + INTRA:          -7.588
REMARK INTER:                  -5.387
REMARK INTRA:                  -2.201
REMARK UNBOUND:                -2.144
REMARK SMILES CCCCCCCCCCCCCC(=O)[O-]
REMARK SMILES IDX 8 1 9 2 10 3 11 4 12 5 13 6 14 7 15 8 16 9 7 10 6 11 5 12
REMARK SMILES IDX 4 13 3 14 2 15 1 16
REMARK H PARENT
REMARK Flexibility Score: inf
ROOT
ATOM      1  C   UNL     1       2.079   9.289  37.558  1.00  0.00     0.000 C 
ENDROOT
BRANCH   1   2
ATOM      2  C   UNL     1       1.063  10.063  36.700  1.00  0.00     0.000 C 
BRANCH   2   3
ATOM      3  C   UNL     1      -0.386   9.596  36.925  1.00  0.00     0.000 C 
BRANCH   3   4
ATOM      4  C   UNL     1      -0.929  10.032  38.302  1.00  0.00     0.000 C 
BRANCH   4   5
ATOM      5  C   UNL     1      -1.249   8.853  39.237  1.00  0.00     0.006 C 
BRANCH   5   6
ATOM      6  C   UNL     1      -0.312   8.781  40.449  1.00  0.00     0.053 C 
BRANCH   6   7
ATOM      7  C   UNL     1      -0.741   7.690  41.378  1.00  0.00     0.041 C 
ATOM      8  O   UNL     1      -0.013   6.676  41.542  1.00  0.00    -0.550 OA
ATOM      9  O   UNL     1      -1.921   7.816  42.100  1.00  0.00    -0.550 OA
ENDBRANCH   6   7
ENDBRANCH   5   6
ENDBRANCH   4   5
ENDBRANCH   3   4
ENDBRANCH   2   3
ENDBRANCH   1   2
BRANCH   1  10
ATOM     10  C   UNL     1       2.140   7.796  37.197  1.00  0.00     0.000 C 
BRANCH  10  11
ATOM     11  C   UNL     1       2.019   6.884  38.429  1.00  0.00    -0.000 C 
BRANCH  11  12
ATOM     12  C   UNL     1       0.993   5.754  38.236  1.00  0.00    -0.000 C 
BRANCH  12  13
ATOM     13  C   UNL     1       0.061   6.011  37.032  1.00  0.00    -0.000 C 
BRANCH  13  14
ATOM     14  C   UNL     1      -1.410   5.644  37.301  1.00  0.00    -0.000 C 
BRANCH  14  15
ATOM     15  C   UNL     1      -1.685   5.078  38.704  1.00  0.00    -0.003 C 
ATOM     16  C   UNL     1      -2.942   5.665  39.344  1.00  0.00     0.004 C 
ENDBRANCH  14  15
ENDBRANCH  13  14
ENDBRANCH  12  13
ENDBRANCH  11  12
ENDBRANCH  10  11
ENDBRANCH   1  10
TORSDOF 12
ENDMDL
MODEL 9
REMARK VINA RESULT:    -3.179      2.474      4.682
REMARK INTER + INTRA:          -7.552
REMARK INTER:                  -5.494
REMARK INTRA:                  -2.058
REMARK UNBOUND:                -2.144
REMARK SMILES CCCCCCCCCCCCCC(=O)[O-]
REMARK SMILES IDX 8 1 9 2 10 3 11 4 12 5 13 6 14 7 15 8 16 9 7 10 6 11 5 12
REMARK SMILES IDX 4 13 3 14 2 15 1 16
REMARK H PARENT
REMARK Flexibility Score: inf
ROOT
ATOM      1  C   UNL     1      -1.609   9.508  38.580  1.00  0.00     0.000 C 
ENDROOT
BRANCH   1   2
ATOM      2  C   UNL     1      -0.165  10.034  38.499  1.00  0.00     0.000 C 
BRANCH   2   3
ATOM      3  C   UNL     1       0.672   9.672  39.738  1.00  0.00     0.000 C 
BRANCH   3   4
ATOM      4  C   UNL     1       1.930   8.858  39.371  1.00  0.00     0.000 C 
BRANCH   4   5
ATOM      5  C   UNL     1       2.169   8.745  37.855  1.00  0.00     0.006 C 
BRANCH   5   6
ATOM      6  C   UNL     1       2.198   7.294  37.362  1.00  0.00     0.053 C 
BRANCH   6   7
ATOM      7  C   UNL     1       1.251   7.112  36.217  1.00  0.00     0.041 C 
ATOM      8  O   UNL     1       0.988   5.957  35.791  1.00  0.00    -0.550 OA
ATOM      9  O   UNL     1       0.622   8.215  35.654  1.00  0.00    -0.550 OA
ENDBRANCH   6   7
ENDBRANCH   5   6
ENDBRANCH   4   5
ENDBRANCH   3   4
ENDBRANCH   2   3
ENDBRANCH   1   2
BRANCH   1  10
ATOM     10  C   UNL     1      -1.672   7.988  38.800  1.00  0.00     0.000 C 
BRANCH  10  11
ATOM     11  C   UNL     1      -2.644   7.593  39.924  1.00  0.00    -0.000 C 
BRANCH  11  12
ATOM     12  C   UNL     1      -1.970   7.541  41.305  1.00  0.00    -0.000 C 
BRANCH  12  13
ATOM     13  C   UNL     1      -1.222   6.210  41.540  1.00  0.00    -0.000 C 
BRANCH  13  14
ATOM     14  C   UNL     1       0.312   6.354  41.535  1.00  0.00    -0.000 C 
BRANCH  14  15
ATOM     15  C   UNL     1       1.036   5.463  40.514  1.00  0.00    -0.003 C 
ATOM     16  C   UNL     1       0.098   4.900  39.446  1.00  0.00     0.004 C 
ENDBRANCH  14  15
ENDBRANCH  13  14
ENDBRANCH  12  13
ENDBRANCH  11  12
ENDBRANCH  10  11
ENDBRANCH   1  10
TORSDOF 12
ENDMDL
