MODEL 1
REMARK VINA RESULT:    -0.970      0.000      0.000
REMARK INTER + INTRA:          -2.908
REMARK INTER:                  -1.537
REMARK INTRA:                  -1.371
REMARK UNBOUND:                -1.371
REMARK SMILES CCCCCCCCCCCC(=O)[O-]
REMARK SMILES IDX 7 1 8 2 9 3 10 4 11 5 12 6 13 7 14 8 6 9 5 10 4 11 3 12 2 13
REMARK SMILES IDX 1 14
REMARK H PARENT
REMARK Flexibility Score: inf
ROOT
ATOM      1  C   UNL     1      38.334   3.708  41.763  1.00  0.00     0.000 C 
ENDROOT
BRANCH   1   2
ATOM      2  C   UNL     1      39.312   3.807  40.586  1.00  0.00     0.000 C 
BRANCH   2   3
ATOM      3  C   UNL     1      38.631   4.413  39.352  1.00  0.00     0.000 C 
BRANCH   3   4
ATOM      4  C   UNL     1      37.299   5.072  39.727  1.00  0.00     0.006 C 
BRANCH   4   5
ATOM      5  C   UNL     1      37.355   6.587  39.505  1.00  0.00     0.053 C 
BRANCH   5   6
ATOM      6  C   UNL     1      38.148   7.246  40.589  1.00  0.00     0.041 C 
ATOM      7  O   UNL     1      37.696   7.296  41.763  1.00  0.00    -0.550 OA
ATOM      8  O   UNL     1      39.407   7.762  40.314  1.00  0.00    -0.550 OA
ENDBRANCH   5   6
ENDBRANCH   4   5
ENDBRANCH   3   4
ENDBRANCH   2   3
ENDBRANCH   1   2
BRANCH   1   9
ATOM      9  C   UNL     1      37.994   2.242  42.072  1.00  0.00     0.000 C 
BRANCH   9  10
ATOM     10  C   UNL     1      36.595   1.842  41.578  1.00  0.00    -0.000 C 
BRANCH  10  11
ATOM     11  C   UNL     1      35.489   2.758  42.125  1.00  0.00    -0.000 C 
BRANCH  11  12
ATOM     12  C   UNL     1      34.465   3.094  41.034  1.00  0.00    -0.000 C 
BRANCH  12  13
ATOM     13  C   UNL     1      33.795   4.446  41.305  1.00  0.00    -0.003 C 
ATOM     14  C   UNL     1      34.706   5.360  42.117  1.00  0.00     0.004 C 
ENDBRANCH  12  13
ENDBRANCH  11  12
ENDBRANCH  10  11
ENDBRANCH   9  10
ENDBRANCH   1   9
TORSDOF 10
ENDMDL
MODEL 2
REMARK VINA RESULT:    -0.968      2.951      5.454
REMARK INTER + INTRA:          -2.904
REMARK INTER:                  -1.334
REMARK INTRA:                  -1.570
REMARK UNBOUND:                -1.371
REMARK SMILES CCCCCCCCCCCC(=O)[O-]
REMARK SMILES IDX 7 1 8 2 9 3 10 4 11 5 12 6 13 7 14 8 6 9 5 10 4 11 3 12 2 13
REMARK SMILES IDX 1 14
REMARK H PARENT
REMARK Flexibility Score: inf
ROOT
ATOM      1  C   UNL     1      40.201   3.126  37.967  1.00  0.00     0.000 C 
ENDROOT
BRANCH   1   2
ATOM      2  C   UNL     1      39.641   4.240  38.860  1.00  0.00     0.000 C 
BRANCH   2   3
ATOM      3  C   UNL     1      38.449   3.739  39.685  1.00  0.00     0.000 C 
BRANCH   3   4
ATOM      4  C   UNL     1      38.636   4.058  41.172  1.00  0.00     0.006 C 
BRANCH   4   5
ATOM      5  C   UNL     1      37.921   3.024  42.050  1.00  0.00     0.053 C 
BRANCH   5   6
ATOM      6  C   UNL     1      36.438   3.133  41.884  1.00  0.00     0.041 C 
ATOM      7  O   UNL     1      35.852   4.221  42.122  1.00  0.00    -0.550 OA
ATOM      8  O   UNL     1      35.709   2.047  41.419  1.00  0.00    -0.550 OA
ENDBRANCH   5   6
ENDBRANCH   4   5
ENDBRANCH   3   4
ENDBRANCH   2   3
ENDBRANCH   1   2
BRANCH   1   9
ATOM      9  C   UNL     1      39.988   1.747  38.611  1.00  0.00     0.000 C 
BRANCH   9  10
ATOM     10  C   UNL     1      41.250   1.222  39.314  1.00  0.00    -0.000 C 
BRANCH  10  11
ATOM     11  C   UNL     1      41.189   1.386  40.841  1.00  0.00    -0.000 C 
BRANCH  11  12
ATOM     12  C   UNL     1      42.490   1.991  41.380  1.00  0.00    -0.000 C 
BRANCH  12  13
ATOM     13  C   UNL     1      42.833   3.297  40.653  1.00  0.00    -0.003 C 
ATOM     14  C   UNL     1      42.333   4.510  41.434  1.00  0.00     0.004 C 
ENDBRANCH  12  13
ENDBRANCH  11  12
ENDBRANCH  10  11
ENDBRANCH   9  10
ENDBRANCH   1   9
TORSDOF 10
ENDMDL
MODEL 3
REMARK VINA RESULT:    -0.885      2.378      4.469
REMARK INTER + INTRA:          -2.774
REMARK INTER:                  -1.400
REMARK INTRA:                  -1.374
REMARK UNBOUND:                -1.371
REMARK SMILES CCCCCCCCCCCC(=O)[O-]
REMARK SMILES IDX 7 1 8 2 9 3 10 4 11 5 12 6 13 7 14 8 6 9 5 10 4 11 3 12 2 13
REMARK SMILES IDX 1 14
REMARK H PARENT
REMARK Flexibility Score: inf
ROOT
ATOM      1  C   UNL     1      35.699   3.142  42.125  1.00  0.00     0.000 C 
ENDROOT
BRANCH   1   2
ATOM      2  C   UNL     1      35.607   1.677  41.682  1.00  0.00     0.000 C 
BRANCH   2   3
ATOM      3  C   UNL     1      36.999   1.097  41.400  1.00  0.00     0.000 C 
BRANCH   3   4
ATOM      4  C   UNL     1      38.087   2.157  41.602  1.00  0.00     0.006 C 
BRANCH   4   5
ATOM      5  C   UNL     1      38.751   2.523  40.270  1.00  0.00     0.053 C 
BRANCH   5   6
ATOM      6  C   UNL     1      40.237   2.588  40.427  1.00  0.00     0.041 C 
ATOM      7  O   UNL     1      40.968   1.705  39.907  1.00  0.00    -0.550 OA
ATOM      8  O   UNL     1      40.819   3.651  41.105  1.00  0.00    -0.550 OA
ENDBRANCH   5   6
ENDBRANCH   4   5
ENDBRANCH   3   4
ENDBRANCH   2   3
ENDBRANCH   1   2
BRANCH   1   9
ATOM      9  C   UNL     1      34.963   4.061  41.138  1.00  0.00     0.000 C 
BRANCH   9  10
ATOM     10  C   UNL     1      35.672   5.411  40.945  1.00  0.00    -0.000 C 
BRANCH  10  11
ATOM     11  C   UNL     1      36.778   5.653  41.983  1.00  0.00    -0.000 C 
BRANCH  11  12
ATOM     12  C   UNL     1      38.093   6.048  41.300  1.00  0.00    -0.000 C 
BRANCH  12  13
ATOM     13  C   UNL     1      37.912   6.166  39.782  1.00  0.00    -0.003 C 
ATOM     14  C   UNL     1      39.254   6.098  39.060  1.00  0.00     0.004 C 
ENDBRANCH  12  13
ENDBRANCH  11  12
ENDBRANCH  10  11
ENDBRANCH   9  10
ENDBRANCH   1   9
TORSDOF 10
ENDMDL
MODEL 4
REMARK VINA RESULT:    -0.883      1.650      2.966
REMARK INTER + INTRA:          -2.770
REMARK INTER:                  -1.090
REMARK INTRA:                  -1.679
REMARK UNBOUND:                -1.371
REMARK SMILES CCCCCCCCCCCC(=O)[O-]
REMARK SMILES IDX 7 1 8 2 9 3 10 4 11 5 12 6 13 7 14 8 6 9 5 10 4 11 3 12 2 13
REMARK SMILES IDX 1 14
REMARK H PARENT
REMARK Flexibility Score: inf
ROOT
ATOM      1  C   UNL     1      37.973   3.591  37.863  1.00  0.00     0.000 C 
ENDROOT
BRANCH   1   2
ATOM      2  C   UNL     1      38.423   4.987  38.313  1.00  0.00     0.000 C 
BRANCH   2   3
ATOM      3  C   UNL     1      37.516   5.527  39.425  1.00  0.00     0.000 C 
BRANCH   3   4
ATOM      4  C   UNL     1      38.337   5.959  40.645  1.00  0.00     0.006 C 
BRANCH   4   5
ATOM      5  C   UNL     1      39.837   5.777  40.388  1.00  0.00     0.053 C 
BRANCH   5   6
ATOM      6  C   UNL     1      40.560   7.076  40.565  1.00  0.00     0.041 C 
ATOM      7  O   UNL     1      40.633   7.894  39.612  1.00  0.00    -0.550 OA
ATOM      8  O   UNL     1      41.110   7.403  41.797  1.00  0.00    -0.550 OA
ENDBRANCH   5   6
ENDBRANCH   4   5
ENDBRANCH   3   4
ENDBRANCH   2   3
ENDBRANCH   1   2
BRANCH   1   9
ATOM      9  C   UNL     1      38.897   2.505  38.434  1.00  0.00     0.000 C 
BRANCH   9  10
ATOM     10  C   UNL     1      38.300   1.808  39.667  1.00  0.00    -0.000 C 
BRANCH  10  11
ATOM     11  C   UNL     1      38.974   2.244  40.978  1.00  0.00    -0.000 C 
BRANCH  11  12
ATOM     12  C   UNL     1      37.934   2.456  42.085  1.00  0.00    -0.000 C 
BRANCH  12  13
ATOM     13  C   UNL     1      36.518   2.532  41.502  1.00  0.00    -0.003 C 
ATOM     14  C   UNL     1      35.727   3.679  42.125  1.00  0.00     0.004 C 
ENDBRANCH  12  13
ENDBRANCH  11  12
ENDBRANCH  10  11
ENDBRANCH   9  10
ENDBRANCH   1   9
TORSDOF 10
ENDMDL
MODEL 5
REMARK VINA RESULT:    -0.875      2.876      4.284
REMARK INTER + INTRA:          -2.758
REMARK INTER:                  -1.225
REMARK INTRA:                  -1.532
REMARK UNBOUND:                -1.371
REMARK SMILES CCCCCCCCCCCC(=O)[O-]
REMARK SMILES IDX 7 1 8 2 9 3 10 4 11 5 12 6 13 7 14 8 6 9 5 10 4 11 3 12 2 13
REMARK SMILES IDX 1 14
REMARK H PARENT
REMARK Flexibility Score: inf
ROOT
ATOM      1  C   UNL     1      35.717   3.545  37.841  1.00  0.00     0.000 C 
ENDROOT
BRANCH   1   2
ATOM      2  C   UNL     1      36.138   4.913  38.390  1.00  0.00     0.000 C 
BRANCH   2   3
ATOM      3  C   UNL     1      37.175   4.762  39.510  1.00  0.00     0.000 C 
BRANCH   3   4
ATOM      4  C   UNL     1      37.264   3.308  39.985  1.00  0.00     0.006 C 
BRANCH   4   5
ATOM      5  C   UNL     1      37.871   3.225  41.390  1.00  0.00     0.053 C 
BRANCH   5   6
ATOM      6  C   UNL     1      38.395   1.848  41.653  1.00  0.00     0.041 C 
ATOM      7  O   UNL     1      37.610   0.928  42.003  1.00  0.00    -0.550 OA
ATOM      8  O   UNL     1      39.742   1.569  41.466  1.00  0.00    -0.550 OA
ENDBRANCH   5   6
ENDBRANCH   4   5
ENDBRANCH   3   4
ENDBRANCH   2   3
ENDBRANCH   1   2
BRANCH   1   9
ATOM      9  C   UNL     1      34.205   3.328  38.007  1.00  0.00     0.000 C 
BRANCH   9  10
ATOM     10  C   UNL     1      33.577   4.292  39.027  1.00  0.00    -0.000 C 
BRANCH  10  11
ATOM     11  C   UNL     1      32.988   3.563  40.245  1.00  0.00    -0.000 C 
BRANCH  11  12
ATOM     12  C   UNL     1      33.825   3.831  41.501  1.00  0.00    -0.000 C 
BRANCH  12  13
ATOM     13  C   UNL     1      34.318   2.520  42.124  1.00  0.00    -0.003 C 
ATOM     14  C   UNL     1      34.137   1.350  41.162  1.00  0.00     0.004 C 
ENDBRANCH  12  13
ENDBRANCH  11  12
ENDBRANCH  10  11
ENDBRANCH   9  10
ENDBRANCH   1   9
TORSDOF 10
ENDMDL
MODEL 6
REMARK VINA RESULT:     1.012      2.751      4.556
REMARK INTER + INTRA:           0.233
REMARK INTER:                   1.953
REMARK INTRA:                  -1.720
REMARK UNBOUND:                -1.371
REMARK SMILES CCCCCCCCCCCC(=O)[O-]
REMARK SMILES IDX 7 1 8 2 9 3 10 4 11 5 12 6 13 7 14 8 6 9 5 10 4 11 3 12 2 13
REMARK SMILES IDX 1 14
REMARK H PARENT
REMARK Flexibility Score: inf
ROOT
ATOM      1  C   UNL     1      36.900   5.282  38.081  1.00  0.00     0.000 C 
ENDROOT
BRANCH   1   2
ATOM      2  C   UNL     1      37.213   3.781  38.064  1.00  0.00     0.000 C 
BRANCH   2   3
ATOM      3  C   UNL     1      35.949   2.951  38.322  1.00  0.00     0.000 C 
BRANCH   3   4
ATOM      4  C   UNL     1      34.838   3.816  38.929  1.00  0.00     0.006 C 
BRANCH   4   5
ATOM      5  C   UNL     1      33.983   3.003  39.907  1.00  0.00     0.053 C 
BRANCH   5   6
ATOM      6  C   UNL     1      33.323   3.907  40.901  1.00  0.00     0.041 C 
ATOM      7  O   UNL     1      33.332   3.615  42.125  1.00  0.00    -0.550 OA
ATOM      8  O   UNL     1      32.741   5.095  40.481  1.00  0.00    -0.550 OA
ENDBRANCH   5   6
ENDBRANCH   4   5
ENDBRANCH   3   4
ENDBRANCH   2   3
ENDBRANCH   1   2
BRANCH   1   9
ATOM      9  C   UNL     1      38.057   6.076  38.707  1.00  0.00     0.000 C 
BRANCH   9  10
ATOM     10  C   UNL     1      38.288   5.721  40.185  1.00  0.00    -0.000 C 
BRANCH  10  11
ATOM     11  C   UNL     1      37.116   6.142  41.085  1.00  0.00    -0.000 C 
BRANCH  11  12
ATOM     12  C   UNL     1      36.709   5.000  42.025  1.00  0.00    -0.000 C 
BRANCH  12  13
ATOM     13  C   UNL     1      37.681   3.820  41.910  1.00  0.00    -0.003 C 
ATOM     14  C   UNL     1      36.937   2.488  41.930  1.00  0.00     0.004 C 
ENDBRANCH  12  13
ENDBRANCH  11  12
ENDBRANCH  10  11
ENDBRANCH   9  10
ENDBRANCH   1   9
TORSDOF 10
ENDMDL
