MODEL 1
REMARK VINA RESULT:    -3.105      0.000      0.000
REMARK INTER + INTRA:          -7.826
REMARK INTER:                  -5.646
REMARK INTRA:                  -2.180
REMARK UNBOUND:                -2.180
REMARK SMILES CCCCCCCCCCCCCCCC(=O)[O-]
REMARK SMILES IDX 9 1 10 2 11 3 12 4 13 5 14 6 15 7 16 8 17 9 18 10 8 11 7 12
REMARK SMILES IDX 6 13 5 14 4 15 3 16 2 17 1 18
REMARK H PARENT
REMARK Flexibility Score: inf
ROOT
ATOM      1  C   UNL     1    -103.532 -30.142 -13.875  1.00  0.00     0.000 C 
ENDROOT
BRANCH   1   2
ATOM      2  C   UNL     1    -103.911 -29.170 -12.746  1.00  0.00     0.000 C 
BRANCH   2   3
ATOM      3  C   UNL     1    -102.858 -28.065 -12.528  1.00  0.00     0.000 C 
BRANCH   3   4
ATOM      4  C   UNL     1    -101.468 -28.562 -12.089  1.00  0.00     0.000 C 
BRANCH   4   5
ATOM      5  C   UNL     1    -100.317 -28.222 -13.055  1.00  0.00     0.000 C 
BRANCH   5   6
ATOM      6  C   UNL     1     -99.599 -29.462 -13.629  1.00  0.00     0.006 C 
BRANCH   6   7
ATOM      7  C   UNL     1     -99.122 -30.425 -12.532  1.00  0.00     0.053 C 
BRANCH   7   8
ATOM      8  C   UNL     1     -97.827 -29.954 -11.951  1.00  0.00     0.041 C 
ATOM      9  O   UNL     1     -96.880 -29.612 -12.706  1.00  0.00    -0.550 OA
ATOM     10  O   UNL     1     -97.682 -29.847 -10.574  1.00  0.00    -0.550 OA
ENDBRANCH   7   8
ENDBRANCH   6   7
ENDBRANCH   5   6
ENDBRANCH   4   5
ENDBRANCH   3   4
ENDBRANCH   2   3
ENDBRANCH   1   2
BRANCH   1  11
ATOM     11  C   UNL     1    -103.640 -29.505 -15.273  1.00  0.00     0.000 C 
BRANCH  11  12
ATOM     12  C   UNL     1    -102.332 -29.487 -16.088  1.00  0.00    -0.000 C 
BRANCH  12  13
ATOM     13  C   UNL     1    -101.839 -28.088 -16.503  1.00  0.00    -0.000 C 
BRANCH  13  14
ATOM     14  C   UNL     1    -102.528 -26.934 -15.744  1.00  0.00    -0.000 C 
BRANCH  14  15
ATOM     15  C   UNL     1    -103.414 -26.073 -16.662  1.00  0.00    -0.000 C 
BRANCH  15  16
ATOM     16  C   UNL     1    -104.267 -25.061 -15.881  1.00  0.00    -0.000 C 
BRANCH  16  17
ATOM     17  C   UNL     1    -104.929 -25.680 -14.641  1.00  0.00    -0.003 C 
ATOM     18  C   UNL     1    -104.605 -24.876 -13.386  1.00  0.00     0.004 C 
ENDBRANCH  16  17
ENDBRANCH  15  16
ENDBRANCH  14  15
ENDBRANCH  13  14
ENDBRANCH  12  13
ENDBRANCH  11  12
ENDBRANCH   1  11
TORSDOF 14
ENDMDL
MODEL 2
REMARK VINA RESULT:    -3.069      1.148      3.585
REMARK INTER + INTRA:          -7.761
REMARK INTER:                  -5.062
REMARK INTRA:                  -2.699
REMARK UNBOUND:                -2.180
REMARK SMILES CCCCCCCCCCCCCCCC(=O)[O-]
REMARK SMILES IDX 9 1 10 2 11 3 12 4 13 5 14 6 15 7 16 8 17 9 18 10 8 11 7 12
REMARK SMILES IDX 6 13 5 14 4 15 3 16 2 17 1 18
REMARK H PARENT
REMARK Flexibility Score: inf
ROOT
ATOM      1  C   UNL     1    -104.115 -25.725 -14.669  1.00  0.00     0.000 C 
ENDROOT
BRANCH   1   2
ATOM      2  C   UNL     1    -104.815 -27.015 -14.213  1.00  0.00     0.000 C 
BRANCH   2   3
ATOM      3  C   UNL     1    -104.096 -27.705 -13.038  1.00  0.00     0.000 C 
BRANCH   3   4
ATOM      4  C   UNL     1    -102.626 -27.290 -12.834  1.00  0.00     0.000 C 
BRANCH   4   5
ATOM      5  C   UNL     1    -101.641 -28.455 -12.620  1.00  0.00     0.000 C 
BRANCH   5   6
ATOM      6  C   UNL     1    -100.211 -28.160 -13.121  1.00  0.00     0.006 C 
BRANCH   6   7
ATOM      7  C   UNL     1     -99.433 -29.438 -13.464  1.00  0.00     0.053 C 
BRANCH   7   8
ATOM      8  C   UNL     1     -98.291 -29.626 -12.516  1.00  0.00     0.041 C 
ATOM      9  O   UNL     1     -98.508 -29.811 -11.291  1.00  0.00    -0.550 OA
ATOM     10  O   UNL     1     -96.988 -29.646 -12.996  1.00  0.00    -0.550 OA
ENDBRANCH   7   8
ENDBRANCH   6   7
ENDBRANCH   5   6
ENDBRANCH   4   5
ENDBRANCH   3   4
ENDBRANCH   2   3
ENDBRANCH   1   2
BRANCH   1  11
ATOM     11  C   UNL     1    -103.707 -25.758 -16.154  1.00  0.00     0.000 C 
BRANCH  11  12
ATOM     12  C   UNL     1    -103.420 -27.161 -16.723  1.00  0.00    -0.000 C 
BRANCH  12  13
ATOM     13  C   UNL     1    -102.007 -27.707 -16.439  1.00  0.00    -0.000 C 
BRANCH  13  14
ATOM     14  C   UNL     1    -101.960 -29.235 -16.228  1.00  0.00    -0.000 C 
BRANCH  14  15
ATOM     15  C   UNL     1    -103.364 -29.858 -16.132  1.00  0.00    -0.000 C 
BRANCH  15  16
ATOM     16  C   UNL     1    -103.487 -30.864 -14.977  1.00  0.00    -0.000 C 
BRANCH  16  17
ATOM     17  C   UNL     1    -102.219 -31.712 -14.797  1.00  0.00    -0.003 C 
ATOM     18  C   UNL     1    -101.995 -32.060 -13.329  1.00  0.00     0.004 C 
ENDBRANCH  16  17
ENDBRANCH  15  16
ENDBRANCH  14  15
ENDBRANCH  13  14
ENDBRANCH  12  13
ENDBRANCH  11  12
ENDBRANCH   1  11
TORSDOF 14
ENDMDL
MODEL 3
REMARK VINA RESULT:    -3.049      1.369      2.345
REMARK INTER + INTRA:          -7.725
REMARK INTER:                  -5.830
REMARK INTRA:                  -1.895
REMARK UNBOUND:                -2.180
REMARK SMILES CCCCCCCCCCCCCCCC(=O)[O-]
REMARK SMILES IDX 9 1 10 2 11 3 12 4 13 5 14 6 15 7 16 8 17 9 18 10 8 11 7 12
REMARK SMILES IDX 6 13 5 14 4 15 3 16 2 17 1 18
REMARK H PARENT
REMARK Flexibility Score: inf
ROOT
ATOM      1  C   UNL     1    -102.595 -28.889 -12.205  1.00  0.00     0.000 C 
ENDROOT
BRANCH   1   2
ATOM      2  C   UNL     1    -101.852 -28.846 -10.860  1.00  0.00     0.000 C 
BRANCH   2   3
ATOM      3  C   UNL     1    -100.413 -29.391 -10.952  1.00  0.00     0.000 C 
BRANCH   3   4
ATOM      4  C   UNL     1    -100.248 -30.664 -11.802  1.00  0.00     0.000 C 
BRANCH   4   5
ATOM      5  C   UNL     1     -99.250 -30.547 -12.970  1.00  0.00     0.000 C 
BRANCH   5   6
ATOM      6  C   UNL     1     -98.197 -29.434 -12.779  1.00  0.00     0.006 C 
BRANCH   6   7
ATOM      7  C   UNL     1     -96.767 -29.986 -12.697  1.00  0.00     0.053 C 
BRANCH   7   8
ATOM      8  C   UNL     1     -96.242 -29.874 -11.301  1.00  0.00     0.041 C 
ATOM      9  O   UNL     1     -97.032 -29.917 -10.322  1.00  0.00    -0.550 OA
ATOM     10  O   UNL     1     -94.875 -29.772 -11.080  1.00  0.00    -0.550 OA
ENDBRANCH   7   8
ENDBRANCH   6   7
ENDBRANCH   5   6
ENDBRANCH   4   5
ENDBRANCH   3   4
ENDBRANCH   2   3
ENDBRANCH   1   2
BRANCH   1  11
ATOM     11  C   UNL     1    -102.404 -27.605 -13.035  1.00  0.00     0.000 C 
BRANCH  11  12
ATOM     12  C   UNL     1    -101.254 -27.652 -14.059  1.00  0.00    -0.000 C 
BRANCH  12  13
ATOM     13  C   UNL     1    -101.512 -28.539 -15.293  1.00  0.00    -0.000 C 
BRANCH  13  14
ATOM     14  C   UNL     1    -102.281 -27.824 -16.424  1.00  0.00    -0.000 C 
BRANCH  14  15
ATOM     15  C   UNL     1    -103.779 -28.177 -16.431  1.00  0.00    -0.000 C 
BRANCH  15  16
ATOM     16  C   UNL     1    -104.680 -26.933 -16.389  1.00  0.00    -0.000 C 
BRANCH  16  17
ATOM     17  C   UNL     1    -103.877 -25.624 -16.370  1.00  0.00    -0.003 C 
ATOM     18  C   UNL     1    -104.184 -24.808 -15.119  1.00  0.00     0.004 C 
ENDBRANCH  16  17
ENDBRANCH  15  16
ENDBRANCH  14  15
ENDBRANCH  13  14
ENDBRANCH  12  13
ENDBRANCH  11  12
ENDBRANCH   1  11
TORSDOF 14
ENDMDL
MODEL 4
REMARK VINA RESULT:    -3.045      1.262      2.583
REMARK INTER + INTRA:          -7.718
REMARK INTER:                  -5.999
REMARK INTRA:                  -1.719
REMARK UNBOUND:                -2.180
REMARK SMILES CCCCCCCCCCCCCCCC(=O)[O-]
REMARK SMILES IDX 9 1 10 2 11 3 12 4 13 5 14 6 15 7 16 8 17 9 18 10 8 11 7 12
REMARK SMILES IDX 6 13 5 14 4 15 3 16 2 17 1 18
REMARK H PARENT
REMARK Flexibility Score: inf
ROOT
ATOM      1  C   UNL     1    -103.232 -28.539 -15.660  1.00  0.00     0.000 C 
ENDROOT
BRANCH   1   2
ATOM      2  C   UNL     1    -102.312 -28.797 -14.455  1.00  0.00     0.000 C 
BRANCH   2   3
ATOM      3  C   UNL     1    -101.340 -27.633 -14.183  1.00  0.00     0.000 C 
BRANCH   3   4
ATOM      4  C   UNL     1    -100.133 -27.982 -13.292  1.00  0.00     0.000 C 
BRANCH   4   5
ATOM      5  C   UNL     1    -100.439 -28.929 -12.117  1.00  0.00     0.000 C 
BRANCH   5   6
ATOM      6  C   UNL     1     -99.458 -30.115 -12.001  1.00  0.00     0.006 C 
BRANCH   6   7
ATOM      7  C   UNL     1     -98.057 -29.773 -12.527  1.00  0.00     0.053 C 
BRANCH   7   8
ATOM      8  C   UNL     1     -97.057 -29.811 -11.415  1.00  0.00     0.041 C 
ATOM      9  O   UNL     1     -97.439 -29.948 -10.224  1.00  0.00    -0.550 OA
ATOM     10  O   UNL     1     -95.700 -29.745 -11.700  1.00  0.00    -0.550 OA
ENDBRANCH   7   8
ENDBRANCH   6   7
ENDBRANCH   5   6
ENDBRANCH   4   5
ENDBRANCH   3   4
ENDBRANCH   2   3
ENDBRANCH   1   2
BRANCH   1  11
ATOM     11  C   UNL     1    -102.635 -27.534 -16.663  1.00  0.00     0.000 C 
BRANCH  11  12
ATOM     12  C   UNL     1    -103.549 -26.347 -17.025  1.00  0.00    -0.000 C 
BRANCH  12  13
ATOM     13  C   UNL     1    -104.568 -25.951 -15.939  1.00  0.00    -0.000 C 
BRANCH  13  14
ATOM     14  C   UNL     1    -104.346 -24.537 -15.362  1.00  0.00    -0.000 C 
BRANCH  14  15
ATOM     15  C   UNL     1    -104.604 -24.472 -13.846  1.00  0.00    -0.000 C 
BRANCH  15  16
ATOM     16  C   UNL     1    -104.387 -25.825 -13.152  1.00  0.00    -0.000 C 
BRANCH  16  17
ATOM     17  C   UNL     1    -104.068 -25.676 -11.656  1.00  0.00    -0.003 C 
ATOM     18  C   UNL     1    -103.420 -26.941 -11.104  1.00  0.00     0.004 C 
ENDBRANCH  16  17
ENDBRANCH  15  16
ENDBRANCH  14  15
ENDBRANCH  13  14
ENDBRANCH  12  13
ENDBRANCH  11  12
ENDBRANCH   1  11
TORSDOF 14
ENDMDL
MODEL 5
REMARK VINA RESULT:    -3.015      2.667      6.760
REMARK INTER + INTRA:          -7.662
REMARK INTER:                  -5.362
REMARK INTRA:                  -2.300
REMARK UNBOUND:                -2.180
REMARK SMILES CCCCCCCCCCCCCCCC(=O)[O-]
REMARK SMILES IDX 9 1 10 2 11 3 12 4 13 5 14 6 15 7 16 8 17 9 18 10 8 11 7 12
REMARK SMILES IDX 6 13 5 14 4 15 3 16 2 17 1 18
REMARK H PARENT
REMARK Flexibility Score: inf
ROOT
ATOM      1  C   UNL     1    -100.410 -30.256 -12.695  1.00  0.00     0.000 C 
ENDROOT
BRANCH   1   2
ATOM      2  C   UNL     1     -99.545 -29.023 -13.006  1.00  0.00     0.000 C 
BRANCH   2   3
ATOM      3  C   UNL     1    -100.371 -27.728 -13.131  1.00  0.00     0.000 C 
BRANCH   3   4
ATOM      4  C   UNL     1    -101.887 -27.895 -12.920  1.00  0.00     0.000 C 
BRANCH   4   5
ATOM      5  C   UNL     1    -102.755 -27.627 -14.164  1.00  0.00     0.000 C 
BRANCH   5   6
ATOM      6  C   UNL     1    -101.938 -27.357 -15.446  1.00  0.00     0.006 C 
BRANCH   6   7
ATOM      7  C   UNL     1    -102.274 -28.341 -16.575  1.00  0.00     0.053 C 
BRANCH   7   8
ATOM      8  C   UNL     1    -101.784 -29.713 -16.235  1.00  0.00     0.041 C 
ATOM      9  O   UNL     1    -102.603 -30.629 -15.962  1.00  0.00    -0.550 OA
ATOM     10  O   UNL     1    -100.424 -29.993 -16.269  1.00  0.00    -0.550 OA
ENDBRANCH   7   8
ENDBRANCH   6   7
ENDBRANCH   5   6
ENDBRANCH   4   5
ENDBRANCH   3   4
ENDBRANCH   2   3
ENDBRANCH   1   2
BRANCH   1  11
ATOM     11  C   UNL     1    -100.162 -30.819 -11.283  1.00  0.00     0.000 C 
BRANCH  11  12
ATOM     12  C   UNL     1     -99.457 -29.856 -10.308  1.00  0.00    -0.000 C 
BRANCH  12  13
ATOM     13  C   UNL     1     -98.306 -30.477  -9.492  1.00  0.00    -0.000 C 
BRANCH  13  14
ATOM     14  C   UNL     1     -97.152 -31.023 -10.360  1.00  0.00    -0.000 C 
BRANCH  14  15
ATOM     15  C   UNL     1     -96.400 -29.907 -11.107  1.00  0.00    -0.000 C 
BRANCH  15  16
ATOM     16  C   UNL     1     -96.114 -30.266 -12.574  1.00  0.00    -0.000 C 
BRANCH  16  17
ATOM     17  C   UNL     1     -96.865 -31.527 -13.029  1.00  0.00    -0.003 C 
ATOM     18  C   UNL     1     -97.187 -31.468 -14.518  1.00  0.00     0.004 C 
ENDBRANCH  16  17
ENDBRANCH  15  16
ENDBRANCH  14  15
ENDBRANCH  13  14
ENDBRANCH  12  13
ENDBRANCH  11  12
ENDBRANCH   1  11
TORSDOF 14
ENDMDL
MODEL 6
REMARK VINA RESULT:    -2.966      1.473      2.080
REMARK INTER + INTRA:          -7.574
REMARK INTER:                  -5.210
REMARK INTRA:                  -2.364
REMARK UNBOUND:                -2.180
REMARK SMILES CCCCCCCCCCCCCCCC(=O)[O-]
REMARK SMILES IDX 9 1 10 2 11 3 12 4 13 5 14 6 15 7 16 8 17 9 18 10 8 11 7 12
REMARK SMILES IDX 6 13 5 14 4 15 3 16 2 17 1 18
REMARK H PARENT
REMARK Flexibility Score: inf
ROOT
ATOM      1  C   UNL     1    -102.694 -30.120 -12.579  1.00  0.00     0.000 C 
ENDROOT
BRANCH   1   2
ATOM      2  C   UNL     1    -101.458 -29.500 -11.907  1.00  0.00     0.000 C 
BRANCH   2   3
ATOM      3  C   UNL     1    -101.062 -28.142 -12.518  1.00  0.00     0.000 C 
BRANCH   3   4
ATOM      4  C   UNL     1     -99.736 -28.138 -13.303  1.00  0.00     0.000 C 
BRANCH   4   5
ATOM      5  C   UNL     1     -99.039 -29.506 -13.416  1.00  0.00     0.000 C 
BRANCH   5   6
ATOM      6  C   UNL     1     -97.579 -29.504 -12.914  1.00  0.00     0.006 C 
BRANCH   6   7
ATOM      7  C   UNL     1     -97.464 -29.923 -11.442  1.00  0.00     0.053 C 
BRANCH   7   8
ATOM      8  C   UNL     1     -96.083 -30.416 -11.145  1.00  0.00     0.041 C 
ATOM      9  O   UNL     1     -95.826 -31.647 -11.192  1.00  0.00    -0.550 OA
ATOM     10  O   UNL     1     -95.068 -29.511 -10.864  1.00  0.00    -0.550 OA
ENDBRANCH   7   8
ENDBRANCH   6   7
ENDBRANCH   5   6
ENDBRANCH   4   5
ENDBRANCH   3   4
ENDBRANCH   2   3
ENDBRANCH   1   2
BRANCH   1  11
ATOM     11  C   UNL     1    -102.346 -30.908 -13.856  1.00  0.00     0.000 C 
BRANCH  11  12
ATOM     12  C   UNL     1    -102.816 -30.262 -15.174  1.00  0.00    -0.000 C 
BRANCH  12  13
ATOM     13  C   UNL     1    -101.687 -29.771 -16.100  1.00  0.00    -0.000 C 
BRANCH  13  14
ATOM     14  C   UNL     1    -101.727 -28.254 -16.381  1.00  0.00    -0.000 C 
BRANCH  14  15
ATOM     15  C   UNL     1    -103.127 -27.652 -16.160  1.00  0.00    -0.000 C 
BRANCH  15  16
ATOM     16  C   UNL     1    -103.104 -26.428 -15.232  1.00  0.00    -0.000 C 
BRANCH  16  17
ATOM     17  C   UNL     1    -104.012 -26.601 -14.005  1.00  0.00    -0.003 C 
ATOM     18  C   UNL     1    -105.146 -27.579 -14.294  1.00  0.00     0.004 C 
ENDBRANCH  16  17
ENDBRANCH  15  16
ENDBRANCH  14  15
ENDBRANCH  13  14
ENDBRANCH  12  13
ENDBRANCH  11  12
ENDBRANCH   1  11
TORSDOF 14
ENDMDL
MODEL 7
REMARK VINA RESULT:    -2.961      2.845      3.993
REMARK INTER + INTRA:          -7.564
REMARK INTER:                  -5.433
REMARK INTRA:                  -2.132
REMARK UNBOUND:                -2.180
REMARK SMILES CCCCCCCCCCCCCCCC(=O)[O-]
REMARK SMILES IDX 9 1 10 2 11 3 12 4 13 5 14 6 15 7 16 8 17 9 18 10 8 11 7 12
REMARK SMILES IDX 6 13 5 14 4 15 3 16 2 17 1 18
REMARK H PARENT
REMARK Flexibility Score: inf
ROOT
ATOM      1  C   UNL     1    -100.650 -30.153 -15.828  1.00  0.00     0.000 C 
ENDROOT
BRANCH   1   2
ATOM      2  C   UNL     1    -100.650 -30.293 -14.297  1.00  0.00     0.000 C 
BRANCH   2   3
ATOM      3  C   UNL     1     -99.643 -29.352 -13.609  1.00  0.00     0.000 C 
BRANCH   3   4
ATOM      4  C   UNL     1    -100.150 -27.919 -13.358  1.00  0.00     0.000 C 
BRANCH   4   5
ATOM      5  C   UNL     1    -101.334 -27.806 -12.380  1.00  0.00     0.000 C 
BRANCH   5   6
ATOM      6  C   UNL     1    -102.673 -27.451 -13.063  1.00  0.00     0.006 C 
BRANCH   6   7
ATOM      7  C   UNL     1    -103.844 -28.287 -12.528  1.00  0.00     0.053 C 
BRANCH   7   8
ATOM      8  C   UNL     1    -104.488 -29.055 -13.638  1.00  0.00     0.041 C 
ATOM      9  O   UNL     1    -104.173 -30.256 -13.844  1.00  0.00    -0.550 OA
ATOM     10  O   UNL     1    -105.473 -28.459 -14.415  1.00  0.00    -0.550 OA
ENDBRANCH   7   8
ENDBRANCH   6   7
ENDBRANCH   5   6
ENDBRANCH   4   5
ENDBRANCH   3   4
ENDBRANCH   2   3
ENDBRANCH   1   2
BRANCH   1  11
ATOM     11  C   UNL     1    -101.950 -29.529 -16.371  1.00  0.00     0.000 C 
BRANCH  11  12
ATOM     12  C   UNL     1    -101.937 -27.993 -16.497  1.00  0.00    -0.000 C 
BRANCH  12  13
ATOM     13  C   UNL     1    -103.306 -27.349 -16.789  1.00  0.00    -0.000 C 
BRANCH  13  14
ATOM     14  C   UNL     1    -103.358 -25.836 -16.491  1.00  0.00    -0.000 C 
BRANCH  14  15
ATOM     15  C   UNL     1    -104.716 -25.397 -15.912  1.00  0.00    -0.000 C 
BRANCH  15  16
ATOM     16  C   UNL     1    -104.614 -24.115 -15.073  1.00  0.00    -0.000 C 
BRANCH  16  17
ATOM     17  C   UNL     1    -104.695 -24.390 -13.563  1.00  0.00    -0.003 C 
ATOM     18  C   UNL     1    -105.955 -25.174 -13.214  1.00  0.00     0.004 C 
ENDBRANCH  16  17
ENDBRANCH  15  16
ENDBRANCH  14  15
ENDBRANCH  13  14
ENDBRANCH  12  13
ENDBRANCH  11  12
ENDBRANCH   1  11
TORSDOF 14
ENDMDL
MODEL 8
REMARK VINA RESULT:    -2.926      3.717      5.893
REMARK INTER + INTRA:          -7.501
REMARK INTER:                  -5.389
REMARK INTRA:                  -2.113
REMARK UNBOUND:                -2.180
REMARK SMILES CCCCCCCCCCCCCCCC(=O)[O-]
REMARK SMILES IDX 9 1 10 2 11 3 12 4 13 5 14 6 15 7 16 8 17 9 18 10 8 11 7 12
REMARK SMILES IDX 6 13 5 14 4 15 3 16 2 17 1 18
REMARK H PARENT
REMARK Flexibility Score: inf
ROOT
ATOM      1  C   UNL     1    -100.218 -30.623 -16.058  1.00  0.00     0.000 C 
ENDROOT
BRANCH   1   2
ATOM      2  C   UNL     1    -101.627 -30.793 -16.652  1.00  0.00     0.000 C 
BRANCH   2   3
ATOM      3  C   UNL     1    -102.739 -30.303 -15.705  1.00  0.00     0.000 C 
BRANCH   3   4
ATOM      4  C   UNL     1    -103.524 -29.072 -16.197  1.00  0.00     0.000 C 
BRANCH   4   5
ATOM      5  C   UNL     1    -102.694 -27.782 -16.339  1.00  0.00     0.000 C 
BRANCH   5   6
ATOM      6  C   UNL     1    -103.516 -26.561 -16.806  1.00  0.00     0.006 C 
BRANCH   6   7
ATOM      7  C   UNL     1    -103.480 -25.406 -15.796  1.00  0.00     0.053 C 
BRANCH   7   8
ATOM      8  C   UNL     1    -104.754 -24.625 -15.848  1.00  0.00     0.041 C 
ATOM      9  O   UNL     1    -104.789 -23.441 -15.423  1.00  0.00    -0.550 OA
ATOM     10  O   UNL     1    -105.891 -25.188 -16.414  1.00  0.00    -0.550 OA
ENDBRANCH   7   8
ENDBRANCH   6   7
ENDBRANCH   5   6
ENDBRANCH   4   5
ENDBRANCH   3   4
ENDBRANCH   2   3
ENDBRANCH   1   2
BRANCH   1  11
ATOM     11  C   UNL     1    -100.214 -30.637 -14.518  1.00  0.00     0.000 C 
BRANCH  11  12
ATOM     12  C   UNL     1     -98.985 -29.979 -13.860  1.00  0.00    -0.000 C 
BRANCH  12  13
ATOM     13  C   UNL     1     -99.292 -28.751 -12.982  1.00  0.00    -0.000 C 
BRANCH  13  14
ATOM     14  C   UNL     1    -100.524 -27.945 -13.446  1.00  0.00    -0.000 C 
BRANCH  14  15
ATOM     15  C   UNL     1    -101.536 -27.711 -12.310  1.00  0.00    -0.000 C 
BRANCH  15  16
ATOM     16  C   UNL     1    -102.853 -28.472 -12.525  1.00  0.00    -0.000 C 
BRANCH  16  17
ATOM     17  C   UNL     1    -104.039 -27.534 -12.798  1.00  0.00    -0.003 C 
ATOM     18  C   UNL     1    -103.874 -26.211 -12.058  1.00  0.00     0.004 C 
ENDBRANCH  16  17
ENDBRANCH  15  16
ENDBRANCH  14  15
ENDBRANCH  13  14
ENDBRANCH  12  13
ENDBRANCH  11  12
ENDBRANCH   1  11
TORSDOF 14
ENDMDL
MODEL 9
REMARK VINA RESULT:    -2.860      3.598      5.839
REMARK INTER + INTRA:          -7.380
REMARK INTER:                  -4.828
REMARK INTRA:                  -2.553
REMARK UNBOUND:                -2.180
REMARK SMILES CCCCCCCCCCCCCCCC(=O)[O-]
REMARK SMILES IDX 9 1 10 2 11 3 12 4 13 5 14 6 15 7 16 8 17 9 18 10 8 11 7 12
REMARK SMILES IDX 6 13 5 14 4 15 3 16 2 17 1 18
REMARK H PARENT
REMARK Flexibility Score: inf
ROOT
ATOM      1  C   UNL     1    -101.857 -31.310 -14.752  1.00  0.00     0.000 C 
ENDROOT
BRANCH   1   2
ATOM      2  C   UNL     1    -102.673 -30.028 -14.985  1.00  0.00     0.000 C 
BRANCH   2   3
ATOM      3  C   UNL     1    -102.427 -29.404 -16.372  1.00  0.00     0.000 C 
BRANCH   3   4
ATOM      4  C   UNL     1    -101.942 -27.943 -16.358  1.00  0.00     0.000 C 
BRANCH   4   5
ATOM      5  C   UNL     1    -103.043 -26.885 -16.561  1.00  0.00     0.000 C 
BRANCH   5   6
ATOM      6  C   UNL     1    -103.437 -26.140 -15.268  1.00  0.00     0.006 C 
BRANCH   6   7
ATOM      7  C   UNL     1    -104.573 -26.839 -14.509  1.00  0.00     0.053 C 
BRANCH   7   8
ATOM      8  C   UNL     1    -105.690 -27.183 -15.441  1.00  0.00     0.041 C 
ATOM      9  O   UNL     1    -106.388 -26.272 -15.958  1.00  0.00    -0.550 OA
ATOM     10  O   UNL     1    -105.930 -28.509 -15.779  1.00  0.00    -0.550 OA
ENDBRANCH   7   8
ENDBRANCH   6   7
ENDBRANCH   5   6
ENDBRANCH   4   5
ENDBRANCH   3   4
ENDBRANCH   2   3
ENDBRANCH   1   2
BRANCH   1  11
ATOM     11  C   UNL     1    -100.532 -31.325 -15.538  1.00  0.00     0.000 C 
BRANCH  11  12
ATOM     12  C   UNL     1     -99.348 -30.627 -14.840  1.00  0.00    -0.000 C 
BRANCH  12  13
ATOM     13  C   UNL     1     -99.295 -30.801 -13.310  1.00  0.00    -0.000 C 
BRANCH  13  14
ATOM     14  C   UNL     1     -99.303 -29.469 -12.531  1.00  0.00    -0.000 C 
BRANCH  14  15
ATOM     15  C   UNL     1     -99.843 -28.299 -13.372  1.00  0.00    -0.000 C 
BRANCH  15  16
ATOM     16  C   UNL     1    -101.081 -27.641 -12.744  1.00  0.00    -0.000 C 
BRANCH  16  17
ATOM     17  C   UNL     1    -101.605 -28.414 -11.524  1.00  0.00    -0.003 C 
ATOM     18  C   UNL     1    -103.114 -28.618 -11.609  1.00  0.00     0.004 C 
ENDBRANCH  16  17
ENDBRANCH  15  16
ENDBRANCH  14  15
ENDBRANCH  13  14
ENDBRANCH  12  13
ENDBRANCH  11  12
ENDBRANCH   1  11
TORSDOF 14
ENDMDL
