MODEL 1
REMARK VINA RESULT:    -6.266      0.000      0.000
REMARK INTER + INTRA:          -7.681
REMARK INTER:                  -7.549
REMARK INTRA:                  -0.133
REMARK UNBOUND:                -0.133
REMARK SMILES O=c1c(O)c(-c2ccc(O)c(O)c2)oc2cc(O)cc(O)c12
REMARK SMILES IDX 5 1 3 2 2 3 1 4 22 5 20 6 19 7 17 8 16 9 15 10 14 11 6 12
REMARK SMILES IDX 7 13 8 14 9 15 13 16 11 17 10 18 12 20 4 22 21 24 18 26
REMARK H PARENT 10 19 12 21 4 23 21 25 18 27
REMARK Flexibility Score: inf
ROOT
ATOM      1  C   UNL     1     213.408 207.163 154.370  1.00  0.00     0.180 A 
ATOM      2  C   UNL     1     212.850 205.984 153.848  1.00  0.00     0.208 A 
ATOM      3  C   UNL     1     212.799 204.838 154.658  1.00  0.00     0.238 A 
ATOM      4  O   UNL     1     212.347 203.771 154.167  1.00  0.00    -0.285 OA
ATOM      5  C   UNL     1     213.293 204.890 155.983  1.00  0.00     0.111 A 
ATOM      6  C   UNL     1     213.256 203.801 156.905  1.00  0.00     0.134 A 
ATOM      7  C   UNL     1     213.892 203.926 158.146  1.00  0.00     0.093 A 
ATOM      8  C   UNL     1     214.506 205.122 158.525  1.00  0.00     0.123 A 
ATOM      9  C   UNL     1     214.495 206.209 157.655  1.00  0.00     0.094 A 
ATOM     10  C   UNL     1     213.901 206.105 156.396  1.00  0.00     0.146 A 
ATOM     11  O   UNL     1     213.922 207.162 155.594  1.00  0.00    -0.452 OA
ENDROOT
BRANCH   1  12
ATOM     12  C   UNL     1     213.474 208.419 153.585  1.00  0.00     0.025 A 
ATOM     13  C   UNL     1     212.813 209.584 154.013  1.00  0.00     0.016 A 
ATOM     14  C   UNL     1     212.910 210.764 153.270  1.00  0.00     0.051 A 
ATOM     15  C   UNL     1     213.677 210.800 152.099  1.00  0.00     0.157 A 
ATOM     16  C   UNL     1     214.259 208.467 152.422  1.00  0.00     0.062 A 
ATOM     17  C   UNL     1     214.355 209.651 151.676  1.00  0.00     0.158 A 
BRANCH  15  18
ATOM     18  O   UNL     1     213.774 211.974 151.355  1.00  0.00    -0.504 OA
ATOM     19  H   UNL     1     213.567 211.991 150.362  1.00  0.00     0.293 HD
ENDBRANCH  15  18
BRANCH  17  20
ATOM     20  O   UNL     1     215.125 209.692 150.515  1.00  0.00    -0.504 OA
ATOM     21  H   UNL     1     215.588 208.865 150.155  1.00  0.00     0.293 HD
ENDBRANCH  17  20
ENDBRANCH   1  12
BRANCH   2  22
ATOM     22  O   UNL     1     212.386 205.949 152.529  1.00  0.00    -0.502 OA
ATOM     23  H   UNL     1     211.495 205.540 152.276  1.00  0.00     0.293 HD
ENDBRANCH   2  22
BRANCH   6  24
ATOM     24  O   UNL     1     212.590 202.596 156.663  1.00  0.00    -0.507 OA
ATOM     25  H   UNL     1     212.102 202.058 157.364  1.00  0.00     0.293 HD
ENDBRANCH   6  24
BRANCH   8  26
ATOM     26  O   UNL     1     215.122 205.242 159.768  1.00  0.00    -0.508 OA
ATOM     27  H   UNL     1     215.236 206.142 160.220  1.00  0.00     0.293 HD
ENDBRANCH   8  26
TORSDOF 6
ENDMDL
MODEL 2
REMARK VINA RESULT:    -6.167      1.948      3.216
REMARK INTER + INTRA:          -7.561
REMARK INTER:                  -7.442
REMARK INTRA:                  -0.118
REMARK UNBOUND:                -0.133
REMARK SMILES O=c1c(O)c(-c2ccc(O)c(O)c2)oc2cc(O)cc(O)c12
REMARK SMILES IDX 5 1 3 2 2 3 1 4 22 5 20 6 19 7 17 8 16 9 15 10 14 11 6 12
REMARK SMILES IDX 7 13 8 14 9 15 13 16 11 17 10 18 12 20 4 22 21 24 18 26
REMARK H PARENT 10 19 12 21 4 23 21 25 18 27
REMARK Flexibility Score: inf
ROOT
ATOM      1  C   UNL     1     213.541 206.543 154.317  1.00  0.00     0.180 A 
ATOM      2  C   UNL     1     213.630 206.722 155.708  1.00  0.00     0.208 A 
ATOM      3  C   UNL     1     213.844 205.601 156.526  1.00  0.00     0.238 A 
ATOM      4  O   UNL     1     213.870 205.761 157.775  1.00  0.00    -0.285 OA
ATOM      5  C   UNL     1     213.983 204.319 155.943  1.00  0.00     0.111 A 
ATOM      6  C   UNL     1     214.242 203.121 156.673  1.00  0.00     0.134 A 
ATOM      7  C   UNL     1     214.230 201.890 156.005  1.00  0.00     0.093 A 
ATOM      8  C   UNL     1     214.032 201.821 154.624  1.00  0.00     0.123 A 
ATOM      9  C   UNL     1     213.837 202.991 153.895  1.00  0.00     0.094 A 
ATOM     10  C   UNL     1     213.808 204.230 154.536  1.00  0.00     0.146 A 
ATOM     11  O   UNL     1     213.609 205.320 153.805  1.00  0.00    -0.452 OA
ENDROOT
BRANCH   1  12
ATOM     12  C   UNL     1     213.340 207.679 153.387  1.00  0.00     0.025 A 
ATOM     13  C   UNL     1     214.241 208.758 153.344  1.00  0.00     0.016 A 
ATOM     14  C   UNL     1     214.046 209.807 152.442  1.00  0.00     0.051 A 
ATOM     15  C   UNL     1     212.957 209.787 151.562  1.00  0.00     0.157 A 
ATOM     16  C   UNL     1     212.262 207.654 152.487  1.00  0.00     0.062 A 
ATOM     17  C   UNL     1     212.065 208.707 151.582  1.00  0.00     0.158 A 
BRANCH  15  18
ATOM     18  O   UNL     1     212.757 210.832 150.661  1.00  0.00    -0.504 OA
ATOM     19  H   UNL     1     211.836 211.222 150.498  1.00  0.00     0.293 HD
ENDBRANCH  15  18
BRANCH  17  20
ATOM     20  O   UNL     1     210.987 208.686 150.699  1.00  0.00    -0.504 OA
ATOM     21  H   UNL     1     210.398 207.867 150.600  1.00  0.00     0.293 HD
ENDBRANCH  17  20
ENDBRANCH   1  12
BRANCH   2  22
ATOM     22  O   UNL     1     213.470 207.994 156.264  1.00  0.00    -0.502 OA
ATOM     23  H   UNL     1     214.146 208.399 156.901  1.00  0.00     0.293 HD
ENDBRANCH   2  22
BRANCH   6  24
ATOM     24  O   UNL     1     214.544 203.088 158.037  1.00  0.00    -0.507 OA
ATOM     25  H   UNL     1     215.472 202.974 158.418  1.00  0.00     0.293 HD
ENDBRANCH   6  24
BRANCH   8  26
ATOM     26  O   UNL     1     214.037 200.593 153.966  1.00  0.00    -0.508 OA
ATOM     27  H   UNL     1     213.250 199.957 154.025  1.00  0.00     0.293 HD
ENDBRANCH   8  26
TORSDOF 6
ENDMDL
MODEL 3
REMARK VINA RESULT:    -6.042      1.818      2.062
REMARK INTER + INTRA:          -7.410
REMARK INTER:                  -7.127
REMARK INTRA:                  -0.283
REMARK UNBOUND:                -0.133
REMARK SMILES O=c1c(O)c(-c2ccc(O)c(O)c2)oc2cc(O)cc(O)c12
REMARK SMILES IDX 5 1 3 2 2 3 1 4 22 5 20 6 19 7 17 8 16 9 15 10 14 11 6 12
REMARK SMILES IDX 7 13 8 14 9 15 13 16 11 17 10 18 12 20 4 22 21 24 18 26
REMARK H PARENT 10 19 12 21 4 23 21 25 18 27
REMARK Flexibility Score: inf
ROOT
ATOM      1  C   UNL     1     213.427 206.043 153.952  1.00  0.00     0.180 A 
ATOM      2  C   UNL     1     213.974 204.893 153.357  1.00  0.00     0.208 A 
ATOM      3  C   UNL     1     214.060 203.712 154.112  1.00  0.00     0.238 A 
ATOM      4  O   UNL     1     214.599 202.700 153.591  1.00  0.00    -0.285 OA
ATOM      5  C   UNL     1     213.585 203.691 155.445  1.00  0.00     0.111 A 
ATOM      6  C   UNL     1     213.587 202.539 156.288  1.00  0.00     0.134 A 
ATOM      7  C   UNL     1     213.213 202.667 157.631  1.00  0.00     0.093 A 
ATOM      8  C   UNL     1     212.776 203.891 158.145  1.00  0.00     0.123 A 
ATOM      9  C   UNL     1     212.715 205.006 157.314  1.00  0.00     0.094 A 
ATOM     10  C   UNL     1     213.115 204.919 155.980  1.00  0.00     0.146 A 
ATOM     11  O   UNL     1     213.051 206.009 155.225  1.00  0.00    -0.452 OA
ENDROOT
BRANCH   1  12
ATOM     12  C   UNL     1     213.280 207.319 153.213  1.00  0.00     0.025 A 
ATOM     13  C   UNL     1     214.197 208.371 153.381  1.00  0.00     0.016 A 
ATOM     14  C   UNL     1     214.054 209.557 152.656  1.00  0.00     0.051 A 
ATOM     15  C   UNL     1     213.002 209.702 151.743  1.00  0.00     0.157 A 
ATOM     16  C   UNL     1     212.240 207.462 152.280  1.00  0.00     0.062 A 
ATOM     17  C   UNL     1     212.095 208.652 151.553  1.00  0.00     0.158 A 
BRANCH  15  18
ATOM     18  O   UNL     1     212.854 210.883 151.018  1.00  0.00    -0.504 OA
ATOM     19  H   UNL     1     212.960 210.903 150.010  1.00  0.00     0.293 HD
ENDBRANCH  15  18
BRANCH  17  20
ATOM     20  O   UNL     1     211.054 208.797 150.638  1.00  0.00    -0.504 OA
ATOM     21  H   UNL     1     210.181 209.245 150.893  1.00  0.00     0.293 HD
ENDBRANCH  17  20
ENDBRANCH   1  12
BRANCH   2  22
ATOM     22  O   UNL     1     214.456 204.941 152.046  1.00  0.00    -0.502 OA
ATOM     23  H   UNL     1     214.960 204.171 151.623  1.00  0.00     0.293 HD
ENDBRANCH   2  22
BRANCH   6  24
ATOM     24  O   UNL     1     213.916 201.253 155.851  1.00  0.00    -0.507 OA
ATOM     25  H   UNL     1     213.995 200.977 154.884  1.00  0.00     0.293 HD
ENDBRANCH   6  24
BRANCH   8  26
ATOM     26  O   UNL     1     212.392 204.004 159.479  1.00  0.00    -0.508 OA
ATOM     27  H   UNL     1     212.709 204.772 160.059  1.00  0.00     0.293 HD
ENDBRANCH   8  26
TORSDOF 6
ENDMDL
MODEL 4
REMARK VINA RESULT:    -5.861      2.071      6.884
REMARK INTER + INTRA:          -7.193
REMARK INTER:                  -7.128
REMARK INTRA:                  -0.066
REMARK UNBOUND:                -0.133
REMARK SMILES O=c1c(O)c(-c2ccc(O)c(O)c2)oc2cc(O)cc(O)c12
REMARK SMILES IDX 5 1 3 2 2 3 1 4 22 5 20 6 19 7 17 8 16 9 15 10 14 11 6 12
REMARK SMILES IDX 7 13 8 14 9 15 13 16 11 17 10 18 12 20 4 22 21 24 18 26
REMARK H PARENT 10 19 12 21 4 23 21 25 18 27
REMARK Flexibility Score: inf
ROOT
ATOM      1  C   UNL     1     213.293 206.007 153.342  1.00  0.00     0.180 A 
ATOM      2  C   UNL     1     213.162 205.955 151.944  1.00  0.00     0.208 A 
ATOM      3  C   UNL     1     213.124 207.157 151.219  1.00  0.00     0.238 A 
ATOM      4  O   UNL     1     212.952 207.106 149.972  1.00  0.00    -0.285 OA
ATOM      5  C   UNL     1     213.234 208.394 151.898  1.00  0.00     0.111 A 
ATOM      6  C   UNL     1     213.248 209.670 151.260  1.00  0.00     0.134 A 
ATOM      7  C   UNL     1     213.229 210.833 152.041  1.00  0.00     0.093 A 
ATOM      8  C   UNL     1     213.263 210.764 153.436  1.00  0.00     0.123 A 
ATOM      9  C   UNL     1     213.310 209.524 154.066  1.00  0.00     0.094 A 
ATOM     10  C   UNL     1     213.293 208.346 153.316  1.00  0.00     0.146 A 
ATOM     11  O   UNL     1     213.328 207.184 153.957  1.00  0.00    -0.452 OA
ENDROOT
BRANCH   1  12
ATOM     12  C   UNL     1     213.365 204.783 154.173  1.00  0.00     0.025 A 
ATOM     13  C   UNL     1     214.303 203.770 153.905  1.00  0.00     0.016 A 
ATOM     14  C   UNL     1     214.369 202.635 154.717  1.00  0.00     0.051 A 
ATOM     15  C   UNL     1     213.510 202.502 155.815  1.00  0.00     0.157 A 
ATOM     16  C   UNL     1     212.521 204.653 155.288  1.00  0.00     0.062 A 
ATOM     17  C   UNL     1     212.587 203.513 156.103  1.00  0.00     0.158 A 
BRANCH  15  18
ATOM     18  O   UNL     1     213.572 201.370 156.626  1.00  0.00    -0.504 OA
ATOM     19  H   UNL     1     214.438 200.860 156.759  1.00  0.00     0.293 HD
ENDBRANCH  15  18
BRANCH  17  20
ATOM     20  O   UNL     1     211.738 203.382 157.201  1.00  0.00    -0.504 OA
ATOM     21  H   UNL     1     211.083 202.613 157.276  1.00  0.00     0.293 HD
ENDBRANCH  17  20
ENDBRANCH   1  12
BRANCH   2  22
ATOM     22  O   UNL     1     213.034 204.724 151.295  1.00  0.00    -0.502 OA
ATOM     23  H   UNL     1     213.835 204.181 150.996  1.00  0.00     0.293 HD
ENDBRANCH   2  22
BRANCH   6  24
ATOM     24  O   UNL     1     213.309 209.850 149.875  1.00  0.00    -0.507 OA
ATOM     25  H   UNL     1     214.139 210.114 149.366  1.00  0.00     0.293 HD
ENDBRANCH   6  24
BRANCH   8  26
ATOM     26  O   UNL     1     213.260 211.926 154.204  1.00  0.00    -0.508 OA
ATOM     27  H   UNL     1     213.230 211.893 155.217  1.00  0.00     0.293 HD
ENDBRANCH   8  26
TORSDOF 6
ENDMDL
MODEL 5
REMARK VINA RESULT:    -5.709      1.282      6.717
REMARK INTER + INTRA:          -7.010
REMARK INTER:                  -7.122
REMARK INTRA:                   0.112
REMARK UNBOUND:                -0.133
REMARK SMILES O=c1c(O)c(-c2ccc(O)c(O)c2)oc2cc(O)cc(O)c12
REMARK SMILES IDX 5 1 3 2 2 3 1 4 22 5 20 6 19 7 17 8 16 9 15 10 14 11 6 12
REMARK SMILES IDX 7 13 8 14 9 15 13 16 11 17 10 18 12 20 4 22 21 24 18 26
REMARK H PARENT 10 19 12 21 4 23 21 25 18 27
REMARK Flexibility Score: inf
ROOT
ATOM      1  C   UNL     1     213.346 206.258 155.025  1.00  0.00     0.180 A 
ATOM      2  C   UNL     1     212.880 205.457 153.969  1.00  0.00     0.208 A 
ATOM      3  C   UNL     1     212.628 206.053 152.722  1.00  0.00     0.238 A 
ATOM      4  O   UNL     1     212.160 205.341 151.795  1.00  0.00    -0.285 OA
ATOM      5  C   UNL     1     212.862 207.437 152.543  1.00  0.00     0.111 A 
ATOM      6  C   UNL     1     212.680 208.137 151.313  1.00  0.00     0.134 A 
ATOM      7  C   UNL     1     212.816 209.530 151.284  1.00  0.00     0.093 A 
ATOM      8  C   UNL     1     213.191 210.242 152.427  1.00  0.00     0.123 A 
ATOM      9  C   UNL     1     213.429 209.560 153.618  1.00  0.00     0.094 A 
ATOM     10  C   UNL     1     213.266 208.175 153.687  1.00  0.00     0.146 A 
ATOM     11  O   UNL     1     213.493 207.566 154.844  1.00  0.00    -0.452 OA
ENDROOT
BRANCH   1  12
ATOM     12  C   UNL     1     213.657 205.699 156.361  1.00  0.00     0.025 A 
ATOM     13  C   UNL     1     214.814 206.080 157.063  1.00  0.00     0.016 A 
ATOM     14  C   UNL     1     215.074 205.558 158.333  1.00  0.00     0.051 A 
ATOM     15  C   UNL     1     214.177 204.660 158.924  1.00  0.00     0.157 A 
ATOM     16  C   UNL     1     212.750 204.815 156.969  1.00  0.00     0.062 A 
ATOM     17  C   UNL     1     213.012 204.290 158.243  1.00  0.00     0.158 A 
BRANCH  15  18
ATOM     18  O   UNL     1     214.434 204.136 160.190  1.00  0.00    -0.504 OA
ATOM     19  H   UNL     1     214.292 203.153 160.395  1.00  0.00     0.293 HD
ENDBRANCH  15  18
BRANCH  17  20
ATOM     20  O   UNL     1     212.117 203.402 158.837  1.00  0.00    -0.504 OA
ATOM     21  H   UNL     1     211.793 202.572 158.354  1.00  0.00     0.293 HD
ENDBRANCH  17  20
ENDBRANCH   1  12
BRANCH   2  22
ATOM     22  O   UNL     1     212.636 204.096 154.173  1.00  0.00    -0.502 OA
ATOM     23  H   UNL     1     213.036 203.582 154.948  1.00  0.00     0.293 HD
ENDBRANCH   2  22
BRANCH   6  24
ATOM     24  O   UNL     1     212.395 207.513 150.094  1.00  0.00    -0.507 OA
ATOM     25  H   UNL     1     212.304 206.517 149.966  1.00  0.00     0.293 HD
ENDBRANCH   6  24
BRANCH   8  26
ATOM     26  O   UNL     1     213.339 211.626 152.386  1.00  0.00    -0.508 OA
ATOM     27  H   UNL     1     213.882 212.123 153.082  1.00  0.00     0.293 HD
ENDBRANCH   8  26
TORSDOF 6
ENDMDL
MODEL 6
REMARK VINA RESULT:    -5.708      1.809      6.851
REMARK INTER + INTRA:          -7.008
REMARK INTER:                  -6.711
REMARK INTRA:                  -0.297
REMARK UNBOUND:                -0.133
REMARK SMILES O=c1c(O)c(-c2ccc(O)c(O)c2)oc2cc(O)cc(O)c12
REMARK SMILES IDX 5 1 3 2 2 3 1 4 22 5 20 6 19 7 17 8 16 9 15 10 14 11 6 12
REMARK SMILES IDX 7 13 8 14 9 15 13 16 11 17 10 18 12 20 4 22 21 24 18 26
REMARK H PARENT 10 19 12 21 4 23 21 25 18 27
REMARK Flexibility Score: inf
ROOT
ATOM      1  C   UNL     1     213.324 205.599 154.079  1.00  0.00     0.180 A 
ATOM      2  C   UNL     1     212.842 205.259 152.804  1.00  0.00     0.208 A 
ATOM      3  C   UNL     1     212.637 206.278 151.859  1.00  0.00     0.238 A 
ATOM      4  O   UNL     1     212.154 205.974 150.737  1.00  0.00    -0.285 OA
ATOM      5  C   UNL     1     212.933 207.621 152.196  1.00  0.00     0.111 A 
ATOM      6  C   UNL     1     212.801 208.728 151.305  1.00  0.00     0.134 A 
ATOM      7  C   UNL     1     212.996 210.028 151.786  1.00  0.00     0.093 A 
ATOM      8  C   UNL     1     213.382 210.257 153.110  1.00  0.00     0.123 A 
ATOM      9  C   UNL     1     213.571 209.179 153.970  1.00  0.00     0.094 A 
ATOM     10  C   UNL     1     213.348 207.872 153.530  1.00  0.00     0.146 A 
ATOM     11  O   UNL     1     213.530 206.874 154.386  1.00  0.00    -0.452 OA
ENDROOT
BRANCH   1  12
ATOM     12  C   UNL     1     213.588 204.578 155.120  1.00  0.00     0.025 A 
ATOM     13  C   UNL     1     214.747 203.782 155.086  1.00  0.00     0.016 A 
ATOM     14  C   UNL     1     214.988 202.842 156.092  1.00  0.00     0.051 A 
ATOM     15  C   UNL     1     214.083 202.694 157.151  1.00  0.00     0.157 A 
ATOM     16  C   UNL     1     212.696 204.440 156.196  1.00  0.00     0.062 A 
ATOM     17  C   UNL     1     212.937 203.496 157.205  1.00  0.00     0.158 A 
BRANCH  15  18
ATOM     18  O   UNL     1     214.319 201.757 158.155  1.00  0.00    -0.504 OA
ATOM     19  H   UNL     1     213.572 201.182 158.529  1.00  0.00     0.293 HD
ENDBRANCH  15  18
BRANCH  17  20
ATOM     20  O   UNL     1     212.043 203.353 158.264  1.00  0.00    -0.504 OA
ATOM     21  H   UNL     1     212.120 203.914 159.104  1.00  0.00     0.293 HD
ENDBRANCH  17  20
ENDBRANCH   1  12
BRANCH   2  22
ATOM     22  O   UNL     1     212.537 203.930 152.498  1.00  0.00    -0.502 OA
ATOM     23  H   UNL     1     212.136 203.293 153.177  1.00  0.00     0.293 HD
ENDBRANCH   2  22
BRANCH   6  24
ATOM     24  O   UNL     1     212.510 208.603 149.943  1.00  0.00    -0.507 OA
ATOM     25  H   UNL     1     212.070 209.317 149.382  1.00  0.00     0.293 HD
ENDBRANCH   6  24
BRANCH   8  26
ATOM     26  O   UNL     1     213.590 211.553 153.575  1.00  0.00    -0.508 OA
ATOM     27  H   UNL     1     213.425 212.361 152.986  1.00  0.00     0.293 HD
ENDBRANCH   8  26
TORSDOF 6
ENDMDL
MODEL 7
REMARK VINA RESULT:    -5.338     13.312     16.426
REMARK INTER + INTRA:          -6.563
REMARK INTER:                  -6.291
REMARK INTRA:                  -0.272
REMARK UNBOUND:                -0.133
REMARK SMILES O=c1c(O)c(-c2ccc(O)c(O)c2)oc2cc(O)cc(O)c12
REMARK SMILES IDX 5 1 3 2 2 3 1 4 22 5 20 6 19 7 17 8 16 9 15 10 14 11 6 12
REMARK SMILES IDX 7 13 8 14 9 15 13 16 11 17 10 18 12 20 4 22 21 24 18 26
REMARK H PARENT 10 19 12 21 4 23 21 25 18 27
REMARK Flexibility Score: inf
ROOT
ATOM      1  C   UNL     1     206.911 206.388 168.971  1.00  0.00     0.180 A 
ATOM      2  C   UNL     1     206.025 207.354 169.475  1.00  0.00     0.208 A 
ATOM      3  C   UNL     1     204.671 207.017 169.640  1.00  0.00     0.238 A 
ATOM      4  O   UNL     1     203.873 207.904 170.042  1.00  0.00    -0.285 OA
ATOM      5  C   UNL     1     204.225 205.714 169.314  1.00  0.00     0.111 A 
ATOM      6  C   UNL     1     202.885 205.252 169.478  1.00  0.00     0.134 A 
ATOM      7  C   UNL     1     202.528 203.986 169.000  1.00  0.00     0.093 A 
ATOM      8  C   UNL     1     203.479 203.139 168.422  1.00  0.00     0.123 A 
ATOM      9  C   UNL     1     204.801 203.559 168.311  1.00  0.00     0.094 A 
ATOM     10  C   UNL     1     205.180 204.831 168.746  1.00  0.00     0.146 A 
ATOM     11  O   UNL     1     206.450 205.195 168.612  1.00  0.00    -0.452 OA
ENDROOT
BRANCH   1  12
ATOM     12  C   UNL     1     208.357 206.660 168.792  1.00  0.00     0.025 A 
ATOM     13  C   UNL     1     209.230 206.725 169.892  1.00  0.00     0.016 A 
ATOM     14  C   UNL     1     210.594 206.959 169.699  1.00  0.00     0.051 A 
ATOM     15  C   UNL     1     211.106 207.117 168.405  1.00  0.00     0.157 A 
ATOM     16  C   UNL     1     208.880 206.798 167.496  1.00  0.00     0.062 A 
ATOM     17  C   UNL     1     210.248 207.034 167.302  1.00  0.00     0.158 A 
BRANCH  15  18
ATOM     18  O   UNL     1     212.466 207.352 168.207  1.00  0.00    -0.504 OA
ATOM     19  H   UNL     1     212.976 206.907 167.453  1.00  0.00     0.293 HD
ENDBRANCH  15  18
BRANCH  17  20
ATOM     20  O   UNL     1     210.762 207.184 166.015  1.00  0.00    -0.504 OA
ATOM     21  H   UNL     1     210.753 208.079 165.541  1.00  0.00     0.293 HD
ENDBRANCH  17  20
ENDBRANCH   1  12
BRANCH   2  22
ATOM     22  O   UNL     1     206.482 208.641 169.772  1.00  0.00    -0.502 OA
ATOM     23  H   UNL     1     207.197 208.818 170.468  1.00  0.00     0.293 HD
ENDBRANCH   2  22
BRANCH   6  24
ATOM     24  O   UNL     1     201.882 205.980 170.125  1.00  0.00    -0.507 OA
ATOM     25  H   UNL     1     201.653 205.898 171.104  1.00  0.00     0.293 HD
ENDBRANCH   6  24
BRANCH   8  26
ATOM     26  O   UNL     1     203.118 201.875 167.963  1.00  0.00    -0.508 OA
ATOM     27  H   UNL     1     203.565 201.455 167.156  1.00  0.00     0.293 HD
ENDBRANCH   8  26
TORSDOF 6
ENDMDL
MODEL 8
REMARK VINA RESULT:    -5.323      9.306     12.118
REMARK INTER + INTRA:          -6.545
REMARK INTER:                  -6.221
REMARK INTRA:                  -0.323
REMARK UNBOUND:                -0.133
REMARK SMILES O=c1c(O)c(-c2ccc(O)c(O)c2)oc2cc(O)cc(O)c12
REMARK SMILES IDX 5 1 3 2 2 3 1 4 22 5 20 6 19 7 17 8 16 9 15 10 14 11 6 12
REMARK SMILES IDX 7 13 8 14 9 15 13 16 11 17 10 18 12 20 4 22 21 24 18 26
REMARK H PARENT 10 19 12 21 4 23 21 25 18 27
REMARK Flexibility Score: inf
ROOT
ATOM      1  C   UNL     1     212.660 200.917 163.623  1.00  0.00     0.180 A 
ATOM      2  C   UNL     1     212.745 201.576 162.385  1.00  0.00     0.208 A 
ATOM      3  C   UNL     1     212.528 200.842 161.207  1.00  0.00     0.238 A 
ATOM      4  O   UNL     1     212.658 201.425 160.099  1.00  0.00    -0.285 OA
ATOM      5  C   UNL     1     212.214 199.464 161.284  1.00  0.00     0.111 A 
ATOM      6  C   UNL     1     211.937 198.632 160.158  1.00  0.00     0.134 A 
ATOM      7  C   UNL     1     211.768 197.255 160.342  1.00  0.00     0.093 A 
ATOM      8  C   UNL     1     211.802 196.688 161.619  1.00  0.00     0.123 A 
ATOM      9  C   UNL     1     212.013 197.501 162.729  1.00  0.00     0.094 A 
ATOM     10  C   UNL     1     212.221 198.873 162.575  1.00  0.00     0.146 A 
ATOM     11  O   UNL     1     212.429 199.610 163.659  1.00  0.00    -0.452 OA
ENDROOT
BRANCH   1  12
ATOM     12  C   UNL     1     212.851 201.628 164.909  1.00  0.00     0.025 A 
ATOM     13  C   UNL     1     214.125 201.757 165.492  1.00  0.00     0.016 A 
ATOM     14  C   UNL     1     214.286 202.453 166.692  1.00  0.00     0.051 A 
ATOM     15  C   UNL     1     213.181 203.042 167.320  1.00  0.00     0.157 A 
ATOM     16  C   UNL     1     211.751 202.240 165.532  1.00  0.00     0.062 A 
ATOM     17  C   UNL     1     211.912 202.938 166.738  1.00  0.00     0.158 A 
BRANCH  15  18
ATOM     18  O   UNL     1     213.337 203.736 168.519  1.00  0.00    -0.504 OA
ATOM     19  H   UNL     1     213.784 203.310 169.323  1.00  0.00     0.293 HD
ENDBRANCH  15  18
BRANCH  17  20
ATOM     20  O   UNL     1     210.816 203.532 167.360  1.00  0.00    -0.504 OA
ATOM     21  H   UNL     1     210.126 204.056 166.834  1.00  0.00     0.293 HD
ENDBRANCH  17  20
ENDBRANCH   1  12
BRANCH   2  22
ATOM     22  O   UNL     1     213.075 202.933 162.331  1.00  0.00    -0.502 OA
ATOM     23  H   UNL     1     212.743 203.602 163.015  1.00  0.00     0.293 HD
ENDBRANCH   2  22
BRANCH   6  24
ATOM     24  O   UNL     1     211.790 199.110 158.852  1.00  0.00    -0.507 OA
ATOM     25  H   UNL     1     210.953 199.541 158.489  1.00  0.00     0.293 HD
ENDBRANCH   6  24
BRANCH   8  26
ATOM     26  O   UNL     1     211.617 195.319 161.794  1.00  0.00    -0.508 OA
ATOM     27  H   UNL     1     210.727 194.875 161.602  1.00  0.00     0.293 HD
ENDBRANCH   8  26
TORSDOF 6
ENDMDL
MODEL 9
REMARK VINA RESULT:    -5.293      4.841     10.432
REMARK INTER + INTRA:          -6.508
REMARK INTER:                  -6.217
REMARK INTRA:                  -0.291
REMARK UNBOUND:                -0.133
REMARK SMILES O=c1c(O)c(-c2ccc(O)c(O)c2)oc2cc(O)cc(O)c12
REMARK SMILES IDX 5 1 3 2 2 3 1 4 22 5 20 6 19 7 17 8 16 9 15 10 14 11 6 12
REMARK SMILES IDX 7 13 8 14 9 15 13 16 11 17 10 18 12 20 4 22 21 24 18 26
REMARK H PARENT 10 19 12 21 4 23 21 25 18 27
REMARK Flexibility Score: inf
ROOT
ATOM      1  C   UNL     1     213.263 200.422 159.424  1.00  0.00     0.180 A 
ATOM      2  C   UNL     1     212.888 201.517 160.221  1.00  0.00     0.208 A 
ATOM      3  C   UNL     1     212.822 202.793 159.637  1.00  0.00     0.238 A 
ATOM      4  O   UNL     1     212.538 203.777 160.368  1.00  0.00    -0.285 OA
ATOM      5  C   UNL     1     213.115 202.954 158.262  1.00  0.00     0.111 A 
ATOM      6  C   UNL     1     213.041 204.193 157.558  1.00  0.00     0.134 A 
ATOM      7  C   UNL     1     213.479 204.260 156.230  1.00  0.00     0.093 A 
ATOM      8  C   UNL     1     213.928 203.118 155.560  1.00  0.00     0.123 A 
ATOM      9  C   UNL     1     213.948 201.893 156.222  1.00  0.00     0.094 A 
ATOM     10  C   UNL     1     213.551 201.801 157.557  1.00  0.00     0.146 A 
ATOM     11  O   UNL     1     213.595 200.616 158.153  1.00  0.00    -0.452 OA
ENDROOT
BRANCH   1  12
ATOM     12  C   UNL     1     213.332 199.043 159.961  1.00  0.00     0.025 A 
ATOM     13  C   UNL     1     214.554 198.474 160.362  1.00  0.00     0.016 A 
ATOM     14  C   UNL     1     214.592 197.181 160.889  1.00  0.00     0.051 A 
ATOM     15  C   UNL     1     213.411 196.443 161.036  1.00  0.00     0.157 A 
ATOM     16  C   UNL     1     212.148 198.306 160.131  1.00  0.00     0.062 A 
ATOM     17  C   UNL     1     212.187 197.008 160.660  1.00  0.00     0.158 A 
BRANCH  15  18
ATOM     18  O   UNL     1     213.445 195.152 161.560  1.00  0.00    -0.504 OA
ATOM     19  H   UNL     1     213.869 194.957 162.460  1.00  0.00     0.293 HD
ENDBRANCH  15  18
BRANCH  17  20
ATOM     20  O   UNL     1     211.012 196.275 160.814  1.00  0.00    -0.504 OA
ATOM     21  H   UNL     1     210.231 196.382 160.177  1.00  0.00     0.293 HD
ENDBRANCH  17  20
ENDBRANCH   1  12
BRANCH   2  22
ATOM     22  O   UNL     1     212.623 201.338 161.581  1.00  0.00    -0.502 OA
ATOM     23  H   UNL     1     211.871 200.748 161.916  1.00  0.00     0.293 HD
ENDBRANCH   2  22
BRANCH   6  24
ATOM     24  O   UNL     1     212.522 205.371 158.103  1.00  0.00    -0.507 OA
ATOM     25  H   UNL     1     212.757 205.735 159.015  1.00  0.00     0.293 HD
ENDBRANCH   6  24
BRANCH   8  26
ATOM     26  O   UNL     1     214.348 203.191 154.235  1.00  0.00    -0.508 OA
ATOM     27  H   UNL     1     215.104 202.615 153.885  1.00  0.00     0.293 HD
ENDBRANCH   8  26
TORSDOF 6
ENDMDL
