MODEL 1
REMARK VINA RESULT:    -5.239      0.000      0.000
REMARK INTER + INTRA:         -16.151
REMARK INTER:                 -13.813
REMARK INTRA:                  -2.338
REMARK UNBOUND:                -2.338
REMARK SMILES CCCCCCCCCCCCCCCCCCCCCCCCCCCCCC(=O)[O-]
REMARK SMILES IDX 16 1 17 2 18 3 19 4 20 5 21 6 22 7 23 8 24 9 25 10 26 11
REMARK SMILES IDX 27 12 28 13 29 14 30 15 31 16 32 17 15 18 14 19 13 20 12 21
REMARK SMILES IDX 11 22 10 23 9 24 8 25 7 26 6 27 5 28 4 29 3 30 2 31 1 32
REMARK H PARENT
REMARK Flexibility Score: inf
ROOT
ATOM      1  C   UNL     1      12.014  47.157  22.796  1.00  0.00     0.000 C 
ENDROOT
BRANCH   1   2
ATOM      2  C   UNL     1      10.586  47.726  22.698  1.00  0.00     0.000 C 
BRANCH   2   3
ATOM      3  C   UNL     1      10.423  49.126  23.316  1.00  0.00     0.000 C 
BRANCH   3   4
ATOM      4  C   UNL     1      10.798  50.258  22.346  1.00  0.00     0.000 C 
BRANCH   4   5
ATOM      5  C   UNL     1       9.732  51.361  22.349  1.00  0.00     0.000 C 
BRANCH   5   6
ATOM      6  C   UNL     1      10.242  52.631  21.654  1.00  0.00     0.000 C 
BRANCH   6   7
ATOM      7  C   UNL     1       9.899  53.918  22.429  1.00  0.00     0.000 C 
BRANCH   7   8
ATOM      8  C   UNL     1       9.129  53.666  23.741  1.00  0.00     0.000 C 
BRANCH   8   9
ATOM      9  C   UNL     1       7.656  54.089  23.645  1.00  0.00     0.000 C 
BRANCH   9  10
ATOM     10  C   UNL     1       7.024  53.616  22.326  1.00  0.00     0.000 C 
BRANCH  10  11
ATOM     11  C   UNL     1       6.316  54.749  21.562  1.00  0.00     0.000 C 
BRANCH  11  12
ATOM     12  C   UNL     1       7.219  55.933  21.181  1.00  0.00     0.000 C 
BRANCH  12  13
ATOM     13  C   UNL     1       8.032  55.671  19.904  1.00  0.00     0.006 C 
BRANCH  13  14
ATOM     14  C   UNL     1       7.241  56.086  18.660  1.00  0.00     0.053 C 
BRANCH  14  15
ATOM     15  C   UNL     1       6.963  54.901  17.786  1.00  0.00     0.041 C 
ATOM     16  O   UNL     1       7.126  53.735  18.231  1.00  0.00    -0.550 OA
ATOM     17  O   UNL     1       6.537  55.084  16.474  1.00  0.00    -0.550 OA
ENDBRANCH  14  15
ENDBRANCH  13  14
ENDBRANCH  12  13
ENDBRANCH  11  12
ENDBRANCH  10  11
ENDBRANCH   9  10
ENDBRANCH   8   9
ENDBRANCH   7   8
ENDBRANCH   6   7
ENDBRANCH   5   6
ENDBRANCH   4   5
ENDBRANCH   3   4
ENDBRANCH   2   3
ENDBRANCH   1   2
BRANCH   1  18
ATOM     18  C   UNL     1      12.769  47.620  24.059  1.00  0.00     0.000 C 
BRANCH  18  19
ATOM     19  C   UNL     1      12.311  46.852  25.311  1.00  0.00     0.000 C 
BRANCH  19  20
ATOM     20  C   UNL     1      12.971  45.465  25.404  1.00  0.00     0.000 C 
BRANCH  20  21
ATOM     21  C   UNL     1      11.960  44.306  25.367  1.00  0.00     0.000 C 
BRANCH  21  22
ATOM     22  C   UNL     1      10.501  44.710  25.649  1.00  0.00     0.000 C 
BRANCH  22  23
ATOM     23  C   UNL     1       9.566  44.633  24.430  1.00  0.00     0.000 C 
BRANCH  23  24
ATOM     24  C   UNL     1       8.134  45.140  24.716  1.00  0.00    -0.000 C 
BRANCH  24  25
ATOM     25  C   UNL     1       7.175  45.014  23.515  1.00  0.00    -0.000 C 
BRANCH  25  26
ATOM     26  C   UNL     1       6.038  46.056  23.499  1.00  0.00    -0.000 C 
BRANCH  26  27
ATOM     27  C   UNL     1       4.879  45.745  24.469  1.00  0.00    -0.000 C 
BRANCH  27  28
ATOM     28  C   UNL     1       3.491  45.702  23.787  1.00  0.00    -0.000 C 
BRANCH  28  29
ATOM     29  C   UNL     1       3.170  46.958  22.955  1.00  0.00    -0.000 C 
BRANCH  29  30
ATOM     30  C   UNL     1       2.119  46.748  21.848  1.00  0.00    -0.000 C 
BRANCH  30  31
ATOM     31  C   UNL     1       0.696  47.206  22.219  1.00  0.00    -0.003 C 
ATOM     32  C   UNL     1       0.661  48.580  22.889  1.00  0.00     0.004 C 
ENDBRANCH  30  31
ENDBRANCH  29  30
ENDBRANCH  28  29
ENDBRANCH  27  28
ENDBRANCH  26  27
ENDBRANCH  25  26
ENDBRANCH  24  25
ENDBRANCH  23  24
ENDBRANCH  22  23
ENDBRANCH  21  22
ENDBRANCH  20  21
ENDBRANCH  19  20
ENDBRANCH  18  19
ENDBRANCH   1  18
TORSDOF 28
ENDMDL
MODEL 2
REMARK VINA RESULT:    -5.218      3.983      7.570
REMARK INTER + INTRA:         -16.096
REMARK INTER:                 -14.100
REMARK INTRA:                  -1.996
REMARK UNBOUND:                -2.338
REMARK SMILES CCCCCCCCCCCCCCCCCCCCCCCCCCCCCC(=O)[O-]
REMARK SMILES IDX 16 1 17 2 18 3 19 4 20 5 21 6 22 7 23 8 24 9 25 10 26 11
REMARK SMILES IDX 27 12 28 13 29 14 30 15 31 16 32 17 15 18 14 19 13 20 12 21
REMARK SMILES IDX 11 22 10 23 9 24 8 25 7 26 6 27 5 28 4 29 3 30 2 31 1 32
REMARK H PARENT
REMARK Flexibility Score: inf
ROOT
ATOM      1  C   UNL     1      10.067  53.564  23.184  1.00  0.00     0.000 C 
ENDROOT
BRANCH   1   2
ATOM      2  C   UNL     1       8.810  54.447  23.068  1.00  0.00     0.000 C 
BRANCH   2   3
ATOM      3  C   UNL     1       7.508  53.661  22.831  1.00  0.00     0.000 C 
BRANCH   3   4
ATOM      4  C   UNL     1       6.494  54.425  21.965  1.00  0.00     0.000 C 
BRANCH   4   5
ATOM      5  C   UNL     1       7.196  55.168  20.822  1.00  0.00     0.000 C 
BRANCH   5   6
ATOM      6  C   UNL     1       6.641  56.589  20.656  1.00  0.00     0.000 C 
BRANCH   6   7
ATOM      7  C   UNL     1       5.194  56.732  21.166  1.00  0.00     0.000 C 
BRANCH   7   8
ATOM      8  C   UNL     1       4.375  57.804  20.418  1.00  0.00     0.000 C 
BRANCH   8   9
ATOM      9  C   UNL     1       2.981  58.005  21.029  1.00  0.00     0.000 C 
BRANCH   9  10
ATOM     10  C   UNL     1       2.837  59.407  21.643  1.00  0.00     0.000 C 
BRANCH  10  11
ATOM     11  C   UNL     1       1.829  60.290  20.888  1.00  0.00     0.000 C 
BRANCH  11  12
ATOM     12  C   UNL     1       2.289  60.750  19.495  1.00  0.00     0.000 C 
BRANCH  12  13
ATOM     13  C   UNL     1       1.223  60.519  18.414  1.00  0.00     0.006 C 
BRANCH  13  14
ATOM     14  C   UNL     1       1.682  59.453  17.415  1.00  0.00     0.053 C 
BRANCH  14  15
ATOM     15  C   UNL     1       1.120  59.723  16.052  1.00  0.00     0.041 C 
ATOM     16  O   UNL     1       0.796  60.894  15.722  1.00  0.00    -0.550 OA
ATOM     17  O   UNL     1       0.939  58.680  15.150  1.00  0.00    -0.550 OA
ENDBRANCH  14  15
ENDBRANCH  13  14
ENDBRANCH  12  13
ENDBRANCH  11  12
ENDBRANCH  10  11
ENDBRANCH   9  10
ENDBRANCH   8   9
ENDBRANCH   7   8
ENDBRANCH   6   7
ENDBRANCH   5   6
ENDBRANCH   4   5
ENDBRANCH   3   4
ENDBRANCH   2   3
ENDBRANCH   1   2
BRANCH   1  18
ATOM     18  C   UNL     1      10.403  52.810  21.882  1.00  0.00     0.000 C 
BRANCH  18  19
ATOM     19  C   UNL     1       9.818  51.387  21.880  1.00  0.00     0.000 C 
BRANCH  19  20
ATOM     20  C   UNL     1      10.647  50.427  22.751  1.00  0.00     0.000 C 
BRANCH  20  21
ATOM     21  C   UNL     1      10.372  48.942  22.452  1.00  0.00     0.000 C 
BRANCH  21  22
ATOM     22  C   UNL     1      10.550  47.996  23.653  1.00  0.00     0.000 C 
BRANCH  22  23
ATOM     23  C   UNL     1       9.699  46.716  23.596  1.00  0.00     0.000 C 
BRANCH  23  24
ATOM     24  C   UNL     1      10.530  45.429  23.394  1.00  0.00    -0.000 C 
BRANCH  24  25
ATOM     25  C   UNL     1      10.545  44.495  24.620  1.00  0.00    -0.000 C 
BRANCH  25  26
ATOM     26  C   UNL     1      11.153  45.126  25.890  1.00  0.00    -0.000 C 
BRANCH  26  27
ATOM     27  C   UNL     1      12.346  44.342  26.477  1.00  0.00    -0.000 C 
BRANCH  27  28
ATOM     28  C   UNL     1      12.948  44.986  27.748  1.00  0.00    -0.000 C 
BRANCH  28  29
ATOM     29  C   UNL     1      12.050  46.066  28.382  1.00  0.00    -0.000 C 
BRANCH  29  30
ATOM     30  C   UNL     1      12.600  47.502  28.283  1.00  0.00    -0.000 C 
BRANCH  30  31
ATOM     31  C   UNL     1      13.853  47.650  27.401  1.00  0.00    -0.003 C 
ATOM     32  C   UNL     1      13.537  48.102  25.976  1.00  0.00     0.004 C 
ENDBRANCH  30  31
ENDBRANCH  29  30
ENDBRANCH  28  29
ENDBRANCH  27  28
ENDBRANCH  26  27
ENDBRANCH  25  26
ENDBRANCH  24  25
ENDBRANCH  23  24
ENDBRANCH  22  23
ENDBRANCH  21  22
ENDBRANCH  20  21
ENDBRANCH  19  20
ENDBRANCH  18  19
ENDBRANCH   1  18
TORSDOF 28
ENDMDL
MODEL 3
REMARK VINA RESULT:    -5.202      5.472      9.624
REMARK INTER + INTRA:         -16.054
REMARK INTER:                 -11.525
REMARK INTRA:                  -4.529
REMARK UNBOUND:                -2.338
REMARK SMILES CCCCCCCCCCCCCCCCCCCCCCCCCCCCCC(=O)[O-]
REMARK SMILES IDX 16 1 17 2 18 3 19 4 20 5 21 6 22 7 23 8 24 9 25 10 26 11
REMARK SMILES IDX 27 12 28 13 29 14 30 15 31 16 32 17 15 18 14 19 13 20 12 21
REMARK SMILES IDX 11 22 10 23 9 24 8 25 7 26 6 27 5 28 4 29 3 30 2 31 1 32
REMARK H PARENT
REMARK Flexibility Score: inf
ROOT
ATOM      1  C   UNL     1       2.746  48.814  24.430  1.00  0.00     0.000 C 
ENDROOT
BRANCH   1   2
ATOM      2  C   UNL     1       1.903  48.326  23.237  1.00  0.00     0.000 C 
BRANCH   2   3
ATOM      3  C   UNL     1       2.528  47.152  22.462  1.00  0.00     0.000 C 
BRANCH   3   4
ATOM      4  C   UNL     1       3.605  46.407  23.266  1.00  0.00     0.000 C 
BRANCH   4   5
ATOM      5  C   UNL     1       3.016  45.176  23.966  1.00  0.00     0.000 C 
BRANCH   5   6
ATOM      6  C   UNL     1       3.803  44.827  25.237  1.00  0.00     0.000 C 
BRANCH   6   7
ATOM      7  C   UNL     1       4.681  45.989  25.738  1.00  0.00     0.000 C 
BRANCH   7   8
ATOM      8  C   UNL     1       6.174  45.627  25.870  1.00  0.00     0.000 C 
BRANCH   8   9
ATOM      9  C   UNL     1       6.545  44.375  25.063  1.00  0.00     0.000 C 
BRANCH   9  10
ATOM     10  C   UNL     1       7.048  44.744  23.658  1.00  0.00     0.000 C 
BRANCH  10  11
ATOM     11  C   UNL     1       7.780  46.096  23.620  1.00  0.00     0.000 C 
BRANCH  11  12
ATOM     12  C   UNL     1       9.312  45.999  23.530  1.00  0.00     0.000 C 
BRANCH  12  13
ATOM     13  C   UNL     1       9.974  47.354  23.241  1.00  0.00     0.006 C 
BRANCH  13  14
ATOM     14  C   UNL     1      11.462  47.177  22.924  1.00  0.00     0.053 C 
BRANCH  14  15
ATOM     15  C   UNL     1      12.311  47.838  23.967  1.00  0.00     0.041 C 
ATOM     16  O   UNL     1      13.447  48.288  23.664  1.00  0.00    -0.550 OA
ATOM     17  O   UNL     1      11.855  47.945  25.276  1.00  0.00    -0.550 OA
ENDBRANCH  14  15
ENDBRANCH  13  14
ENDBRANCH  12  13
ENDBRANCH  11  12
ENDBRANCH  10  11
ENDBRANCH   9  10
ENDBRANCH   8   9
ENDBRANCH   7   8
ENDBRANCH   6   7
ENDBRANCH   5   6
ENDBRANCH   4   5
ENDBRANCH   3   4
ENDBRANCH   2   3
ENDBRANCH   1   2
BRANCH   1  18
ATOM     18  C   UNL     1       1.990  48.760  25.773  1.00  0.00     0.000 C 
BRANCH  18  19
ATOM     19  C   UNL     1       0.465  48.762  25.569  1.00  0.00     0.000 C 
BRANCH  19  20
ATOM     20  C   UNL     1      -0.221  47.654  26.385  1.00  0.00     0.000 C 
BRANCH  20  21
ATOM     21  C   UNL     1       0.608  46.360  26.475  1.00  0.00     0.000 C 
BRANCH  21  22
ATOM     22  C   UNL     1       0.540  45.641  27.835  1.00  0.00     0.000 C 
BRANCH  22  23
ATOM     23  C   UNL     1       1.905  45.403  28.504  1.00  0.00     0.000 C 
BRANCH  23  24
ATOM     24  C   UNL     1       2.641  46.707  28.890  1.00  0.00    -0.000 C 
BRANCH  24  25
ATOM     25  C   UNL     1       2.760  46.931  30.410  1.00  0.00    -0.000 C 
BRANCH  25  26
ATOM     26  C   UNL     1       2.051  48.201  30.922  1.00  0.00    -0.000 C 
BRANCH  26  27
ATOM     27  C   UNL     1       0.703  48.496  30.231  1.00  0.00    -0.000 C 
BRANCH  27  28
ATOM     28  C   UNL     1       0.334  49.998  30.201  1.00  0.00    -0.000 C 
BRANCH  28  29
ATOM     29  C   UNL     1       0.079  50.547  28.784  1.00  0.00    -0.000 C 
BRANCH  29  30
ATOM     30  C   UNL     1       1.151  51.528  28.270  1.00  0.00    -0.000 C 
BRANCH  30  31
ATOM     31  C   UNL     1       0.661  52.977  28.093  1.00  0.00    -0.003 C 
ATOM     32  C   UNL     1       0.528  53.733  29.415  1.00  0.00     0.004 C 
ENDBRANCH  30  31
ENDBRANCH  29  30
ENDBRANCH  28  29
ENDBRANCH  27  28
ENDBRANCH  26  27
ENDBRANCH  25  26
ENDBRANCH  24  25
ENDBRANCH  23  24
ENDBRANCH  22  23
ENDBRANCH  21  22
ENDBRANCH  20  21
ENDBRANCH  19  20
ENDBRANCH  18  19
ENDBRANCH   1  18
TORSDOF 28
ENDMDL
MODEL 4
REMARK VINA RESULT:    -5.190      2.961      8.886
REMARK INTER + INTRA:         -16.023
REMARK INTER:                 -13.237
REMARK INTRA:                  -2.785
REMARK UNBOUND:                -2.338
REMARK SMILES CCCCCCCCCCCCCCCCCCCCCCCCCCCCCC(=O)[O-]
REMARK SMILES IDX 16 1 17 2 18 3 19 4 20 5 21 6 22 7 23 8 24 9 25 10 26 11
REMARK SMILES IDX 27 12 28 13 29 14 30 15 31 16 32 17 15 18 14 19 13 20 12 21
REMARK SMILES IDX 11 22 10 23 9 24 8 25 7 26 6 27 5 28 4 29 3 30 2 31 1 32
REMARK H PARENT
REMARK Flexibility Score: inf
ROOT
ATOM      1  C   UNL     1      10.478  48.884  23.110  1.00  0.00     0.000 C 
ENDROOT
BRANCH   1   2
ATOM      2  C   UNL     1      11.821  48.293  23.579  1.00  0.00     0.000 C 
BRANCH   2   3
ATOM      3  C   UNL     1      11.765  47.622  24.962  1.00  0.00     0.000 C 
BRANCH   3   4
ATOM      4  C   UNL     1      12.672  46.385  25.067  1.00  0.00     0.000 C 
BRANCH   4   5
ATOM      5  C   UNL     1      11.841  45.105  25.219  1.00  0.00     0.000 C 
BRANCH   5   6
ATOM      6  C   UNL     1      10.346  45.382  25.010  1.00  0.00     0.000 C 
BRANCH   6   7
ATOM      7  C   UNL     1       9.864  45.038  23.588  1.00  0.00     0.000 C 
BRANCH   7   8
ATOM      8  C   UNL     1       8.329  44.979  23.449  1.00  0.00     0.000 C 
BRANCH   8   9
ATOM      9  C   UNL     1       7.612  45.723  24.585  1.00  0.00     0.000 C 
BRANCH   9  10
ATOM     10  C   UNL     1       6.397  44.929  25.094  1.00  0.00     0.000 C 
BRANCH  10  11
ATOM     11  C   UNL     1       5.099  45.754  25.087  1.00  0.00     0.000 C 
BRANCH  11  12
ATOM     12  C   UNL     1       4.577  46.126  23.689  1.00  0.00     0.000 C 
BRANCH  12  13
ATOM     13  C   UNL     1       3.470  47.190  23.734  1.00  0.00     0.006 C 
BRANCH  13  14
ATOM     14  C   UNL     1       2.707  47.239  22.407  1.00  0.00     0.053 C 
BRANCH  14  15
ATOM     15  C   UNL     1       1.584  46.248  22.402  1.00  0.00     0.041 C 
ATOM     16  O   UNL     1       0.992  45.958  23.474  1.00  0.00    -0.550 OA
ATOM     17  O   UNL     1       1.198  45.632  21.215  1.00  0.00    -0.550 OA
ENDBRANCH  14  15
ENDBRANCH  13  14
ENDBRANCH  12  13
ENDBRANCH  11  12
ENDBRANCH  10  11
ENDBRANCH   9  10
ENDBRANCH   8   9
ENDBRANCH   7   8
ENDBRANCH   6   7
ENDBRANCH   5   6
ENDBRANCH   4   5
ENDBRANCH   3   4
ENDBRANCH   2   3
ENDBRANCH   1   2
BRANCH   1  18
ATOM     18  C   UNL     1      10.636  49.975  22.032  1.00  0.00     0.000 C 
BRANCH  18  19
ATOM     19  C   UNL     1      10.177  51.352  22.542  1.00  0.00     0.000 C 
BRANCH  19  20
ATOM     20  C   UNL     1       9.872  52.318  21.384  1.00  0.00     0.000 C 
BRANCH  20  21
ATOM     21  C   UNL     1      10.265  53.774  21.687  1.00  0.00     0.000 C 
BRANCH  21  22
ATOM     22  C   UNL     1      10.650  54.050  23.152  1.00  0.00     0.000 C 
BRANCH  22  23
ATOM     23  C   UNL     1       9.535  54.683  24.002  1.00  0.00     0.000 C 
BRANCH  23  24
ATOM     24  C   UNL     1       8.801  53.671  24.913  1.00  0.00    -0.000 C 
BRANCH  24  25
ATOM     25  C   UNL     1       7.547  53.047  24.270  1.00  0.00    -0.000 C 
BRANCH  25  26
ATOM     26  C   UNL     1       6.615  54.064  23.580  1.00  0.00    -0.000 C 
BRANCH  26  27
ATOM     27  C   UNL     1       6.669  54.028  22.038  1.00  0.00    -0.000 C 
BRANCH  27  28
ATOM     28  C   UNL     1       5.989  55.242  21.363  1.00  0.00    -0.000 C 
BRANCH  28  29
ATOM     29  C   UNL     1       6.982  56.243  20.741  1.00  0.00    -0.000 C 
BRANCH  29  30
ATOM     30  C   UNL     1       7.885  55.654  19.638  1.00  0.00    -0.000 C 
BRANCH  30  31
ATOM     31  C   UNL     1       7.186  55.442  18.283  1.00  0.00    -0.003 C 
ATOM     32  C   UNL     1       6.873  53.974  17.990  1.00  0.00     0.004 C 
ENDBRANCH  30  31
ENDBRANCH  29  30
ENDBRANCH  28  29
ENDBRANCH  27  28
ENDBRANCH  26  27
ENDBRANCH  25  26
ENDBRANCH  24  25
ENDBRANCH  23  24
ENDBRANCH  22  23
ENDBRANCH  21  22
ENDBRANCH  20  21
ENDBRANCH  19  20
ENDBRANCH  18  19
ENDBRANCH   1  18
TORSDOF 28
ENDMDL
MODEL 5
REMARK VINA RESULT:    -5.182      3.773      9.107
REMARK INTER + INTRA:         -16.003
REMARK INTER:                 -12.998
REMARK INTRA:                  -3.004
REMARK UNBOUND:                -2.338
REMARK SMILES CCCCCCCCCCCCCCCCCCCCCCCCCCCCCC(=O)[O-]
REMARK SMILES IDX 16 1 17 2 18 3 19 4 20 5 21 6 22 7 23 8 24 9 25 10 26 11
REMARK SMILES IDX 27 12 28 13 29 14 30 15 31 16 32 17 15 18 14 19 13 20 12 21
REMARK SMILES IDX 11 22 10 23 9 24 8 25 7 26 6 27 5 28 4 29 3 30 2 31 1 32
REMARK H PARENT
REMARK Flexibility Score: inf
ROOT
ATOM      1  C   UNL     1       8.131  44.657  23.448  1.00  0.00     0.000 C 
ENDROOT
BRANCH   1   2
ATOM      2  C   UNL     1       6.662  44.852  23.869  1.00  0.00     0.000 C 
BRANCH   2   3
ATOM      3  C   UNL     1       6.405  46.133  24.681  1.00  0.00     0.000 C 
BRANCH   3   4
ATOM      4  C   UNL     1       4.910  46.457  24.833  1.00  0.00     0.000 C 
BRANCH   4   5
ATOM      5  C   UNL     1       4.065  45.631  23.857  1.00  0.00     0.000 C 
BRANCH   5   6
ATOM      6  C   UNL     1       3.368  46.528  22.824  1.00  0.00     0.000 C 
BRANCH   6   7
ATOM      7  C   UNL     1       1.993  45.987  22.389  1.00  0.00     0.000 C 
BRANCH   7   8
ATOM      8  C   UNL     1       0.881  47.055  22.378  1.00  0.00     0.000 C 
BRANCH   8   9
ATOM      9  C   UNL     1       1.442  48.481  22.284  1.00  0.00     0.000 C 
BRANCH   9  10
ATOM     10  C   UNL     1       0.965  49.349  23.460  1.00  0.00     0.000 C 
BRANCH  10  11
ATOM     11  C   UNL     1       2.056  49.569  24.522  1.00  0.00     0.000 C 
BRANCH  11  12
ATOM     12  C   UNL     1       1.562  49.511  25.977  1.00  0.00     0.000 C 
BRANCH  12  13
ATOM     13  C   UNL     1       0.709  48.266  26.263  1.00  0.00     0.006 C 
BRANCH  13  14
ATOM     14  C   UNL     1       1.565  46.997  26.218  1.00  0.00     0.053 C 
BRANCH  14  15
ATOM     15  C   UNL     1       1.729  46.416  27.590  1.00  0.00     0.041 C 
ATOM     16  O   UNL     1       2.876  46.123  28.019  1.00  0.00    -0.550 OA
ATOM     17  O   UNL     1       0.615  46.186  28.390  1.00  0.00    -0.550 OA
ENDBRANCH  14  15
ENDBRANCH  13  14
ENDBRANCH  12  13
ENDBRANCH  11  12
ENDBRANCH  10  11
ENDBRANCH   9  10
ENDBRANCH   8   9
ENDBRANCH   7   8
ENDBRANCH   6   7
ENDBRANCH   5   6
ENDBRANCH   4   5
ENDBRANCH   3   4
ENDBRANCH   2   3
ENDBRANCH   1   2
BRANCH   1  18
ATOM     18  C   UNL     1       9.137  45.034  24.555  1.00  0.00     0.000 C 
BRANCH  18  19
ATOM     19  C   UNL     1      10.265  45.932  24.018  1.00  0.00     0.000 C 
BRANCH  19  20
ATOM     20  C   UNL     1       9.815  47.398  23.887  1.00  0.00     0.000 C 
BRANCH  20  21
ATOM     21  C   UNL     1      10.275  48.061  22.576  1.00  0.00     0.000 C 
BRANCH  21  22
ATOM     22  C   UNL     1      10.853  49.479  22.737  1.00  0.00     0.000 C 
BRANCH  22  23
ATOM     23  C   UNL     1       9.887  50.614  22.356  1.00  0.00     0.000 C 
BRANCH  23  24
ATOM     24  C   UNL     1      10.544  52.013  22.361  1.00  0.00    -0.000 C 
BRANCH  24  25
ATOM     25  C   UNL     1      10.017  52.955  21.261  1.00  0.00    -0.000 C 
BRANCH  25  26
ATOM     26  C   UNL     1       9.546  54.331  21.776  1.00  0.00    -0.000 C 
BRANCH  26  27
ATOM     27  C   UNL     1       8.529  54.260  22.934  1.00  0.00    -0.000 C 
BRANCH  27  28
ATOM     28  C   UNL     1       7.109  53.836  22.490  1.00  0.00    -0.000 C 
BRANCH  28  29
ATOM     29  C   UNL     1       6.507  54.737  21.395  1.00  0.00    -0.000 C 
BRANCH  29  30
ATOM     30  C   UNL     1       6.482  54.111  19.986  1.00  0.00    -0.000 C 
BRANCH  30  31
ATOM     31  C   UNL     1       7.089  54.995  18.881  1.00  0.00    -0.003 C 
ATOM     32  C   UNL     1       7.541  56.366  19.387  1.00  0.00     0.004 C 
ENDBRANCH  30  31
ENDBRANCH  29  30
ENDBRANCH  28  29
ENDBRANCH  27  28
ENDBRANCH  26  27
ENDBRANCH  25  26
ENDBRANCH  24  25
ENDBRANCH  23  24
ENDBRANCH  22  23
ENDBRANCH  21  22
ENDBRANCH  20  21
ENDBRANCH  19  20
ENDBRANCH  18  19
ENDBRANCH   1  18
TORSDOF 28
ENDMDL
MODEL 6
REMARK VINA RESULT:    -5.140      5.803     12.582
REMARK INTER + INTRA:         -15.891
REMARK INTER:                 -13.933
REMARK INTRA:                  -1.958
REMARK UNBOUND:                -2.338
REMARK SMILES CCCCCCCCCCCCCCCCCCCCCCCCCCCCCC(=O)[O-]
REMARK SMILES IDX 16 1 17 2 18 3 19 4 20 5 21 6 22 7 23 8 24 9 25 10 26 11
REMARK SMILES IDX 27 12 28 13 29 14 30 15 31 16 32 17 15 18 14 19 13 20 12 21
REMARK SMILES IDX 11 22 10 23 9 24 8 25 7 26 6 27 5 28 4 29 3 30 2 31 1 32
REMARK H PARENT
REMARK Flexibility Score: inf
ROOT
ATOM      1  C   UNL     1       7.867  54.428  20.007  1.00  0.00     0.000 C 
ENDROOT
BRANCH   1   2
ATOM      2  C   UNL     1       8.310  54.792  21.437  1.00  0.00     0.000 C 
BRANCH   2   3
ATOM      3  C   UNL     1       7.544  54.044  22.542  1.00  0.00     0.000 C 
BRANCH   3   4
ATOM      4  C   UNL     1       8.303  52.817  23.073  1.00  0.00     0.000 C 
BRANCH   4   5
ATOM      5  C   UNL     1       9.819  53.037  23.010  1.00  0.00     0.000 C 
BRANCH   5   6
ATOM      6  C   UNL     1      10.502  51.974  22.138  1.00  0.00     0.000 C 
BRANCH   6   7
ATOM      7  C   UNL     1       9.964  50.553  22.394  1.00  0.00     0.000 C 
BRANCH   7   8
ATOM      8  C   UNL     1      11.051  49.546  22.825  1.00  0.00     0.000 C 
BRANCH   8   9
ATOM      9  C   UNL     1      10.727  48.112  22.382  1.00  0.00     0.000 C 
BRANCH   9  10
ATOM     10  C   UNL     1       9.995  47.336  23.488  1.00  0.00     0.000 C 
BRANCH  10  11
ATOM     11  C   UNL     1      10.507  45.894  23.646  1.00  0.00     0.000 C 
BRANCH  11  12
ATOM     12  C   UNL     1      10.148  45.224  24.983  1.00  0.00     0.000 C 
BRANCH  12  13
ATOM     13  C   UNL     1      11.372  45.014  25.887  1.00  0.00     0.006 C 
BRANCH  13  14
ATOM     14  C   UNL     1      12.605  45.712  25.305  1.00  0.00     0.053 C 
BRANCH  14  15
ATOM     15  C   UNL     1      12.998  46.888  26.146  1.00  0.00     0.041 C 
ATOM     16  O   UNL     1      12.424  47.998  25.989  1.00  0.00    -0.550 OA
ATOM     17  O   UNL     1      14.007  46.765  27.095  1.00  0.00    -0.550 OA
ENDBRANCH  14  15
ENDBRANCH  13  14
ENDBRANCH  12  13
ENDBRANCH  11  12
ENDBRANCH  10  11
ENDBRANCH   9  10
ENDBRANCH   8   9
ENDBRANCH   7   8
ENDBRANCH   6   7
ENDBRANCH   5   6
ENDBRANCH   4   5
ENDBRANCH   3   4
ENDBRANCH   2   3
ENDBRANCH   1   2
BRANCH   1  18
ATOM     18  C   UNL     1       7.195  55.599  19.261  1.00  0.00     0.000 C 
BRANCH  18  19
ATOM     19  C   UNL     1       6.660  56.663  20.235  1.00  0.00     0.000 C 
BRANCH  19  20
ATOM     20  C   UNL     1       5.162  56.471  20.525  1.00  0.00     0.000 C 
BRANCH  20  21
ATOM     21  C   UNL     1       4.523  57.670  21.249  1.00  0.00     0.000 C 
BRANCH  21  22
ATOM     22  C   UNL     1       3.498  58.459  20.414  1.00  0.00     0.000 C 
BRANCH  22  23
ATOM     23  C   UNL     1       2.077  58.489  21.001  1.00  0.00     0.000 C 
BRANCH  23  24
ATOM     24  C   UNL     1       1.270  59.747  20.604  1.00  0.00    -0.000 C 
BRANCH  24  25
ATOM     25  C   UNL     1       1.915  60.572  19.474  1.00  0.00    -0.000 C 
BRANCH  25  26
ATOM     26  C   UNL     1       1.125  60.560  18.149  1.00  0.00    -0.000 C 
BRANCH  26  27
ATOM     27  C   UNL     1       1.622  59.519  17.124  1.00  0.00    -0.000 C 
BRANCH  27  28
ATOM     28  C   UNL     1       0.775  59.466  15.831  1.00  0.00    -0.000 C 
BRANCH  28  29
ATOM     29  C   UNL     1      -0.720  59.765  16.055  1.00  0.00    -0.000 C 
BRANCH  29  30
ATOM     30  C   UNL     1      -1.264  60.966  15.257  1.00  0.00    -0.000 C 
BRANCH  30  31
ATOM     31  C   UNL     1      -0.187  61.804  14.544  1.00  0.00    -0.003 C 
ATOM     32  C   UNL     1      -0.669  63.204  14.162  1.00  0.00     0.004 C 
ENDBRANCH  30  31
ENDBRANCH  29  30
ENDBRANCH  28  29
ENDBRANCH  27  28
ENDBRANCH  26  27
ENDBRANCH  25  26
ENDBRANCH  24  25
ENDBRANCH  23  24
ENDBRANCH  22  23
ENDBRANCH  21  22
ENDBRANCH  20  21
ENDBRANCH  19  20
ENDBRANCH  18  19
ENDBRANCH   1  18
TORSDOF 28
ENDMDL
MODEL 7
REMARK VINA RESULT:    -5.103      1.837      4.907
REMARK INTER + INTRA:         -15.794
REMARK INTER:                 -12.635
REMARK INTRA:                  -3.159
REMARK UNBOUND:                -2.338
REMARK SMILES CCCCCCCCCCCCCCCCCCCCCCCCCCCCCC(=O)[O-]
REMARK SMILES IDX 16 1 17 2 18 3 19 4 20 5 21 6 22 7 23 8 24 9 25 10 26 11
REMARK SMILES IDX 27 12 28 13 29 14 30 15 31 16 32 17 15 18 14 19 13 20 12 21
REMARK SMILES IDX 11 22 10 23 9 24 8 25 7 26 6 27 5 28 4 29 3 30 2 31 1 32
REMARK H PARENT
REMARK Flexibility Score: inf
ROOT
ATOM      1  C   UNL     1       6.588  45.802  23.451  1.00  0.00     0.000 C 
ENDROOT
BRANCH   1   2
ATOM      2  C   UNL     1       7.558  44.607  23.395  1.00  0.00     0.000 C 
BRANCH   2   3
ATOM      3  C   UNL     1       8.958  44.906  23.958  1.00  0.00     0.000 C 
BRANCH   3   4
ATOM      4  C   UNL     1       9.401  46.359  23.728  1.00  0.00     0.000 C 
BRANCH   4   5
ATOM      5  C   UNL     1      10.930  46.479  23.744  1.00  0.00     0.000 C 
BRANCH   5   6
ATOM      6  C   UNL     1      11.414  47.580  22.791  1.00  0.00     0.000 C 
BRANCH   6   7
ATOM      7  C   UNL     1      10.346  48.660  22.529  1.00  0.00     0.000 C 
BRANCH   7   8
ATOM      8  C   UNL     1      10.922  50.086  22.410  1.00  0.00     0.000 C 
BRANCH   8   9
ATOM      9  C   UNL     1       9.823  51.157  22.374  1.00  0.00     0.000 C 
BRANCH   9  10
ATOM     10  C   UNL     1      10.419  52.564  22.203  1.00  0.00     0.000 C 
BRANCH  10  11
ATOM     11  C   UNL     1       9.594  53.653  22.910  1.00  0.00     0.000 C 
BRANCH  11  12
ATOM     12  C   UNL     1       8.145  53.791  22.414  1.00  0.00     0.000 C 
BRANCH  12  13
ATOM     13  C   UNL     1       7.981  54.903  21.368  1.00  0.00     0.006 C 
BRANCH  13  14
ATOM     14  C   UNL     1       7.189  54.400  20.158  1.00  0.00     0.053 C 
BRANCH  14  15
ATOM     15  C   UNL     1       7.291  55.364  19.016  1.00  0.00     0.041 C 
ATOM     16  O   UNL     1       7.380  56.600  19.238  1.00  0.00    -0.550 OA
ATOM     17  O   UNL     1       7.274  54.901  17.704  1.00  0.00    -0.550 OA
ENDBRANCH  14  15
ENDBRANCH  13  14
ENDBRANCH  12  13
ENDBRANCH  11  12
ENDBRANCH  10  11
ENDBRANCH   9  10
ENDBRANCH   8   9
ENDBRANCH   7   8
ENDBRANCH   6   7
ENDBRANCH   5   6
ENDBRANCH   4   5
ENDBRANCH   3   4
ENDBRANCH   2   3
ENDBRANCH   1   2
BRANCH   1  18
ATOM     18  C   UNL     1       5.214  45.444  24.053  1.00  0.00     0.000 C 
BRANCH  18  19
ATOM     19  C   UNL     1       5.352  44.801  25.444  1.00  0.00     0.000 C 
BRANCH  19  20
ATOM     20  C   UNL     1       5.872  45.803  26.488  1.00  0.00     0.000 C 
BRANCH  20  21
ATOM     21  C   UNL     1       4.967  45.917  27.727  1.00  0.00     0.000 C 
BRANCH  21  22
ATOM     22  C   UNL     1       3.469  45.680  27.458  1.00  0.00     0.000 C 
BRANCH  22  23
ATOM     23  C   UNL     1       2.585  46.931  27.593  1.00  0.00     0.000 C 
BRANCH  23  24
ATOM     24  C   UNL     1       2.034  47.447  26.244  1.00  0.00    -0.000 C 
BRANCH  24  25
ATOM     25  C   UNL     1       3.101  48.093  25.339  1.00  0.00    -0.000 C 
BRANCH  25  26
ATOM     26  C   UNL     1       2.544  48.699  24.034  1.00  0.00    -0.000 C 
BRANCH  26  27
ATOM     27  C   UNL     1       1.027  48.977  24.062  1.00  0.00    -0.000 C 
BRANCH  27  28
ATOM     28  C   UNL     1       0.271  48.432  22.827  1.00  0.00    -0.000 C 
BRANCH  28  29
ATOM     29  C   UNL     1       1.130  47.527  21.923  1.00  0.00    -0.000 C 
BRANCH  29  30
ATOM     30  C   UNL     1       0.782  46.027  21.993  1.00  0.00    -0.000 C 
BRANCH  30  31
ATOM     31  C   UNL     1       1.804  45.166  22.759  1.00  0.00    -0.003 C 
ATOM     32  C   UNL     1       1.289  44.686  24.116  1.00  0.00     0.004 C 
ENDBRANCH  30  31
ENDBRANCH  29  30
ENDBRANCH  28  29
ENDBRANCH  27  28
ENDBRANCH  26  27
ENDBRANCH  25  26
ENDBRANCH  24  25
ENDBRANCH  23  24
ENDBRANCH  22  23
ENDBRANCH  21  22
ENDBRANCH  20  21
ENDBRANCH  19  20
ENDBRANCH  18  19
ENDBRANCH   1  18
TORSDOF 28
ENDMDL
MODEL 8
REMARK VINA RESULT:    -5.090      6.795     13.285
REMARK INTER + INTRA:         -15.758
REMARK INTER:                 -13.220
REMARK INTRA:                  -2.538
REMARK UNBOUND:                -2.338
REMARK SMILES CCCCCCCCCCCCCCCCCCCCCCCCCCCCCC(=O)[O-]
REMARK SMILES IDX 16 1 17 2 18 3 19 4 20 5 21 6 22 7 23 8 24 9 25 10 26 11
REMARK SMILES IDX 27 12 28 13 29 14 30 15 31 16 32 17 15 18 14 19 13 20 12 21
REMARK SMILES IDX 11 22 10 23 9 24 8 25 7 26 6 27 5 28 4 29 3 30 2 31 1 32
REMARK H PARENT
REMARK Flexibility Score: inf
ROOT
ATOM      1  C   UNL     1      -0.395  57.224  26.055  1.00  0.00     0.000 C 
ENDROOT
BRANCH   1   2
ATOM      2  C   UNL     1      -0.682  55.714  25.956  1.00  0.00     0.000 C 
BRANCH   2   3
ATOM      3  C   UNL     1      -1.834  55.232  26.854  1.00  0.00     0.000 C 
BRANCH   3   4
ATOM      4  C   UNL     1      -1.398  54.972  28.304  1.00  0.00     0.000 C 
BRANCH   4   5
ATOM      5  C   UNL     1       0.080  54.569  28.371  1.00  0.00     0.000 C 
BRANCH   5   6
ATOM      6  C   UNL     1       0.432  53.962  29.736  1.00  0.00     0.000 C 
BRANCH   6   7
ATOM      7  C   UNL     1      -0.779  53.320  30.438  1.00  0.00     0.000 C 
BRANCH   7   8
ATOM      8  C   UNL     1      -0.695  51.783  30.538  1.00  0.00     0.000 C 
BRANCH   8   9
ATOM      9  C   UNL     1      -0.747  51.104  29.162  1.00  0.00     0.000 C 
BRANCH   9  10
ATOM     10  C   UNL     1       0.588  50.421  28.824  1.00  0.00     0.000 C 
BRANCH  10  11
ATOM     11  C   UNL     1       1.186  50.903  27.492  1.00  0.00     0.000 C 
BRANCH  11  12
ATOM     12  C   UNL     1       0.159  51.428  26.475  1.00  0.00     0.000 C 
BRANCH  12  13
ATOM     13  C   UNL     1       0.512  51.049  25.029  1.00  0.00     0.006 C 
BRANCH  13  14
ATOM     14  C   UNL     1       1.360  49.775  24.991  1.00  0.00     0.053 C 
BRANCH  14  15
ATOM     15  C   UNL     1       1.113  49.008  23.727  1.00  0.00     0.041 C 
ATOM     16  O   UNL     1       0.739  49.609  22.686  1.00  0.00    -0.550 OA
ATOM     17  O   UNL     1       1.282  47.627  23.701  1.00  0.00    -0.550 OA
ENDBRANCH  14  15
ENDBRANCH  13  14
ENDBRANCH  12  13
ENDBRANCH  11  12
ENDBRANCH  10  11
ENDBRANCH   9  10
ENDBRANCH   8   9
ENDBRANCH   7   8
ENDBRANCH   6   7
ENDBRANCH   5   6
ENDBRANCH   4   5
ENDBRANCH   3   4
ENDBRANCH   2   3
ENDBRANCH   1   2
BRANCH   1  18
ATOM     18  C   UNL     1      -0.218  57.902  24.681  1.00  0.00     0.000 C 
BRANCH  18  19
ATOM     19  C   UNL     1      -0.694  56.995  23.532  1.00  0.00     0.000 C 
BRANCH  19  20
ATOM     20  C   UNL     1      -0.298  57.558  22.157  1.00  0.00     0.000 C 
BRANCH  20  21
ATOM     21  C   UNL     1      -0.790  58.997  21.924  1.00  0.00     0.000 C 
BRANCH  21  22
ATOM     22  C   UNL     1       0.320  60.064  21.895  1.00  0.00     0.000 C 
BRANCH  22  23
ATOM     23  C   UNL     1       1.749  59.509  22.024  1.00  0.00     0.000 C 
BRANCH  23  24
ATOM     24  C   UNL     1       2.743  60.119  21.009  1.00  0.00    -0.000 C 
BRANCH  24  25
ATOM     25  C   UNL     1       3.457  59.074  20.129  1.00  0.00    -0.000 C 
BRANCH  25  26
ATOM     26  C   UNL     1       3.840  57.776  20.870  1.00  0.00    -0.000 C 
BRANCH  26  27
ATOM     27  C   UNL     1       5.258  57.258  20.547  1.00  0.00    -0.000 C 
BRANCH  27  28
ATOM     28  C   UNL     1       5.595  55.907  21.220  1.00  0.00    -0.000 C 
BRANCH  28  29
ATOM     29  C   UNL     1       7.079  55.510  21.107  1.00  0.00    -0.000 C 
BRANCH  29  30
ATOM     30  C   UNL     1       7.618  55.430  19.665  1.00  0.00    -0.000 C 
BRANCH  30  31
ATOM     31  C   UNL     1       6.864  54.444  18.753  1.00  0.00    -0.003 C 
ATOM     32  C   UNL     1       6.903  54.840  17.277  1.00  0.00     0.004 C 
ENDBRANCH  30  31
ENDBRANCH  29  30
ENDBRANCH  28  29
ENDBRANCH  27  28
ENDBRANCH  26  27
ENDBRANCH  25  26
ENDBRANCH  24  25
ENDBRANCH  23  24
ENDBRANCH  22  23
ENDBRANCH  21  22
ENDBRANCH  20  21
ENDBRANCH  19  20
ENDBRANCH  18  19
ENDBRANCH   1  18
TORSDOF 28
ENDMDL
MODEL 9
REMARK VINA RESULT:    -5.026      7.809     10.474
REMARK INTER + INTRA:         -15.592
REMARK INTER:                 -10.292
REMARK INTRA:                  -5.299
REMARK UNBOUND:                -2.338
REMARK SMILES CCCCCCCCCCCCCCCCCCCCCCCCCCCCCC(=O)[O-]
REMARK SMILES IDX 16 1 17 2 18 3 19 4 20 5 21 6 22 7 23 8 24 9 25 10 26 11
REMARK SMILES IDX 27 12 28 13 29 14 30 15 31 16 32 17 15 18 14 19 13 20 12 21
REMARK SMILES IDX 11 22 10 23 9 24 8 25 7 26 6 27 5 28 4 29 3 30 2 31 1 32
REMARK H PARENT
REMARK Flexibility Score: inf
ROOT
ATOM      1  C   UNL     1      -0.355  50.617  24.906  1.00  0.00     0.000 C 
ENDROOT
BRANCH   1   2
ATOM      2  C   UNL     1      -0.932  52.037  24.755  1.00  0.00     0.000 C 
BRANCH   2   3
ATOM      3  C   UNL     1      -0.011  53.013  24.002  1.00  0.00     0.000 C 
BRANCH   3   4
ATOM      4  C   UNL     1      -0.784  54.025  23.141  1.00  0.00     0.000 C 
BRANCH   4   5
ATOM      5  C   UNL     1      -1.616  54.971  24.016  1.00  0.00     0.000 C 
BRANCH   5   6
ATOM      6  C   UNL     1      -0.946  56.346  24.145  1.00  0.00     0.000 C 
BRANCH   6   7
ATOM      7  C   UNL     1      -0.741  56.779  25.610  1.00  0.00     0.000 C 
BRANCH   7   8
ATOM      8  C   UNL     1      -1.039  55.665  26.634  1.00  0.00     0.000 C 
BRANCH   8   9
ATOM      9  C   UNL     1       0.239  55.094  27.265  1.00  0.00     0.000 C 
BRANCH   9  10
ATOM     10  C   UNL     1      -0.080  54.247  28.507  1.00  0.00     0.000 C 
BRANCH  10  11
ATOM     11  C   UNL     1      -0.097  52.737  28.213  1.00  0.00     0.000 C 
BRANCH  11  12
ATOM     12  C   UNL     1       1.290  52.077  28.139  1.00  0.00     0.000 C 
BRANCH  12  13
ATOM     13  C   UNL     1       1.213  50.546  28.054  1.00  0.00     0.006 C 
BRANCH  13  14
ATOM     14  C   UNL     1       0.079  50.008  28.933  1.00  0.00     0.053 C 
BRANCH  14  15
ATOM     15  C   UNL     1       0.532  49.858  30.353  1.00  0.00     0.041 C 
ATOM     16  O   UNL     1       1.440  49.036  30.643  1.00  0.00    -0.550 OA
ATOM     17  O   UNL     1      -0.059  50.614  31.360  1.00  0.00    -0.550 OA
ENDBRANCH  14  15
ENDBRANCH  13  14
ENDBRANCH  12  13
ENDBRANCH  11  12
ENDBRANCH  10  11
ENDBRANCH   9  10
ENDBRANCH   8   9
ENDBRANCH   7   8
ENDBRANCH   6   7
ENDBRANCH   5   6
ENDBRANCH   4   5
ENDBRANCH   3   4
ENDBRANCH   2   3
ENDBRANCH   1   2
BRANCH   1  18
ATOM     18  C   UNL     1       1.092  50.489  24.390  1.00  0.00     0.000 C 
BRANCH  18  19
ATOM     19  C   UNL     1       1.220  49.394  23.317  1.00  0.00     0.000 C 
BRANCH  19  20
ATOM     20  C   UNL     1      -0.150  48.990  22.745  1.00  0.00     0.000 C 
BRANCH  20  21
ATOM     21  C   UNL     1      -0.257  47.490  22.420  1.00  0.00     0.000 C 
BRANCH  21  22
ATOM     22  C   UNL     1       1.018  46.865  21.824  1.00  0.00     0.000 C 
BRANCH  22  23
ATOM     23  C   UNL     1       1.188  45.362  22.103  1.00  0.00     0.000 C 
BRANCH  23  24
ATOM     24  C   UNL     1       1.934  45.058  23.423  1.00  0.00    -0.000 C 
BRANCH  24  25
ATOM     25  C   UNL     1       3.148  45.973  23.679  1.00  0.00    -0.000 C 
BRANCH  25  26
ATOM     26  C   UNL     1       4.053  45.515  24.841  1.00  0.00    -0.000 C 
BRANCH  26  27
ATOM     27  C   UNL     1       4.080  46.484  26.042  1.00  0.00    -0.000 C 
BRANCH  27  28
ATOM     28  C   UNL     1       2.937  47.525  26.028  1.00  0.00    -0.000 C 
BRANCH  28  29
ATOM     29  C   UNL     1       1.706  47.107  26.856  1.00  0.00    -0.000 C 
BRANCH  29  30
ATOM     30  C   UNL     1       0.364  47.186  26.103  1.00  0.00    -0.000 C 
BRANCH  30  31
ATOM     31  C   UNL     1      -0.636  46.069  26.454  1.00  0.00    -0.003 C 
ATOM     32  C   UNL     1      -1.295  45.442  25.226  1.00  0.00     0.004 C 
ENDBRANCH  30  31
ENDBRANCH  29  30
ENDBRANCH  28  29
ENDBRANCH  27  28
ENDBRANCH  26  27
ENDBRANCH  25  26
ENDBRANCH  24  25
ENDBRANCH  23  24
ENDBRANCH  22  23
ENDBRANCH  21  22
ENDBRANCH  20  21
ENDBRANCH  19  20
ENDBRANCH  18  19
ENDBRANCH   1  18
TORSDOF 28
ENDMDL
