MODEL 1
REMARK VINA RESULT:    -6.813      0.000      0.000
REMARK INTER + INTRA:          -7.863
REMARK INTER:                  -8.208
REMARK INTRA:                   0.345
REMARK UNBOUND:                 0.345
REMARK SMILES O=c1c(O)c(-c2ccc(O)c(O)c2)oc2cc(O)cc(O)c12
REMARK SMILES IDX 5 1 3 2 2 3 1 4 22 5 20 6 19 7 17 8 16 9 15 10 14 11 6 12
REMARK SMILES IDX 7 13 8 14 9 15 13 16 11 17 10 18 12 20 4 22 21 24 18 26
REMARK H PARENT 10 19 12 21 4 23 21 25 18 27
REMARK Flexibility Score: inf
ROOT
ATOM      1  C   UNL     1       4.831  -0.790  -5.035  1.00  0.00     0.180 A 
ATOM      2  C   UNL     1       4.864  -0.690  -6.436  1.00  0.00     0.208 A 
ATOM      3  C   UNL     1       4.991   0.579  -7.026  1.00  0.00     0.238 A 
ATOM      4  O   UNL     1       5.075   0.657  -8.279  1.00  0.00    -0.285 OA
ATOM      5  C   UNL     1       5.066   1.731  -6.208  1.00  0.00     0.111 A 
ATOM      6  C   UNL     1       5.156   3.069  -6.699  1.00  0.00     0.134 A 
ATOM      7  C   UNL     1       5.357   4.122  -5.799  1.00  0.00     0.093 A 
ATOM      8  C   UNL     1       5.406   3.893  -4.421  1.00  0.00     0.123 A 
ATOM      9  C   UNL     1       5.260   2.599  -3.929  1.00  0.00     0.094 A 
ATOM     10  C   UNL     1       5.094   1.523  -4.804  1.00  0.00     0.146 A 
ATOM     11  O   UNL     1       4.969   0.303  -4.294  1.00  0.00    -0.452 OA
ENDROOT
BRANCH   1  12
ATOM     12  C   UNL     1       4.673  -2.089  -4.341  1.00  0.00     0.025 A 
ATOM     13  C   UNL     1       4.086  -2.124  -3.068  1.00  0.00     0.016 A 
ATOM     14  C   UNL     1       3.911  -3.339  -2.405  1.00  0.00     0.051 A 
ATOM     15  C   UNL     1       4.302  -4.542  -3.002  1.00  0.00     0.157 A 
ATOM     16  C   UNL     1       5.047  -3.296  -4.954  1.00  0.00     0.062 A 
ATOM     17  C   UNL     1       4.871  -4.521  -4.297  1.00  0.00     0.158 A 
BRANCH  15  18
ATOM     18  O   UNL     1       4.106  -5.723  -2.283  1.00  0.00    -0.504 OA
ATOM     19  H   UNL     1       3.458  -6.448  -2.554  1.00  0.00     0.293 HD
ENDBRANCH  15  18
BRANCH  17  20
ATOM     20  O   UNL     1       5.267  -5.681  -4.966  1.00  0.00    -0.504 OA
ATOM     21  H   UNL     1       4.885  -5.980  -5.852  1.00  0.00     0.293 HD
ENDBRANCH  17  20
ENDBRANCH   1  12
BRANCH   2  22
ATOM     22  O   UNL     1       4.810  -1.843  -7.225  1.00  0.00    -0.502 OA
ATOM     23  H   UNL     1       5.179  -2.733  -6.911  1.00  0.00     0.293 HD
ENDBRANCH   2  22
BRANCH   6  24
ATOM     24  O   UNL     1       5.027   3.415  -8.047  1.00  0.00    -0.507 OA
ATOM     25  H   UNL     1       5.210   2.794  -8.820  1.00  0.00     0.293 HD
ENDBRANCH   6  24
BRANCH   8  26
ATOM     26  O   UNL     1       5.590   4.950  -3.532  1.00  0.00    -0.508 OA
ATOM     27  H   UNL     1       6.257   5.691  -3.718  1.00  0.00     0.293 HD
ENDBRANCH   8  26
TORSDOF 6
ENDMDL
MODEL 2
REMARK VINA RESULT:    -6.679      1.756      6.744
REMARK INTER + INTRA:          -7.701
REMARK INTER:                  -7.377
REMARK INTRA:                  -0.324
REMARK UNBOUND:                 0.345
REMARK SMILES O=c1c(O)c(-c2ccc(O)c(O)c2)oc2cc(O)cc(O)c12
REMARK SMILES IDX 5 1 3 2 2 3 1 4 22 5 20 6 19 7 17 8 16 9 15 10 14 11 6 12
REMARK SMILES IDX 7 13 8 14 9 15 13 16 11 17 10 18 12 20 4 22 21 24 18 26
REMARK H PARENT 10 19 12 21 4 23 21 25 18 27
REMARK Flexibility Score: inf
ROOT
ATOM      1  C   UNL     1       5.117  -1.297  -4.857  1.00  0.00     0.180 A 
ATOM      2  C   UNL     1       5.436  -2.566  -5.371  1.00  0.00     0.208 A 
ATOM      3  C   UNL     1       5.101  -3.707  -4.623  1.00  0.00     0.238 A 
ATOM      4  O   UNL     1       5.341  -4.842  -5.113  1.00  0.00    -0.285 OA
ATOM      5  C   UNL     1       4.466  -3.565  -3.366  1.00  0.00     0.111 A 
ATOM      6  C   UNL     1       4.118  -4.650  -2.507  1.00  0.00     0.134 A 
ATOM      7  C   UNL     1       3.375  -4.400  -1.346  1.00  0.00     0.093 A 
ATOM      8  C   UNL     1       3.026  -3.097  -0.981  1.00  0.00     0.123 A 
ATOM      9  C   UNL     1       3.413  -2.026  -1.782  1.00  0.00     0.094 A 
ATOM     10  C   UNL     1       4.123  -2.247  -2.965  1.00  0.00     0.146 A 
ATOM     11  O   UNL     1       4.463  -1.199  -3.706  1.00  0.00    -0.452 OA
ENDROOT
BRANCH   1  12
ATOM     12  C   UNL     1       5.461  -0.048  -5.574  1.00  0.00     0.025 A 
ATOM     13  C   UNL     1       6.716   0.542  -5.368  1.00  0.00     0.016 A 
ATOM     14  C   UNL     1       7.067   1.709  -6.049  1.00  0.00     0.051 A 
ATOM     15  C   UNL     1       6.183   2.302  -6.956  1.00  0.00     0.157 A 
ATOM     16  C   UNL     1       4.578   0.532  -6.501  1.00  0.00     0.062 A 
ATOM     17  C   UNL     1       4.924   1.700  -7.191  1.00  0.00     0.158 A 
BRANCH  15  18
ATOM     18  O   UNL     1       6.592   3.472  -7.599  1.00  0.00    -0.504 OA
ATOM     19  H   UNL     1       6.276   3.753  -8.515  1.00  0.00     0.293 HD
ENDBRANCH  15  18
BRANCH  17  20
ATOM     20  O   UNL     1       3.996   2.221  -8.096  1.00  0.00    -0.504 OA
ATOM     21  H   UNL     1       3.301   2.914  -7.856  1.00  0.00     0.293 HD
ENDBRANCH  17  20
ENDBRANCH   1  12
BRANCH   2  22
ATOM     22  O   UNL     1       6.043  -2.684  -6.624  1.00  0.00    -0.502 OA
ATOM     23  H   UNL     1       6.827  -3.304  -6.791  1.00  0.00     0.293 HD
ENDBRANCH   2  22
BRANCH   6  24
ATOM     24  O   UNL     1       4.498  -5.976  -2.732  1.00  0.00    -0.507 OA
ATOM     25  H   UNL     1       4.220  -6.526  -3.531  1.00  0.00     0.293 HD
ENDBRANCH   6  24
BRANCH   8  26
ATOM     26  O   UNL     1       2.301  -2.857   0.185  1.00  0.00    -0.508 OA
ATOM     27  H   UNL     1       2.272  -3.532   0.940  1.00  0.00     0.293 HD
ENDBRANCH   8  26
TORSDOF 6
ENDMDL
MODEL 3
REMARK VINA RESULT:    -6.567      1.184      6.746
REMARK INTER + INTRA:          -7.566
REMARK INTER:                  -7.526
REMARK INTRA:                  -0.040
REMARK UNBOUND:                 0.345
REMARK SMILES O=c1c(O)c(-c2ccc(O)c(O)c2)oc2cc(O)cc(O)c12
REMARK SMILES IDX 5 1 3 2 2 3 1 4 22 5 20 6 19 7 17 8 16 9 15 10 14 11 6 12
REMARK SMILES IDX 7 13 8 14 9 15 13 16 11 17 10 18 12 20 4 22 21 24 18 26
REMARK H PARENT 10 19 12 21 4 23 21 25 18 27
REMARK Flexibility Score: inf
ROOT
ATOM      1  C   UNL     1       5.238  -0.384  -4.944  1.00  0.00     0.180 A 
ATOM      2  C   UNL     1       5.645  -1.338  -5.893  1.00  0.00     0.208 A 
ATOM      3  C   UNL     1       5.491  -2.702  -5.596  1.00  0.00     0.238 A 
ATOM      4  O   UNL     1       5.808  -3.550  -6.471  1.00  0.00    -0.285 OA
ATOM      5  C   UNL     1       4.948  -3.095  -4.350  1.00  0.00     0.111 A 
ATOM      6  C   UNL     1       4.784  -4.449  -3.928  1.00  0.00     0.134 A 
ATOM      7  C   UNL     1       4.114  -4.722  -2.729  1.00  0.00     0.093 A 
ATOM      8  C   UNL     1       3.661  -3.688  -1.905  1.00  0.00     0.123 A 
ATOM      9  C   UNL     1       3.869  -2.363  -2.279  1.00  0.00     0.094 A 
ATOM     10  C   UNL     1       4.502  -2.060  -3.487  1.00  0.00     0.146 A 
ATOM     11  O   UNL     1       4.671  -0.783  -3.812  1.00  0.00    -0.452 OA
ENDROOT
BRANCH   1  12
ATOM     12  C   UNL     1       5.391   1.071  -5.174  1.00  0.00     0.025 A 
ATOM     13  C   UNL     1       6.127   1.839  -4.261  1.00  0.00     0.016 A 
ATOM     14  C   UNL     1       6.300   3.209  -4.469  1.00  0.00     0.051 A 
ATOM     15  C   UNL     1       5.757   3.835  -5.595  1.00  0.00     0.157 A 
ATOM     16  C   UNL     1       4.863   1.692  -6.318  1.00  0.00     0.062 A 
ATOM     17  C   UNL     1       5.035   3.065  -6.537  1.00  0.00     0.158 A 
BRANCH  15  18
ATOM     18  O   UNL     1       5.960   5.209  -5.741  1.00  0.00    -0.504 OA
ATOM     19  H   UNL     1       6.314   5.808  -5.010  1.00  0.00     0.293 HD
ENDBRANCH  15  18
BRANCH  17  20
ATOM     20  O   UNL     1       4.481   3.614  -7.695  1.00  0.00    -0.504 OA
ATOM     21  H   UNL     1       3.660   4.202  -7.704  1.00  0.00     0.293 HD
ENDBRANCH  17  20
ENDBRANCH   1  12
BRANCH   2  22
ATOM     22  O   UNL     1       6.160  -0.927  -7.126  1.00  0.00    -0.502 OA
ATOM     23  H   UNL     1       5.596  -0.896  -7.966  1.00  0.00     0.293 HD
ENDBRANCH   2  22
BRANCH   6  24
ATOM     24  O   UNL     1       5.281  -5.550  -4.631  1.00  0.00    -0.507 OA
ATOM     25  H   UNL     1       6.048  -5.516  -5.285  1.00  0.00     0.293 HD
ENDBRANCH   6  24
BRANCH   8  26
ATOM     26  O   UNL     1       3.010  -3.969  -0.705  1.00  0.00    -0.508 OA
ATOM     27  H   UNL     1       2.907  -3.268   0.019  1.00  0.00     0.293 HD
ENDBRANCH   8  26
TORSDOF 6
ENDMDL
MODEL 4
REMARK VINA RESULT:    -6.505      1.379      6.785
REMARK INTER + INTRA:          -7.491
REMARK INTER:                  -7.213
REMARK INTRA:                  -0.278
REMARK UNBOUND:                 0.345
REMARK SMILES O=c1c(O)c(-c2ccc(O)c(O)c2)oc2cc(O)cc(O)c12
REMARK SMILES IDX 5 1 3 2 2 3 1 4 22 5 20 6 19 7 17 8 16 9 15 10 14 11 6 12
REMARK SMILES IDX 7 13 8 14 9 15 13 16 11 17 10 18 12 20 4 22 21 24 18 26
REMARK H PARENT 10 19 12 21 4 23 21 25 18 27
REMARK Flexibility Score: inf
ROOT
ATOM      1  C   UNL     1       5.288  -0.555  -5.094  1.00  0.00     0.180 A 
ATOM      2  C   UNL     1       5.713  -1.534  -6.007  1.00  0.00     0.208 A 
ATOM      3  C   UNL     1       5.564  -2.890  -5.670  1.00  0.00     0.238 A 
ATOM      4  O   UNL     1       5.897  -3.762  -6.514  1.00  0.00    -0.285 OA
ATOM      5  C   UNL     1       5.008  -3.248  -4.419  1.00  0.00     0.111 A 
ATOM      6  C   UNL     1       4.848  -4.589  -3.957  1.00  0.00     0.134 A 
ATOM      7  C   UNL     1       4.165  -4.829  -2.759  1.00  0.00     0.093 A 
ATOM      8  C   UNL     1       3.695  -3.773  -1.973  1.00  0.00     0.123 A 
ATOM      9  C   UNL     1       3.899  -2.459  -2.386  1.00  0.00     0.094 A 
ATOM     10  C   UNL     1       4.545  -2.189  -3.595  1.00  0.00     0.146 A 
ATOM     11  O   UNL     1       4.710  -0.922  -3.957  1.00  0.00    -0.452 OA
ENDROOT
BRANCH   1  12
ATOM     12  C   UNL     1       5.435   0.894  -5.367  1.00  0.00     0.025 A 
ATOM     13  C   UNL     1       4.518   1.533  -6.213  1.00  0.00     0.016 A 
ATOM     14  C   UNL     1       4.627   2.901  -6.467  1.00  0.00     0.051 A 
ATOM     15  C   UNL     1       5.642   3.660  -5.874  1.00  0.00     0.157 A 
ATOM     16  C   UNL     1       6.442   1.656  -4.751  1.00  0.00     0.062 A 
ATOM     17  C   UNL     1       6.557   3.030  -4.997  1.00  0.00     0.158 A 
BRANCH  15  18
ATOM     18  O   UNL     1       5.700   5.022  -6.175  1.00  0.00    -0.504 OA
ATOM     19  H   UNL     1       5.904   5.742  -5.498  1.00  0.00     0.293 HD
ENDBRANCH  15  18
BRANCH  17  20
ATOM     20  O   UNL     1       7.583   3.724  -4.352  1.00  0.00    -0.504 OA
ATOM     21  H   UNL     1       7.945   4.614  -4.664  1.00  0.00     0.293 HD
ENDBRANCH  17  20
ENDBRANCH   1  12
BRANCH   2  22
ATOM     22  O   UNL     1       6.241  -1.159  -7.246  1.00  0.00    -0.502 OA
ATOM     23  H   UNL     1       7.221  -1.269  -7.475  1.00  0.00     0.293 HD
ENDBRANCH   2  22
BRANCH   6  24
ATOM     24  O   UNL     1       5.360  -5.708  -4.620  1.00  0.00    -0.507 OA
ATOM     25  H   UNL     1       4.877  -6.218  -5.344  1.00  0.00     0.293 HD
ENDBRANCH   6  24
BRANCH   8  26
ATOM     26  O   UNL     1       3.031  -4.021  -0.773  1.00  0.00    -0.508 OA
ATOM     27  H   UNL     1       3.537  -4.164   0.093  1.00  0.00     0.293 HD
ENDBRANCH   8  26
TORSDOF 6
ENDMDL
MODEL 5
REMARK VINA RESULT:    -6.256      2.701      6.594
REMARK INTER + INTRA:          -7.191
REMARK INTER:                  -6.857
REMARK INTRA:                  -0.334
REMARK UNBOUND:                 0.345
REMARK SMILES O=c1c(O)c(-c2ccc(O)c(O)c2)oc2cc(O)cc(O)c12
REMARK SMILES IDX 5 1 3 2 2 3 1 4 22 5 20 6 19 7 17 8 16 9 15 10 14 11 6 12
REMARK SMILES IDX 7 13 8 14 9 15 13 16 11 17 10 18 12 20 4 22 21 24 18 26
REMARK H PARENT 10 19 12 21 4 23 21 25 18 27
REMARK Flexibility Score: inf
ROOT
ATOM      1  C   UNL     1       5.603  -1.881  -5.276  1.00  0.00     0.180 A 
ATOM      2  C   UNL     1       5.648  -3.265  -5.512  1.00  0.00     0.208 A 
ATOM      3  C   UNL     1       5.083  -4.136  -4.566  1.00  0.00     0.238 A 
ATOM      4  O   UNL     1       5.079  -5.371  -4.809  1.00  0.00    -0.285 OA
ATOM      5  C   UNL     1       4.495  -3.613  -3.390  1.00  0.00     0.111 A 
ATOM      6  C   UNL     1       3.930  -4.405  -2.346  1.00  0.00     0.134 A 
ATOM      7  C   UNL     1       3.258  -3.777  -1.289  1.00  0.00     0.093 A 
ATOM      8  C   UNL     1       3.190  -2.384  -1.206  1.00  0.00     0.123 A 
ATOM      9  C   UNL     1       3.791  -1.601  -2.189  1.00  0.00     0.094 A 
ATOM     10  C   UNL     1       4.436  -2.200  -3.274  1.00  0.00     0.146 A 
ATOM     11  O   UNL     1       4.987  -1.417  -4.195  1.00  0.00    -0.452 OA
ENDROOT
BRANCH   1  12
ATOM     12  C   UNL     1       6.199  -0.901  -6.214  1.00  0.00     0.025 A 
ATOM     13  C   UNL     1       5.390  -0.297  -7.187  1.00  0.00     0.016 A 
ATOM     14  C   UNL     1       5.928   0.643  -8.067  1.00  0.00     0.051 A 
ATOM     15  C   UNL     1       7.275   1.010  -7.986  1.00  0.00     0.157 A 
ATOM     16  C   UNL     1       7.548  -0.520  -6.115  1.00  0.00     0.062 A 
ATOM     17  C   UNL     1       8.095   0.426  -6.991  1.00  0.00     0.158 A 
BRANCH  15  18
ATOM     18  O   UNL     1       7.753   1.950  -8.901  1.00  0.00    -0.504 OA
ATOM     19  H   UNL     1       8.576   1.817  -9.470  1.00  0.00     0.293 HD
ENDBRANCH  15  18
BRANCH  17  20
ATOM     20  O   UNL     1       9.443   0.755  -6.835  1.00  0.00    -0.504 OA
ATOM     21  H   UNL     1       9.941   1.395  -7.438  1.00  0.00     0.293 HD
ENDBRANCH  17  20
ENDBRANCH   1  12
BRANCH   2  22
ATOM     22  O   UNL     1       6.214  -3.759  -6.691  1.00  0.00    -0.502 OA
ATOM     23  H   UNL     1       5.671  -4.248  -7.391  1.00  0.00     0.293 HD
ENDBRANCH   2  22
BRANCH   6  24
ATOM     24  O   UNL     1       4.023  -5.799  -2.286  1.00  0.00    -0.507 OA
ATOM     25  H   UNL     1       3.775  -6.357  -1.484  1.00  0.00     0.293 HD
ENDBRANCH   6  24
BRANCH   8  26
ATOM     26  O   UNL     1       2.534  -1.767  -0.143  1.00  0.00    -0.508 OA
ATOM     27  H   UNL     1       2.952  -0.993   0.361  1.00  0.00     0.293 HD
ENDBRANCH   8  26
TORSDOF 6
ENDMDL
MODEL 6
REMARK VINA RESULT:    -6.117      1.217      1.656
REMARK INTER + INTRA:          -7.024
REMARK INTER:                  -6.832
REMARK INTRA:                  -0.191
REMARK UNBOUND:                 0.345
REMARK SMILES O=c1c(O)c(-c2ccc(O)c(O)c2)oc2cc(O)cc(O)c12
REMARK SMILES IDX 5 1 3 2 2 3 1 4 22 5 20 6 19 7 17 8 16 9 15 10 14 11 6 12
REMARK SMILES IDX 7 13 8 14 9 15 13 16 11 17 10 18 12 20 4 22 21 24 18 26
REMARK H PARENT 10 19 12 21 4 23 21 25 18 27
REMARK Flexibility Score: inf
ROOT
ATOM      1  C   UNL     1       5.072   0.154  -5.777  1.00  0.00     0.180 A 
ATOM      2  C   UNL     1       4.870   0.655  -7.074  1.00  0.00     0.208 A 
ATOM      3  C   UNL     1       4.836   2.045  -7.269  1.00  0.00     0.238 A 
ATOM      4  O   UNL     1       4.709   2.488  -8.441  1.00  0.00    -0.285 OA
ATOM      5  C   UNL     1       4.986   2.916  -6.163  1.00  0.00     0.111 A 
ATOM      6  C   UNL     1       4.927   4.340  -6.239  1.00  0.00     0.134 A 
ATOM      7  C   UNL     1       5.220   5.105  -5.104  1.00  0.00     0.093 A 
ATOM      8  C   UNL     1       5.505   4.495  -3.879  1.00  0.00     0.123 A 
ATOM      9  C   UNL     1       5.506   3.106  -3.780  1.00  0.00     0.094 A 
ATOM     10  C   UNL     1       5.253   2.317  -4.905  1.00  0.00     0.146 A 
ATOM     11  O   UNL     1       5.275   0.995  -4.771  1.00  0.00    -0.452 OA
ENDROOT
BRANCH   1  12
ATOM     12  C   UNL     1       5.095  -1.299  -5.488  1.00  0.00     0.025 A 
ATOM     13  C   UNL     1       4.036  -1.877  -4.773  1.00  0.00     0.016 A 
ATOM     14  C   UNL     1       4.029  -3.247  -4.507  1.00  0.00     0.051 A 
ATOM     15  C   UNL     1       5.067  -4.068  -4.960  1.00  0.00     0.157 A 
ATOM     16  C   UNL     1       6.128  -2.124  -5.963  1.00  0.00     0.062 A 
ATOM     17  C   UNL     1       6.128  -3.500  -5.704  1.00  0.00     0.158 A 
BRANCH  15  18
ATOM     18  O   UNL     1       5.004  -5.429  -4.654  1.00  0.00    -0.504 OA
ATOM     19  H   UNL     1       4.243  -5.861  -4.151  1.00  0.00     0.293 HD
ENDBRANCH  15  18
BRANCH  17  20
ATOM     20  O   UNL     1       7.188  -4.258  -6.206  1.00  0.00    -0.504 OA
ATOM     21  H   UNL     1       7.072  -5.067  -6.799  1.00  0.00     0.293 HD
ENDBRANCH  17  20
ENDBRANCH   1  12
BRANCH   2  22
ATOM     22  O   UNL     1       4.746  -0.223  -8.155  1.00  0.00    -0.502 OA
ATOM     23  H   UNL     1       5.511  -0.414  -8.790  1.00  0.00     0.293 HD
ENDBRANCH   2  22
BRANCH   6  24
ATOM     24  O   UNL     1       4.562   5.045  -7.390  1.00  0.00    -0.507 OA
ATOM     25  H   UNL     1       4.205   5.988  -7.397  1.00  0.00     0.293 HD
ENDBRANCH   6  24
BRANCH   8  26
ATOM     26  O   UNL     1       5.780   5.264  -2.750  1.00  0.00    -0.508 OA
ATOM     27  H   UNL     1       5.496   4.967  -1.823  1.00  0.00     0.293 HD
ENDBRANCH   8  26
TORSDOF 6
ENDMDL
MODEL 7
REMARK VINA RESULT:    -6.015      1.522      1.700
REMARK INTER + INTRA:          -6.901
REMARK INTER:                  -7.119
REMARK INTRA:                   0.219
REMARK UNBOUND:                 0.345
REMARK SMILES O=c1c(O)c(-c2ccc(O)c(O)c2)oc2cc(O)cc(O)c12
REMARK SMILES IDX 5 1 3 2 2 3 1 4 22 5 20 6 19 7 17 8 16 9 15 10 14 11 6 12
REMARK SMILES IDX 7 13 8 14 9 15 13 16 11 17 10 18 12 20 4 22 21 24 18 26
REMARK H PARENT 10 19 12 21 4 23 21 25 18 27
REMARK Flexibility Score: inf
ROOT
ATOM      1  C   UNL     1       5.632  -0.965  -5.423  1.00  0.00     0.180 A 
ATOM      2  C   UNL     1       6.731  -1.030  -6.296  1.00  0.00     0.208 A 
ATOM      3  C   UNL     1       7.071   0.106  -7.049  1.00  0.00     0.238 A 
ATOM      4  O   UNL     1       8.089   0.059  -7.788  1.00  0.00    -0.285 OA
ATOM      5  C   UNL     1       6.299   1.286  -6.931  1.00  0.00     0.111 A 
ATOM      6  C   UNL     1       6.528   2.482  -7.676  1.00  0.00     0.134 A 
ATOM      7  C   UNL     1       5.783   3.631  -7.383  1.00  0.00     0.093 A 
ATOM      8  C   UNL     1       4.772   3.608  -6.418  1.00  0.00     0.123 A 
ATOM      9  C   UNL     1       4.501   2.429  -5.729  1.00  0.00     0.094 A 
ATOM     10  C   UNL     1       5.251   1.277  -5.973  1.00  0.00     0.146 A 
ATOM     11  O   UNL     1       4.967   0.176  -5.286  1.00  0.00    -0.452 OA
ENDROOT
BRANCH   1  12
ATOM     12  C   UNL     1       5.197  -2.128  -4.615  1.00  0.00     0.025 A 
ATOM     13  C   UNL     1       4.568  -1.913  -3.381  1.00  0.00     0.016 A 
ATOM     14  C   UNL     1       4.132  -2.995  -2.614  1.00  0.00     0.051 A 
ATOM     15  C   UNL     1       4.302  -4.307  -3.067  1.00  0.00     0.157 A 
ATOM     16  C   UNL     1       5.350  -3.443  -5.084  1.00  0.00     0.062 A 
ATOM     17  C   UNL     1       4.912  -4.534  -4.323  1.00  0.00     0.158 A 
BRANCH  15  18
ATOM     18  O   UNL     1       3.851  -5.345  -2.248  1.00  0.00    -0.504 OA
ATOM     19  H   UNL     1       4.118  -6.311  -2.362  1.00  0.00     0.293 HD
ENDBRANCH  15  18
BRANCH  17  20
ATOM     20  O   UNL     1       5.098  -5.814  -4.851  1.00  0.00    -0.504 OA
ATOM     21  H   UNL     1       5.962  -6.133  -5.267  1.00  0.00     0.293 HD
ENDBRANCH  17  20
ENDBRANCH   1  12
BRANCH   2  22
ATOM     22  O   UNL     1       7.494  -2.199  -6.380  1.00  0.00    -0.502 OA
ATOM     23  H   UNL     1       7.598  -2.718  -7.243  1.00  0.00     0.293 HD
ENDBRANCH   2  22
BRANCH   6  24
ATOM     24  O   UNL     1       7.449   2.585  -8.723  1.00  0.00    -0.507 OA
ATOM     25  H   UNL     1       8.245   3.205  -8.729  1.00  0.00     0.293 HD
ENDBRANCH   6  24
BRANCH   8  26
ATOM     26  O   UNL     1       4.025   4.752  -6.146  1.00  0.00    -0.508 OA
ATOM     27  H   UNL     1       3.040   4.810  -6.378  1.00  0.00     0.293 HD
ENDBRANCH   8  26
TORSDOF 6
ENDMDL
MODEL 8
REMARK VINA RESULT:    -5.957      1.501      2.480
REMARK INTER + INTRA:          -6.831
REMARK INTER:                  -7.294
REMARK INTRA:                   0.464
REMARK UNBOUND:                 0.345
REMARK SMILES O=c1c(O)c(-c2ccc(O)c(O)c2)oc2cc(O)cc(O)c12
REMARK SMILES IDX 5 1 3 2 2 3 1 4 22 5 20 6 19 7 17 8 16 9 15 10 14 11 6 12
REMARK SMILES IDX 7 13 8 14 9 15 13 16 11 17 10 18 12 20 4 22 21 24 18 26
REMARK H PARENT 10 19 12 21 4 23 21 25 18 27
REMARK Flexibility Score: inf
ROOT
ATOM      1  C   UNL     1       4.895  -1.720  -4.563  1.00  0.00     0.180 A 
ATOM      2  C   UNL     1       5.519  -2.432  -5.601  1.00  0.00     0.208 A 
ATOM      3  C   UNL     1       6.008  -1.725  -6.712  1.00  0.00     0.238 A 
ATOM      4  O   UNL     1       6.614  -2.361  -7.614  1.00  0.00    -0.285 OA
ATOM      5  C   UNL     1       5.853  -0.320  -6.778  1.00  0.00     0.111 A 
ATOM      6  C   UNL     1       6.274   0.491  -7.874  1.00  0.00     0.134 A 
ATOM      7  C   UNL     1       6.188   1.885  -7.775  1.00  0.00     0.093 A 
ATOM      8  C   UNL     1       5.635   2.494  -6.644  1.00  0.00     0.123 A 
ATOM      9  C   UNL     1       5.166   1.708  -5.595  1.00  0.00     0.094 A 
ATOM     10  C   UNL     1       5.272   0.316  -5.650  1.00  0.00     0.146 A 
ATOM     11  O   UNL     1       4.822  -0.396  -4.623  1.00  0.00    -0.452 OA
ENDROOT
BRANCH   1  12
ATOM     12  C   UNL     1       4.331  -2.397  -3.372  1.00  0.00     0.025 A 
ATOM     13  C   UNL     1       3.743  -1.629  -2.357  1.00  0.00     0.016 A 
ATOM     14  C   UNL     1       3.188  -2.248  -1.235  1.00  0.00     0.051 A 
ATOM     15  C   UNL     1       3.197  -3.642  -1.110  1.00  0.00     0.157 A 
ATOM     16  C   UNL     1       4.322  -3.797  -3.261  1.00  0.00     0.062 A 
ATOM     17  C   UNL     1       3.765  -4.427  -2.141  1.00  0.00     0.158 A 
BRANCH  15  18
ATOM     18  O   UNL     1       2.633  -4.198   0.039  1.00  0.00    -0.504 OA
ATOM     19  H   UNL     1       1.698  -4.577   0.084  1.00  0.00     0.293 HD
ENDBRANCH  15  18
BRANCH  17  20
ATOM     20  O   UNL     1       3.792  -5.823  -2.098  1.00  0.00    -0.504 OA
ATOM     21  H   UNL     1       3.462  -6.417  -2.845  1.00  0.00     0.293 HD
ENDBRANCH  17  20
ENDBRANCH   1  12
BRANCH   2  22
ATOM     22  O   UNL     1       5.681  -3.817  -5.506  1.00  0.00    -0.502 OA
ATOM     23  H   UNL     1       5.026  -4.470  -5.917  1.00  0.00     0.293 HD
ENDBRANCH   2  22
BRANCH   6  24
ATOM     24  O   UNL     1       6.755  -0.020  -9.084  1.00  0.00    -0.507 OA
ATOM     25  H   UNL     1       6.207  -0.554  -9.740  1.00  0.00     0.293 HD
ENDBRANCH   6  24
BRANCH   8  26
ATOM     26  O   UNL     1       5.538   3.881  -6.561  1.00  0.00    -0.508 OA
ATOM     27  H   UNL     1       5.202   4.438  -7.339  1.00  0.00     0.293 HD
ENDBRANCH   8  26
TORSDOF 6
ENDMDL
MODEL 9
REMARK VINA RESULT:    -5.821      2.976      7.820
REMARK INTER + INTRA:          -6.667
REMARK INTER:                  -6.332
REMARK INTRA:                  -0.335
REMARK UNBOUND:                 0.345
REMARK SMILES O=c1c(O)c(-c2ccc(O)c(O)c2)oc2cc(O)cc(O)c12
REMARK SMILES IDX 5 1 3 2 2 3 1 4 22 5 20 6 19 7 17 8 16 9 15 10 14 11 6 12
REMARK SMILES IDX 7 13 8 14 9 15 13 16 11 17 10 18 12 20 4 22 21 24 18 26
REMARK H PARENT 10 19 12 21 4 23 21 25 18 27
REMARK Flexibility Score: inf
ROOT
ATOM      1  C   UNL     1       4.882   3.720  -5.275  1.00  0.00     0.180 A 
ATOM      2  C   UNL     1       5.960   3.583  -4.384  1.00  0.00     0.208 A 
ATOM      3  C   UNL     1       6.621   2.347  -4.300  1.00  0.00     0.238 A 
ATOM      4  O   UNL     1       7.620   2.247  -3.540  1.00  0.00    -0.285 OA
ATOM      5  C   UNL     1       6.187   1.260  -5.096  1.00  0.00     0.111 A 
ATOM      6  C   UNL     1       6.758  -0.047  -5.062  1.00  0.00     0.134 A 
ATOM      7  C   UNL     1       6.335  -1.009  -5.987  1.00  0.00     0.093 A 
ATOM      8  C   UNL     1       5.314  -0.730  -6.901  1.00  0.00     0.123 A 
ATOM      9  C   UNL     1       4.710   0.524  -6.901  1.00  0.00     0.094 A 
ATOM     10  C   UNL     1       5.136   1.516  -6.015  1.00  0.00     0.146 A 
ATOM     11  O   UNL     1       4.540   2.702  -6.055  1.00  0.00    -0.452 OA
ENDROOT
BRANCH   1  12
ATOM     12  C   UNL     1       4.119   4.984  -5.401  1.00  0.00     0.025 A 
ATOM     13  C   UNL     1       4.477   5.910  -6.390  1.00  0.00     0.016 A 
ATOM     14  C   UNL     1       3.758   7.097  -6.539  1.00  0.00     0.051 A 
ATOM     15  C   UNL     1       2.663   7.378  -5.715  1.00  0.00     0.157 A 
ATOM     16  C   UNL     1       3.006   5.251  -4.586  1.00  0.00     0.062 A 
ATOM     17  C   UNL     1       2.277   6.438  -4.730  1.00  0.00     0.158 A 
BRANCH  15  18
ATOM     18  O   UNL     1       1.991   8.586  -5.910  1.00  0.00    -0.504 OA
ATOM     19  H   UNL     1       2.409   9.494  -5.768  1.00  0.00     0.293 HD
ENDBRANCH  15  18
BRANCH  17  20
ATOM     20  O   UNL     1       1.183   6.638  -3.885  1.00  0.00    -0.504 OA
ATOM     21  H   UNL     1       0.259   6.270  -4.061  1.00  0.00     0.293 HD
ENDBRANCH  17  20
ENDBRANCH   1  12
BRANCH   2  22
ATOM     22  O   UNL     1       6.386   4.676  -3.623  1.00  0.00    -0.502 OA
ATOM     23  H   UNL     1       6.301   4.702  -2.614  1.00  0.00     0.293 HD
ENDBRANCH   2  22
BRANCH   6  24
ATOM     24  O   UNL     1       7.717  -0.457  -4.130  1.00  0.00    -0.507 OA
ATOM     25  H   UNL     1       8.682  -0.166  -4.134  1.00  0.00     0.293 HD
ENDBRANCH   6  24
BRANCH   8  26
ATOM     26  O   UNL     1       4.888  -1.699  -7.807  1.00  0.00    -0.508 OA
ATOM     27  H   UNL     1       5.291  -2.629  -7.819  1.00  0.00     0.293 HD
ENDBRANCH   8  26
TORSDOF 6
ENDMDL
