MODEL 1
REMARK VINA RESULT:    -3.523      0.000      0.000
REMARK INTER + INTRA:          -8.399
REMARK INTER:                  -6.818
REMARK INTRA:                  -1.580
REMARK UNBOUND:                -1.580
REMARK SMILES CCCCCCCCCCCCCCCCCC(=O)[O-]
REMARK SMILES IDX 10 1 11 2 12 3 13 4 14 5 15 6 16 7 17 8 18 9 19 10 20 11
REMARK SMILES IDX 9 12 8 13 7 14 6 15 5 16 4 17 3 18 2 19 1 20
REMARK H PARENT
REMARK Flexibility Score: inf
ROOT
ATOM      1  C   UNL     1     -39.301 -32.220  24.286  1.00  0.00     0.000 C 
ENDROOT
BRANCH   1   2
ATOM      2  C   UNL     1     -40.627 -32.223  25.072  1.00  0.00     0.000 C 
BRANCH   2   3
ATOM      3  C   UNL     1     -41.876 -31.875  24.237  1.00  0.00     0.000 C 
BRANCH   3   4
ATOM      4  C   UNL     1     -43.027 -32.897  24.325  1.00  0.00     0.000 C 
BRANCH   4   5
ATOM      5  C   UNL     1     -44.414 -32.351  23.939  1.00  0.00     0.000 C 
BRANCH   5   6
ATOM      6  C   UNL     1     -44.927 -32.918  22.607  1.00  0.00     0.000 C 
BRANCH   6   7
ATOM      7  C   UNL     1     -44.414 -34.344  22.380  1.00  0.00     0.006 C 
BRANCH   7   8
ATOM      8  C   UNL     1     -45.232 -35.056  21.298  1.00  0.00     0.053 C 
BRANCH   8   9
ATOM      9  C   UNL     1     -44.495 -36.251  20.782  1.00  0.00     0.041 C 
ATOM     10  O   UNL     1     -43.379 -36.110  20.217  1.00  0.00    -0.550 OA
ATOM     11  O   UNL     1     -45.021 -37.525  20.959  1.00  0.00    -0.550 OA
ENDBRANCH   8   9
ENDBRANCH   7   8
ENDBRANCH   6   7
ENDBRANCH   5   6
ENDBRANCH   4   5
ENDBRANCH   3   4
ENDBRANCH   2   3
ENDBRANCH   1   2
BRANCH   1  12
ATOM     12  C   UNL     1     -38.066 -32.660  25.097  1.00  0.00     0.000 C 
BRANCH  12  13
ATOM     13  C   UNL     1     -38.258 -33.938  25.940  1.00  0.00    -0.000 C 
BRANCH  13  14
ATOM     14  C   UNL     1     -37.888 -33.796  27.427  1.00  0.00    -0.000 C 
BRANCH  14  15
ATOM     15  C   UNL     1     -37.942 -32.340  27.920  1.00  0.00    -0.000 C 
BRANCH  15  16
ATOM     16  C   UNL     1     -38.949 -32.152  29.075  1.00  0.00    -0.000 C 
BRANCH  16  17
ATOM     17  C   UNL     1     -40.407 -32.023  28.604  1.00  0.00    -0.000 C 
BRANCH  17  18
ATOM     18  C   UNL     1     -41.270 -33.234  28.995  1.00  0.00    -0.000 C 
BRANCH  18  19
ATOM     19  C   UNL     1     -42.342 -33.556  27.942  1.00  0.00    -0.003 C 
ATOM     20  C   UNL     1     -43.469 -34.428  28.496  1.00  0.00     0.004 C 
ENDBRANCH  18  19
ENDBRANCH  17  18
ENDBRANCH  16  17
ENDBRANCH  15  16
ENDBRANCH  14  15
ENDBRANCH  13  14
ENDBRANCH  12  13
ENDBRANCH   1  12
TORSDOF 16
ENDMDL
MODEL 2
REMARK VINA RESULT:    -3.418      1.216      2.366
REMARK INTER + INTRA:          -8.195
REMARK INTER:                  -6.908
REMARK INTRA:                  -1.287
REMARK UNBOUND:                -1.580
REMARK SMILES CCCCCCCCCCCCCCCCCC(=O)[O-]
REMARK SMILES IDX 10 1 11 2 12 3 13 4 14 5 15 6 16 7 17 8 18 9 19 10 20 11
REMARK SMILES IDX 9 12 8 13 7 14 6 15 5 16 4 17 3 18 2 19 1 20
REMARK H PARENT
REMARK Flexibility Score: inf
ROOT
ATOM      1  C   UNL     1     -41.566 -32.034  24.156  1.00  0.00     0.000 C 
ENDROOT
BRANCH   1   2
ATOM      2  C   UNL     1     -42.791 -32.527  24.950  1.00  0.00     0.000 C 
BRANCH   2   3
ATOM      3  C   UNL     1     -44.154 -32.206  24.305  1.00  0.00     0.000 C 
BRANCH   3   4
ATOM      4  C   UNL     1     -44.958 -33.432  23.830  1.00  0.00     0.000 C 
BRANCH   4   5
ATOM      5  C   UNL     1     -44.952 -33.666  22.309  1.00  0.00     0.000 C 
BRANCH   5   6
ATOM      6  C   UNL     1     -45.230 -35.128  21.930  1.00  0.00     0.000 C 
BRANCH   6   7
ATOM      7  C   UNL     1     -44.097 -35.702  21.071  1.00  0.00     0.006 C 
BRANCH   7   8
ATOM      8  C   UNL     1     -44.567 -36.934  20.293  1.00  0.00     0.053 C 
BRANCH   8   9
ATOM      9  C   UNL     1     -44.502 -36.683  18.820  1.00  0.00     0.041 C 
ATOM     10  O   UNL     1     -44.623 -35.513  18.372  1.00  0.00    -0.550 OA
ATOM     11  O   UNL     1     -44.267 -37.735  17.943  1.00  0.00    -0.550 OA
ENDBRANCH   8   9
ENDBRANCH   7   8
ENDBRANCH   6   7
ENDBRANCH   5   6
ENDBRANCH   4   5
ENDBRANCH   3   4
ENDBRANCH   2   3
ENDBRANCH   1   2
BRANCH   1  12
ATOM     12  C   UNL     1     -40.225 -32.117  24.913  1.00  0.00     0.000 C 
BRANCH  12  13
ATOM     13  C   UNL     1     -39.076 -32.793  24.137  1.00  0.00    -0.000 C 
BRANCH  13  14
ATOM     14  C   UNL     1     -37.824 -33.109  24.975  1.00  0.00    -0.000 C 
BRANCH  14  15
ATOM     15  C   UNL     1     -38.085 -34.163  26.064  1.00  0.00    -0.000 C 
BRANCH  15  16
ATOM     16  C   UNL     1     -37.535 -33.729  27.439  1.00  0.00    -0.000 C 
BRANCH  16  17
ATOM     17  C   UNL     1     -38.631 -33.468  28.486  1.00  0.00    -0.000 C 
BRANCH  17  18
ATOM     18  C   UNL     1     -39.171 -32.030  28.440  1.00  0.00    -0.000 C 
BRANCH  18  19
ATOM     19  C   UNL     1     -40.613 -31.925  28.961  1.00  0.00    -0.003 C 
ATOM     20  C   UNL     1     -41.548 -32.948  28.316  1.00  0.00     0.004 C 
ENDBRANCH  18  19
ENDBRANCH  17  18
ENDBRANCH  16  17
ENDBRANCH  15  16
ENDBRANCH  14  15
ENDBRANCH  13  14
ENDBRANCH  12  13
ENDBRANCH   1  12
TORSDOF 16
ENDMDL
MODEL 3
REMARK VINA RESULT:    -3.362      4.976     11.023
REMARK INTER + INTRA:          -8.087
REMARK INTER:                  -6.860
REMARK INTRA:                  -1.228
REMARK UNBOUND:                -1.580
REMARK SMILES CCCCCCCCCCCCCCCCCC(=O)[O-]
REMARK SMILES IDX 10 1 11 2 12 3 13 4 14 5 15 6 16 7 17 8 18 9 19 10 20 11
REMARK SMILES IDX 9 12 8 13 7 14 6 15 5 16 4 17 3 18 2 19 1 20
REMARK H PARENT
REMARK Flexibility Score: inf
ROOT
ATOM      1  C   UNL     1     -44.152 -37.292  18.677  1.00  0.00     0.000 C 
ENDROOT
BRANCH   1   2
ATOM      2  C   UNL     1     -44.019 -36.429  19.948  1.00  0.00     0.000 C 
BRANCH   2   3
ATOM      3  C   UNL     1     -44.996 -36.793  21.083  1.00  0.00     0.000 C 
BRANCH   3   4
ATOM      4  C   UNL     1     -45.974 -35.672  21.489  1.00  0.00     0.000 C 
BRANCH   4   5
ATOM      5  C   UNL     1     -45.650 -34.283  20.909  1.00  0.00     0.000 C 
BRANCH   5   6
ATOM      6  C   UNL     1     -45.440 -33.219  21.996  1.00  0.00     0.000 C 
BRANCH   6   7
ATOM      7  C   UNL     1     -44.712 -33.806  23.211  1.00  0.00     0.006 C 
BRANCH   7   8
ATOM      8  C   UNL     1     -43.422 -33.036  23.503  1.00  0.00     0.053 C 
BRANCH   8   9
ATOM      9  C   UNL     1     -43.246 -32.842  24.976  1.00  0.00     0.041 C 
ATOM     10  O   UNL     1     -44.226 -32.981  25.753  1.00  0.00    -0.550 OA
ATOM     11  O   UNL     1     -41.991 -32.548  25.496  1.00  0.00    -0.550 OA
ENDBRANCH   8   9
ENDBRANCH   7   8
ENDBRANCH   6   7
ENDBRANCH   5   6
ENDBRANCH   4   5
ENDBRANCH   3   4
ENDBRANCH   2   3
ENDBRANCH   1   2
BRANCH   1  12
ATOM     12  C   UNL     1     -45.567 -37.842  18.412  1.00  0.00     0.000 C 
BRANCH  12  13
ATOM     13  C   UNL     1     -45.795 -38.406  16.995  1.00  0.00    -0.000 C 
BRANCH  13  14
ATOM     14  C   UNL     1     -45.314 -37.497  15.849  1.00  0.00    -0.000 C 
BRANCH  14  15
ATOM     15  C   UNL     1     -44.137 -38.100  15.062  1.00  0.00    -0.000 C 
BRANCH  15  16
ATOM     16  C   UNL     1     -44.267 -37.860  13.543  1.00  0.00    -0.000 C 
BRANCH  16  17
ATOM     17  C   UNL     1     -45.470 -36.982  13.160  1.00  0.00    -0.000 C 
BRANCH  17  18
ATOM     18  C   UNL     1     -45.080 -35.780  12.286  1.00  0.00    -0.000 C 
BRANCH  18  19
ATOM     19  C   UNL     1     -45.814 -34.493  12.693  1.00  0.00    -0.003 C 
ATOM     20  C   UNL     1     -45.903 -34.320  14.209  1.00  0.00     0.004 C 
ENDBRANCH  18  19
ENDBRANCH  17  18
ENDBRANCH  16  17
ENDBRANCH  15  16
ENDBRANCH  14  15
ENDBRANCH  13  14
ENDBRANCH  12  13
ENDBRANCH   1  12
TORSDOF 16
ENDMDL
MODEL 4
REMARK VINA RESULT:    -3.271      4.977     10.868
REMARK INTER + INTRA:          -7.911
REMARK INTER:                  -7.083
REMARK INTRA:                  -0.829
REMARK UNBOUND:                -1.580
REMARK SMILES CCCCCCCCCCCCCCCCCC(=O)[O-]
REMARK SMILES IDX 10 1 11 2 12 3 13 4 14 5 15 6 16 7 17 8 18 9 19 10 20 11
REMARK SMILES IDX 9 12 8 13 7 14 6 15 5 16 4 17 3 18 2 19 1 20
REMARK H PARENT
REMARK Flexibility Score: inf
ROOT
ATOM      1  C   UNL     1     -44.730 -36.722  20.376  1.00  0.00     0.000 C 
ENDROOT
BRANCH   1   2
ATOM      2  C   UNL     1     -45.741 -36.669  21.538  1.00  0.00     0.000 C 
BRANCH   2   3
ATOM      3  C   UNL     1     -45.776 -35.333  22.307  1.00  0.00     0.000 C 
BRANCH   3   4
ATOM      4  C   UNL     1     -44.565 -34.409  22.067  1.00  0.00     0.000 C 
BRANCH   4   5
ATOM      5  C   UNL     1     -44.558 -33.114  22.899  1.00  0.00     0.000 C 
BRANCH   5   6
ATOM      6  C   UNL     1     -43.238 -32.897  23.653  1.00  0.00     0.000 C 
BRANCH   6   7
ATOM      7  C   UNL     1     -43.483 -32.239  25.016  1.00  0.00     0.006 C 
BRANCH   7   8
ATOM      8  C   UNL     1     -43.329 -33.255  26.151  1.00  0.00     0.053 C 
BRANCH   8   9
ATOM      9  C   UNL     1     -42.163 -32.902  27.019  1.00  0.00     0.041 C 
ATOM     10  O   UNL     1     -41.017 -32.768  26.516  1.00  0.00    -0.550 OA
ATOM     11  O   UNL     1     -42.348 -32.681  28.379  1.00  0.00    -0.550 OA
ENDBRANCH   8   9
ENDBRANCH   7   8
ENDBRANCH   6   7
ENDBRANCH   5   6
ENDBRANCH   4   5
ENDBRANCH   3   4
ENDBRANCH   2   3
ENDBRANCH   1   2
BRANCH   1  12
ATOM     12  C   UNL     1     -45.307 -37.220  19.036  1.00  0.00     0.000 C 
BRANCH  12  13
ATOM     13  C   UNL     1     -45.142 -36.246  17.851  1.00  0.00    -0.000 C 
BRANCH  13  14
ATOM     14  C   UNL     1     -45.368 -36.870  16.462  1.00  0.00    -0.000 C 
BRANCH  14  15
ATOM     15  C   UNL     1     -44.568 -38.167  16.253  1.00  0.00    -0.000 C 
BRANCH  15  16
ATOM     16  C   UNL     1     -43.767 -38.152  14.934  1.00  0.00    -0.000 C 
BRANCH  16  17
ATOM     17  C   UNL     1     -44.653 -38.153  13.677  1.00  0.00    -0.000 C 
BRANCH  17  18
ATOM     18  C   UNL     1     -44.558 -36.845  12.877  1.00  0.00    -0.000 C 
BRANCH  18  19
ATOM     19  C   UNL     1     -45.892 -36.083  12.833  1.00  0.00    -0.003 C 
ATOM     20  C   UNL     1     -45.705 -34.577  12.650  1.00  0.00     0.004 C 
ENDBRANCH  18  19
ENDBRANCH  17  18
ENDBRANCH  16  17
ENDBRANCH  15  16
ENDBRANCH  14  15
ENDBRANCH  13  14
ENDBRANCH  12  13
ENDBRANCH   1  12
TORSDOF 16
ENDMDL
MODEL 5
REMARK VINA RESULT:    -3.270      1.124      3.267
REMARK INTER + INTRA:          -7.909
REMARK INTER:                  -6.728
REMARK INTRA:                  -1.180
REMARK UNBOUND:                -1.580
REMARK SMILES CCCCCCCCCCCCCCCCCC(=O)[O-]
REMARK SMILES IDX 10 1 11 2 12 3 13 4 14 5 15 6 16 7 17 8 18 9 19 10 20 11
REMARK SMILES IDX 9 12 8 13 7 14 6 15 5 16 4 17 3 18 2 19 1 20
REMARK H PARENT
REMARK Flexibility Score: inf
ROOT
ATOM      1  C   UNL     1     -42.113 -32.254  26.251  1.00  0.00     0.000 C 
ENDROOT
BRANCH   1   2
ATOM      2  C   UNL     1     -43.414 -32.105  25.438  1.00  0.00     0.000 C 
BRANCH   2   3
ATOM      3  C   UNL     1     -43.511 -33.015  24.197  1.00  0.00     0.000 C 
BRANCH   3   4
ATOM      4  C   UNL     1     -44.623 -32.641  23.197  1.00  0.00     0.000 C 
BRANCH   4   5
ATOM      5  C   UNL     1     -45.773 -33.658  23.091  1.00  0.00     0.000 C 
BRANCH   5   6
ATOM      6  C   UNL     1     -45.865 -34.312  21.705  1.00  0.00     0.000 C 
BRANCH   6   7
ATOM      7  C   UNL     1     -44.849 -35.451  21.563  1.00  0.00     0.006 C 
BRANCH   7   8
ATOM      8  C   UNL     1     -45.502 -36.698  20.962  1.00  0.00     0.053 C 
BRANCH   8   9
ATOM      9  C   UNL     1     -44.785 -37.122  19.720  1.00  0.00     0.041 C 
ATOM     10  O   UNL     1     -43.560 -36.868  19.580  1.00  0.00    -0.550 OA
ATOM     11  O   UNL     1     -45.457 -37.834  18.735  1.00  0.00    -0.550 OA
ENDBRANCH   8   9
ENDBRANCH   7   8
ENDBRANCH   6   7
ENDBRANCH   5   6
ENDBRANCH   4   5
ENDBRANCH   3   4
ENDBRANCH   2   3
ENDBRANCH   1   2
BRANCH   1  12
ATOM     12  C   UNL     1     -42.134 -33.373  27.311  1.00  0.00     0.000 C 
BRANCH  12  13
ATOM     13  C   UNL     1     -41.906 -32.904  28.762  1.00  0.00    -0.000 C 
BRANCH  13  14
ATOM     14  C   UNL     1     -40.618 -32.091  28.987  1.00  0.00    -0.000 C 
BRANCH  14  15
ATOM     15  C   UNL     1     -39.369 -32.978  29.125  1.00  0.00    -0.000 C 
BRANCH  15  16
ATOM     16  C   UNL     1     -38.335 -32.707  28.011  1.00  0.00    -0.000 C 
BRANCH  16  17
ATOM     17  C   UNL     1     -37.653 -33.980  27.483  1.00  0.00    -0.000 C 
BRANCH  17  18
ATOM     18  C   UNL     1     -37.903 -34.214  25.984  1.00  0.00    -0.000 C 
BRANCH  18  19
ATOM     19  C   UNL     1     -37.875 -32.909  25.172  1.00  0.00    -0.003 C 
ATOM     20  C   UNL     1     -39.088 -32.761  24.254  1.00  0.00     0.004 C 
ENDBRANCH  18  19
ENDBRANCH  17  18
ENDBRANCH  16  17
ENDBRANCH  15  16
ENDBRANCH  14  15
ENDBRANCH  13  14
ENDBRANCH  12  13
ENDBRANCH   1  12
TORSDOF 16
ENDMDL
MODEL 6
REMARK VINA RESULT:    -3.108      4.833     10.640
REMARK INTER + INTRA:          -7.594
REMARK INTER:                  -6.293
REMARK INTRA:                  -1.301
REMARK UNBOUND:                -1.580
REMARK SMILES CCCCCCCCCCCCCCCCCC(=O)[O-]
REMARK SMILES IDX 10 1 11 2 12 3 13 4 14 5 15 6 16 7 17 8 18 9 19 10 20 11
REMARK SMILES IDX 9 12 8 13 7 14 6 15 5 16 4 17 3 18 2 19 1 20
REMARK H PARENT
REMARK Flexibility Score: inf
ROOT
ATOM      1  C   UNL     1     -43.987 -36.669  19.375  1.00  0.00     0.000 C 
ENDROOT
BRANCH   1   2
ATOM      2  C   UNL     1     -44.660 -36.766  20.758  1.00  0.00     0.000 C 
BRANCH   2   3
ATOM      3  C   UNL     1     -45.851 -35.810  20.967  1.00  0.00     0.000 C 
BRANCH   3   4
ATOM      4  C   UNL     1     -45.471 -34.340  21.234  1.00  0.00     0.000 C 
BRANCH   4   5
ATOM      5  C   UNL     1     -44.432 -34.128  22.350  1.00  0.00     0.000 C 
BRANCH   5   6
ATOM      6  C   UNL     1     -44.636 -32.809  23.110  1.00  0.00     0.000 C 
BRANCH   6   7
ATOM      7  C   UNL     1     -44.596 -33.034  24.626  1.00  0.00     0.006 C 
BRANCH   7   8
ATOM      8  C   UNL     1     -43.156 -33.003  25.148  1.00  0.00     0.053 C 
BRANCH   8   9
ATOM      9  C   UNL     1     -43.126 -33.248  26.623  1.00  0.00     0.041 C 
ATOM     10  O   UNL     1     -44.194 -33.483  27.247  1.00  0.00    -0.550 OA
ATOM     11  O   UNL     1     -41.914 -33.258  27.303  1.00  0.00    -0.550 OA
ENDBRANCH   8   9
ENDBRANCH   7   8
ENDBRANCH   6   7
ENDBRANCH   5   6
ENDBRANCH   4   5
ENDBRANCH   3   4
ENDBRANCH   2   3
ENDBRANCH   1   2
BRANCH   1  12
ATOM     12  C   UNL     1     -44.761 -37.347  18.227  1.00  0.00     0.000 C 
BRANCH  12  13
ATOM     13  C   UNL     1     -45.015 -36.456  16.993  1.00  0.00    -0.000 C 
BRANCH  13  14
ATOM     14  C   UNL     1     -44.643 -34.973  17.176  1.00  0.00    -0.000 C 
BRANCH  14  15
ATOM     15  C   UNL     1     -45.116 -34.092  16.007  1.00  0.00    -0.000 C 
BRANCH  15  16
ATOM     16  C   UNL     1     -45.974 -34.878  14.993  1.00  0.00    -0.000 C 
BRANCH  16  17
ATOM     17  C   UNL     1     -45.716 -34.479  13.530  1.00  0.00    -0.000 C 
BRANCH  17  18
ATOM     18  C   UNL     1     -45.341 -35.676  12.642  1.00  0.00    -0.000 C 
BRANCH  18  19
ATOM     19  C   UNL     1     -45.587 -37.025  13.337  1.00  0.00    -0.003 C 
ATOM     20  C   UNL     1     -44.326 -37.884  13.418  1.00  0.00     0.004 C 
ENDBRANCH  18  19
ENDBRANCH  17  18
ENDBRANCH  16  17
ENDBRANCH  15  16
ENDBRANCH  14  15
ENDBRANCH  13  14
ENDBRANCH  12  13
ENDBRANCH   1  12
TORSDOF 16
ENDMDL
MODEL 7
REMARK VINA RESULT:    -3.104      3.717      7.789
REMARK INTER + INTRA:          -7.587
REMARK INTER:                  -6.244
REMARK INTRA:                  -1.343
REMARK UNBOUND:                -1.580
REMARK SMILES CCCCCCCCCCCCCCCCCC(=O)[O-]
REMARK SMILES IDX 10 1 11 2 12 3 13 4 14 5 15 6 16 7 17 8 18 9 19 10 20 11
REMARK SMILES IDX 9 12 8 13 7 14 6 15 5 16 4 17 3 18 2 19 1 20
REMARK H PARENT
REMARK Flexibility Score: inf
ROOT
ATOM      1  C   UNL     1     -44.582 -36.470  19.345  1.00  0.00     0.000 C 
ENDROOT
BRANCH   1   2
ATOM      2  C   UNL     1     -45.594 -37.223  18.459  1.00  0.00     0.000 C 
BRANCH   2   3
ATOM      3  C   UNL     1     -44.972 -38.258  17.500  1.00  0.00     0.000 C 
BRANCH   3   4
ATOM      4  C   UNL     1     -45.280 -38.033  16.006  1.00  0.00     0.000 C 
BRANCH   4   5
ATOM      5  C   UNL     1     -44.615 -36.792  15.384  1.00  0.00     0.000 C 
BRANCH   5   6
ATOM      6  C   UNL     1     -45.575 -35.981  14.501  1.00  0.00     0.000 C 
BRANCH   6   7
ATOM      7  C   UNL     1     -45.727 -34.547  15.022  1.00  0.00     0.006 C 
BRANCH   7   8
ATOM      8  C   UNL     1     -44.906 -34.337  16.297  1.00  0.00     0.053 C 
BRANCH   8   9
ATOM      9  C   UNL     1     -44.998 -32.916  16.754  1.00  0.00     0.041 C 
ATOM     10  O   UNL     1     -45.640 -32.628  17.799  1.00  0.00    -0.550 OA
ATOM     11  O   UNL     1     -44.342 -31.913  16.051  1.00  0.00    -0.550 OA
ENDBRANCH   8   9
ENDBRANCH   7   8
ENDBRANCH   6   7
ENDBRANCH   5   6
ENDBRANCH   4   5
ENDBRANCH   3   4
ENDBRANCH   2   3
ENDBRANCH   1   2
BRANCH   1  12
ATOM     12  C   UNL     1     -44.755 -36.692  20.861  1.00  0.00     0.000 C 
BRANCH  12  13
ATOM     13  C   UNL     1     -45.655 -35.663  21.574  1.00  0.00    -0.000 C 
BRANCH  13  14
ATOM     14  C   UNL     1     -45.705 -34.274  20.911  1.00  0.00    -0.000 C 
BRANCH  14  15
ATOM     15  C   UNL     1     -45.468 -33.127  21.908  1.00  0.00    -0.000 C 
BRANCH  15  16
ATOM     16  C   UNL     1     -44.873 -33.627  23.241  1.00  0.00    -0.000 C 
BRANCH  16  17
ATOM     17  C   UNL     1     -43.372 -33.334  23.393  1.00  0.00    -0.000 C 
BRANCH  17  18
ATOM     18  C   UNL     1     -43.064 -32.374  24.553  1.00  0.00    -0.000 C 
BRANCH  18  19
ATOM     19  C   UNL     1     -43.620 -32.876  25.896  1.00  0.00    -0.003 C 
ATOM     20  C   UNL     1     -42.519 -33.297  26.868  1.00  0.00     0.004 C 
ENDBRANCH  18  19
ENDBRANCH  17  18
ENDBRANCH  16  17
ENDBRANCH  15  16
ENDBRANCH  14  15
ENDBRANCH  13  14
ENDBRANCH  12  13
ENDBRANCH   1  12
TORSDOF 16
ENDMDL
MODEL 8
REMARK VINA RESULT:    -3.098      4.345      7.840
REMARK INTER + INTRA:          -7.576
REMARK INTER:                  -6.366
REMARK INTRA:                  -1.210
REMARK UNBOUND:                -1.580
REMARK SMILES CCCCCCCCCCCCCCCCCC(=O)[O-]
REMARK SMILES IDX 10 1 11 2 12 3 13 4 14 5 15 6 16 7 17 8 18 9 19 10 20 11
REMARK SMILES IDX 9 12 8 13 7 14 6 15 5 16 4 17 3 18 2 19 1 20
REMARK H PARENT
REMARK Flexibility Score: inf
ROOT
ATOM      1  C   UNL     1     -44.162 -36.765  19.614  1.00  0.00     0.000 C 
ENDROOT
BRANCH   1   2
ATOM      2  C   UNL     1     -44.910 -36.576  18.280  1.00  0.00     0.000 C 
BRANCH   2   3
ATOM      3  C   UNL     1     -45.297 -35.119  17.955  1.00  0.00     0.000 C 
BRANCH   3   4
ATOM      4  C   UNL     1     -44.582 -34.510  16.733  1.00  0.00     0.000 C 
BRANCH   4   5
ATOM      5  C   UNL     1     -45.420 -33.506  15.921  1.00  0.00     0.000 C 
BRANCH   5   6
ATOM      6  C   UNL     1     -45.560 -33.905  14.444  1.00  0.00     0.000 C 
BRANCH   6   7
ATOM      7  C   UNL     1     -45.991 -35.370  14.306  1.00  0.00     0.006 C 
BRANCH   7   8
ATOM      8  C   UNL     1     -45.288 -36.040  13.122  1.00  0.00     0.053 C 
BRANCH   8   9
ATOM      9  C   UNL     1     -44.596 -37.291  13.560  1.00  0.00     0.041 C 
ATOM     10  O   UNL     1     -44.215 -38.135  12.707  1.00  0.00    -0.550 OA
ATOM     11  O   UNL     1     -44.334 -37.509  14.908  1.00  0.00    -0.550 OA
ENDBRANCH   8   9
ENDBRANCH   7   8
ENDBRANCH   6   7
ENDBRANCH   5   6
ENDBRANCH   4   5
ENDBRANCH   3   4
ENDBRANCH   2   3
ENDBRANCH   1   2
BRANCH   1  12
ATOM     12  C   UNL     1     -45.022 -37.320  20.767  1.00  0.00     0.000 C 
BRANCH  12  13
ATOM     13  C   UNL     1     -45.629 -36.254  21.702  1.00  0.00    -0.000 C 
BRANCH  13  14
ATOM     14  C   UNL     1     -44.909 -34.893  21.689  1.00  0.00    -0.000 C 
BRANCH  14  15
ATOM     15  C   UNL     1     -45.876 -33.707  21.540  1.00  0.00    -0.000 C 
BRANCH  15  16
ATOM     16  C   UNL     1     -45.431 -32.484  22.369  1.00  0.00    -0.000 C 
BRANCH  16  17
ATOM     17  C   UNL     1     -44.913 -32.846  23.771  1.00  0.00    -0.000 C 
BRANCH  17  18
ATOM     18  C   UNL     1     -43.410 -32.573  23.942  1.00  0.00    -0.000 C 
BRANCH  18  19
ATOM     19  C   UNL     1     -43.056 -32.101  25.361  1.00  0.00    -0.003 C 
ATOM     20  C   UNL     1     -43.125 -33.228  26.391  1.00  0.00     0.004 C 
ENDBRANCH  18  19
ENDBRANCH  17  18
ENDBRANCH  16  17
ENDBRANCH  15  16
ENDBRANCH  14  15
ENDBRANCH  13  14
ENDBRANCH  12  13
ENDBRANCH   1  12
TORSDOF 16
ENDMDL
