MODEL 1
REMARK VINA RESULT:     8.414      0.000      0.000
REMARK INTER + INTRA:          10.842
REMARK INTER:                  10.381
REMARK INTRA:                   0.461
REMARK UNBOUND:                 0.461
REMARK SMILES Oc1cc(O)c2cc(O)c(-c3cc(O)c(O)c(O)c3)[o+]c2c1
REMARK SMILES IDX 10 1 20 2 21 3 22 4 2 5 3 6 4 7 6 8 7 9 8 10 11 11 12 12
REMARK SMILES IDX 13 13 19 14 15 15 17 16 14 17 16 19 18 21 9 23 1 25 5 27
REMARK H PARENT 14 18 16 20 18 22 9 24 1 26 5 28
REMARK Flexibility Score: inf
ROOT
ATOM      1  C   UNL     1     -18.654 -13.487  13.258  1.00  0.00     0.402 A 
ATOM      2  O   UNL     1     -18.425 -12.203  13.527  1.00  0.00    -0.202 OA
ATOM      3  C   UNL     1     -18.473 -11.699  14.756  1.00  0.00     0.368 A 
ATOM      4  C   UNL     1     -18.223 -10.337  14.956  1.00  0.00     0.162 A 
ATOM      5  C   UNL     1     -18.275  -9.792  16.243  1.00  0.00     0.128 A 
ATOM      6  C   UNL     1     -18.577 -10.613  17.337  1.00  0.00     0.093 A 
ATOM      7  C   UNL     1     -18.828 -11.980  17.154  1.00  0.00     0.136 A 
ATOM      8  C   UNL     1     -18.776 -12.528  15.857  1.00  0.00     0.125 A 
ATOM      9  C   UNL     1     -19.010 -13.886  15.615  1.00  0.00     0.078 A 
ATOM     10  C   UNL     1     -18.940 -14.381  14.310  1.00  0.00     0.223 A 
ENDROOT
BRANCH   1  11
ATOM     11  C   UNL     1     -18.579 -13.930  11.846  1.00  0.00     0.091 A 
ATOM     12  C   UNL     1     -18.184 -13.052  10.825  1.00  0.00     0.068 A 
ATOM     13  C   UNL     1     -18.094 -13.487   9.496  1.00  0.00     0.162 A 
ATOM     14  C   UNL     1     -18.852 -15.268  11.529  1.00  0.00     0.068 A 
ATOM     15  C   UNL     1     -18.397 -14.833   9.180  1.00  0.00     0.200 A 
ATOM     16  C   UNL     1     -18.770 -15.715  10.204  1.00  0.00     0.162 A 
BRANCH  13  17
ATOM     17  O   UNL     1     -17.695 -12.557   8.534  1.00  0.00    -0.504 OA
ATOM     18  H   UNL     1     -17.710 -12.731   7.539  1.00  0.00     0.293 HD
ENDBRANCH  13  17
BRANCH  15  19
ATOM     19  O   UNL     1     -18.339 -15.329   7.875  1.00  0.00    -0.502 OA
ATOM     20  H   UNL     1     -17.607 -15.933   7.532  1.00  0.00     0.293 HD
ENDBRANCH  15  19
BRANCH  16  21
ATOM     21  O   UNL     1     -19.059 -17.044   9.895  1.00  0.00    -0.504 OA
ATOM     22  H   UNL     1     -18.359 -17.772   9.973  1.00  0.00     0.293 HD
ENDBRANCH  16  21
ENDBRANCH   1  11
BRANCH  10  23
ATOM     23  O   UNL     1     -19.122 -15.742  14.067  1.00  0.00    -0.500 OA
ATOM     24  H   UNL     1     -19.964 -16.095  13.626  1.00  0.00     0.294 HD
ENDBRANCH  10  23
BRANCH   5  25
ATOM     25  O   UNL     1     -18.025  -8.433  16.423  1.00  0.00    -0.507 OA
ATOM     26  H   UNL     1     -17.250  -8.107  16.988  1.00  0.00     0.293 HD
ENDBRANCH   5  25
BRANCH   7  27
ATOM     27  O   UNL     1     -19.125 -12.788  18.251  1.00  0.00    -0.507 OA
ATOM     28  H   UNL     1     -19.260 -12.399  19.177  1.00  0.00     0.293 HD
ENDBRANCH   7  27
TORSDOF 7
ENDMDL
MODEL 2
REMARK VINA RESULT:    11.270      1.060      2.548
REMARK INTER + INTRA:          14.367
REMARK INTER:                  14.036
REMARK INTRA:                   0.331
REMARK UNBOUND:                 0.461
REMARK SMILES Oc1cc(O)c2cc(O)c(-c3cc(O)c(O)c(O)c3)[o+]c2c1
REMARK SMILES IDX 10 1 20 2 21 3 22 4 2 5 3 6 4 7 6 8 7 9 8 10 11 11 12 12
REMARK SMILES IDX 13 13 19 14 15 15 17 16 14 17 16 19 18 21 9 23 1 25 5 27
REMARK H PARENT 14 18 16 20 18 22 9 24 1 26 5 28
REMARK Flexibility Score: inf
ROOT
ATOM      1  C   UNL     1     -18.846 -12.862  12.933  1.00  0.00     0.402 A 
ATOM      2  O   UNL     1     -18.892 -13.553  14.071  1.00  0.00    -0.202 OA
ATOM      3  C   UNL     1     -18.969 -12.978  15.267  1.00  0.00     0.368 A 
ATOM      4  C   UNL     1     -19.010 -13.774  16.416  1.00  0.00     0.162 A 
ATOM      5  C   UNL     1     -19.086 -13.183  17.681  1.00  0.00     0.128 A 
ATOM      6  C   UNL     1     -19.123 -11.787  17.799  1.00  0.00     0.093 A 
ATOM      7  C   UNL     1     -19.085 -10.976  16.656  1.00  0.00     0.136 A 
ATOM      8  C   UNL     1     -19.008 -11.573  15.383  1.00  0.00     0.125 A 
ATOM      9  C   UNL     1     -18.975 -10.813  14.208  1.00  0.00     0.078 A 
ATOM     10  C   UNL     1     -18.904 -11.454  12.968  1.00  0.00     0.223 A 
ENDROOT
BRANCH   1  11
ATOM     11  C   UNL     1     -18.753 -13.615  11.661  1.00  0.00     0.091 A 
ATOM     12  C   UNL     1     -18.423 -12.975  10.456  1.00  0.00     0.068 A 
ATOM     13  C   UNL     1     -18.314 -13.700   9.262  1.00  0.00     0.162 A 
ATOM     14  C   UNL     1     -18.941 -15.004  11.666  1.00  0.00     0.068 A 
ATOM     15  C   UNL     1     -18.532 -15.098   9.271  1.00  0.00     0.200 A 
ATOM     16  C   UNL     1     -18.840 -15.741  10.479  1.00  0.00     0.162 A 
BRANCH  13  17
ATOM     17  O   UNL     1     -17.983 -12.996   8.102  1.00  0.00    -0.504 OA
ATOM     18  H   UNL     1     -17.338 -12.220   8.076  1.00  0.00     0.293 HD
ENDBRANCH  13  17
BRANCH  15  19
ATOM     19  O   UNL     1     -18.451 -15.879   8.116  1.00  0.00    -0.502 OA
ATOM     20  H   UNL     1     -19.224 -16.402   7.731  1.00  0.00     0.293 HD
ENDBRANCH  15  19
BRANCH  16  21
ATOM     21  O   UNL     1     -19.045 -17.120  10.492  1.00  0.00    -0.504 OA
ATOM     22  H   UNL     1     -18.288 -17.767  10.678  1.00  0.00     0.293 HD
ENDBRANCH  16  21
ENDBRANCH   1  11
BRANCH  10  23
ATOM     23  O   UNL     1     -18.922 -10.706  11.791  1.00  0.00    -0.500 OA
ATOM     24  H   UNL     1     -19.636 -10.008  11.616  1.00  0.00     0.294 HD
ENDBRANCH  10  23
BRANCH   5  25
ATOM     25  O   UNL     1     -19.124 -13.992  18.815  1.00  0.00    -0.507 OA
ATOM     26  H   UNL     1     -19.540 -14.916  18.794  1.00  0.00     0.293 HD
ENDBRANCH   5  25
BRANCH   7  27
ATOM     27  O   UNL     1     -19.125  -9.588  16.785  1.00  0.00    -0.507 OA
ATOM     28  H   UNL     1     -18.897  -8.974  16.011  1.00  0.00     0.293 HD
ENDBRANCH   7  27
TORSDOF 7
ENDMDL
