MODEL 1
REMARK VINA RESULT:    -3.823      0.000      0.000
REMARK INTER + INTRA:          -7.173
REMARK INTER:                  -6.058
REMARK INTRA:                  -1.115
REMARK UNBOUND:                -1.115
REMARK SMILES CCCCCCCCCCCC(=O)[O-]
REMARK SMILES IDX 7 1 8 2 9 3 10 4 11 5 12 6 13 7 14 8 6 9 5 10 4 11 3 12 2 13
REMARK SMILES IDX 1 14
REMARK H PARENT
REMARK Flexibility Score: inf
ROOT
ATOM      1  C   UNL     1      11.749 -13.792  -2.678  1.00  0.00     0.000 C 
ENDROOT
BRANCH   1   2
ATOM      2  C   UNL     1      11.771 -14.262  -1.214  1.00  0.00     0.000 C 
BRANCH   2   3
ATOM      3  C   UNL     1      12.316 -15.690  -1.057  1.00  0.00     0.000 C 
BRANCH   3   4
ATOM      4  C   UNL     1      12.828 -16.232  -2.400  1.00  0.00     0.006 C 
BRANCH   4   5
ATOM      5  C   UNL     1      13.207 -17.717  -2.322  1.00  0.00     0.053 C 
BRANCH   5   6
ATOM      6  C   UNL     1      13.693 -18.233  -3.641  1.00  0.00     0.041 C 
ATOM      7  O   UNL     1      13.130 -17.878  -4.710  1.00  0.00    -0.550 OA
ATOM      8  O   UNL     1      14.791 -19.084  -3.693  1.00  0.00    -0.550 OA
ENDBRANCH   5   6
ENDBRANCH   4   5
ENDBRANCH   3   4
ENDBRANCH   2   3
ENDBRANCH   1   2
BRANCH   1   9
ATOM      9  C   UNL     1      12.497 -12.463  -2.881  1.00  0.00     0.000 C 
BRANCH   9  10
ATOM     10  C   UNL     1      13.831 -12.646  -3.624  1.00  0.00    -0.000 C 
BRANCH  10  11
ATOM     11  C   UNL     1      15.048 -12.255  -2.765  1.00  0.00    -0.000 C 
BRANCH  11  12
ATOM     12  C   UNL     1      14.656 -11.875  -1.328  1.00  0.00    -0.000 C 
BRANCH  12  13
ATOM     13  C   UNL     1      14.951 -12.997  -0.320  1.00  0.00    -0.003 C 
ATOM     14  C   UNL     1      14.351 -12.678   1.047  1.00  0.00     0.004 C 
ENDBRANCH  12  13
ENDBRANCH  11  12
ENDBRANCH  10  11
ENDBRANCH   9  10
ENDBRANCH   1   9
TORSDOF 10
ENDMDL
MODEL 2
REMARK VINA RESULT:    -3.573      1.286      2.699
REMARK INTER + INTRA:          -6.777
REMARK INTER:                  -5.877
REMARK INTRA:                  -0.901
REMARK UNBOUND:                -1.115
REMARK SMILES CCCCCCCCCCCC(=O)[O-]
REMARK SMILES IDX 7 1 8 2 9 3 10 4 11 5 12 6 13 7 14 8 6 9 5 10 4 11 3 12 2 13
REMARK SMILES IDX 1 14
REMARK H PARENT
REMARK Flexibility Score: inf
ROOT
ATOM      1  C   UNL     1      11.682 -13.544  -2.536  1.00  0.00     0.000 C 
ENDROOT
BRANCH   1   2
ATOM      2  C   UNL     1      12.139 -13.950  -1.125  1.00  0.00     0.000 C 
BRANCH   2   3
ATOM      3  C   UNL     1      12.430 -15.453  -1.005  1.00  0.00     0.000 C 
BRANCH   3   4
ATOM      4  C   UNL     1      12.867 -16.036  -2.357  1.00  0.00     0.006 C 
BRANCH   4   5
ATOM      5  C   UNL     1      12.837 -17.570  -2.367  1.00  0.00     0.053 C 
BRANCH   5   6
ATOM      6  C   UNL     1      13.558 -18.130  -3.554  1.00  0.00     0.041 C 
ATOM      7  O   UNL     1      13.203 -17.816  -4.720  1.00  0.00    -0.550 OA
ATOM      8  O   UNL     1      14.646 -18.976  -3.372  1.00  0.00    -0.550 OA
ENDBRANCH   5   6
ENDBRANCH   4   5
ENDBRANCH   3   4
ENDBRANCH   2   3
ENDBRANCH   1   2
BRANCH   1   9
ATOM      9  C   UNL     1      12.279 -12.198  -2.984  1.00  0.00     0.000 C 
BRANCH   9  10
ATOM     10  C   UNL     1      13.701 -11.975  -2.443  1.00  0.00    -0.000 C 
BRANCH  10  11
ATOM     11  C   UNL     1      14.786 -12.215  -3.509  1.00  0.00    -0.000 C 
BRANCH  11  12
ATOM     12  C   UNL     1      14.302 -11.875  -4.927  1.00  0.00    -0.000 C 
BRANCH  12  13
ATOM     13  C   UNL     1      14.977 -12.740  -6.003  1.00  0.00    -0.003 C 
ATOM     14  C   UNL     1      14.312 -14.110  -6.102  1.00  0.00     0.004 C 
ENDBRANCH  12  13
ENDBRANCH  11  12
ENDBRANCH  10  11
ENDBRANCH   9  10
ENDBRANCH   1   9
TORSDOF 10
ENDMDL
MODEL 3
REMARK VINA RESULT:    -3.566      2.918      5.598
REMARK INTER + INTRA:          -6.765
REMARK INTER:                  -5.831
REMARK INTRA:                  -0.934
REMARK UNBOUND:                -1.115
REMARK SMILES CCCCCCCCCCCC(=O)[O-]
REMARK SMILES IDX 7 1 8 2 9 3 10 4 11 5 12 6 13 7 14 8 6 9 5 10 4 11 3 12 2 13
REMARK SMILES IDX 1 14
REMARK H PARENT
REMARK Flexibility Score: inf
ROOT
ATOM      1  C   UNL     1      11.716 -14.023  -2.558  1.00  0.00     0.000 C 
ENDROOT
BRANCH   1   2
ATOM      2  C   UNL     1      12.590 -12.768  -2.720  1.00  0.00     0.000 C 
BRANCH   2   3
ATOM      3  C   UNL     1      13.977 -13.080  -3.301  1.00  0.00     0.000 C 
BRANCH   3   4
ATOM      4  C   UNL     1      15.087 -12.666  -2.323  1.00  0.00     0.006 C 
BRANCH   4   5
ATOM      5  C   UNL     1      14.542 -11.876  -1.126  1.00  0.00     0.053 C 
BRANCH   5   6
ATOM      6  C   UNL     1      14.670 -12.648   0.152  1.00  0.00     0.041 C 
ATOM      7  O   UNL     1      14.851 -13.893   0.126  1.00  0.00    -0.550 OA
ATOM      8  O   UNL     1      14.622 -11.985   1.373  1.00  0.00    -0.550 OA
ENDBRANCH   5   6
ENDBRANCH   4   5
ENDBRANCH   3   4
ENDBRANCH   2   3
ENDBRANCH   1   2
BRANCH   1   9
ATOM      9  C   UNL     1      11.720 -14.562  -1.117  1.00  0.00     0.000 C 
BRANCH   9  10
ATOM     10  C   UNL     1      12.236 -16.009  -1.031  1.00  0.00    -0.000 C 
BRANCH  10  11
ATOM     11  C   UNL     1      12.861 -16.495  -2.351  1.00  0.00    -0.000 C 
BRANCH  11  12
ATOM     12  C   UNL     1      13.194 -17.995  -2.327  1.00  0.00    -0.000 C 
BRANCH  12  13
ATOM     13  C   UNL     1      13.818 -18.482  -3.645  1.00  0.00    -0.003 C 
ATOM     14  C   UNL     1      13.044 -17.948  -4.848  1.00  0.00     0.004 C 
ENDBRANCH  12  13
ENDBRANCH  11  12
ENDBRANCH  10  11
ENDBRANCH   9  10
ENDBRANCH   1   9
TORSDOF 10
ENDMDL
MODEL 4
REMARK VINA RESULT:    -3.450      2.270      5.084
REMARK INTER + INTRA:          -6.583
REMARK INTER:                  -6.122
REMARK INTRA:                  -0.460
REMARK UNBOUND:                -1.115
REMARK SMILES CCCCCCCCCCCC(=O)[O-]
REMARK SMILES IDX 7 1 8 2 9 3 10 4 11 5 12 6 13 7 14 8 6 9 5 10 4 11 3 12 2 13
REMARK SMILES IDX 1 14
REMARK H PARENT
REMARK Flexibility Score: inf
ROOT
ATOM      1  C   UNL     1      12.465 -13.144  -1.813  1.00  0.00     0.000 C 
ENDROOT
BRANCH   1   2
ATOM      2  C   UNL     1      13.393 -12.778  -0.643  1.00  0.00     0.000 C 
BRANCH   2   3
ATOM      3  C   UNL     1      14.796 -12.358  -1.107  1.00  0.00     0.000 C 
BRANCH   3   4
ATOM      4  C   UNL     1      15.077 -12.865  -2.529  1.00  0.00     0.006 C 
BRANCH   4   5
ATOM      5  C   UNL     1      14.584 -11.886  -3.603  1.00  0.00     0.053 C 
BRANCH   5   6
ATOM      6  C   UNL     1      14.535 -12.527  -4.956  1.00  0.00     0.041 C 
ATOM      7  O   UNL     1      13.954 -13.633  -5.114  1.00  0.00    -0.550 OA
ATOM      8  O   UNL     1      15.104 -11.887  -6.051  1.00  0.00    -0.550 OA
ENDBRANCH   5   6
ENDBRANCH   4   5
ENDBRANCH   3   4
ENDBRANCH   2   3
ENDBRANCH   1   2
BRANCH   1   9
ATOM      9  C   UNL     1      11.768 -14.501  -1.611  1.00  0.00     0.000 C 
BRANCH   9  10
ATOM     10  C   UNL     1      12.600 -15.467  -0.751  1.00  0.00    -0.000 C 
BRANCH  10  11
ATOM     11  C   UNL     1      13.054 -16.715  -1.531  1.00  0.00    -0.000 C 
BRANCH  11  12
ATOM     12  C   UNL     1      12.700 -16.637  -3.024  1.00  0.00    -0.000 C 
BRANCH  12  13
ATOM     13  C   UNL     1      13.307 -17.792  -3.835  1.00  0.00    -0.003 C 
ATOM     14  C   UNL     1      13.683 -18.961  -2.928  1.00  0.00     0.004 C 
ENDBRANCH  12  13
ENDBRANCH  11  12
ENDBRANCH  10  11
ENDBRANCH   9  10
ENDBRANCH   1   9
TORSDOF 10
ENDMDL
MODEL 5
REMARK VINA RESULT:    -3.167      4.695      5.960
REMARK INTER + INTRA:          -6.134
REMARK INTER:                  -5.484
REMARK INTRA:                  -0.650
REMARK UNBOUND:                -1.115
REMARK SMILES CCCCCCCCCCCC(=O)[O-]
REMARK SMILES IDX 7 1 8 2 9 3 10 4 11 5 12 6 13 7 14 8 6 9 5 10 4 11 3 12 2 13
REMARK SMILES IDX 1 14
REMARK H PARENT
REMARK Flexibility Score: inf
ROOT
ATOM      1  C   UNL     1      14.652 -14.345   0.354  1.00  0.00     0.000 C 
ENDROOT
BRANCH   1   2
ATOM      2  C   UNL     1      15.039 -15.052   1.664  1.00  0.00     0.000 C 
BRANCH   2   3
ATOM      3  C   UNL     1      14.634 -16.534   1.681  1.00  0.00     0.000 C 
BRANCH   3   4
ATOM      4  C   UNL     1      15.070 -17.205   2.992  1.00  0.00     0.006 C 
BRANCH   4   5
ATOM      5  C   UNL     1      15.119 -16.217   4.164  1.00  0.00     0.053 C 
BRANCH   5   6
ATOM      6  C   UNL     1      14.702 -16.863   5.450  1.00  0.00     0.041 C 
ATOM      7  O   UNL     1      13.948 -16.252   6.252  1.00  0.00    -0.550 OA
ATOM      8  O   UNL     1      15.123 -18.153   5.749  1.00  0.00    -0.550 OA
ENDBRANCH   5   6
ENDBRANCH   4   5
ENDBRANCH   3   4
ENDBRANCH   2   3
ENDBRANCH   1   2
BRANCH   1   9
ATOM      9  C   UNL     1      14.197 -12.893   0.581  1.00  0.00     0.000 C 
BRANCH   9  10
ATOM     10  C   UNL     1      14.899 -11.902  -0.363  1.00  0.00    -0.000 C 
BRANCH  10  11
ATOM     11  C   UNL     1      14.497 -12.100  -1.836  1.00  0.00    -0.000 C 
BRANCH  11  12
ATOM     12  C   UNL     1      12.979 -12.000  -2.051  1.00  0.00    -0.000 C 
BRANCH  12  13
ATOM     13  C   UNL     1      12.434 -13.128  -2.942  1.00  0.00    -0.003 C 
ATOM     14  C   UNL     1      11.785 -14.225  -2.102  1.00  0.00     0.004 C 
ENDBRANCH  12  13
ENDBRANCH  11  12
ENDBRANCH  10  11
ENDBRANCH   9  10
ENDBRANCH   1   9
TORSDOF 10
ENDMDL
MODEL 6
REMARK VINA RESULT:    -3.011      2.320      5.130
REMARK INTER + INTRA:          -5.887
REMARK INTER:                  -5.105
REMARK INTRA:                  -0.781
REMARK UNBOUND:                -1.115
REMARK SMILES CCCCCCCCCCCC(=O)[O-]
REMARK SMILES IDX 7 1 8 2 9 3 10 4 11 5 12 6 13 7 14 8 6 9 5 10 4 11 3 12 2 13
REMARK SMILES IDX 1 14
REMARK H PARENT
REMARK Flexibility Score: inf
ROOT
ATOM      1  C   UNL     1      13.667 -12.758  -4.744  1.00  0.00     0.000 C 
ENDROOT
BRANCH   1   2
ATOM      2  C   UNL     1      14.878 -12.039  -4.125  1.00  0.00     0.000 C 
BRANCH   2   3
ATOM      3  C   UNL     1      14.834 -12.017  -2.590  1.00  0.00     0.000 C 
BRANCH   3   4
ATOM      4  C   UNL     1      13.385 -12.029  -2.082  1.00  0.00     0.006 C 
BRANCH   4   5
ATOM      5  C   UNL     1      13.142 -13.127  -1.039  1.00  0.00     0.053 C 
BRANCH   5   6
ATOM      6  C   UNL     1      12.126 -14.122  -1.509  1.00  0.00     0.041 C 
ATOM      7  O   UNL     1      12.104 -15.284  -1.026  1.00  0.00    -0.550 OA
ATOM      8  O   UNL     1      11.181 -13.754  -2.459  1.00  0.00    -0.550 OA
ENDBRANCH   5   6
ENDBRANCH   4   5
ENDBRANCH   3   4
ENDBRANCH   2   3
ENDBRANCH   1   2
BRANCH   1   9
ATOM      9  C   UNL     1      14.016 -14.166  -5.257  1.00  0.00     0.000 C 
BRANCH   9  10
ATOM     10  C   UNL     1      13.993 -15.222  -4.139  1.00  0.00    -0.000 C 
BRANCH  10  11
ATOM     11  C   UNL     1      13.827 -16.654  -4.680  1.00  0.00    -0.000 C 
BRANCH  11  12
ATOM     12  C   UNL     1      13.005 -17.548  -3.739  1.00  0.00    -0.000 C 
BRANCH  12  13
ATOM     13  C   UNL     1      13.578 -18.968  -3.624  1.00  0.00    -0.003 C 
ATOM     14  C   UNL     1      14.707 -19.023  -2.597  1.00  0.00     0.004 C 
ENDBRANCH  12  13
ENDBRANCH  11  12
ENDBRANCH  10  11
ENDBRANCH   9  10
ENDBRANCH   1   9
TORSDOF 10
ENDMDL
MODEL 7
REMARK VINA RESULT:    -2.975      3.487      5.351
REMARK INTER + INTRA:          -5.830
REMARK INTER:                  -5.389
REMARK INTRA:                  -0.441
REMARK UNBOUND:                -1.115
REMARK SMILES CCCCCCCCCCCC(=O)[O-]
REMARK SMILES IDX 7 1 8 2 9 3 10 4 11 5 12 6 13 7 14 8 6 9 5 10 4 11 3 12 2 13
REMARK SMILES IDX 1 14
REMARK H PARENT
REMARK Flexibility Score: inf
ROOT
ATOM      1  C   UNL     1      12.977 -14.270  -0.556  1.00  0.00     0.000 C 
ENDROOT
BRANCH   1   2
ATOM      2  C   UNL     1      13.987 -13.241  -0.021  1.00  0.00     0.000 C 
BRANCH   2   3
ATOM      3  C   UNL     1      14.274 -12.113  -1.023  1.00  0.00     0.000 C 
BRANCH   3   4
ATOM      4  C   UNL     1      15.125 -12.626  -2.195  1.00  0.00     0.006 C 
BRANCH   4   5
ATOM      5  C   UNL     1      14.826 -11.879  -3.502  1.00  0.00     0.053 C 
BRANCH   5   6
ATOM      6  C   UNL     1      13.688 -12.504  -4.249  1.00  0.00     0.041 C 
ATOM      7  O   UNL     1      13.847 -12.901  -5.432  1.00  0.00    -0.550 OA
ATOM      8  O   UNL     1      12.458 -12.677  -3.625  1.00  0.00    -0.550 OA
ENDBRANCH   5   6
ENDBRANCH   4   5
ENDBRANCH   3   4
ENDBRANCH   2   3
ENDBRANCH   1   2
BRANCH   1   9
ATOM      9  C   UNL     1      13.273 -15.698  -0.066  1.00  0.00     0.000 C 
BRANCH   9  10
ATOM     10  C   UNL     1      14.526 -15.767   0.823  1.00  0.00    -0.000 C 
BRANCH  10  11
ATOM     11  C   UNL     1      14.376 -16.768   1.983  1.00  0.00    -0.000 C 
BRANCH  11  12
ATOM     12  C   UNL     1      15.100 -16.306   3.257  1.00  0.00    -0.000 C 
BRANCH  12  13
ATOM     13  C   UNL     1      14.787 -17.197   4.470  1.00  0.00    -0.003 C 
ATOM     14  C   UNL     1      14.355 -16.358   5.669  1.00  0.00     0.004 C 
ENDBRANCH  12  13
ENDBRANCH  11  12
ENDBRANCH  10  11
ENDBRANCH   9  10
ENDBRANCH   1   9
TORSDOF 10
ENDMDL
MODEL 8
REMARK VINA RESULT:    -2.902      3.995      5.919
REMARK INTER + INTRA:          -5.713
REMARK INTER:                  -5.309
REMARK INTRA:                  -0.404
REMARK UNBOUND:                -1.115
REMARK SMILES CCCCCCCCCCCC(=O)[O-]
REMARK SMILES IDX 7 1 8 2 9 3 10 4 11 5 12 6 13 7 14 8 6 9 5 10 4 11 3 12 2 13
REMARK SMILES IDX 1 14
REMARK H PARENT
REMARK Flexibility Score: inf
ROOT
ATOM      1  C   UNL     1      14.458 -14.727   1.186  1.00  0.00     0.000 C 
ENDROOT
BRANCH   1   2
ATOM      2  C   UNL     1      13.900 -13.853   0.051  1.00  0.00     0.000 C 
BRANCH   2   3
ATOM      3  C   UNL     1      14.674 -12.537  -0.120  1.00  0.00     0.000 C 
BRANCH   3   4
ATOM      4  C   UNL     1      14.338 -11.875  -1.465  1.00  0.00     0.006 C 
BRANCH   4   5
ATOM      5  C   UNL     1      13.071 -12.461  -2.102  1.00  0.00     0.053 C 
BRANCH   5   6
ATOM      6  C   UNL     1      13.248 -12.696  -3.571  1.00  0.00     0.041 C 
ATOM      7  O   UNL     1      12.783 -11.876  -4.405  1.00  0.00    -0.550 OA
ATOM      8  O   UNL     1      13.955 -13.806  -4.018  1.00  0.00    -0.550 OA
ENDBRANCH   5   6
ENDBRANCH   4   5
ENDBRANCH   3   4
ENDBRANCH   2   3
ENDBRANCH   1   2
BRANCH   1   9
ATOM      9  C   UNL     1      14.057 -16.205   1.044  1.00  0.00     0.000 C 
BRANCH   9  10
ATOM     10  C   UNL     1      14.834 -17.122   2.003  1.00  0.00    -0.000 C 
BRANCH  10  11
ATOM     11  C   UNL     1      14.927 -16.547   3.428  1.00  0.00    -0.000 C 
BRANCH  11  12
ATOM     12  C   UNL     1      14.708 -17.616   4.510  1.00  0.00    -0.000 C 
BRANCH  12  13
ATOM     13  C   UNL     1      15.020 -17.099   5.922  1.00  0.00    -0.003 C 
ATOM     14  C   UNL     1      14.476 -15.687   6.122  1.00  0.00     0.004 C 
ENDBRANCH  12  13
ENDBRANCH  11  12
ENDBRANCH  10  11
ENDBRANCH   9  10
ENDBRANCH   1   9
TORSDOF 10
ENDMDL
MODEL 9
REMARK VINA RESULT:    -2.769      2.605      4.851
REMARK INTER + INTRA:          -5.502
REMARK INTER:                  -4.767
REMARK INTRA:                  -0.735
REMARK UNBOUND:                -1.115
REMARK SMILES CCCCCCCCCCCC(=O)[O-]
REMARK SMILES IDX 7 1 8 2 9 3 10 4 11 5 12 6 13 7 14 8 6 9 5 10 4 11 3 12 2 13
REMARK SMILES IDX 1 14
REMARK H PARENT
REMARK Flexibility Score: inf
ROOT
ATOM      1  C   UNL     1      14.181 -13.013  -2.249  1.00  0.00     0.000 C 
ENDROOT
BRANCH   1   2
ATOM      2  C   UNL     1      14.257 -11.936  -1.155  1.00  0.00     0.000 C 
BRANCH   2   3
ATOM      3  C   UNL     1      14.183 -12.523   0.263  1.00  0.00     0.000 C 
BRANCH   3   4
ATOM      4  C   UNL     1      14.624 -13.995   0.270  1.00  0.00     0.006 C 
BRANCH   4   5
ATOM      5  C   UNL     1      14.703 -14.571   1.689  1.00  0.00     0.053 C 
BRANCH   5   6
ATOM      6  C   UNL     1      14.583 -16.064   1.688  1.00  0.00     0.041 C 
ATOM      7  O   UNL     1      14.281 -16.676   0.630  1.00  0.00    -0.550 OA
ATOM      8  O   UNL     1      14.835 -16.784   2.850  1.00  0.00    -0.550 OA
ENDBRANCH   5   6
ENDBRANCH   4   5
ENDBRANCH   3   4
ENDBRANCH   2   3
ENDBRANCH   1   2
BRANCH   1   9
ATOM      9  C   UNL     1      12.804 -13.061  -2.935  1.00  0.00     0.000 C 
BRANCH   9  10
ATOM     10  C   UNL     1      11.776 -13.877  -2.134  1.00  0.00    -0.000 C 
BRANCH  10  11
ATOM     11  C   UNL     1      12.281 -15.288  -1.782  1.00  0.00    -0.000 C 
BRANCH  11  12
ATOM     12  C   UNL     1      12.539 -16.148  -3.028  1.00  0.00    -0.000 C 
BRANCH  12  13
ATOM     13  C   UNL     1      13.024 -17.563  -2.677  1.00  0.00    -0.003 C 
ATOM     14  C   UNL     1      13.500 -18.305  -3.924  1.00  0.00     0.004 C 
ENDBRANCH  12  13
ENDBRANCH  11  12
ENDBRANCH  10  11
ENDBRANCH   9  10
ENDBRANCH   1   9
TORSDOF 10
ENDMDL
