MODEL 1
REMARK VINA RESULT:    -4.485      0.000      0.000
REMARK INTER + INTRA:         -10.485
REMARK INTER:                  -8.155
REMARK INTRA:                  -2.330
REMARK UNBOUND:                -2.330
REMARK SMILES CCCCCCCCCCCCCCCC(=O)[O-]
REMARK SMILES IDX 9 1 10 2 11 3 12 4 13 5 14 6 15 7 16 8 17 9 18 10 8 11 7 12
REMARK SMILES IDX 6 13 5 14 4 15 3 16 2 17 1 18
REMARK H PARENT
REMARK Flexibility Score: inf
ROOT
ATOM      1  C   UNL     1      18.547 -34.303  20.345  1.00  0.00     0.000 C 
ENDROOT
BRANCH   1   2
ATOM      2  C   UNL     1      17.530 -34.303  19.189  1.00  0.00     0.000 C 
BRANCH   2   3
ATOM      3  C   UNL     1      16.425 -35.362  19.391  1.00  0.00     0.000 C 
BRANCH   3   4
ATOM      4  C   UNL     1      15.330 -34.933  20.388  1.00  0.00     0.000 C 
BRANCH   4   5
ATOM      5  C   UNL     1      14.534 -33.683  19.973  1.00  0.00     0.000 C 
BRANCH   5   6
ATOM      6  C   UNL     1      14.159 -32.792  21.170  1.00  0.00     0.006 C 
BRANCH   6   7
ATOM      7  C   UNL     1      13.538 -31.462  20.725  1.00  0.00     0.053 C 
BRANCH   7   8
ATOM      8  C   UNL     1      12.619 -30.902  21.768  1.00  0.00     0.041 C 
ATOM      9  O   UNL     1      11.424 -30.629  21.480  1.00  0.00    -0.550 OA
ATOM     10  O   UNL     1      13.091 -30.651  23.049  1.00  0.00    -0.550 OA
ENDBRANCH   7   8
ENDBRANCH   6   7
ENDBRANCH   5   6
ENDBRANCH   4   5
ENDBRANCH   3   4
ENDBRANCH   2   3
ENDBRANCH   1   2
BRANCH   1  11
ATOM     11  C   UNL     1      18.782 -32.903  20.932  1.00  0.00     0.000 C 
BRANCH  11  12
ATOM     12  C   UNL     1      17.708 -31.894  20.487  1.00  0.00    -0.000 C 
BRANCH  12  13
ATOM     13  C   UNL     1      17.930 -30.498  21.094  1.00  0.00    -0.000 C 
BRANCH  13  14
ATOM     14  C   UNL     1      16.864 -30.143  22.146  1.00  0.00    -0.000 C 
BRANCH  14  15
ATOM     15  C   UNL     1      17.150 -30.778  23.516  1.00  0.00    -0.000 C 
BRANCH  15  16
ATOM     16  C   UNL     1      16.164 -31.903  23.867  1.00  0.00    -0.000 C 
BRANCH  16  17
ATOM     17  C   UNL     1      16.902 -33.111  24.459  1.00  0.00    -0.003 C 
ATOM     18  C   UNL     1      16.621 -34.377  23.655  1.00  0.00     0.004 C 
ENDBRANCH  16  17
ENDBRANCH  15  16
ENDBRANCH  14  15
ENDBRANCH  13  14
ENDBRANCH  12  13
ENDBRANCH  11  12
ENDBRANCH   1  11
TORSDOF 14
ENDMDL
MODEL 2
REMARK VINA RESULT:    -4.478      1.556      3.570
REMARK INTER + INTRA:         -10.473
REMARK INTER:                  -8.182
REMARK INTRA:                  -2.291
REMARK UNBOUND:                -2.330
REMARK SMILES CCCCCCCCCCCCCCCC(=O)[O-]
REMARK SMILES IDX 9 1 10 2 11 3 12 4 13 5 14 6 15 7 16 8 17 9 18 10 8 11 7 12
REMARK SMILES IDX 6 13 5 14 4 15 3 16 2 17 1 18
REMARK H PARENT
REMARK Flexibility Score: inf
ROOT
ATOM      1  C   UNL     1      16.230 -34.441  19.187  1.00  0.00     0.000 C 
ENDROOT
BRANCH   1   2
ATOM      2  C   UNL     1      15.166 -34.723  20.263  1.00  0.00     0.000 C 
BRANCH   2   3
ATOM      3  C   UNL     1      14.852 -33.470  21.109  1.00  0.00     0.000 C 
BRANCH   3   4
ATOM      4  C   UNL     1      15.043 -33.682  22.624  1.00  0.00     0.000 C 
BRANCH   4   5
ATOM      5  C   UNL     1      15.214 -32.389  23.440  1.00  0.00     0.000 C 
BRANCH   5   6
ATOM      6  C   UNL     1      13.874 -31.811  23.927  1.00  0.00     0.006 C 
BRANCH   6   7
ATOM      7  C   UNL     1      13.681 -30.354  23.487  1.00  0.00     0.053 C 
BRANCH   7   8
ATOM      8  C   UNL     1      12.500 -30.200  22.578  1.00  0.00     0.041 C 
ATOM      9  O   UNL     1      12.391 -30.923  21.553  1.00  0.00    -0.550 OA
ATOM     10  O   UNL     1      11.537 -29.236  22.844  1.00  0.00    -0.550 OA
ENDBRANCH   7   8
ENDBRANCH   6   7
ENDBRANCH   5   6
ENDBRANCH   4   5
ENDBRANCH   3   4
ENDBRANCH   2   3
ENDBRANCH   1   2
BRANCH   1  11
ATOM     11  C   UNL     1      17.489 -35.306  19.351  1.00  0.00     0.000 C 
BRANCH  11  12
ATOM     12  C   UNL     1      17.243 -36.529  20.253  1.00  0.00    -0.000 C 
BRANCH  12  13
ATOM     13  C   UNL     1      18.255 -36.615  21.409  1.00  0.00    -0.000 C 
BRANCH  13  14
ATOM     14  C   UNL     1      19.066 -35.317  21.573  1.00  0.00    -0.000 C 
BRANCH  14  15
ATOM     15  C   UNL     1      18.524 -34.420  22.698  1.00  0.00    -0.000 C 
BRANCH  15  16
ATOM     16  C   UNL     1      19.000 -32.963  22.577  1.00  0.00    -0.000 C 
BRANCH  16  17
ATOM     17  C   UNL     1      19.044 -32.523  21.109  1.00  0.00    -0.003 C 
ATOM     18  C   UNL     1      17.897 -31.569  20.785  1.00  0.00     0.004 C 
ENDBRANCH  16  17
ENDBRANCH  15  16
ENDBRANCH  14  15
ENDBRANCH  13  14
ENDBRANCH  12  13
ENDBRANCH  11  12
ENDBRANCH   1  11
TORSDOF 14
ENDMDL
MODEL 3
REMARK VINA RESULT:    -4.473      1.418      3.529
REMARK INTER + INTRA:         -10.464
REMARK INTER:                  -8.192
REMARK INTRA:                  -2.272
REMARK UNBOUND:                -2.330
REMARK SMILES CCCCCCCCCCCCCCCC(=O)[O-]
REMARK SMILES IDX 9 1 10 2 11 3 12 4 13 5 14 6 15 7 16 8 17 9 18 10 8 11 7 12
REMARK SMILES IDX 6 13 5 14 4 15 3 16 2 17 1 18
REMARK H PARENT
REMARK Flexibility Score: inf
ROOT
ATOM      1  C   UNL     1      18.044 -32.104  20.513  1.00  0.00     0.000 C 
ENDROOT
BRANCH   1   2
ATOM      2  C   UNL     1      18.431 -31.870  21.984  1.00  0.00     0.000 C 
BRANCH   2   3
ATOM      3  C   UNL     1      17.388 -31.008  22.727  1.00  0.00     0.000 C 
BRANCH   3   4
ATOM      4  C   UNL     1      16.848 -29.831  21.890  1.00  0.00     0.000 C 
BRANCH   4   5
ATOM      5  C   UNL     1      15.315 -29.769  21.776  1.00  0.00     0.000 C 
BRANCH   5   6
ATOM      6  C   UNL     1      14.642 -29.264  23.063  1.00  0.00     0.006 C 
BRANCH   6   7
ATOM      7  C   UNL     1      13.521 -30.200  23.533  1.00  0.00     0.053 C 
BRANCH   7   8
ATOM      8  C   UNL     1      12.231 -29.922  22.822  1.00  0.00     0.041 C 
ATOM      9  O   UNL     1      11.868 -30.650  21.861  1.00  0.00    -0.550 OA
ATOM     10  O   UNL     1      11.448 -28.840  23.199  1.00  0.00    -0.550 OA
ENDBRANCH   7   8
ENDBRANCH   6   7
ENDBRANCH   5   6
ENDBRANCH   4   5
ENDBRANCH   3   4
ENDBRANCH   2   3
ENDBRANCH   1   2
BRANCH   1  11
ATOM     11  C   UNL     1      18.278 -33.553  20.057  1.00  0.00     0.000 C 
BRANCH  11  12
ATOM     12  C   UNL     1      17.233 -34.017  19.028  1.00  0.00    -0.000 C 
BRANCH  12  13
ATOM     13  C   UNL     1      16.072 -34.787  19.682  1.00  0.00    -0.000 C 
BRANCH  13  14
ATOM     14  C   UNL     1      14.794 -33.936  19.790  1.00  0.00    -0.000 C 
BRANCH  14  15
ATOM     15  C   UNL     1      14.606 -33.327  21.189  1.00  0.00    -0.000 C 
BRANCH  15  16
ATOM     16  C   UNL     1      15.315 -34.133  22.289  1.00  0.00    -0.000 C 
BRANCH  16  17
ATOM     17  C   UNL     1      14.930 -33.615  23.680  1.00  0.00    -0.003 C 
ATOM     18  C   UNL     1      16.030 -33.896  24.698  1.00  0.00     0.004 C 
ENDBRANCH  16  17
ENDBRANCH  15  16
ENDBRANCH  14  15
ENDBRANCH  13  14
ENDBRANCH  12  13
ENDBRANCH  11  12
ENDBRANCH   1  11
TORSDOF 14
ENDMDL
MODEL 4
REMARK VINA RESULT:    -4.398      1.477      3.573
REMARK INTER + INTRA:         -10.327
REMARK INTER:                  -7.722
REMARK INTRA:                  -2.605
REMARK UNBOUND:                -2.330
REMARK SMILES CCCCCCCCCCCCCCCC(=O)[O-]
REMARK SMILES IDX 9 1 10 2 11 3 12 4 13 5 14 6 15 7 16 8 17 9 18 10 8 11 7 12
REMARK SMILES IDX 6 13 5 14 4 15 3 16 2 17 1 18
REMARK H PARENT
REMARK Flexibility Score: inf
ROOT
ATOM      1  C   UNL     1      17.421 -31.825  24.386  1.00  0.00     0.000 C 
ENDROOT
BRANCH   1   2
ATOM      2  C   UNL     1      17.227 -33.340  24.194  1.00  0.00     0.000 C 
BRANCH   2   3
ATOM      3  C   UNL     1      15.737 -33.720  24.059  1.00  0.00     0.000 C 
BRANCH   3   4
ATOM      4  C   UNL     1      15.219 -33.694  22.607  1.00  0.00     0.000 C 
BRANCH   4   5
ATOM      5  C   UNL     1      14.349 -32.476  22.254  1.00  0.00     0.000 C 
BRANCH   5   6
ATOM      6  C   UNL     1      13.815 -31.745  23.498  1.00  0.00     0.006 C 
BRANCH   6   7
ATOM      7  C   UNL     1      14.037 -30.229  23.415  1.00  0.00     0.053 C 
BRANCH   7   8
ATOM      8  C   UNL     1      12.748 -29.472  23.524  1.00  0.00     0.041 C 
ATOM      9  O   UNL     1      11.872 -29.580  22.625  1.00  0.00    -0.550 OA
ATOM     10  O   UNL     1      12.529 -28.622  24.599  1.00  0.00    -0.550 OA
ENDBRANCH   7   8
ENDBRANCH   6   7
ENDBRANCH   5   6
ENDBRANCH   4   5
ENDBRANCH   3   4
ENDBRANCH   2   3
ENDBRANCH   1   2
BRANCH   1  11
ATOM     11  C   UNL     1      18.328 -31.199  23.315  1.00  0.00     0.000 C 
BRANCH  11  12
ATOM     12  C   UNL     1      17.524 -30.555  22.173  1.00  0.00    -0.000 C 
BRANCH  12  13
ATOM     13  C   UNL     1      17.648 -31.339  20.855  1.00  0.00    -0.000 C 
BRANCH  13  14
ATOM     14  C   UNL     1      18.808 -32.350  20.885  1.00  0.00    -0.000 C 
BRANCH  14  15
ATOM     15  C   UNL     1      18.350 -33.786  20.583  1.00  0.00    -0.000 C 
BRANCH  15  16
ATOM     16  C   UNL     1      17.332 -33.856  19.434  1.00  0.00    -0.000 C 
BRANCH  16  17
ATOM     17  C   UNL     1      16.624 -35.216  19.414  1.00  0.00    -0.003 C 
ATOM     18  C   UNL     1      17.154 -36.131  20.515  1.00  0.00     0.004 C 
ENDBRANCH  16  17
ENDBRANCH  15  16
ENDBRANCH  14  15
ENDBRANCH  13  14
ENDBRANCH  12  13
ENDBRANCH  11  12
ENDBRANCH   1  11
TORSDOF 14
ENDMDL
MODEL 5
REMARK VINA RESULT:    -4.381      2.814      5.484
REMARK INTER + INTRA:         -10.297
REMARK INTER:                  -8.102
REMARK INTRA:                  -2.195
REMARK UNBOUND:                -2.330
REMARK SMILES CCCCCCCCCCCCCCCC(=O)[O-]
REMARK SMILES IDX 9 1 10 2 11 3 12 4 13 5 14 6 15 7 16 8 17 9 18 10 8 11 7 12
REMARK SMILES IDX 6 13 5 14 4 15 3 16 2 17 1 18
REMARK H PARENT
REMARK Flexibility Score: inf
ROOT
ATOM      1  C   UNL     1      16.119 -32.786  24.217  1.00  0.00     0.000 C 
ENDROOT
BRANCH   1   2
ATOM      2  C   UNL     1      17.279 -31.793  24.024  1.00  0.00     0.000 C 
BRANCH   2   3
ATOM      3  C   UNL     1      16.790 -30.428  23.494  1.00  0.00     0.000 C 
BRANCH   3   4
ATOM      4  C   UNL     1      17.288 -30.101  22.072  1.00  0.00     0.000 C 
BRANCH   4   5
ATOM      5  C   UNL     1      18.310 -31.099  21.501  1.00  0.00     0.000 C 
BRANCH   5   6
ATOM      6  C   UNL     1      17.705 -32.026  20.432  1.00  0.00     0.006 C 
BRANCH   6   7
ATOM      7  C   UNL     1      17.904 -33.508  20.775  1.00  0.00     0.053 C 
BRANCH   7   8
ATOM      8  C   UNL     1      17.492 -34.399  19.643  1.00  0.00     0.041 C 
ATOM      9  O   UNL     1      16.348 -34.284  19.129  1.00  0.00    -0.550 OA
ATOM     10  O   UNL     1      18.358 -35.379  19.177  1.00  0.00    -0.550 OA
ENDBRANCH   7   8
ENDBRANCH   6   7
ENDBRANCH   5   6
ENDBRANCH   4   5
ENDBRANCH   3   4
ENDBRANCH   2   3
ENDBRANCH   1   2
BRANCH   1  11
ATOM     11  C   UNL     1      14.835 -32.351  23.493  1.00  0.00     0.000 C 
BRANCH  11  12
ATOM     12  C   UNL     1      14.608 -33.133  22.186  1.00  0.00    -0.000 C 
BRANCH  12  13
ATOM     13  C   UNL     1      14.009 -32.252  21.076  1.00  0.00    -0.000 C 
BRANCH  13  14
ATOM     14  C   UNL     1      13.690 -30.829  21.568  1.00  0.00    -0.000 C 
BRANCH  14  15
ATOM     15  C   UNL     1      12.208 -30.646  21.932  1.00  0.00    -0.000 C 
BRANCH  15  16
ATOM     16  C   UNL     1      11.942 -29.349  22.710  1.00  0.00    -0.000 C 
BRANCH  16  17
ATOM     17  C   UNL     1      12.944 -29.187  23.860  1.00  0.00    -0.003 C 
ATOM     18  C   UNL     1      12.584 -27.994  24.742  1.00  0.00     0.004 C 
ENDBRANCH  16  17
ENDBRANCH  15  16
ENDBRANCH  14  15
ENDBRANCH  13  14
ENDBRANCH  12  13
ENDBRANCH  11  12
ENDBRANCH   1  11
TORSDOF 14
ENDMDL
MODEL 6
REMARK VINA RESULT:    -4.357      1.542      2.749
REMARK INTER + INTRA:         -10.252
REMARK INTER:                  -7.438
REMARK INTRA:                  -2.815
REMARK UNBOUND:                -2.330
REMARK SMILES CCCCCCCCCCCCCCCC(=O)[O-]
REMARK SMILES IDX 9 1 10 2 11 3 12 4 13 5 14 6 15 7 16 8 17 9 18 10 8 11 7 12
REMARK SMILES IDX 6 13 5 14 4 15 3 16 2 17 1 18
REMARK H PARENT
REMARK Flexibility Score: inf
ROOT
ATOM      1  C   UNL     1      16.540 -35.377  19.533  1.00  0.00     0.000 C 
ENDROOT
BRANCH   1   2
ATOM      2  C   UNL     1      15.392 -35.067  20.510  1.00  0.00     0.000 C 
BRANCH   2   3
ATOM      3  C   UNL     1      14.631 -33.782  20.119  1.00  0.00     0.000 C 
BRANCH   3   4
ATOM      4  C   UNL     1      14.665 -32.687  21.204  1.00  0.00     0.000 C 
BRANCH   4   5
ATOM      5  C   UNL     1      14.751 -33.211  22.647  1.00  0.00     0.000 C 
BRANCH   5   6
ATOM      6  C   UNL     1      15.139 -32.117  23.656  1.00  0.00     0.006 C 
BRANCH   6   7
ATOM      7  C   UNL     1      15.273 -30.741  22.991  1.00  0.00     0.053 C 
BRANCH   7   8
ATOM      8  C   UNL     1      14.143 -29.830  23.366  1.00  0.00     0.041 C 
ATOM      9  O   UNL     1      13.297 -30.191  24.226  1.00  0.00    -0.550 OA
ATOM     10  O   UNL     1      14.005 -28.598  22.741  1.00  0.00    -0.550 OA
ENDBRANCH   7   8
ENDBRANCH   6   7
ENDBRANCH   5   6
ENDBRANCH   4   5
ENDBRANCH   3   4
ENDBRANCH   2   3
ENDBRANCH   1   2
BRANCH   1  11
ATOM     11  C   UNL     1      17.201 -34.111  18.967  1.00  0.00     0.000 C 
BRANCH  11  12
ATOM     12  C   UNL     1      18.421 -33.669  19.795  1.00  0.00    -0.000 C 
BRANCH  12  13
ATOM     13  C   UNL     1      18.204 -32.305  20.472  1.00  0.00    -0.000 C 
BRANCH  13  14
ATOM     14  C   UNL     1      18.510 -32.345  21.980  1.00  0.00    -0.000 C 
BRANCH  14  15
ATOM     15  C   UNL     1      18.987 -33.730  22.449  1.00  0.00    -0.000 C 
BRANCH  15  16
ATOM     16  C   UNL     1      18.155 -34.279  23.620  1.00  0.00    -0.000 C 
BRANCH  16  17
ATOM     17  C   UNL     1      17.705 -35.718  23.341  1.00  0.00    -0.003 C 
ATOM     18  C   UNL     1      18.644 -36.410  22.357  1.00  0.00     0.004 C 
ENDBRANCH  16  17
ENDBRANCH  15  16
ENDBRANCH  14  15
ENDBRANCH  13  14
ENDBRANCH  12  13
ENDBRANCH  11  12
ENDBRANCH   1  11
TORSDOF 14
ENDMDL
MODEL 7
REMARK VINA RESULT:    -4.347      2.489      4.886
REMARK INTER + INTRA:         -10.234
REMARK INTER:                  -9.033
REMARK INTRA:                  -1.201
REMARK UNBOUND:                -2.330
REMARK SMILES CCCCCCCCCCCCCCCC(=O)[O-]
REMARK SMILES IDX 9 1 10 2 11 3 12 4 13 5 14 6 15 7 16 8 17 9 18 10 8 11 7 12
REMARK SMILES IDX 6 13 5 14 4 15 3 16 2 17 1 18
REMARK H PARENT
REMARK Flexibility Score: inf
ROOT
ATOM      1  C   UNL     1      14.645 -33.919  20.156  1.00  0.00     0.000 C 
ENDROOT
BRANCH   1   2
ATOM      2  C   UNL     1      15.733 -34.961  20.471  1.00  0.00     0.000 C 
BRANCH   2   3
ATOM      3  C   UNL     1      16.735 -35.121  19.307  1.00  0.00     0.000 C 
BRANCH   3   4
ATOM      4  C   UNL     1      17.912 -34.127  19.361  1.00  0.00     0.000 C 
BRANCH   4   5
ATOM      5  C   UNL     1      18.162 -33.497  20.743  1.00  0.00     0.000 C 
BRANCH   5   6
ATOM      6  C   UNL     1      18.593 -32.023  20.656  1.00  0.00     0.006 C 
BRANCH   6   7
ATOM      7  C   UNL     1      17.504 -31.073  21.170  1.00  0.00     0.053 C 
BRANCH   7   8
ATOM      8  C   UNL     1      17.527 -30.959  22.665  1.00  0.00     0.041 C 
ATOM      9  O   UNL     1      16.471 -30.689  23.296  1.00  0.00    -0.550 OA
ATOM     10  O   UNL     1      18.720 -31.117  23.357  1.00  0.00    -0.550 OA
ENDBRANCH   7   8
ENDBRANCH   6   7
ENDBRANCH   5   6
ENDBRANCH   4   5
ENDBRANCH   3   4
ENDBRANCH   2   3
ENDBRANCH   1   2
BRANCH   1  11
ATOM     11  C   UNL     1      14.438 -32.909  21.296  1.00  0.00     0.000 C 
BRANCH  11  12
ATOM     12  C   UNL     1      13.513 -31.749  20.888  1.00  0.00    -0.000 C 
BRANCH  12  13
ATOM     13  C   UNL     1      13.137 -30.854  22.082  1.00  0.00    -0.000 C 
BRANCH  13  14
ATOM     14  C   UNL     1      11.733 -30.242  21.933  1.00  0.00    -0.000 C 
BRANCH  14  15
ATOM     15  C   UNL     1      11.492 -29.072  22.901  1.00  0.00    -0.000 C 
BRANCH  15  16
ATOM     16  C   UNL     1      12.697 -28.799  23.815  1.00  0.00    -0.000 C 
BRANCH  16  17
ATOM     17  C   UNL     1      12.403 -27.638  24.773  1.00  0.00    -0.003 C 
ATOM     18  C   UNL     1      13.588 -26.681  24.860  1.00  0.00     0.004 C 
ENDBRANCH  16  17
ENDBRANCH  15  16
ENDBRANCH  14  15
ENDBRANCH  13  14
ENDBRANCH  12  13
ENDBRANCH  11  12
ENDBRANCH   1  11
TORSDOF 14
ENDMDL
MODEL 8
REMARK VINA RESULT:    -4.342      1.320      2.963
REMARK INTER + INTRA:         -10.226
REMARK INTER:                  -8.074
REMARK INTRA:                  -2.152
REMARK UNBOUND:                -2.330
REMARK SMILES CCCCCCCCCCCCCCCC(=O)[O-]
REMARK SMILES IDX 9 1 10 2 11 3 12 4 13 5 14 6 15 7 16 8 17 9 18 10 8 11 7 12
REMARK SMILES IDX 6 13 5 14 4 15 3 16 2 17 1 18
REMARK H PARENT
REMARK Flexibility Score: inf
ROOT
ATOM      1  C   UNL     1      17.546 -36.719  19.810  1.00  0.00     0.000 C 
ENDROOT
BRANCH   1   2
ATOM      2  C   UNL     1      17.965 -35.312  19.347  1.00  0.00     0.000 C 
BRANCH   2   3
ATOM      3  C   UNL     1      16.745 -34.409  19.061  1.00  0.00     0.000 C 
BRANCH   3   4
ATOM      4  C   UNL     1      15.523 -34.721  19.948  1.00  0.00     0.000 C 
BRANCH   4   5
ATOM      5  C   UNL     1      14.406 -33.664  19.901  1.00  0.00     0.000 C 
BRANCH   5   6
ATOM      6  C   UNL     1      14.353 -32.797  21.171  1.00  0.00     0.006 C 
BRANCH   6   7
ATOM      7  C   UNL     1      13.429 -31.584  21.002  1.00  0.00     0.053 C 
BRANCH   7   8
ATOM      8  C   UNL     1      12.928 -31.080  22.321  1.00  0.00     0.041 C 
ATOM      9  O   UNL     1      13.255 -31.664  23.388  1.00  0.00    -0.550 OA
ATOM     10  O   UNL     1      12.073 -29.988  22.370  1.00  0.00    -0.550 OA
ENDBRANCH   7   8
ENDBRANCH   6   7
ENDBRANCH   5   6
ENDBRANCH   4   5
ENDBRANCH   3   4
ENDBRANCH   2   3
ENDBRANCH   1   2
BRANCH   1  11
ATOM     11  C   UNL     1      18.006 -37.038  21.241  1.00  0.00     0.000 C 
BRANCH  11  12
ATOM     12  C   UNL     1      18.672 -35.830  21.923  1.00  0.00    -0.000 C 
BRANCH  12  13
ATOM     13  C   UNL     1      17.702 -35.073  22.846  1.00  0.00    -0.000 C 
BRANCH  13  14
ATOM     14  C   UNL     1      17.839 -33.546  22.710  1.00  0.00    -0.000 C 
BRANCH  14  15
ATOM     15  C   UNL     1      19.143 -33.129  22.009  1.00  0.00    -0.000 C 
BRANCH  15  16
ATOM     16  C   UNL     1      19.052 -31.737  21.364  1.00  0.00    -0.000 C 
BRANCH  16  17
ATOM     17  C   UNL     1      17.613 -31.427  20.935  1.00  0.00    -0.003 C 
ATOM     18  C   UNL     1      17.101 -30.151  21.599  1.00  0.00     0.004 C 
ENDBRANCH  16  17
ENDBRANCH  15  16
ENDBRANCH  14  15
ENDBRANCH  13  14
ENDBRANCH  12  13
ENDBRANCH  11  12
ENDBRANCH   1  11
TORSDOF 14
ENDMDL
MODEL 9
REMARK VINA RESULT:    -4.278      2.882      4.737
REMARK INTER + INTRA:         -10.110
REMARK INTER:                  -7.420
REMARK INTRA:                  -2.690
REMARK UNBOUND:                -2.330
REMARK SMILES CCCCCCCCCCCCCCCC(=O)[O-]
REMARK SMILES IDX 9 1 10 2 11 3 12 4 13 5 14 6 15 7 16 8 17 9 18 10 8 11 7 12
REMARK SMILES IDX 6 13 5 14 4 15 3 16 2 17 1 18
REMARK H PARENT
REMARK Flexibility Score: inf
ROOT
ATOM      1  C   UNL     1      13.055 -29.851  23.387  1.00  0.00     0.000 C 
ENDROOT
BRANCH   1   2
ATOM      2  C   UNL     1      13.131 -31.367  23.132  1.00  0.00     0.000 C 
BRANCH   2   3
ATOM      3  C   UNL     1      13.879 -32.107  24.261  1.00  0.00     0.000 C 
BRANCH   3   4
ATOM      4  C   UNL     1      14.628 -33.368  23.786  1.00  0.00     0.000 C 
BRANCH   4   5
ATOM      5  C   UNL     1      15.033 -33.358  22.302  1.00  0.00     0.000 C 
BRANCH   5   6
ATOM      6  C   UNL     1      16.173 -34.341  21.989  1.00  0.00     0.006 C 
BRANCH   6   7
ATOM      7  C   UNL     1      17.137 -33.788  20.931  1.00  0.00     0.053 C 
BRANCH   7   8
ATOM      8  C   UNL     1      17.061 -34.564  19.651  1.00  0.00     0.041 C 
ATOM      9  O   UNL     1      16.162 -35.431  19.488  1.00  0.00    -0.550 OA
ATOM     10  O   UNL     1      18.002 -34.355  18.653  1.00  0.00    -0.550 OA
ENDBRANCH   7   8
ENDBRANCH   6   7
ENDBRANCH   5   6
ENDBRANCH   4   5
ENDBRANCH   3   4
ENDBRANCH   2   3
ENDBRANCH   1   2
BRANCH   1  11
ATOM     11  C   UNL     1      14.388 -29.134  23.124  1.00  0.00     0.000 C 
BRANCH  11  12
ATOM     12  C   UNL     1      14.997 -29.514  21.763  1.00  0.00    -0.000 C 
BRANCH  12  13
ATOM     13  C   UNL     1      16.453 -29.993  21.888  1.00  0.00    -0.000 C 
BRANCH  13  14
ATOM     14  C   UNL     1      16.865 -30.236  23.351  1.00  0.00    -0.000 C 
BRANCH  14  15
ATOM     15  C   UNL     1      17.995 -31.270  23.484  1.00  0.00    -0.000 C 
BRANCH  15  16
ATOM     16  C   UNL     1      18.014 -31.957  24.858  1.00  0.00    -0.000 C 
BRANCH  16  17
ATOM     17  C   UNL     1      18.592 -33.374  24.751  1.00  0.00    -0.003 C 
ATOM     18  C   UNL     1      17.695 -34.390  25.453  1.00  0.00     0.004 C 
ENDBRANCH  16  17
ENDBRANCH  15  16
ENDBRANCH  14  15
ENDBRANCH  13  14
ENDBRANCH  12  13
ENDBRANCH  11  12
ENDBRANCH   1  11
TORSDOF 14
ENDMDL
