MODEL 1
REMARK VINA RESULT:    -3.196      0.000      0.000
REMARK INTER + INTRA:          -5.826
REMARK INTER:                  -5.064
REMARK INTRA:                  -0.762
REMARK UNBOUND:                -0.762
REMARK SMILES CCCCCCCCCCCC(=O)[O-]
REMARK SMILES IDX 7 1 8 2 9 3 10 4 11 5 12 6 13 7 14 8 6 9 5 10 4 11 3 12 2 13
REMARK SMILES IDX 1 14
REMARK H PARENT
REMARK Flexibility Score: inf
ROOT
ATOM      1  C   UNL     1       3.331   5.308   3.097  1.00  0.00     0.000 C 
ENDROOT
BRANCH   1   2
ATOM      2  C   UNL     1       4.039   5.916   1.880  1.00  0.00     0.000 C 
BRANCH   2   3
ATOM      3  C   UNL     1       5.516   5.496   1.838  1.00  0.00     0.000 C 
BRANCH   3   4
ATOM      4  C   UNL     1       5.977   5.091   0.428  1.00  0.00     0.006 C 
BRANCH   4   5
ATOM      5  C   UNL     1       7.297   5.759   0.023  1.00  0.00     0.053 C 
BRANCH   5   6
ATOM      6  C   UNL     1       8.449   4.846   0.296  1.00  0.00     0.041 C 
ATOM      7  O   UNL     1       9.018   4.862   1.420  1.00  0.00    -0.550 OA
ATOM      8  O   UNL     1       8.863   3.940  -0.671  1.00  0.00    -0.550 OA
ENDBRANCH   5   6
ENDBRANCH   4   5
ENDBRANCH   3   4
ENDBRANCH   2   3
ENDBRANCH   1   2
BRANCH   1   9
ATOM      9  C   UNL     1       3.575   3.792   3.174  1.00  0.00     0.000 C 
BRANCH   9  10
ATOM     10  C   UNL     1       2.358   3.024   3.714  1.00  0.00    -0.000 C 
BRANCH  10  11
ATOM     11  C   UNL     1       2.607   2.422   5.106  1.00  0.00    -0.000 C 
BRANCH  11  12
ATOM     12  C   UNL     1       4.070   2.615   5.532  1.00  0.00    -0.000 C 
BRANCH  12  13
ATOM     13  C   UNL     1       4.202   3.381   6.857  1.00  0.00    -0.003 C 
ATOM     14  C   UNL     1       4.337   4.891   6.658  1.00  0.00     0.004 C 
ENDBRANCH  12  13
ENDBRANCH  11  12
ENDBRANCH  10  11
ENDBRANCH   9  10
ENDBRANCH   1   9
TORSDOF 10
ENDMDL
MODEL 2
REMARK VINA RESULT:    -3.150      1.749      2.902
REMARK INTER + INTRA:          -5.753
REMARK INTER:                  -5.409
REMARK INTRA:                  -0.344
REMARK UNBOUND:                -0.762
REMARK SMILES CCCCCCCCCCCC(=O)[O-]
REMARK SMILES IDX 7 1 8 2 9 3 10 4 11 5 12 6 13 7 14 8 6 9 5 10 4 11 3 12 2 13
REMARK SMILES IDX 1 14
REMARK H PARENT
REMARK Flexibility Score: inf
ROOT
ATOM      1  C   UNL     1       3.726   3.296   3.730  1.00  0.00     0.000 C 
ENDROOT
BRANCH   1   2
ATOM      2  C   UNL     1       4.280   4.695   3.435  1.00  0.00     0.000 C 
BRANCH   2   3
ATOM      3  C   UNL     1       4.398   4.931   1.922  1.00  0.00     0.000 C 
BRANCH   3   4
ATOM      4  C   UNL     1       5.724   5.602   1.528  1.00  0.00     0.006 C 
BRANCH   4   5
ATOM      5  C   UNL     1       6.229   5.151   0.152  1.00  0.00     0.053 C 
BRANCH   5   6
ATOM      6  C   UNL     1       7.723   5.107   0.133  1.00  0.00     0.041 C 
ATOM      7  O   UNL     1       8.323   4.093  -0.314  1.00  0.00    -0.550 OA
ATOM      8  O   UNL     1       8.457   6.206   0.560  1.00  0.00    -0.550 OA
ENDBRANCH   5   6
ENDBRANCH   4   5
ENDBRANCH   3   4
ENDBRANCH   2   3
ENDBRANCH   1   2
BRANCH   1   9
ATOM      9  C   UNL     1       2.201   3.337   3.917  1.00  0.00     0.000 C 
BRANCH   9  10
ATOM     10  C   UNL     1       1.789   3.856   5.304  1.00  0.00    -0.000 C 
BRANCH  10  11
ATOM     11  C   UNL     1       1.066   2.792   6.144  1.00  0.00    -0.000 C 
BRANCH  11  12
ATOM     12  C   UNL     1       1.442   1.378   5.678  1.00  0.00    -0.000 C 
BRANCH  12  13
ATOM     13  C   UNL     1       0.461   0.309   6.184  1.00  0.00    -0.003 C 
ATOM     14  C   UNL     1       0.433  -0.937   5.298  1.00  0.00     0.004 C 
ENDBRANCH  12  13
ENDBRANCH  11  12
ENDBRANCH  10  11
ENDBRANCH   9  10
ENDBRANCH   1   9
TORSDOF 10
ENDMDL
MODEL 3
REMARK VINA RESULT:    -3.142      1.098      2.147
REMARK INTER + INTRA:          -5.742
REMARK INTER:                  -5.209
REMARK INTRA:                  -0.533
REMARK UNBOUND:                -0.762
REMARK SMILES CCCCCCCCCCCC(=O)[O-]
REMARK SMILES IDX 7 1 8 2 9 3 10 4 11 5 12 6 13 7 14 8 6 9 5 10 4 11 3 12 2 13
REMARK SMILES IDX 1 14
REMARK H PARENT
REMARK Flexibility Score: inf
ROOT
ATOM      1  C   UNL     1       3.959   4.911   2.427  1.00  0.00     0.000 C 
ENDROOT
BRANCH   1   2
ATOM      2  C   UNL     1       4.999   5.672   3.257  1.00  0.00     0.000 C 
BRANCH   2   3
ATOM      3  C   UNL     1       6.301   5.863   2.465  1.00  0.00     0.000 C 
BRANCH   3   4
ATOM      4  C   UNL     1       6.195   5.355   1.018  1.00  0.00     0.006 C 
BRANCH   4   5
ATOM      5  C   UNL     1       7.393   5.771   0.156  1.00  0.00     0.053 C 
BRANCH   5   6
ATOM      6  C   UNL     1       8.508   4.785   0.300  1.00  0.00     0.041 C 
ATOM      7  O   UNL     1       8.797   4.011  -0.652  1.00  0.00    -0.550 OA
ATOM      8  O   UNL     1       9.263   4.754   1.465  1.00  0.00    -0.550 OA
ENDBRANCH   5   6
ENDBRANCH   4   5
ENDBRANCH   3   4
ENDBRANCH   2   3
ENDBRANCH   1   2
BRANCH   1   9
ATOM      9  C   UNL     1       3.623   3.557   3.073  1.00  0.00     0.000 C 
BRANCH   9  10
ATOM     10  C   UNL     1       3.163   3.697   4.533  1.00  0.00    -0.000 C 
BRANCH  10  11
ATOM     11  C   UNL     1       3.985   2.830   5.499  1.00  0.00    -0.000 C 
BRANCH  11  12
ATOM     12  C   UNL     1       3.092   1.793   6.198  1.00  0.00    -0.000 C 
BRANCH  12  13
ATOM     13  C   UNL     1       1.645   1.818   5.683  1.00  0.00    -0.003 C 
ATOM     14  C   UNL     1       1.073   0.419   5.456  1.00  0.00     0.004 C 
ENDBRANCH  12  13
ENDBRANCH  11  12
ENDBRANCH  10  11
ENDBRANCH   9  10
ENDBRANCH   1   9
TORSDOF 10
ENDMDL
MODEL 4
REMARK VINA RESULT:    -3.034      1.052      1.983
REMARK INTER + INTRA:          -5.570
REMARK INTER:                  -4.643
REMARK INTRA:                  -0.927
REMARK UNBOUND:                -0.762
REMARK SMILES CCCCCCCCCCCC(=O)[O-]
REMARK SMILES IDX 7 1 8 2 9 3 10 4 11 5 12 6 13 7 14 8 6 9 5 10 4 11 3 12 2 13
REMARK SMILES IDX 1 14
REMARK H PARENT
REMARK Flexibility Score: inf
ROOT
ATOM      1  C   UNL     1       4.047   6.813   2.997  1.00  0.00     0.000 C 
ENDROOT
BRANCH   1   2
ATOM      2  C   UNL     1       4.175   6.076   1.658  1.00  0.00     0.000 C 
BRANCH   2   3
ATOM      3  C   UNL     1       5.506   5.315   1.575  1.00  0.00     0.000 C 
BRANCH   3   4
ATOM      4  C   UNL     1       6.047   5.223   0.139  1.00  0.00     0.006 C 
BRANCH   4   5
ATOM      5  C   UNL     1       7.437   5.855  -0.011  1.00  0.00     0.053 C 
BRANCH   5   6
ATOM      6  C   UNL     1       8.503   4.839   0.248  1.00  0.00     0.041 C 
ATOM      7  O   UNL     1       8.870   4.056  -0.668  1.00  0.00    -0.550 OA
ATOM      8  O   UNL     1       9.129   4.789   1.487  1.00  0.00    -0.550 OA
ENDBRANCH   5   6
ENDBRANCH   4   5
ENDBRANCH   3   4
ENDBRANCH   2   3
ENDBRANCH   1   2
BRANCH   1   9
ATOM      9  C   UNL     1       2.608   6.736   3.532  1.00  0.00     0.000 C 
BRANCH   9  10
ATOM     10  C   UNL     1       2.437   5.665   4.621  1.00  0.00    -0.000 C 
BRANCH  10  11
ATOM     11  C   UNL     1       1.673   4.429   4.123  1.00  0.00    -0.000 C 
BRANCH  11  12
ATOM     12  C   UNL     1       2.646   3.315   3.708  1.00  0.00    -0.000 C 
BRANCH  12  13
ATOM     13  C   UNL     1       3.967   3.363   4.491  1.00  0.00    -0.003 C 
ATOM     14  C   UNL     1       3.927   2.526   5.770  1.00  0.00     0.004 C 
ENDBRANCH  12  13
ENDBRANCH  11  12
ENDBRANCH  10  11
ENDBRANCH   9  10
ENDBRANCH   1   9
TORSDOF 10
ENDMDL
MODEL 5
REMARK VINA RESULT:    -3.000     10.419     12.794
REMARK INTER + INTRA:          -5.516
REMARK INTER:                  -4.070
REMARK INTRA:                  -1.446
REMARK UNBOUND:                -0.762
REMARK SMILES CCCCCCCCCCCC(=O)[O-]
REMARK SMILES IDX 7 1 8 2 9 3 10 4 11 5 12 6 13 7 14 8 6 9 5 10 4 11 3 12 2 13
REMARK SMILES IDX 1 14
REMARK H PARENT
REMARK Flexibility Score: inf
ROOT
ATOM      1  C   UNL     1      -5.838  -4.849   3.852  1.00  0.00     0.000 C 
ENDROOT
BRANCH   1   2
ATOM      2  C   UNL     1      -4.755  -4.019   4.551  1.00  0.00     0.000 C 
BRANCH   2   3
ATOM      3  C   UNL     1      -4.086  -3.047   3.567  1.00  0.00     0.000 C 
BRANCH   3   4
ATOM      4  C   UNL     1      -2.593  -3.345   3.362  1.00  0.00     0.006 C 
BRANCH   4   5
ATOM      5  C   UNL     1      -1.803  -3.343   4.677  1.00  0.00     0.053 C 
BRANCH   5   6
ATOM      6  C   UNL     1      -0.383  -2.943   4.434  1.00  0.00     0.041 C 
ATOM      7  O   UNL     1       0.062  -1.864   4.909  1.00  0.00    -0.550 OA
ATOM      8  O   UNL     1       0.465  -3.783   3.726  1.00  0.00    -0.550 OA
ENDBRANCH   5   6
ENDBRANCH   4   5
ENDBRANCH   3   4
ENDBRANCH   2   3
ENDBRANCH   1   2
BRANCH   1   9
ATOM      9  C   UNL     1      -5.752  -4.690   2.325  1.00  0.00     0.000 C 
BRANCH   9  10
ATOM     10  C   UNL     1      -5.390  -6.003   1.613  1.00  0.00    -0.000 C 
BRANCH  10  11
ATOM     11  C   UNL     1      -3.951  -6.009   1.076  1.00  0.00    -0.000 C 
BRANCH  11  12
ATOM     12  C   UNL     1      -3.178  -7.232   1.595  1.00  0.00    -0.000 C 
BRANCH  12  13
ATOM     13  C   UNL     1      -2.252  -6.888   2.772  1.00  0.00    -0.003 C 
ATOM     14  C   UNL     1      -2.887  -7.181   4.131  1.00  0.00     0.004 C 
ENDBRANCH  12  13
ENDBRANCH  11  12
ENDBRANCH  10  11
ENDBRANCH   9  10
ENDBRANCH   1   9
TORSDOF 10
ENDMDL
MODEL 6
REMARK VINA RESULT:    -2.979      9.408     11.038
REMARK INTER + INTRA:          -5.482
REMARK INTER:                  -4.607
REMARK INTRA:                  -0.875
REMARK UNBOUND:                -0.762
REMARK SMILES CCCCCCCCCCCC(=O)[O-]
REMARK SMILES IDX 7 1 8 2 9 3 10 4 11 5 12 6 13 7 14 8 6 9 5 10 4 11 3 12 2 13
REMARK SMILES IDX 1 14
REMARK H PARENT
REMARK Flexibility Score: inf
ROOT
ATOM      1  C   UNL     1       5.446  -2.734  -4.635  1.00  0.00     0.000 C 
ENDROOT
BRANCH   1   2
ATOM      2  C   UNL     1       5.277  -2.063  -6.004  1.00  0.00     0.000 C 
BRANCH   2   3
ATOM      3  C   UNL     1       5.569  -0.558  -5.918  1.00  0.00     0.000 C 
BRANCH   3   4
ATOM      4  C   UNL     1       4.465   0.297  -6.561  1.00  0.00     0.006 C 
BRANCH   4   5
ATOM      5  C   UNL     1       4.202   1.598  -5.792  1.00  0.00     0.053 C 
BRANCH   5   6
ATOM      6  C   UNL     1       2.781   1.652  -5.329  1.00  0.00     0.041 C 
ATOM      7  O   UNL     1       1.847   1.321  -6.106  1.00  0.00    -0.550 OA
ATOM      8  O   UNL     1       2.490   2.018  -4.021  1.00  0.00    -0.550 OA
ENDBRANCH   5   6
ENDBRANCH   4   5
ENDBRANCH   3   4
ENDBRANCH   2   3
ENDBRANCH   1   2
BRANCH   1   9
ATOM      9  C   UNL     1       6.920  -2.734  -4.201  1.00  0.00     0.000 C 
BRANCH   9  10
ATOM     10  C   UNL     1       7.850  -3.343  -5.263  1.00  0.00    -0.000 C 
BRANCH  10  11
ATOM     11  C   UNL     1       9.257  -2.728  -5.243  1.00  0.00    -0.000 C 
BRANCH  11  12
ATOM     12  C   UNL     1       9.298  -1.484  -4.342  1.00  0.00    -0.000 C 
BRANCH  12  13
ATOM     13  C   UNL     1      10.034  -0.305  -4.997  1.00  0.00    -0.003 C 
ATOM     14  C   UNL     1       9.136   0.512  -5.926  1.00  0.00     0.004 C 
ENDBRANCH  12  13
ENDBRANCH  11  12
ENDBRANCH  10  11
ENDBRANCH   9  10
ENDBRANCH   1   9
TORSDOF 10
ENDMDL
MODEL 7
REMARK VINA RESULT:    -2.971      2.071      3.552
REMARK INTER + INTRA:          -5.470
REMARK INTER:                  -4.830
REMARK INTRA:                  -0.640
REMARK UNBOUND:                -0.762
REMARK SMILES CCCCCCCCCCCC(=O)[O-]
REMARK SMILES IDX 7 1 8 2 9 3 10 4 11 5 12 6 13 7 14 8 6 9 5 10 4 11 3 12 2 13
REMARK SMILES IDX 1 14
REMARK H PARENT
REMARK Flexibility Score: inf
ROOT
ATOM      1  C   UNL     1       6.716   5.958   1.965  1.00  0.00     0.000 C 
ENDROOT
BRANCH   1   2
ATOM      2  C   UNL     1       8.047   5.617   1.284  1.00  0.00     0.000 C 
BRANCH   2   3
ATOM      3  C   UNL     1       7.815   4.811  -0.003  1.00  0.00     0.000 C 
BRANCH   3   4
ATOM      4  C   UNL     1       9.122   4.494  -0.747  1.00  0.00     0.006 C 
BRANCH   4   5
ATOM      5  C   UNL     1      10.027   5.722  -0.903  1.00  0.00     0.053 C 
BRANCH   5   6
ATOM      6  C   UNL     1       9.700   6.455  -2.165  1.00  0.00     0.041 C 
ATOM      7  O   UNL     1       9.136   7.581  -2.117  1.00  0.00    -0.550 OA
ATOM      8  O   UNL     1      10.063   5.920  -3.394  1.00  0.00    -0.550 OA
ENDBRANCH   5   6
ENDBRANCH   4   5
ENDBRANCH   3   4
ENDBRANCH   2   3
ENDBRANCH   1   2
BRANCH   1   9
ATOM      9  C   UNL     1       5.534   5.337   1.205  1.00  0.00     0.000 C 
BRANCH   9  10
ATOM     10  C   UNL     1       4.180   5.639   1.865  1.00  0.00    -0.000 C 
BRANCH  10  11
ATOM     11  C   UNL     1       4.270   5.710   3.398  1.00  0.00    -0.000 C 
BRANCH  11  12
ATOM     12  C   UNL     1       4.168   4.308   4.017  1.00  0.00    -0.000 C 
BRANCH  12  13
ATOM     13  C   UNL     1       3.200   3.393   3.250  1.00  0.00    -0.003 C 
ATOM     14  C   UNL     1       2.217   2.668   4.169  1.00  0.00     0.004 C 
ENDBRANCH  12  13
ENDBRANCH  11  12
ENDBRANCH  10  11
ENDBRANCH   9  10
ENDBRANCH   1   9
TORSDOF 10
ENDMDL
MODEL 8
REMARK VINA RESULT:    -2.965      3.787      6.690
REMARK INTER + INTRA:          -5.460
REMARK INTER:                  -4.805
REMARK INTRA:                  -0.655
REMARK UNBOUND:                -0.762
REMARK SMILES CCCCCCCCCCCC(=O)[O-]
REMARK SMILES IDX 7 1 8 2 9 3 10 4 11 5 12 6 13 7 14 8 6 9 5 10 4 11 3 12 2 13
REMARK SMILES IDX 1 14
REMARK H PARENT
REMARK Flexibility Score: inf
ROOT
ATOM      1  C   UNL     1       6.036   6.000   2.289  1.00  0.00     0.000 C 
ENDROOT
BRANCH   1   2
ATOM      2  C   UNL     1       5.014   5.550   3.341  1.00  0.00     0.000 C 
BRANCH   2   3
ATOM      3  C   UNL     1       4.001   4.566   2.738  1.00  0.00     0.000 C 
BRANCH   3   4
ATOM      4  C   UNL     1       3.713   3.371   3.661  1.00  0.00     0.006 C 
BRANCH   4   5
ATOM      5  C   UNL     1       2.213   3.132   3.869  1.00  0.00     0.053 C 
BRANCH   5   6
ATOM      6  C   UNL     1       1.899   3.017   5.326  1.00  0.00     0.041 C 
ATOM      7  O   UNL     1       1.766   4.052   6.031  1.00  0.00    -0.550 OA
ATOM      8  O   UNL     1       1.704   1.767   5.898  1.00  0.00    -0.550 OA
ENDBRANCH   5   6
ENDBRANCH   4   5
ENDBRANCH   3   4
ENDBRANCH   2   3
ENDBRANCH   1   2
BRANCH   1   9
ATOM      9  C   UNL     1       5.588   5.589   0.878  1.00  0.00     0.000 C 
BRANCH   9  10
ATOM     10  C   UNL     1       6.708   4.906   0.077  1.00  0.00    -0.000 C 
BRANCH  10  11
ATOM     11  C   UNL     1       8.031   5.685   0.125  1.00  0.00    -0.000 C 
BRANCH  11  12
ATOM     12  C   UNL     1       9.221   4.761  -0.175  1.00  0.00    -0.000 C 
BRANCH  12  13
ATOM     13  C   UNL     1      10.305   4.823   0.912  1.00  0.00    -0.003 C 
ATOM     14  C   UNL     1       9.735   5.109   2.301  1.00  0.00     0.004 C 
ENDBRANCH  12  13
ENDBRANCH  11  12
ENDBRANCH  10  11
ENDBRANCH   9  10
ENDBRANCH   1   9
TORSDOF 10
ENDMDL
MODEL 9
REMARK VINA RESULT:    -2.948      5.560      8.175
REMARK INTER + INTRA:          -5.434
REMARK INTER:                  -4.601
REMARK INTRA:                  -0.833
REMARK UNBOUND:                -0.762
REMARK SMILES CCCCCCCCCCCC(=O)[O-]
REMARK SMILES IDX 7 1 8 2 9 3 10 4 11 5 12 6 13 7 14 8 6 9 5 10 4 11 3 12 2 13
REMARK SMILES IDX 1 14
REMARK H PARENT
REMARK Flexibility Score: inf
ROOT
ATOM      1  C   UNL     1       1.659   1.545   7.242  1.00  0.00     0.000 C 
ENDROOT
BRANCH   1   2
ATOM      2  C   UNL     1       0.402   1.065   6.507  1.00  0.00     0.000 C 
BRANCH   2   3
ATOM      3  C   UNL     1       0.742  -0.048   5.505  1.00  0.00     0.000 C 
BRANCH   3   4
ATOM      4  C   UNL     1      -0.149  -1.289   5.671  1.00  0.00     0.006 C 
BRANCH   4   5
ATOM      5  C   UNL     1       0.642  -2.601   5.583  1.00  0.00     0.053 C 
BRANCH   5   6
ATOM      6  C   UNL     1       0.261  -3.357   4.350  1.00  0.00     0.041 C 
ATOM      7  O   UNL     1      -0.818  -3.099   3.755  1.00  0.00    -0.550 OA
ATOM      8  O   UNL     1       1.122  -4.314   3.828  1.00  0.00    -0.550 OA
ENDBRANCH   5   6
ENDBRANCH   4   5
ENDBRANCH   3   4
ENDBRANCH   2   3
ENDBRANCH   1   2
BRANCH   1   9
ATOM      9  C   UNL     1       2.923   1.247   6.421  1.00  0.00     0.000 C 
BRANCH   9  10
ATOM     10  C   UNL     1       3.688   2.521   6.028  1.00  0.00    -0.000 C 
BRANCH  10  11
ATOM     11  C   UNL     1       2.760   3.641   5.534  1.00  0.00    -0.000 C 
BRANCH  11  12
ATOM     12  C   UNL     1       2.309   3.380   4.089  1.00  0.00    -0.000 C 
BRANCH  12  13
ATOM     13  C   UNL     1       3.476   3.418   3.090  1.00  0.00    -0.003 C 
ATOM     14  C   UNL     1       4.081   4.813   2.939  1.00  0.00     0.004 C 
ENDBRANCH  12  13
ENDBRANCH  11  12
ENDBRANCH  10  11
ENDBRANCH   9  10
ENDBRANCH   1   9
TORSDOF 10
ENDMDL
