MODEL 1
REMARK VINA RESULT:    -4.271      0.000      0.000
REMARK INTER + INTRA:          -6.361
REMARK INTER:                  -5.769
REMARK INTRA:                  -0.592
REMARK UNBOUND:                -0.592
REMARK SMILES C=C[C@](C)(CCC=C(C)C)OC(C)=O
REMARK SMILES IDX 3 1 4 2 5 3 6 4 7 5 9 6 8 7 10 8 2 9 1 10 11 11 12 12 14 13
REMARK SMILES IDX 13 14
REMARK H PARENT
REMARK Flexibility Score: inf
ROOT
ATOM      1  C   UNL     1     -15.674 -18.708  13.328  1.00  0.00     0.127 C 
ATOM      2  C   UNL     1     -16.223 -19.180  14.687  1.00  0.00     0.061 C 
ENDROOT
BRANCH   1   3
ATOM      3  C   UNL     1     -14.125 -18.573  13.395  1.00  0.00     0.057 C 
BRANCH   3   4
ATOM      4  C   UNL     1     -13.496 -19.216  14.644  1.00  0.00     0.032 C 
BRANCH   4   5
ATOM      5  C   UNL     1     -12.234 -19.959  14.279  1.00  0.00    -0.028 C 
ATOM      6  C   UNL     1     -10.199 -21.282  14.658  1.00  0.00     0.039 C 
ATOM      7  C   UNL     1     -11.454 -20.619  15.164  1.00  0.00    -0.080 C 
ATOM      8  C   UNL     1     -11.815 -20.726  16.627  1.00  0.00     0.039 C 
ENDBRANCH   4   5
ENDBRANCH   3   4
ENDBRANCH   1   3
BRANCH   1   9
ATOM      9  C   UNL     1     -16.286 -17.352  13.010  1.00  0.00     0.013 C 
ATOM     10  C   UNL     1     -15.760 -16.207  13.463  1.00  0.00     0.008 C 
ENDBRANCH   1   9
BRANCH   1  11
ATOM     11  O   UNL     1     -16.055 -19.675  12.336  1.00  0.00    -0.455 OA
BRANCH  11  12
ATOM     12  C   UNL     1     -16.176 -21.056  12.553  1.00  0.00     0.303 C 
ATOM     13  O   UNL     1     -17.301 -21.591  12.743  1.00  0.00    -0.253 OA
ATOM     14  C   UNL     1     -14.954 -21.909  12.513  1.00  0.00     0.139 C 
ENDBRANCH  11  12
ENDBRANCH   1  11
TORSDOF 6
ENDMDL
MODEL 2
REMARK VINA RESULT:    -4.192      1.208      1.618
REMARK INTER + INTRA:          -6.255
REMARK INTER:                  -5.544
REMARK INTRA:                  -0.711
REMARK UNBOUND:                -0.592
REMARK SMILES C=C[C@](C)(CCC=C(C)C)OC(C)=O
REMARK SMILES IDX 3 1 4 2 5 3 6 4 7 5 9 6 8 7 10 8 2 9 1 10 11 11 12 12 14 13
REMARK SMILES IDX 13 14
REMARK H PARENT
REMARK Flexibility Score: inf
ROOT
ATOM      1  C   UNL     1     -16.323 -19.366  13.522  1.00  0.00     0.127 C 
ATOM      2  C   UNL     1     -17.207 -19.794  14.708  1.00  0.00     0.061 C 
ENDROOT
BRANCH   1   3
ATOM      3  C   UNL     1     -15.262 -18.330  13.994  1.00  0.00     0.057 C 
BRANCH   3   4
ATOM      4  C   UNL     1     -13.812 -18.735  13.677  1.00  0.00     0.032 C 
BRANCH   4   5
ATOM      5  C   UNL     1     -13.086 -19.136  14.938  1.00  0.00    -0.028 C 
ATOM      6  C   UNL     1     -11.775 -20.582  16.431  1.00  0.00     0.039 C 
ATOM      7  C   UNL     1     -12.419 -20.301  15.098  1.00  0.00    -0.080 C 
ATOM      8  C   UNL     1     -12.286 -21.308  13.980  1.00  0.00     0.039 C 
ENDBRANCH   4   5
ENDBRANCH   3   4
ENDBRANCH   1   3
BRANCH   1   9
ATOM      9  C   UNL     1     -17.216 -18.730  12.467  1.00  0.00     0.013 C 
ATOM     10  C   UNL     1     -17.002 -17.493  12.002  1.00  0.00     0.008 C 
ENDBRANCH   1   9
BRANCH   1  11
ATOM     11  O   UNL     1     -15.686 -20.541  12.997  1.00  0.00    -0.455 OA
BRANCH  11  12
ATOM     12  C   UNL     1     -16.179 -21.331  11.948  1.00  0.00     0.303 C 
ATOM     13  O   UNL     1     -17.234 -22.008  12.080  1.00  0.00    -0.253 OA
ATOM     14  C   UNL     1     -15.463 -21.334  10.640  1.00  0.00     0.139 C 
ENDBRANCH  11  12
ENDBRANCH   1  11
TORSDOF 6
ENDMDL
MODEL 3
REMARK VINA RESULT:    -4.147      2.070      3.760
REMARK INTER + INTRA:          -6.194
REMARK INTER:                  -5.337
REMARK INTRA:                  -0.857
REMARK UNBOUND:                -0.592
REMARK SMILES C=C[C@](C)(CCC=C(C)C)OC(C)=O
REMARK SMILES IDX 3 1 4 2 5 3 6 4 7 5 9 6 8 7 10 8 2 9 1 10 11 11 12 12 14 13
REMARK SMILES IDX 13 14
REMARK H PARENT
REMARK Flexibility Score: inf
ROOT
ATOM      1  C   UNL     1     -16.420 -19.431  13.123  1.00  0.00     0.127 C 
ATOM      2  C   UNL     1     -17.205 -19.928  14.351  1.00  0.00     0.061 C 
ENDROOT
BRANCH   1   3
ATOM      3  C   UNL     1     -16.375 -20.541  12.033  1.00  0.00     0.057 C 
BRANCH   3   4
ATOM      4  C   UNL     1     -15.812 -21.883  12.532  1.00  0.00     0.032 C 
BRANCH   4   5
ATOM      5  C   UNL     1     -14.710 -22.367  11.621  1.00  0.00    -0.028 C 
ATOM      6  C   UNL     1     -12.414 -22.924  10.946  1.00  0.00     0.039 C 
ATOM      7  C   UNL     1     -13.410 -22.462  11.978  1.00  0.00    -0.080 C 
ATOM      8  C   UNL     1     -12.937 -22.138  13.376  1.00  0.00     0.039 C 
ENDBRANCH   4   5
ENDBRANCH   3   4
ENDBRANCH   1   3
BRANCH   1   9
ATOM      9  C   UNL     1     -15.003 -19.099  13.564  1.00  0.00     0.013 C 
ATOM     10  C   UNL     1     -14.690 -18.860  14.844  1.00  0.00     0.008 C 
ENDBRANCH   1   9
BRANCH   1  11
ATOM     11  O   UNL     1     -17.078 -18.256  12.623  1.00  0.00    -0.455 OA
BRANCH  11  12
ATOM     12  C   UNL     1     -16.439 -17.171  12.004  1.00  0.00     0.303 C 
ATOM     13  O   UNL     1     -16.041 -17.242  10.810  1.00  0.00    -0.253 OA
ATOM     14  C   UNL     1     -16.270 -15.896  12.759  1.00  0.00     0.139 C 
ENDBRANCH  11  12
ENDBRANCH   1  11
TORSDOF 6
ENDMDL
MODEL 4
REMARK VINA RESULT:    -4.123      2.275      4.591
REMARK INTER + INTRA:          -6.162
REMARK INTER:                  -5.320
REMARK INTRA:                  -0.842
REMARK UNBOUND:                -0.592
REMARK SMILES C=C[C@](C)(CCC=C(C)C)OC(C)=O
REMARK SMILES IDX 3 1 4 2 5 3 6 4 7 5 9 6 8 7 10 8 2 9 1 10 11 11 12 12 14 13
REMARK SMILES IDX 13 14
REMARK H PARENT
REMARK Flexibility Score: inf
ROOT
ATOM      1  C   UNL     1     -15.806 -19.783  13.030  1.00  0.00     0.127 C 
ATOM      2  C   UNL     1     -14.371 -19.236  12.906  1.00  0.00     0.061 C 
ENDROOT
BRANCH   1   3
ATOM      3  C   UNL     1     -16.684 -19.249  11.861  1.00  0.00     0.057 C 
BRANCH   3   4
ATOM      4  C   UNL     1     -17.368 -17.903  12.160  1.00  0.00     0.032 C 
BRANCH   4   5
ATOM      5  C   UNL     1     -16.664 -16.779  11.439  1.00  0.00    -0.028 C 
ATOM      6  C   UNL     1     -15.342 -14.722  11.203  1.00  0.00     0.039 C 
ATOM      7  C   UNL     1     -15.955 -15.804  12.052  1.00  0.00    -0.080 C 
ATOM      8  C   UNL     1     -15.748 -15.784  13.548  1.00  0.00     0.039 C 
ENDBRANCH   4   5
ENDBRANCH   3   4
ENDBRANCH   1   3
BRANCH   1   9
ATOM      9  C   UNL     1     -16.385 -19.309  14.355  1.00  0.00     0.013 C 
ATOM     10  C   UNL     1     -15.614 -18.858  15.351  1.00  0.00     0.008 C 
ENDBRANCH   1   9
BRANCH   1  11
ATOM     11  O   UNL     1     -15.737 -21.218  12.997  1.00  0.00    -0.455 OA
BRANCH  11  12
ATOM     12  C   UNL     1     -14.813 -21.969  12.256  1.00  0.00     0.303 C 
ATOM     13  O   UNL     1     -14.936 -22.108  11.009  1.00  0.00    -0.253 OA
ATOM     14  C   UNL     1     -13.642 -22.576  12.951  1.00  0.00     0.139 C 
ENDBRANCH  11  12
ENDBRANCH   1  11
TORSDOF 6
ENDMDL
MODEL 5
REMARK VINA RESULT:    -4.105      1.660      2.147
REMARK INTER + INTRA:          -6.137
REMARK INTER:                  -5.488
REMARK INTRA:                  -0.649
REMARK UNBOUND:                -0.592
REMARK SMILES C=C[C@](C)(CCC=C(C)C)OC(C)=O
REMARK SMILES IDX 3 1 4 2 5 3 6 4 7 5 9 6 8 7 10 8 2 9 1 10 11 11 12 12 14 13
REMARK SMILES IDX 13 14
REMARK H PARENT
REMARK Flexibility Score: inf
ROOT
ATOM      1  C   UNL     1     -15.312 -18.101  13.351  1.00  0.00     0.127 C 
ATOM      2  C   UNL     1     -15.549 -16.631  13.744  1.00  0.00     0.061 C 
ENDROOT
BRANCH   1   3
ATOM      3  C   UNL     1     -14.481 -18.821  14.451  1.00  0.00     0.057 C 
BRANCH   3   4
ATOM      4  C   UNL     1     -13.051 -19.187  14.015  1.00  0.00     0.032 C 
BRANCH   4   5
ATOM      5  C   UNL     1     -12.035 -18.466  14.867  1.00  0.00    -0.028 C 
ATOM      6  C   UNL     1     -10.499 -18.125  16.753  1.00  0.00     0.039 C 
ATOM      7  C   UNL     1     -11.469 -18.981  15.981  1.00  0.00    -0.080 C 
ATOM      8  C   UNL     1     -11.765 -20.384  16.454  1.00  0.00     0.039 C 
ENDBRANCH   4   5
ENDBRANCH   3   4
ENDBRANCH   1   3
BRANCH   1   9
ATOM      9  C   UNL     1     -14.542 -18.127  12.039  1.00  0.00     0.013 C 
ATOM     10  C   UNL     1     -15.157 -18.195  10.851  1.00  0.00     0.008 C 
ENDBRANCH   1   9
BRANCH   1  11
ATOM     11  O   UNL     1     -16.594 -18.729  13.192  1.00  0.00    -0.455 OA
BRANCH  11  12
ATOM     12  C   UNL     1     -16.997 -19.920  13.816  1.00  0.00     0.303 C 
ATOM     13  O   UNL     1     -17.453 -19.919  14.991  1.00  0.00    -0.253 OA
ATOM     14  C   UNL     1     -16.925 -21.201  13.057  1.00  0.00     0.139 C 
ENDBRANCH  11  12
ENDBRANCH   1  11
TORSDOF 6
ENDMDL
MODEL 6
REMARK VINA RESULT:    -4.096      2.092      4.956
REMARK INTER + INTRA:          -6.126
REMARK INTER:                  -5.573
REMARK INTRA:                  -0.553
REMARK UNBOUND:                -0.592
REMARK SMILES C=C[C@](C)(CCC=C(C)C)OC(C)=O
REMARK SMILES IDX 3 1 4 2 5 3 6 4 7 5 9 6 8 7 10 8 2 9 1 10 11 11 12 12 14 13
REMARK SMILES IDX 13 14
REMARK H PARENT
REMARK Flexibility Score: inf
ROOT
ATOM      1  C   UNL     1     -15.879 -18.954  13.809  1.00  0.00     0.127 C 
ATOM      2  C   UNL     1     -15.502 -18.675  15.276  1.00  0.00     0.061 C 
ENDROOT
BRANCH   1   3
ATOM      3  C   UNL     1     -16.285 -17.630  13.100  1.00  0.00     0.057 C 
BRANCH   3   4
ATOM      4  C   UNL     1     -15.618 -16.376  13.692  1.00  0.00     0.032 C 
BRANCH   4   5
ATOM      5  C   UNL     1     -15.372 -15.347  12.615  1.00  0.00    -0.028 C 
ATOM      6  C   UNL     1     -14.408 -13.335  11.587  1.00  0.00     0.039 C 
ATOM      7  C   UNL     1     -14.519 -14.306  12.734  1.00  0.00    -0.080 C 
ATOM      8  C   UNL     1     -13.667 -14.104  13.965  1.00  0.00     0.039 C 
ENDBRANCH   4   5
ENDBRANCH   3   4
ENDBRANCH   1   3
BRANCH   1   9
ATOM      9  C   UNL     1     -17.057 -19.917  13.793  1.00  0.00     0.013 C 
ATOM     10  C   UNL     1     -17.010 -21.093  13.155  1.00  0.00     0.008 C 
ENDBRANCH   1   9
BRANCH   1  11
ATOM     11  O   UNL     1     -14.740 -19.546  13.164  1.00  0.00    -0.455 OA
BRANCH  11  12
ATOM     12  C   UNL     1     -13.415 -19.459  13.618  1.00  0.00     0.303 C 
ATOM     13  O   UNL     1     -12.910 -20.363  14.337  1.00  0.00    -0.253 OA
ATOM     14  C   UNL     1     -12.577 -18.297  13.203  1.00  0.00     0.139 C 
ENDBRANCH  11  12
ENDBRANCH   1  11
TORSDOF 6
ENDMDL
MODEL 7
REMARK VINA RESULT:    -4.093     14.865     16.512
REMARK INTER + INTRA:          -6.121
REMARK INTER:                  -5.226
REMARK INTRA:                  -0.895
REMARK UNBOUND:                -0.592
REMARK SMILES C=C[C@](C)(CCC=C(C)C)OC(C)=O
REMARK SMILES IDX 3 1 4 2 5 3 6 4 7 5 9 6 8 7 10 8 2 9 1 10 11 11 12 12 14 13
REMARK SMILES IDX 13 14
REMARK H PARENT
REMARK Flexibility Score: inf
ROOT
ATOM      1  C   UNL     1     -20.210 -10.417   0.848  1.00  0.00     0.127 C 
ATOM      2  C   UNL     1     -21.152  -9.234   0.556  1.00  0.00     0.061 C 
ENDROOT
BRANCH   1   3
ATOM      3  C   UNL     1     -20.387 -10.892   2.319  1.00  0.00     0.057 C 
BRANCH   3   4
ATOM      4  C   UNL     1     -19.160 -10.633   3.210  1.00  0.00     0.032 C 
BRANCH   4   5
ATOM      5  C   UNL     1     -19.570  -9.962   4.498  1.00  0.00    -0.028 C 
ATOM      6  C   UNL     1     -19.790  -8.136   6.126  1.00  0.00     0.039 C 
ATOM      7  C   UNL     1     -19.361  -8.656   4.779  1.00  0.00    -0.080 C 
ATOM      8  C   UNL     1     -18.734  -7.712   3.781  1.00  0.00     0.039 C 
ENDBRANCH   4   5
ENDBRANCH   3   4
ENDBRANCH   1   3
BRANCH   1   9
ATOM      9  C   UNL     1     -18.777  -9.949   0.637  1.00  0.00     0.013 C 
ATOM     10  C   UNL     1     -18.485  -8.719   0.196  1.00  0.00     0.008 C 
ENDBRANCH   1   9
BRANCH   1  11
ATOM     11  O   UNL     1     -20.532 -11.475  -0.069  1.00  0.00    -0.455 OA
BRANCH  11  12
ATOM     12  C   UNL     1     -19.615 -12.395  -0.600  1.00  0.00     0.303 C 
ATOM     13  O   UNL     1     -19.023 -13.227   0.139  1.00  0.00    -0.253 OA
ATOM     14  C   UNL     1     -19.372 -12.417  -2.071  1.00  0.00     0.139 C 
ENDBRANCH  11  12
ENDBRANCH   1  11
TORSDOF 6
ENDMDL
MODEL 8
REMARK VINA RESULT:    -4.062      1.723      3.096
REMARK INTER + INTRA:          -6.079
REMARK INTER:                  -5.086
REMARK INTRA:                  -0.993
REMARK UNBOUND:                -0.592
REMARK SMILES C=C[C@](C)(CCC=C(C)C)OC(C)=O
REMARK SMILES IDX 3 1 4 2 5 3 6 4 7 5 9 6 8 7 10 8 2 9 1 10 11 11 12 12 14 13
REMARK SMILES IDX 13 14
REMARK H PARENT
REMARK Flexibility Score: inf
ROOT
ATOM      1  C   UNL     1     -15.550 -20.041  12.203  1.00  0.00     0.127 C 
ATOM      2  C   UNL     1     -14.667 -19.445  11.091  1.00  0.00     0.061 C 
ENDROOT
BRANCH   1   3
ATOM      3  C   UNL     1     -14.822 -21.239  12.880  1.00  0.00     0.057 C 
BRANCH   3   4
ATOM      4  C   UNL     1     -13.295 -21.227  12.692  1.00  0.00     0.032 C 
BRANCH   4   5
ATOM      5  C   UNL     1     -12.596 -21.277  14.029  1.00  0.00    -0.028 C 
ATOM      6  C   UNL     1     -11.296 -20.430  15.934  1.00  0.00     0.039 C 
ATOM      7  C   UNL     1     -11.991 -20.219  14.614  1.00  0.00    -0.080 C 
ATOM      8  C   UNL     1     -12.011 -18.841  13.995  1.00  0.00     0.039 C 
ENDBRANCH   4   5
ENDBRANCH   3   4
ENDBRANCH   1   3
BRANCH   1   9
ATOM      9  C   UNL     1     -16.847 -20.529  11.574  1.00  0.00     0.013 C 
ATOM     10  C   UNL     1     -17.385 -21.717  11.875  1.00  0.00     0.008 C 
ENDBRANCH   1   9
BRANCH   1  11
ATOM     11  O   UNL     1     -15.817 -19.004  13.161  1.00  0.00    -0.455 OA
BRANCH  11  12
ATOM     12  C   UNL     1     -16.196 -19.211  14.496  1.00  0.00     0.303 C 
ATOM     13  O   UNL     1     -17.276 -19.793  14.785  1.00  0.00    -0.253 OA
ATOM     14  C   UNL     1     -15.283 -18.772  15.590  1.00  0.00     0.139 C 
ENDBRANCH  11  12
ENDBRANCH   1  11
TORSDOF 6
ENDMDL
MODEL 9
REMARK VINA RESULT:    -4.022      1.754      3.364
REMARK INTER + INTRA:          -6.025
REMARK INTER:                  -5.526
REMARK INTRA:                  -0.499
REMARK UNBOUND:                -0.592
REMARK SMILES C=C[C@](C)(CCC=C(C)C)OC(C)=O
REMARK SMILES IDX 3 1 4 2 5 3 6 4 7 5 9 6 8 7 10 8 2 9 1 10 11 11 12 12 14 13
REMARK SMILES IDX 13 14
REMARK H PARENT
REMARK Flexibility Score: inf
ROOT
ATOM      1  C   UNL     1     -15.974 -18.990  13.515  1.00  0.00     0.127 C 
ATOM      2  C   UNL     1     -15.198 -19.314  12.224  1.00  0.00     0.061 C 
ENDROOT
BRANCH   1   3
ATOM      3  C   UNL     1     -14.997 -18.930  14.724  1.00  0.00     0.057 C 
BRANCH   3   4
ATOM      4  C   UNL     1     -13.606 -19.521  14.434  1.00  0.00     0.032 C 
BRANCH   4   5
ATOM      5  C   UNL     1     -12.535 -18.727  15.139  1.00  0.00    -0.028 C 
ATOM      6  C   UNL     1     -10.742 -18.289  16.761  1.00  0.00     0.039 C 
ATOM      7  C   UNL     1     -11.743 -19.215  16.120  1.00  0.00    -0.080 C 
ATOM      8  C   UNL     1     -11.821 -20.654  16.571  1.00  0.00     0.039 C 
ENDBRANCH   4   5
ENDBRANCH   3   4
ENDBRANCH   1   3
BRANCH   1   9
ATOM      9  C   UNL     1     -16.997 -20.093  13.746  1.00  0.00     0.013 C 
ATOM     10  C   UNL     1     -17.009 -21.220  13.023  1.00  0.00     0.008 C 
ENDBRANCH   1   9
BRANCH   1  11
ATOM     11  O   UNL     1     -16.632 -17.726  13.331  1.00  0.00    -0.455 OA
BRANCH  11  12
ATOM     12  C   UNL     1     -16.084 -16.615  12.674  1.00  0.00     0.303 C 
ATOM     13  O   UNL     1     -16.420 -16.323  11.494  1.00  0.00    -0.253 OA
ATOM     14  C   UNL     1     -15.121 -15.739  13.401  1.00  0.00     0.139 C 
ENDBRANCH  11  12
ENDBRANCH   1  11
TORSDOF 6
ENDMDL
