MODEL 1
REMARK VINA RESULT:    -6.548      0.000      0.000
REMARK INTER + INTRA:          -6.739
REMARK INTER:                  -6.739
REMARK INTRA:                   0.000
REMARK UNBOUND:                 0.000
REMARK SMILES O=c1ccc2ccc(O)cc2o1
REMARK SMILES IDX 6 1 7 2 8 3 10 4 11 5 5 6 4 7 3 8 2 9 1 10 12 11 9 12
REMARK H PARENT 9 13
REMARK Flexibility Score: inf
ROOT
ATOM      1  C   UNL     1     -14.418  -0.350 -10.063  1.00  0.00     0.016 A 
ATOM      2  C   UNL     1     -13.713  -1.507 -10.408  1.00  0.00     0.047 A 
ATOM      3  C   UNL     1     -12.313  -1.509 -10.408  1.00  0.00     0.119 A 
ATOM      4  C   UNL     1     -11.612  -0.344 -10.062  1.00  0.00     0.094 A 
ATOM      5  C   UNL     1     -12.308   0.818  -9.715  1.00  0.00     0.142 A 
ATOM      6  C   UNL     1     -13.721   0.815  -9.715  1.00  0.00     0.018 A 
ATOM      7  C   UNL     1     -14.391   1.992  -9.364  1.00  0.00     0.019 A 
ATOM      8  C   UNL     1     -13.650   3.124  -9.026  1.00  0.00     0.094 A 
ATOM      9  C   UNL     1     -12.253   3.054  -9.047  1.00  0.00     0.336 A 
ATOM     10  O   UNL     1     -11.568   4.066  -8.745  1.00  0.00    -0.246 OA
ATOM     11  O   UNL     1     -11.641   1.922  -9.385  1.00  0.00    -0.423 OA
ENDROOT
BRANCH   3  12
ATOM     12  O   UNL     1     -11.627  -2.672 -10.756  1.00  0.00    -0.508 OA
ATOM     13  H   UNL     1     -11.189  -3.257 -10.054  1.00  0.00     0.293 HD
ENDBRANCH   3  12
TORSDOF 1
ENDMDL
MODEL 2
REMARK VINA RESULT:    -6.133      1.674      4.785
REMARK INTER + INTRA:          -6.312
REMARK INTER:                  -6.312
REMARK INTRA:                   0.000
REMARK UNBOUND:                 0.000
REMARK SMILES O=c1ccc2ccc(O)cc2o1
REMARK SMILES IDX 6 1 7 2 8 3 10 4 11 5 5 6 4 7 3 8 2 9 1 10 12 11 9 12
REMARK H PARENT 9 13
REMARK Flexibility Score: inf
ROOT
ATOM      1  C   UNL     1     -11.413   2.211  -9.207  1.00  0.00     0.016 A 
ATOM      2  C   UNL     1     -11.915   3.407  -8.686  1.00  0.00     0.047 A 
ATOM      3  C   UNL     1     -13.296   3.612  -8.586  1.00  0.00     0.119 A 
ATOM      4  C   UNL     1     -14.184   2.612  -9.011  1.00  0.00     0.094 A 
ATOM      5  C   UNL     1     -13.692   1.411  -9.533  1.00  0.00     0.142 A 
ATOM      6  C   UNL     1     -12.297   1.209  -9.631  1.00  0.00     0.018 A 
ATOM      7  C   UNL     1     -11.834  -0.002 -10.158  1.00  0.00     0.019 A 
ATOM      8  C   UNL     1     -12.755  -0.965 -10.566  1.00  0.00     0.094 A 
ATOM      9  C   UNL     1     -14.122  -0.697 -10.438  1.00  0.00     0.336 A 
ATOM     10  O   UNL     1     -14.968  -1.555 -10.801  1.00  0.00    -0.246 OA
ATOM     11  O   UNL     1     -14.536   0.463  -9.934  1.00  0.00    -0.423 OA
ENDROOT
BRANCH   3  12
ATOM     12  O   UNL     1     -13.777   4.811  -8.064  1.00  0.00    -0.508 OA
ATOM     13  H   UNL     1     -13.233   5.665  -8.111  1.00  0.00     0.293 HD
ENDBRANCH   3  12
TORSDOF 1
ENDMDL
MODEL 3
REMARK VINA RESULT:    -5.840      1.204      4.191
REMARK INTER + INTRA:          -6.011
REMARK INTER:                  -6.011
REMARK INTRA:                   0.000
REMARK UNBOUND:                 0.000
REMARK SMILES O=c1ccc2ccc(O)cc2o1
REMARK SMILES IDX 6 1 7 2 8 3 10 4 11 5 5 6 4 7 3 8 2 9 1 10 12 11 9 12
REMARK H PARENT 9 13
REMARK Flexibility Score: inf
ROOT
ATOM      1  C   UNL     1     -14.273   0.911 -10.003  1.00  0.00     0.016 A 
ATOM      2  C   UNL     1     -14.132   2.256  -9.648  1.00  0.00     0.047 A 
ATOM      3  C   UNL     1     -12.882   2.761  -9.269  1.00  0.00     0.119 A 
ATOM      4  C   UNL     1     -11.764   1.914  -9.245  1.00  0.00     0.094 A 
ATOM      5  C   UNL     1     -11.895   0.567  -9.599  1.00  0.00     0.142 A 
ATOM      6  C   UNL     1     -13.158   0.062  -9.981  1.00  0.00     0.018 A 
ATOM      7  C   UNL     1     -13.258  -1.289 -10.329  1.00  0.00     0.019 A 
ATOM      8  C   UNL     1     -12.118  -2.091 -10.290  1.00  0.00     0.094 A 
ATOM      9  C   UNL     1     -10.900  -1.523  -9.902  1.00  0.00     0.336 A 
ATOM     10  O   UNL     1      -9.861  -2.231  -9.862  1.00  0.00    -0.246 OA
ATOM     11  O   UNL     1     -10.832  -0.234  -9.576  1.00  0.00    -0.423 OA
ENDROOT
BRANCH   3  12
ATOM     12  O   UNL     1     -12.761   4.104  -8.918  1.00  0.00    -0.508 OA
ATOM     13  H   UNL     1     -11.929   4.637  -9.141  1.00  0.00     0.293 HD
ENDBRANCH   3  12
TORSDOF 1
ENDMDL
MODEL 4
REMARK VINA RESULT:    -5.832      5.886      7.820
REMARK INTER + INTRA:          -6.003
REMARK INTER:                  -6.003
REMARK INTRA:                   0.000
REMARK UNBOUND:                 0.000
REMARK SMILES O=c1ccc2ccc(O)cc2o1
REMARK SMILES IDX 6 1 7 2 8 3 10 4 11 5 5 6 4 7 3 8 2 9 1 10 12 11 9 12
REMARK H PARENT 9 13
REMARK Flexibility Score: inf
ROOT
ATOM      1  C   UNL     1      -9.785  -3.884  -7.098  1.00  0.00     0.016 A 
ATOM      2  C   UNL     1      -9.575  -3.474  -8.418  1.00  0.00     0.047 A 
ATOM      3  C   UNL     1     -10.234  -4.117  -9.472  1.00  0.00     0.119 A 
ATOM      4  C   UNL     1     -11.110  -5.180  -9.205  1.00  0.00     0.094 A 
ATOM      5  C   UNL     1     -11.328  -5.597  -7.888  1.00  0.00     0.142 A 
ATOM      6  C   UNL     1     -10.661  -4.944  -6.827  1.00  0.00     0.018 A 
ATOM      7  C   UNL     1     -10.898  -5.384  -5.520  1.00  0.00     0.019 A 
ATOM      8  C   UNL     1     -11.778  -6.444  -5.305  1.00  0.00     0.094 A 
ATOM      9  C   UNL     1     -12.403  -7.042  -6.404  1.00  0.00     0.336 A 
ATOM     10  O   UNL     1     -13.201  -8.000  -6.229  1.00  0.00    -0.246 OA
ATOM     11  O   UNL     1     -12.161  -6.605  -7.637  1.00  0.00    -0.423 OA
ENDROOT
BRANCH   3  12
ATOM     12  O   UNL     1     -10.011  -3.694 -10.781  1.00  0.00    -0.508 OA
ATOM     13  H   UNL     1      -9.377  -4.190 -11.397  1.00  0.00     0.293 HD
ENDBRANCH   3  12
TORSDOF 1
ENDMDL
MODEL 5
REMARK VINA RESULT:    -5.596      5.407      8.044
REMARK INTER + INTRA:          -5.760
REMARK INTER:                  -5.760
REMARK INTRA:                   0.000
REMARK UNBOUND:                 0.000
REMARK SMILES O=c1ccc2ccc(O)cc2o1
REMARK SMILES IDX 6 1 7 2 8 3 10 4 11 5 5 6 4 7 3 8 2 9 1 10 12 11 9 12
REMARK H PARENT 9 13
REMARK Flexibility Score: inf
ROOT
ATOM      1  C   UNL     1     -10.408  -4.548  -9.638  1.00  0.00     0.016 A 
ATOM      2  C   UNL     1     -10.156  -3.205  -9.341  1.00  0.00     0.047 A 
ATOM      3  C   UNL     1      -9.875  -2.812  -8.027  1.00  0.00     0.119 A 
ATOM      4  C   UNL     1      -9.844  -3.769  -7.001  1.00  0.00     0.094 A 
ATOM      5  C   UNL     1     -10.093  -5.115  -7.289  1.00  0.00     0.142 A 
ATOM      6  C   UNL     1     -10.376  -5.507  -8.617  1.00  0.00     0.018 A 
ATOM      7  C   UNL     1     -10.622  -6.860  -8.874  1.00  0.00     0.019 A 
ATOM      8  C   UNL     1     -10.580  -7.774  -7.821  1.00  0.00     0.094 A 
ATOM      9  C   UNL     1     -10.292  -7.314  -6.532  1.00  0.00     0.336 A 
ATOM     10  O   UNL     1     -10.249  -8.124  -5.570  1.00  0.00    -0.246 OA
ATOM     11  O   UNL     1     -10.062  -6.021  -6.315  1.00  0.00    -0.423 OA
ENDROOT
BRANCH   3  12
ATOM     12  O   UNL     1      -9.628  -1.469  -7.750  1.00  0.00    -0.508 OA
ATOM     13  H   UNL     1      -9.186  -1.178  -6.886  1.00  0.00     0.293 HD
ENDBRANCH   3  12
TORSDOF 1
ENDMDL
MODEL 6
REMARK VINA RESULT:    -5.402      4.559      7.612
REMARK INTER + INTRA:          -5.560
REMARK INTER:                  -5.560
REMARK INTRA:                   0.000
REMARK UNBOUND:                 0.000
REMARK SMILES O=c1ccc2ccc(O)cc2o1
REMARK SMILES IDX 6 1 7 2 8 3 10 4 11 5 5 6 4 7 3 8 2 9 1 10 12 11 9 12
REMARK H PARENT 9 13
REMARK Flexibility Score: inf
ROOT
ATOM      1  C   UNL     1      -9.452  -3.798  -7.201  1.00  0.00     0.016 A 
ATOM      2  C   UNL     1      -9.532  -2.542  -7.811  1.00  0.00     0.047 A 
ATOM      3  C   UNL     1     -10.204  -2.388  -9.029  1.00  0.00     0.119 A 
ATOM      4  C   UNL     1     -10.803  -3.498  -9.643  1.00  0.00     0.094 A 
ATOM      5  C   UNL     1     -10.729  -4.759  -9.040  1.00  0.00     0.142 A 
ATOM      6  C   UNL     1     -10.050  -4.909  -7.811  1.00  0.00     0.018 A 
ATOM      7  C   UNL     1      -9.993  -6.181  -7.232  1.00  0.00     0.019 A 
ATOM      8  C   UNL     1     -10.603  -7.255  -7.880  1.00  0.00     0.094 A 
ATOM      9  C   UNL     1     -11.259  -7.031  -9.095  1.00  0.00     0.336 A 
ATOM     10  O   UNL     1     -11.816  -7.988  -9.694  1.00  0.00    -0.246 OA
ATOM     11  O   UNL     1     -11.299  -5.811  -9.624  1.00  0.00    -0.423 OA
ENDROOT
BRANCH   3  12
ATOM     12  O   UNL     1     -10.272  -1.129  -9.622  1.00  0.00    -0.508 OA
ATOM     13  H   UNL     1     -10.272  -0.281  -9.066  1.00  0.00     0.293 HD
ENDBRANCH   3  12
TORSDOF 1
ENDMDL
MODEL 7
REMARK VINA RESULT:    -5.374      2.573      5.300
REMARK INTER + INTRA:          -5.531
REMARK INTER:                  -5.531
REMARK INTRA:                   0.000
REMARK UNBOUND:                 0.000
REMARK SMILES O=c1ccc2ccc(O)cc2o1
REMARK SMILES IDX 6 1 7 2 8 3 10 4 11 5 5 6 4 7 3 8 2 9 1 10 12 11 9 12
REMARK H PARENT 9 13
REMARK Flexibility Score: inf
ROOT
ATOM      1  C   UNL     1     -12.677  -1.986 -10.357  1.00  0.00     0.016 A 
ATOM      2  C   UNL     1     -12.732  -0.589 -10.363  1.00  0.00     0.047 A 
ATOM      3  C   UNL     1     -11.691   0.163  -9.806  1.00  0.00     0.119 A 
ATOM      4  C   UNL     1     -10.585  -0.486  -9.239  1.00  0.00     0.094 A 
ATOM      5  C   UNL     1     -10.520  -1.884  -9.229  1.00  0.00     0.142 A 
ATOM      6  C   UNL     1     -11.573  -2.638  -9.792  1.00  0.00     0.018 A 
ATOM      7  C   UNL     1     -11.480  -4.034  -9.767  1.00  0.00     0.019 A 
ATOM      8  C   UNL     1     -10.360  -4.634  -9.192  1.00  0.00     0.094 A 
ATOM      9  C   UNL     1      -9.356  -3.823  -8.654  1.00  0.00     0.336 A 
ATOM     10  O   UNL     1      -8.337  -4.347  -8.132  1.00  0.00    -0.246 OA
ATOM     11  O   UNL     1      -9.468  -2.498  -8.691  1.00  0.00    -0.423 OA
ENDROOT
BRANCH   3  12
ATOM     12  O   UNL     1     -11.765   1.555  -9.821  1.00  0.00    -0.508 OA
ATOM     13  H   UNL     1     -10.935   2.128  -9.920  1.00  0.00     0.293 HD
ENDBRANCH   3  12
TORSDOF 1
ENDMDL
MODEL 8
REMARK VINA RESULT:    -5.314      6.086      7.777
REMARK INTER + INTRA:          -5.469
REMARK INTER:                  -5.469
REMARK INTRA:                   0.000
REMARK UNBOUND:                 0.000
REMARK SMILES O=c1ccc2ccc(O)cc2o1
REMARK SMILES IDX 6 1 7 2 8 3 10 4 11 5 5 6 4 7 3 8 2 9 1 10 12 11 9 12
REMARK H PARENT 9 13
REMARK Flexibility Score: inf
ROOT
ATOM      1  C   UNL     1     -10.253  -7.498  -7.751  1.00  0.00     0.016 A 
ATOM      2  C   UNL     1     -10.814  -8.125  -6.634  1.00  0.00     0.047 A 
ATOM      3  C   UNL     1     -11.185  -7.373  -5.513  1.00  0.00     0.119 A 
ATOM      4  C   UNL     1     -10.995  -5.983  -5.508  1.00  0.00     0.094 A 
ATOM      5  C   UNL     1     -10.435  -5.347  -6.622  1.00  0.00     0.142 A 
ATOM      6  C   UNL     1     -10.063  -6.110  -7.751  1.00  0.00     0.018 A 
ATOM      7  C   UNL     1      -9.506  -5.446  -8.850  1.00  0.00     0.019 A 
ATOM      8  C   UNL     1      -9.337  -4.063  -8.798  1.00  0.00     0.094 A 
ATOM      9  C   UNL     1      -9.729  -3.373  -7.647  1.00  0.00     0.336 A 
ATOM     10  O   UNL     1      -9.585  -2.124  -7.583  1.00  0.00    -0.246 OA
ATOM     11  O   UNL     1     -10.257  -4.028  -6.616  1.00  0.00    -0.423 OA
ENDROOT
BRANCH   3  12
ATOM     12  O   UNL     1     -11.741  -8.016  -4.408  1.00  0.00    -0.508 OA
ATOM     13  H   UNL     1     -12.696  -7.839  -4.119  1.00  0.00     0.293 HD
ENDBRANCH   3  12
TORSDOF 1
ENDMDL
MODEL 9
REMARK VINA RESULT:    -5.255      3.143      5.041
REMARK INTER + INTRA:          -5.408
REMARK INTER:                  -5.408
REMARK INTRA:                   0.000
REMARK UNBOUND:                 0.000
REMARK SMILES O=c1ccc2ccc(O)cc2o1
REMARK SMILES IDX 6 1 7 2 8 3 10 4 11 5 5 6 4 7 3 8 2 9 1 10 12 11 9 12
REMARK H PARENT 9 13
REMARK Flexibility Score: inf
ROOT
ATOM      1  C   UNL     1      -9.115  -2.942  -8.447  1.00  0.00     0.016 A 
ATOM      2  C   UNL     1      -8.982  -4.322  -8.265  1.00  0.00     0.047 A 
ATOM      3  C   UNL     1      -9.972  -5.196  -8.729  1.00  0.00     0.119 A 
ATOM      4  C   UNL     1     -11.105  -4.686  -9.381  1.00  0.00     0.094 A 
ATOM      5  C   UNL     1     -11.247  -3.307  -9.568  1.00  0.00     0.142 A 
ATOM      6  C   UNL     1     -10.244  -2.430  -9.099  1.00  0.00     0.018 A 
ATOM      7  C   UNL     1     -10.414  -1.056  -9.301  1.00  0.00     0.019 A 
ATOM      8  C   UNL     1     -11.557  -0.597  -9.954  1.00  0.00     0.094 A 
ATOM      9  C   UNL     1     -12.507  -1.524 -10.392  1.00  0.00     0.336 A 
ATOM     10  O   UNL     1     -13.545  -1.129 -10.985  1.00  0.00    -0.246 OA
ATOM     11  O   UNL     1     -12.322  -2.826 -10.188  1.00  0.00    -0.423 OA
ENDROOT
BRANCH   3  12
ATOM     12  O   UNL     1      -9.823  -6.568  -8.537  1.00  0.00    -0.508 OA
ATOM     13  H   UNL     1     -10.620  -7.168  -8.358  1.00  0.00     0.293 HD
ENDBRANCH   3  12
TORSDOF 1
ENDMDL
