MODEL 1
REMARK VINA RESULT:    -5.623      0.000      0.000
REMARK INTER + INTRA:         -11.271
REMARK INTER:                 -10.553
REMARK INTRA:                  -0.717
REMARK UNBOUND:                -0.717
REMARK SMILES CCCCCCCCC=CCCCCCCCC(=O)[O-]
REMARK SMILES IDX 10 1 9 2 11 3 12 4 13 5 14 6 15 7 16 8 17 9 18 10 19 11
REMARK SMILES IDX 20 12 8 13 7 14 6 15 5 16 4 17 3 18 2 19 1 20
REMARK H PARENT
REMARK Flexibility Score: inf
ROOT
ATOM      1  C   UNL     1       8.533 -22.100  20.814  1.00  0.00    -0.031 C 
ATOM      2  C   UNL     1       9.669 -21.389  20.862  1.00  0.00    -0.031 C 
ENDROOT
BRANCH   1   3
ATOM      3  C   UNL     1       7.184 -21.432  20.779  1.00  0.00     0.027 C 
BRANCH   3   4
ATOM      4  C   UNL     1       7.288 -19.913  20.584  1.00  0.00     0.004 C 
BRANCH   4   5
ATOM      5  C   UNL     1       6.425 -19.139  21.594  1.00  0.00     0.000 C 
BRANCH   5   6
ATOM      6  C   UNL     1       7.237 -18.135  22.431  1.00  0.00     0.000 C 
BRANCH   6   7
ATOM      7  C   UNL     1       6.561 -16.769  22.655  1.00  0.00     0.000 C 
BRANCH   7   8
ATOM      8  C   UNL     1       6.552 -15.828  21.434  1.00  0.00     0.006 C 
BRANCH   8   9
ATOM      9  C   UNL     1       5.144 -15.392  20.990  1.00  0.00     0.053 C 
BRANCH   9  10
ATOM     10  C   UNL     1       4.083 -15.777  21.976  1.00  0.00     0.041 C 
ATOM     11  O   UNL     1       3.836 -15.038  22.964  1.00  0.00    -0.550 OA
ATOM     12  O   UNL     1       3.391 -16.972  21.824  1.00  0.00    -0.550 OA
ENDBRANCH   9  10
ENDBRANCH   8   9
ENDBRANCH   7   8
ENDBRANCH   6   7
ENDBRANCH   5   6
ENDBRANCH   4   5
ENDBRANCH   3   4
ENDBRANCH   1   3
BRANCH   2  13
ATOM     13  C   UNL     1      11.015 -22.058  20.907  1.00  0.00     0.027 C 
BRANCH  13  14
ATOM     14  C   UNL     1      10.900 -23.501  21.420  1.00  0.00     0.004 C 
BRANCH  14  15
ATOM     15  C   UNL     1      12.023 -23.868  22.403  1.00  0.00     0.000 C 
BRANCH  15  16
ATOM     16  C   UNL     1      11.617 -25.000  23.365  1.00  0.00     0.000 C 
BRANCH  16  17
ATOM     17  C   UNL     1      12.726 -25.340  24.373  1.00  0.00    -0.000 C 
BRANCH  17  18
ATOM     18  C   UNL     1      12.243 -25.260  25.831  1.00  0.00    -0.000 C 
BRANCH  18  19
ATOM     19  C   UNL     1      12.785 -26.408  26.696  1.00  0.00    -0.003 C 
ATOM     20  C   UNL     1      14.164 -26.887  26.245  1.00  0.00     0.004 C 
ENDBRANCH  18  19
ENDBRANCH  17  18
ENDBRANCH  16  17
ENDBRANCH  15  16
ENDBRANCH  14  15
ENDBRANCH  13  14
ENDBRANCH   2  13
TORSDOF 15
ENDMDL
MODEL 2
REMARK VINA RESULT:    -5.607      1.952      3.767
REMARK INTER + INTRA:         -11.241
REMARK INTER:                  -9.888
REMARK INTRA:                  -1.353
REMARK UNBOUND:                -0.717
REMARK SMILES CCCCCCCCC=CCCCCCCCC(=O)[O-]
REMARK SMILES IDX 10 1 9 2 11 3 12 4 13 5 14 6 15 7 16 8 17 9 18 10 19 11
REMARK SMILES IDX 20 12 8 13 7 14 6 15 5 16 4 17 3 18 2 19 1 20
REMARK H PARENT
REMARK Flexibility Score: inf
ROOT
ATOM      1  C   UNL     1      11.106 -23.721  21.783  1.00  0.00    -0.031 C 
ATOM      2  C   UNL     1      11.954 -24.003  22.783  1.00  0.00    -0.031 C 
ENDROOT
BRANCH   1   3
ATOM      3  C   UNL     1      11.123 -22.387  21.085  1.00  0.00     0.027 C 
BRANCH   3   4
ATOM      4  C   UNL     1       9.889 -22.176  20.195  1.00  0.00     0.004 C 
BRANCH   4   5
ATOM      5  C   UNL     1       8.604 -22.710  20.852  1.00  0.00     0.000 C 
BRANCH   5   6
ATOM      6  C   UNL     1       7.462 -21.678  20.859  1.00  0.00     0.000 C 
BRANCH   6   7
ATOM      7  C   UNL     1       7.908 -20.205  20.790  1.00  0.00     0.000 C 
BRANCH   7   8
ATOM      8  C   UNL     1       6.955 -19.194  21.457  1.00  0.00     0.006 C 
BRANCH   8   9
ATOM      9  C   UNL     1       6.883 -17.833  20.739  1.00  0.00     0.053 C 
BRANCH   9  10
ATOM     10  C   UNL     1       6.782 -16.683  21.693  1.00  0.00     0.041 C 
ATOM     11  O   UNL     1       6.922 -16.869  22.930  1.00  0.00    -0.550 OA
ATOM     12  O   UNL     1       6.495 -15.408  21.221  1.00  0.00    -0.550 OA
ENDBRANCH   9  10
ENDBRANCH   8   9
ENDBRANCH   7   8
ENDBRANCH   6   7
ENDBRANCH   5   6
ENDBRANCH   4   5
ENDBRANCH   3   4
ENDBRANCH   1   3
BRANCH   2  13
ATOM     13  C   UNL     1      11.929 -25.333  23.485  1.00  0.00     0.027 C 
BRANCH  13  14
ATOM     14  C   UNL     1      11.799 -25.155  25.005  1.00  0.00     0.004 C 
BRANCH  14  15
ATOM     15  C   UNL     1      12.977 -25.773  25.774  1.00  0.00     0.000 C 
BRANCH  15  16
ATOM     16  C   UNL     1      14.142 -26.170  24.848  1.00  0.00     0.000 C 
BRANCH  16  17
ATOM     17  C   UNL     1      15.304 -25.165  24.903  1.00  0.00    -0.000 C 
BRANCH  17  18
ATOM     18  C   UNL     1      15.000 -23.959  25.808  1.00  0.00    -0.000 C 
BRANCH  18  19
ATOM     19  C   UNL     1      14.860 -22.649  25.016  1.00  0.00    -0.003 C 
ATOM     20  C   UNL     1      13.772 -21.735  25.577  1.00  0.00     0.004 C 
ENDBRANCH  18  19
ENDBRANCH  17  18
ENDBRANCH  16  17
ENDBRANCH  15  16
ENDBRANCH  14  15
ENDBRANCH  13  14
ENDBRANCH   2  13
TORSDOF 15
ENDMDL
MODEL 3
REMARK VINA RESULT:    -5.541      2.511      5.209
REMARK INTER + INTRA:         -11.117
REMARK INTER:                  -9.362
REMARK INTRA:                  -1.755
REMARK UNBOUND:                -0.717
REMARK SMILES CCCCCCCCC=CCCCCCCCC(=O)[O-]
REMARK SMILES IDX 10 1 9 2 11 3 12 4 13 5 14 6 15 7 16 8 17 9 18 10 19 11
REMARK SMILES IDX 20 12 8 13 7 14 6 15 5 16 4 17 3 18 2 19 1 20
REMARK H PARENT
REMARK Flexibility Score: inf
ROOT
ATOM      1  C   UNL     1       6.629 -16.790  21.094  1.00  0.00    -0.031 C 
ATOM      2  C   UNL     1       5.879 -17.732  20.504  1.00  0.00    -0.031 C 
ENDROOT
BRANCH   1   3
ATOM      3  C   UNL     1       6.009 -15.615  21.803  1.00  0.00     0.027 C 
BRANCH   3   4
ATOM      4  C   UNL     1       4.556 -15.369  21.368  1.00  0.00     0.004 C 
BRANCH   4   5
ATOM      5  C   UNL     1       3.573 -15.480  22.545  1.00  0.00     0.000 C 
BRANCH   5   6
ATOM      6  C   UNL     1       2.560 -16.627  22.373  1.00  0.00     0.000 C 
BRANCH   6   7
ATOM      7  C   UNL     1       3.149 -18.045  22.490  1.00  0.00     0.000 C 
BRANCH   7   8
ATOM      8  C   UNL     1       3.669 -18.432  23.888  1.00  0.00     0.006 C 
BRANCH   8   9
ATOM      9  C   UNL     1       5.090 -19.026  23.886  1.00  0.00     0.053 C 
BRANCH   9  10
ATOM     10  C   UNL     1       6.048 -18.232  24.720  1.00  0.00     0.041 C 
ATOM     11  O   UNL     1       7.234 -18.059  24.334  1.00  0.00    -0.550 OA
ATOM     12  O   UNL     1       5.644 -17.713  25.944  1.00  0.00    -0.550 OA
ENDBRANCH   9  10
ENDBRANCH   8   9
ENDBRANCH   7   8
ENDBRANCH   6   7
ENDBRANCH   5   6
ENDBRANCH   4   5
ENDBRANCH   3   4
ENDBRANCH   1   3
BRANCH   2  13
ATOM     13  C   UNL     1       6.501 -18.899  19.788  1.00  0.00     0.027 C 
BRANCH  13  14
ATOM     14  C   UNL     1       6.881 -20.015  20.772  1.00  0.00     0.004 C 
BRANCH  14  15
ATOM     15  C   UNL     1       8.391 -20.060  21.058  1.00  0.00     0.000 C 
BRANCH  15  16
ATOM     16  C   UNL     1       9.033 -21.389  20.623  1.00  0.00     0.000 C 
BRANCH  16  17
ATOM     17  C   UNL     1      10.531 -21.243  20.311  1.00  0.00    -0.000 C 
BRANCH  17  18
ATOM     18  C   UNL     1      11.422 -21.953  21.344  1.00  0.00    -0.000 C 
BRANCH  18  19
ATOM     19  C   UNL     1      11.162 -23.466  21.406  1.00  0.00    -0.003 C 
ATOM     20  C   UNL     1      12.076 -24.182  22.398  1.00  0.00     0.004 C 
ENDBRANCH  18  19
ENDBRANCH  17  18
ENDBRANCH  16  17
ENDBRANCH  15  16
ENDBRANCH  14  15
ENDBRANCH  13  14
ENDBRANCH   2  13
TORSDOF 15
ENDMDL
MODEL 4
REMARK VINA RESULT:    -5.535      9.520     11.195
REMARK INTER + INTRA:         -11.106
REMARK INTER:                  -9.070
REMARK INTRA:                  -2.036
REMARK UNBOUND:                -0.717
REMARK SMILES CCCCCCCCC=CCCCCCCCC(=O)[O-]
REMARK SMILES IDX 10 1 9 2 11 3 12 4 13 5 14 6 15 7 16 8 17 9 18 10 19 11
REMARK SMILES IDX 20 12 8 13 7 14 6 15 5 16 4 17 3 18 2 19 1 20
REMARK H PARENT
REMARK Flexibility Score: inf
ROOT
ATOM      1  C   UNL     1      11.705 -13.359  26.656  1.00  0.00    -0.031 C 
ATOM      2  C   UNL     1      12.086 -12.866  27.843  1.00  0.00    -0.031 C 
ENDROOT
BRANCH   1   3
ATOM      3  C   UNL     1      11.436 -12.462  25.477  1.00  0.00     0.027 C 
BRANCH   3   4
ATOM      4  C   UNL     1      12.633 -11.560  25.143  1.00  0.00     0.004 C 
BRANCH   4   5
ATOM      5  C   UNL     1      13.590 -12.218  24.135  1.00  0.00     0.000 C 
BRANCH   5   6
ATOM      6  C   UNL     1      14.961 -12.560  24.745  1.00  0.00     0.000 C 
BRANCH   6   7
ATOM      7  C   UNL     1      15.386 -14.035  24.616  1.00  0.00     0.000 C 
BRANCH   7   8
ATOM      8  C   UNL     1      15.056 -14.927  25.829  1.00  0.00     0.006 C 
BRANCH   8   9
ATOM      9  C   UNL     1      14.361 -16.251  25.463  1.00  0.00     0.053 C 
BRANCH   9  10
ATOM     10  C   UNL     1      15.229 -17.446  25.709  1.00  0.00     0.041 C 
ATOM     11  O   UNL     1      16.081 -17.432  26.635  1.00  0.00    -0.550 OA
ATOM     12  O   UNL     1      15.125 -18.565  24.891  1.00  0.00    -0.550 OA
ENDBRANCH   9  10
ENDBRANCH   8   9
ENDBRANCH   7   8
ENDBRANCH   6   7
ENDBRANCH   5   6
ENDBRANCH   4   5
ENDBRANCH   3   4
ENDBRANCH   1   3
BRANCH   2  13
ATOM     13  C   UNL     1      12.344 -13.764  29.022  1.00  0.00     0.027 C 
BRANCH  13  14
ATOM     14  C   UNL     1      12.718 -15.182  28.567  1.00  0.00     0.004 C 
BRANCH  14  15
ATOM     15  C   UNL     1      13.843 -15.797  29.416  1.00  0.00     0.000 C 
BRANCH  15  16
ATOM     16  C   UNL     1      13.598 -15.631  30.927  1.00  0.00     0.000 C 
BRANCH  16  17
ATOM     17  C   UNL     1      13.231 -16.957  31.611  1.00  0.00    -0.000 C 
BRANCH  17  18
ATOM     18  C   UNL     1      11.713 -17.204  31.645  1.00  0.00    -0.000 C 
BRANCH  18  19
ATOM     19  C   UNL     1      10.906 -15.900  31.739  1.00  0.00    -0.003 C 
ATOM     20  C   UNL     1       9.862 -15.932  32.855  1.00  0.00     0.004 C 
ENDBRANCH  18  19
ENDBRANCH  17  18
ENDBRANCH  16  17
ENDBRANCH  15  16
ENDBRANCH  14  15
ENDBRANCH  13  14
ENDBRANCH   2  13
TORSDOF 15
ENDMDL
MODEL 5
REMARK VINA RESULT:    -5.520      9.255     10.609
REMARK INTER + INTRA:         -11.078
REMARK INTER:                  -9.628
REMARK INTRA:                  -1.450
REMARK UNBOUND:                -0.717
REMARK SMILES CCCCCCCCC=CCCCCCCCC(=O)[O-]
REMARK SMILES IDX 10 1 9 2 11 3 12 4 13 5 14 6 15 7 16 8 17 9 18 10 19 11
REMARK SMILES IDX 20 12 8 13 7 14 6 15 5 16 4 17 3 18 2 19 1 20
REMARK H PARENT
REMARK Flexibility Score: inf
ROOT
ATOM      1  C   UNL     1      12.522 -15.961  29.738  1.00  0.00    -0.031 C 
ATOM      2  C   UNL     1      12.692 -15.399  30.944  1.00  0.00    -0.031 C 
ENDROOT
BRANCH   1   3
ATOM      3  C   UNL     1      13.012 -15.295  28.480  1.00  0.00     0.027 C 
BRANCH   3   4
ATOM      4  C   UNL     1      13.669 -13.935  28.756  1.00  0.00     0.004 C 
BRANCH   4   5
ATOM      5  C   UNL     1      12.779 -12.761  28.313  1.00  0.00     0.000 C 
BRANCH   5   6
ATOM      6  C   UNL     1      11.654 -13.191  27.355  1.00  0.00     0.000 C 
BRANCH   6   7
ATOM      7  C   UNL     1      11.722 -12.575  25.945  1.00  0.00     0.000 C 
BRANCH   7   8
ATOM      8  C   UNL     1      13.106 -12.045  25.522  1.00  0.00     0.006 C 
BRANCH   8   9
ATOM      9  C   UNL     1      13.826 -12.931  24.488  1.00  0.00     0.053 C 
BRANCH   9  10
ATOM     10  C   UNL     1      14.318 -14.219  25.074  1.00  0.00     0.041 C 
ATOM     11  O   UNL     1      15.414 -14.258  25.692  1.00  0.00    -0.550 OA
ATOM     12  O   UNL     1      13.583 -15.386  24.908  1.00  0.00    -0.550 OA
ENDBRANCH   9  10
ENDBRANCH   8   9
ENDBRANCH   7   8
ENDBRANCH   6   7
ENDBRANCH   5   6
ENDBRANCH   4   5
ENDBRANCH   3   4
ENDBRANCH   1   3
BRANCH   2  13
ATOM     13  C   UNL     1      12.192 -16.061  32.199  1.00  0.00     0.027 C 
BRANCH  13  14
ATOM     14  C   UNL     1      10.661 -15.985  32.294  1.00  0.00     0.004 C 
BRANCH  14  15
ATOM     15  C   UNL     1      10.026 -17.332  32.671  1.00  0.00     0.000 C 
BRANCH  15  16
ATOM     16  C   UNL     1      10.907 -18.530  32.274  1.00  0.00     0.000 C 
BRANCH  16  17
ATOM     17  C   UNL     1      10.084 -19.712  31.738  1.00  0.00    -0.000 C 
BRANCH  17  18
ATOM     18  C   UNL     1      10.132 -20.936  32.670  1.00  0.00    -0.000 C 
BRANCH  18  19
ATOM     19  C   UNL     1       9.316 -22.120  32.129  1.00  0.00    -0.003 C 
ATOM     20  C   UNL     1       9.923 -23.472  32.499  1.00  0.00     0.004 C 
ENDBRANCH  18  19
ENDBRANCH  17  18
ENDBRANCH  16  17
ENDBRANCH  15  16
ENDBRANCH  14  15
ENDBRANCH  13  14
ENDBRANCH   2  13
TORSDOF 15
ENDMDL
MODEL 6
REMARK VINA RESULT:    -5.506      9.496     12.208
REMARK INTER + INTRA:         -11.052
REMARK INTER:                  -9.681
REMARK INTRA:                  -1.371
REMARK UNBOUND:                -0.717
REMARK SMILES CCCCCCCCC=CCCCCCCCC(=O)[O-]
REMARK SMILES IDX 10 1 9 2 11 3 12 4 13 5 14 6 15 7 16 8 17 9 18 10 19 11
REMARK SMILES IDX 20 12 8 13 7 14 6 15 5 16 4 17 3 18 2 19 1 20
REMARK H PARENT
REMARK Flexibility Score: inf
ROOT
ATOM      1  C   UNL     1      13.459 -15.660  30.927  1.00  0.00    -0.031 C 
ATOM      2  C   UNL     1      13.961 -15.490  29.695  1.00  0.00    -0.031 C 
ENDROOT
BRANCH   1   3
ATOM      3  C   UNL     1      13.544 -16.985  31.639  1.00  0.00     0.027 C 
BRANCH   3   4
ATOM      4  C   UNL     1      12.200 -17.727  31.657  1.00  0.00     0.004 C 
BRANCH   4   5
ATOM      5  C   UNL     1      11.021 -16.782  31.944  1.00  0.00     0.000 C 
BRANCH   5   6
ATOM      6  C   UNL     1       9.867 -17.473  32.693  1.00  0.00     0.000 C 
BRANCH   6   7
ATOM      7  C   UNL     1      10.190 -18.873  33.247  1.00  0.00     0.000 C 
BRANCH   7   8
ATOM      8  C   UNL     1       9.506 -20.046  32.520  1.00  0.00     0.006 C 
BRANCH   8   9
ATOM      9  C   UNL     1      10.055 -21.431  32.910  1.00  0.00     0.053 C 
BRANCH   9  10
ATOM     10  C   UNL     1       9.864 -22.453  31.832  1.00  0.00     0.041 C 
ATOM     11  O   UNL     1       9.736 -22.093  30.632  1.00  0.00    -0.550 OA
ATOM     12  O   UNL     1       9.789 -23.802  32.154  1.00  0.00    -0.550 OA
ENDBRANCH   9  10
ENDBRANCH   8   9
ENDBRANCH   7   8
ENDBRANCH   6   7
ENDBRANCH   5   6
ENDBRANCH   4   5
ENDBRANCH   3   4
ENDBRANCH   1   3
BRANCH   2  13
ATOM     13  C   UNL     1      13.866 -14.169  28.982  1.00  0.00     0.027 C 
BRANCH  13  14
ATOM     14  C   UNL     1      12.449 -13.585  29.083  1.00  0.00     0.004 C 
BRANCH  14  15
ATOM     15  C   UNL     1      12.126 -12.617  27.934  1.00  0.00     0.000 C 
BRANCH  15  16
ATOM     16  C   UNL     1      13.164 -12.684  26.799  1.00  0.00     0.000 C 
BRANCH  16  17
ATOM     17  C   UNL     1      12.619 -13.390  25.546  1.00  0.00    -0.000 C 
BRANCH  17  18
ATOM     18  C   UNL     1      11.616 -14.505  25.886  1.00  0.00    -0.000 C 
BRANCH  18  19
ATOM     19  C   UNL     1      12.276 -15.891  25.955  1.00  0.00    -0.003 C 
ATOM     20  C   UNL     1      13.568 -15.970  25.144  1.00  0.00     0.004 C 
ENDBRANCH  18  19
ENDBRANCH  17  18
ENDBRANCH  16  17
ENDBRANCH  15  16
ENDBRANCH  14  15
ENDBRANCH  13  14
ENDBRANCH   2  13
TORSDOF 15
ENDMDL
MODEL 7
REMARK VINA RESULT:    -5.494      9.670     11.873
REMARK INTER + INTRA:         -11.029
REMARK INTER:                  -9.071
REMARK INTRA:                  -1.958
REMARK UNBOUND:                -0.717
REMARK SMILES CCCCCCCCC=CCCCCCCCC(=O)[O-]
REMARK SMILES IDX 10 1 9 2 11 3 12 4 13 5 14 6 15 7 16 8 17 9 18 10 19 11
REMARK SMILES IDX 20 12 8 13 7 14 6 15 5 16 4 17 3 18 2 19 1 20
REMARK H PARENT
REMARK Flexibility Score: inf
ROOT
ATOM      1  C   UNL     1      12.010 -15.054  29.697  1.00  0.00    -0.031 C 
ATOM      2  C   UNL     1      12.560 -13.995  29.086  1.00  0.00    -0.031 C 
ENDROOT
BRANCH   1   3
ATOM      3  C   UNL     1      12.815 -15.955  30.595  1.00  0.00     0.027 C 
BRANCH   3   4
ATOM      4  C   UNL     1      12.276 -15.981  32.033  1.00  0.00     0.004 C 
BRANCH   4   5
ATOM      5  C   UNL     1      10.795 -15.575  32.103  1.00  0.00     0.000 C 
BRANCH   5   6
ATOM      6  C   UNL     1       9.900 -16.673  32.706  1.00  0.00     0.000 C 
BRANCH   6   7
ATOM      7  C   UNL     1      10.369 -18.117  32.446  1.00  0.00     0.000 C 
BRANCH   7   8
ATOM      8  C   UNL     1       9.826 -19.175  33.426  1.00  0.00     0.006 C 
BRANCH   8   9
ATOM      9  C   UNL     1      10.547 -20.533  33.344  1.00  0.00     0.053 C 
BRANCH   9  10
ATOM     10  C   UNL     1       9.733 -21.577  32.642  1.00  0.00     0.041 C 
ATOM     11  O   UNL     1       9.073 -22.419  33.305  1.00  0.00    -0.550 OA
ATOM     12  O   UNL     1       9.731 -21.644  31.255  1.00  0.00    -0.550 OA
ENDBRANCH   9  10
ENDBRANCH   8   9
ENDBRANCH   7   8
ENDBRANCH   6   7
ENDBRANCH   5   6
ENDBRANCH   4   5
ENDBRANCH   3   4
ENDBRANCH   1   3
BRANCH   2  13
ATOM     13  C   UNL     1      11.756 -13.102  28.181  1.00  0.00     0.027 C 
BRANCH  13  14
ATOM     14  C   UNL     1      12.141 -13.312  26.709  1.00  0.00     0.004 C 
BRANCH  14  15
ATOM     15  C   UNL     1      11.421 -14.514  26.078  1.00  0.00     0.000 C 
BRANCH  15  16
ATOM     16  C   UNL     1      12.393 -15.636  25.670  1.00  0.00     0.000 C 
BRANCH  16  17
ATOM     17  C   UNL     1      13.865 -15.236  25.861  1.00  0.00    -0.000 C 
BRANCH  17  18
ATOM     18  C   UNL     1      14.614 -16.178  26.818  1.00  0.00    -0.000 C 
BRANCH  18  19
ATOM     19  C   UNL     1      15.591 -15.430  27.738  1.00  0.00    -0.003 C 
ATOM     20  C   UNL     1      15.833 -13.989  27.292  1.00  0.00     0.004 C 
ENDBRANCH  18  19
ENDBRANCH  17  18
ENDBRANCH  16  17
ENDBRANCH  15  16
ENDBRANCH  14  15
ENDBRANCH  13  14
ENDBRANCH   2  13
TORSDOF 15
ENDMDL
MODEL 8
REMARK VINA RESULT:    -5.488      9.205     10.660
REMARK INTER + INTRA:         -11.018
REMARK INTER:                  -9.885
REMARK INTRA:                  -1.133
REMARK UNBOUND:                -0.717
REMARK SMILES CCCCCCCCC=CCCCCCCCC(=O)[O-]
REMARK SMILES IDX 10 1 9 2 11 3 12 4 13 5 14 6 15 7 16 8 17 9 18 10 19 11
REMARK SMILES IDX 20 12 8 13 7 14 6 15 5 16 4 17 3 18 2 19 1 20
REMARK H PARENT
REMARK Flexibility Score: inf
ROOT
ATOM      1  C   UNL     1      12.229 -16.665  31.819  1.00  0.00    -0.031 C 
ATOM      2  C   UNL     1      11.158 -16.043  32.333  1.00  0.00    -0.031 C 
ENDROOT
BRANCH   1   3
ATOM      3  C   UNL     1      13.464 -15.906  31.411  1.00  0.00     0.027 C 
BRANCH   3   4
ATOM      4  C   UNL     1      13.622 -15.822  29.886  1.00  0.00     0.004 C 
BRANCH   4   5
ATOM      5  C   UNL     1      13.717 -14.369  29.393  1.00  0.00     0.000 C 
BRANCH   5   6
ATOM      6  C   UNL     1      12.354 -13.785  28.980  1.00  0.00     0.000 C 
BRANCH   6   7
ATOM      7  C   UNL     1      12.393 -12.800  27.798  1.00  0.00     0.000 C 
BRANCH   7   8
ATOM      8  C   UNL     1      11.565 -13.213  26.565  1.00  0.00     0.006 C 
BRANCH   8   9
ATOM      9  C   UNL     1      11.570 -14.727  26.286  1.00  0.00     0.053 C 
BRANCH   9  10
ATOM     10  C   UNL     1      12.896 -15.218  25.788  1.00  0.00     0.041 C 
ATOM     11  O   UNL     1      13.484 -16.163  26.375  1.00  0.00    -0.550 OA
ATOM     12  O   UNL     1      13.502 -14.606  24.698  1.00  0.00    -0.550 OA
ENDBRANCH   9  10
ENDBRANCH   8   9
ENDBRANCH   7   8
ENDBRANCH   6   7
ENDBRANCH   5   6
ENDBRANCH   4   5
ENDBRANCH   3   4
ENDBRANCH   1   3
BRANCH   2  13
ATOM     13  C   UNL     1       9.922 -16.802  32.731  1.00  0.00     0.027 C 
BRANCH  13  14
ATOM     14  C   UNL     1      10.067 -18.299  32.421  1.00  0.00     0.004 C 
BRANCH  14  15
ATOM     15  C   UNL     1       9.573 -19.190  33.571  1.00  0.00     0.000 C 
BRANCH  15  16
ATOM     16  C   UNL     1      10.372 -20.501  33.687  1.00  0.00     0.000 C 
BRANCH  16  17
ATOM     17  C   UNL     1      10.059 -21.482  32.546  1.00  0.00    -0.000 C 
BRANCH  17  18
ATOM     18  C   UNL     1       8.648 -22.085  32.655  1.00  0.00    -0.000 C 
BRANCH  18  19
ATOM     19  C   UNL     1       8.650 -23.615  32.519  1.00  0.00    -0.003 C 
ATOM     20  C   UNL     1      10.041 -24.181  32.242  1.00  0.00     0.004 C 
ENDBRANCH  18  19
ENDBRANCH  17  18
ENDBRANCH  16  17
ENDBRANCH  15  16
ENDBRANCH  14  15
ENDBRANCH  13  14
ENDBRANCH   2  13
TORSDOF 15
ENDMDL
MODEL 9
REMARK VINA RESULT:    -5.486      9.481     11.833
REMARK INTER + INTRA:         -11.014
REMARK INTER:                  -9.077
REMARK INTRA:                  -1.937
REMARK UNBOUND:                -0.717
REMARK SMILES CCCCCCCCC=CCCCCCCCC(=O)[O-]
REMARK SMILES IDX 10 1 9 2 11 3 12 4 13 5 14 6 15 7 16 8 17 9 18 10 19 11
REMARK SMILES IDX 20 12 8 13 7 14 6 15 5 16 4 17 3 18 2 19 1 20
REMARK H PARENT
REMARK Flexibility Score: inf
ROOT
ATOM      1  C   UNL     1      13.864 -14.754  29.465  1.00  0.00    -0.031 C 
ATOM      2  C   UNL     1      12.627 -14.257  29.321  1.00  0.00    -0.031 C 
ENDROOT
BRANCH   1   3
ATOM      3  C   UNL     1      14.114 -16.065  30.162  1.00  0.00     0.027 C 
BRANCH   3   4
ATOM      4  C   UNL     1      13.518 -16.097  31.577  1.00  0.00     0.004 C 
BRANCH   4   5
ATOM      5  C   UNL     1      12.328 -17.065  31.682  1.00  0.00     0.000 C 
BRANCH   5   6
ATOM      6  C   UNL     1      11.009 -16.356  32.042  1.00  0.00     0.000 C 
BRANCH   6   7
ATOM      7  C   UNL     1       9.978 -17.228  32.784  1.00  0.00     0.000 C 
BRANCH   7   8
ATOM      8  C   UNL     1      10.391 -18.696  33.006  1.00  0.00     0.006 C 
BRANCH   8   9
ATOM      9  C   UNL     1       9.206 -19.679  33.057  1.00  0.00     0.053 C 
BRANCH   9  10
ATOM     10  C   UNL     1       8.827 -20.196  31.702  1.00  0.00     0.041 C 
ATOM     11  O   UNL     1       7.729 -20.788  31.534  1.00  0.00    -0.550 OA
ATOM     12  O   UNL     1       9.703 -20.058  30.633  1.00  0.00    -0.550 OA
ENDBRANCH   9  10
ENDBRANCH   8   9
ENDBRANCH   7   8
ENDBRANCH   6   7
ENDBRANCH   5   6
ENDBRANCH   4   5
ENDBRANCH   3   4
ENDBRANCH   1   3
BRANCH   2  13
ATOM     13  C   UNL     1      12.381 -12.943  28.633  1.00  0.00     0.027 C 
BRANCH  13  14
ATOM     14  C   UNL     1      11.562 -13.134  27.348  1.00  0.00     0.004 C 
BRANCH  14  15
ATOM     15  C   UNL     1      12.343 -12.738  26.085  1.00  0.00     0.000 C 
BRANCH  15  16
ATOM     16  C   UNL     1      13.836 -12.495  26.369  1.00  0.00     0.000 C 
BRANCH  16  17
ATOM     17  C   UNL     1      14.749 -13.388  25.515  1.00  0.00    -0.000 C 
BRANCH  17  18
ATOM     18  C   UNL     1      14.005 -14.593  24.915  1.00  0.00    -0.000 C 
BRANCH  18  19
ATOM     19  C   UNL     1      14.183 -15.871  25.749  1.00  0.00    -0.003 C 
ATOM     20  C   UNL     1      12.852 -16.490  26.172  1.00  0.00     0.004 C 
ENDBRANCH  18  19
ENDBRANCH  17  18
ENDBRANCH  16  17
ENDBRANCH  15  16
ENDBRANCH  14  15
ENDBRANCH  13  14
ENDBRANCH   2  13
TORSDOF 15
ENDMDL
