MODEL 1
REMARK VINA RESULT:    -5.084      0.000      0.000
REMARK INTER + INTRA:         -11.288
REMARK INTER:                  -9.838
REMARK INTRA:                  -1.449
REMARK UNBOUND:                -1.449
REMARK SMILES CCCCCCCCCCCCCCCCCC(=O)[O-]
REMARK SMILES IDX 10 1 11 2 12 3 13 4 14 5 15 6 16 7 17 8 18 9 19 10 20 11
REMARK SMILES IDX 9 12 8 13 7 14 6 15 5 16 4 17 3 18 2 19 1 20
REMARK H PARENT
REMARK Flexibility Score: inf
ROOT
ATOM      1  C   UNL     1    -130.874 109.569  39.546  1.00  0.00     0.000 C 
ENDROOT
BRANCH   1   2
ATOM      2  C   UNL     1    -129.494 110.218  39.371  1.00  0.00     0.000 C 
BRANCH   2   3
ATOM      3  C   UNL     1    -129.508 111.676  39.852  1.00  0.00     0.000 C 
BRANCH   3   4
ATOM      4  C   UNL     1    -129.796 111.801  41.356  1.00  0.00     0.000 C 
BRANCH   4   5
ATOM      5  C   UNL     1    -130.175 113.233  41.769  1.00  0.00     0.000 C 
BRANCH   5   6
ATOM      6  C   UNL     1    -129.654 113.602  43.168  1.00  0.00     0.000 C 
BRANCH   6   7
ATOM      7  C   UNL     1    -129.683 115.119  43.426  1.00  0.00     0.006 C 
BRANCH   7   8
ATOM      8  C   UNL     1    -129.585 115.453  44.921  1.00  0.00     0.053 C 
BRANCH   8   9
ATOM      9  C   UNL     1    -129.837 116.906  45.180  1.00  0.00     0.041 C 
ATOM     10  O   UNL     1    -130.569 117.262  46.141  1.00  0.00    -0.550 OA
ATOM     11  O   UNL     1    -129.237 117.870  44.381  1.00  0.00    -0.550 OA
ENDBRANCH   8   9
ENDBRANCH   7   8
ENDBRANCH   6   7
ENDBRANCH   5   6
ENDBRANCH   4   5
ENDBRANCH   3   4
ENDBRANCH   2   3
ENDBRANCH   1   2
BRANCH   1  12
ATOM     12  C   UNL     1    -130.934 108.127  39.006  1.00  0.00     0.000 C 
BRANCH  12  13
ATOM     13  C   UNL     1    -129.632 107.320  39.168  1.00  0.00    -0.000 C 
BRANCH  13  14
ATOM     14  C   UNL     1    -129.578 106.417  40.415  1.00  0.00    -0.000 C 
BRANCH  14  15
ATOM     15  C   UNL     1    -128.418 106.756  41.376  1.00  0.00    -0.000 C 
BRANCH  15  16
ATOM     16  C   UNL     1    -128.642 108.087  42.114  1.00  0.00    -0.000 C 
BRANCH  16  17
ATOM     17  C   UNL     1    -130.063 108.219  42.685  1.00  0.00    -0.000 C 
BRANCH  17  18
ATOM     18  C   UNL     1    -130.101 108.985  44.015  1.00  0.00    -0.000 C 
BRANCH  18  19
ATOM     19  C   UNL     1    -131.262 108.502  44.892  1.00  0.00    -0.003 C 
ATOM     20  C   UNL     1    -131.004 108.802  46.366  1.00  0.00     0.004 C 
ENDBRANCH  18  19
ENDBRANCH  17  18
ENDBRANCH  16  17
ENDBRANCH  15  16
ENDBRANCH  14  15
ENDBRANCH  13  14
ENDBRANCH  12  13
ENDBRANCH   1  12
TORSDOF 16
ENDMDL
MODEL 2
REMARK VINA RESULT:    -4.982      1.728      3.817
REMARK INTER + INTRA:         -11.091
REMARK INTER:                  -9.811
REMARK INTRA:                  -1.280
REMARK UNBOUND:                -1.449
REMARK SMILES CCCCCCCCCCCCCCCCCC(=O)[O-]
REMARK SMILES IDX 10 1 11 2 12 3 13 4 14 5 15 6 16 7 17 8 18 9 19 10 20 11
REMARK SMILES IDX 9 12 8 13 7 14 6 15 5 16 4 17 3 18 2 19 1 20
REMARK H PARENT
REMARK Flexibility Score: inf
ROOT
ATOM      1  C   UNL     1    -129.374 110.452  43.832  1.00  0.00     0.000 C 
ENDROOT
BRANCH   1   2
ATOM      2  C   UNL     1    -129.369 111.791  43.080  1.00  0.00     0.000 C 
BRANCH   2   3
ATOM      3  C   UNL     1    -128.892 112.931  43.992  1.00  0.00     0.000 C 
BRANCH   3   4
ATOM      4  C   UNL     1    -129.898 114.091  44.065  1.00  0.00     0.000 C 
BRANCH   4   5
ATOM      5  C   UNL     1    -129.723 115.099  42.916  1.00  0.00     0.000 C 
BRANCH   5   6
ATOM      6  C   UNL     1    -129.726 116.557  43.405  1.00  0.00     0.000 C 
BRANCH   6   7
ATOM      7  C   UNL     1    -129.462 116.673  44.916  1.00  0.00     0.006 C 
BRANCH   7   8
ATOM      8  C   UNL     1    -130.205 117.860  45.545  1.00  0.00     0.053 C 
BRANCH   8   9
ATOM      9  C   UNL     1    -131.127 117.419  46.639  1.00  0.00     0.041 C 
ATOM     10  O   UNL     1    -130.930 116.326  47.233  1.00  0.00    -0.550 OA
ATOM     11  O   UNL     1    -132.186 118.230  47.026  1.00  0.00    -0.550 OA
ENDBRANCH   8   9
ENDBRANCH   7   8
ENDBRANCH   6   7
ENDBRANCH   5   6
ENDBRANCH   4   5
ENDBRANCH   3   4
ENDBRANCH   2   3
ENDBRANCH   1   2
BRANCH   1  12
ATOM     12  C   UNL     1    -129.335 109.234  42.890  1.00  0.00     0.000 C 
BRANCH  12  13
ATOM     13  C   UNL     1    -127.940 108.612  42.692  1.00  0.00    -0.000 C 
BRANCH  13  14
ATOM     14  C   UNL     1    -127.925 107.282  41.917  1.00  0.00    -0.000 C 
BRANCH  14  15
ATOM     15  C   UNL     1    -129.317 106.843  41.413  1.00  0.00    -0.000 C 
BRANCH  15  16
ATOM     16  C   UNL     1    -129.308 106.475  39.919  1.00  0.00    -0.000 C 
BRANCH  16  17
ATOM     17  C   UNL     1    -130.052 107.502  39.049  1.00  0.00    -0.000 C 
BRANCH  17  18
ATOM     18  C   UNL     1    -129.519 108.930  39.228  1.00  0.00    -0.000 C 
BRANCH  18  19
ATOM     19  C   UNL     1    -130.666 109.914  39.485  1.00  0.00    -0.003 C 
ATOM     20  C   UNL     1    -131.992 109.363  38.966  1.00  0.00     0.004 C 
ENDBRANCH  18  19
ENDBRANCH  17  18
ENDBRANCH  16  17
ENDBRANCH  15  16
ENDBRANCH  14  15
ENDBRANCH  13  14
ENDBRANCH  12  13
ENDBRANCH   1  12
TORSDOF 16
ENDMDL
MODEL 3
REMARK VINA RESULT:    -4.927      1.473      2.818
REMARK INTER + INTRA:         -10.984
REMARK INTER:                  -9.416
REMARK INTRA:                  -1.568
REMARK UNBOUND:                -1.449
REMARK SMILES CCCCCCCCCCCCCCCCCC(=O)[O-]
REMARK SMILES IDX 10 1 11 2 12 3 13 4 14 5 15 6 16 7 17 8 18 9 19 10 20 11
REMARK SMILES IDX 9 12 8 13 7 14 6 15 5 16 4 17 3 18 2 19 1 20
REMARK H PARENT
REMARK Flexibility Score: inf
ROOT
ATOM      1  C   UNL     1    -130.145 111.347  40.739  1.00  0.00     0.000 C 
ENDROOT
BRANCH   1   2
ATOM      2  C   UNL     1    -129.941 112.756  41.315  1.00  0.00     0.000 C 
BRANCH   2   3
ATOM      3  C   UNL     1    -129.574 112.691  42.805  1.00  0.00     0.000 C 
BRANCH   3   4
ATOM      4  C   UNL     1    -129.723 114.048  43.512  1.00  0.00     0.000 C 
BRANCH   4   5
ATOM      5  C   UNL     1    -129.738 115.229  42.527  1.00  0.00     0.000 C 
BRANCH   5   6
ATOM      6  C   UNL     1    -129.775 116.591  43.239  1.00  0.00     0.000 C 
BRANCH   6   7
ATOM      7  C   UNL     1    -129.640 116.461  44.766  1.00  0.00     0.006 C 
BRANCH   7   8
ATOM      8  C   UNL     1    -130.091 117.734  45.497  1.00  0.00     0.053 C 
BRANCH   8   9
ATOM      9  C   UNL     1    -131.001 117.420  46.644  1.00  0.00     0.041 C 
ATOM     10  O   UNL     1    -130.853 116.354  47.298  1.00  0.00    -0.550 OA
ATOM     11  O   UNL     1    -131.992 118.321  47.013  1.00  0.00    -0.550 OA
ENDBRANCH   8   9
ENDBRANCH   7   8
ENDBRANCH   6   7
ENDBRANCH   5   6
ENDBRANCH   4   5
ENDBRANCH   3   4
ENDBRANCH   2   3
ENDBRANCH   1   2
BRANCH   1  12
ATOM     12  C   UNL     1    -129.307 111.090  39.472  1.00  0.00     0.000 C 
BRANCH  12  13
ATOM     13  C   UNL     1    -129.091 109.604  39.129  1.00  0.00    -0.000 C 
BRANCH  13  14
ATOM     14  C   UNL     1    -130.260 108.674  39.504  1.00  0.00    -0.000 C 
BRANCH  14  15
ATOM     15  C   UNL     1    -130.073 107.218  39.025  1.00  0.00    -0.000 C 
BRANCH  15  16
ATOM     16  C   UNL     1    -129.115 106.425  39.930  1.00  0.00    -0.000 C 
BRANCH  16  17
ATOM     17  C   UNL     1    -129.255 106.797  41.415  1.00  0.00    -0.000 C 
BRANCH  17  18
ATOM     18  C   UNL     1    -127.966 107.388  42.004  1.00  0.00    -0.000 C 
BRANCH  18  19
ATOM     19  C   UNL     1    -128.271 108.631  42.850  1.00  0.00    -0.003 C 
ATOM     20  C   UNL     1    -129.757 108.716  43.191  1.00  0.00     0.004 C 
ENDBRANCH  18  19
ENDBRANCH  17  18
ENDBRANCH  16  17
ENDBRANCH  15  16
ENDBRANCH  14  15
ENDBRANCH  13  14
ENDBRANCH  12  13
ENDBRANCH   1  12
TORSDOF 16
ENDMDL
MODEL 4
REMARK VINA RESULT:    -4.925      1.407      3.621
REMARK INTER + INTRA:         -10.982
REMARK INTER:                  -9.213
REMARK INTRA:                  -1.769
REMARK UNBOUND:                -1.449
REMARK SMILES CCCCCCCCCCCCCCCCCC(=O)[O-]
REMARK SMILES IDX 10 1 11 2 12 3 13 4 14 5 15 6 16 7 17 8 18 9 19 10 20 11
REMARK SMILES IDX 9 12 8 13 7 14 6 15 5 16 4 17 3 18 2 19 1 20
REMARK H PARENT
REMARK Flexibility Score: inf
ROOT
ATOM      1  C   UNL     1    -129.527 108.800  42.926  1.00  0.00     0.000 C 
ENDROOT
BRANCH   1   2
ATOM      2  C   UNL     1    -129.569 110.096  43.748  1.00  0.00     0.000 C 
BRANCH   2   3
ATOM      3  C   UNL     1    -129.380 111.325  42.846  1.00  0.00     0.000 C 
BRANCH   3   4
ATOM      4  C   UNL     1    -129.075 112.603  43.644  1.00  0.00     0.000 C 
BRANCH   4   5
ATOM      5  C   UNL     1    -130.052 113.747  43.323  1.00  0.00     0.000 C 
BRANCH   5   6
ATOM      6  C   UNL     1    -129.449 115.134  43.601  1.00  0.00     0.000 C 
BRANCH   6   7
ATOM      7  C   UNL     1    -129.561 115.539  45.081  1.00  0.00     0.006 C 
BRANCH   7   8
ATOM      8  C   UNL     1    -129.945 117.016  45.249  1.00  0.00     0.053 C 
BRANCH   8   9
ATOM      9  C   UNL     1    -130.733 117.243  46.502  1.00  0.00     0.041 C 
ATOM     10  O   UNL     1    -130.894 118.410  46.947  1.00  0.00    -0.550 OA
ATOM     11  O   UNL     1    -131.319 116.169  47.160  1.00  0.00    -0.550 OA
ENDBRANCH   8   9
ENDBRANCH   7   8
ENDBRANCH   6   7
ENDBRANCH   5   6
ENDBRANCH   4   5
ENDBRANCH   3   4
ENDBRANCH   2   3
ENDBRANCH   1   2
BRANCH   1  12
ATOM     12  C   UNL     1    -128.108 108.436  42.451  1.00  0.00     0.000 C 
BRANCH  12  13
ATOM     13  C   UNL     1    -127.996 107.083  41.724  1.00  0.00    -0.000 C 
BRANCH  13  14
ATOM     14  C   UNL     1    -129.337 106.474  41.272  1.00  0.00    -0.000 C 
BRANCH  14  15
ATOM     15  C   UNL     1    -129.373 106.095  39.776  1.00  0.00    -0.000 C 
BRANCH  15  16
ATOM     16  C   UNL     1    -129.561 107.321  38.867  1.00  0.00    -0.000 C 
BRANCH  16  17
ATOM     17  C   UNL     1    -130.872 108.074  39.146  1.00  0.00    -0.000 C 
BRANCH  17  18
ATOM     18  C   UNL     1    -130.653 109.568  39.422  1.00  0.00    -0.000 C 
BRANCH  18  19
ATOM     19  C   UNL     1    -129.183 109.953  39.214  1.00  0.00    -0.003 C 
ATOM     20  C   UNL     1    -129.018 111.467  39.112  1.00  0.00     0.004 C 
ENDBRANCH  18  19
ENDBRANCH  17  18
ENDBRANCH  16  17
ENDBRANCH  15  16
ENDBRANCH  14  15
ENDBRANCH  13  14
ENDBRANCH  12  13
ENDBRANCH   1  12
TORSDOF 16
ENDMDL
MODEL 5
REMARK VINA RESULT:    -4.885      2.917      6.384
REMARK INTER + INTRA:         -10.904
REMARK INTER:                  -9.368
REMARK INTRA:                  -1.535
REMARK UNBOUND:                -1.449
REMARK SMILES CCCCCCCCCCCCCCCCCC(=O)[O-]
REMARK SMILES IDX 10 1 11 2 12 3 13 4 14 5 15 6 16 7 17 8 18 9 19 10 20 11
REMARK SMILES IDX 9 12 8 13 7 14 6 15 5 16 4 17 3 18 2 19 1 20
REMARK H PARENT
REMARK Flexibility Score: inf
ROOT
ATOM      1  C   UNL     1    -130.998 109.601  39.467  1.00  0.00     0.000 C 
ENDROOT
BRANCH   1   2
ATOM      2  C   UNL     1    -131.028 108.151  38.965  1.00  0.00     0.000 C 
BRANCH   2   3
ATOM      3  C   UNL     1    -129.693 107.445  39.246  1.00  0.00     0.000 C 
BRANCH   3   4
ATOM      4  C   UNL     1    -129.713 106.640  40.555  1.00  0.00     0.000 C 
BRANCH   4   5
ATOM      5  C   UNL     1    -128.413 106.791  41.363  1.00  0.00     0.000 C 
BRANCH   5   6
ATOM      6  C   UNL     1    -128.399 108.061  42.228  1.00  0.00     0.000 C 
BRANCH   6   7
ATOM      7  C   UNL     1    -129.813 108.514  42.632  1.00  0.00     0.006 C 
BRANCH   7   8
ATOM      8  C   UNL     1    -129.833 109.189  44.010  1.00  0.00     0.053 C 
BRANCH   8   9
ATOM      9  C   UNL     1    -130.889 108.606  44.897  1.00  0.00     0.041 C 
ATOM     10  O   UNL     1    -130.742 108.612  46.147  1.00  0.00    -0.550 OA
ATOM     11  O   UNL     1    -132.051 108.083  44.344  1.00  0.00    -0.550 OA
ENDBRANCH   8   9
ENDBRANCH   7   8
ENDBRANCH   6   7
ENDBRANCH   5   6
ENDBRANCH   4   5
ENDBRANCH   3   4
ENDBRANCH   2   3
ENDBRANCH   1   2
BRANCH   1  12
ATOM     12  C   UNL     1    -129.586 110.216  39.447  1.00  0.00     0.000 C 
BRANCH  12  13
ATOM     13  C   UNL     1    -129.506 111.675  39.932  1.00  0.00    -0.000 C 
BRANCH  13  14
ATOM     14  C   UNL     1    -130.136 111.936  41.313  1.00  0.00    -0.000 C 
BRANCH  14  15
ATOM     15  C   UNL     1    -130.062 113.412  41.760  1.00  0.00    -0.000 C 
BRANCH  15  16
ATOM     16  C   UNL     1    -129.404 113.572  43.140  1.00  0.00    -0.000 C 
BRANCH  16  17
ATOM     17  C   UNL     1    -129.800 114.881  43.841  1.00  0.00    -0.000 C 
BRANCH  17  18
ATOM     18  C   UNL     1    -129.859 114.745  45.369  1.00  0.00    -0.000 C 
BRANCH  18  19
ATOM     19  C   UNL     1    -130.162 116.096  46.027  1.00  0.00    -0.003 C 
ATOM     20  C   UNL     1    -129.839 117.254  45.087  1.00  0.00     0.004 C 
ENDBRANCH  18  19
ENDBRANCH  17  18
ENDBRANCH  16  17
ENDBRANCH  15  16
ENDBRANCH  14  15
ENDBRANCH  13  14
ENDBRANCH  12  13
ENDBRANCH   1  12
TORSDOF 16
ENDMDL
MODEL 6
REMARK VINA RESULT:    -4.876      3.364      8.283
REMARK INTER + INTRA:         -10.885
REMARK INTER:                  -9.515
REMARK INTRA:                  -1.371
REMARK UNBOUND:                -1.449
REMARK SMILES CCCCCCCCCCCCCCCCCC(=O)[O-]
REMARK SMILES IDX 10 1 11 2 12 3 13 4 14 5 15 6 16 7 17 8 18 9 19 10 20 11
REMARK SMILES IDX 9 12 8 13 7 14 6 15 5 16 4 17 3 18 2 19 1 20
REMARK H PARENT
REMARK Flexibility Score: inf
ROOT
ATOM      1  C   UNL     1    -129.015 110.718  43.159  1.00  0.00     0.000 C 
ENDROOT
BRANCH   1   2
ATOM      2  C   UNL     1    -129.958 109.619  43.672  1.00  0.00     0.000 C 
BRANCH   2   3
ATOM      3  C   UNL     1    -129.706 108.294  42.939  1.00  0.00     0.000 C 
BRANCH   3   4
ATOM      4  C   UNL     1    -128.296 108.211  42.333  1.00  0.00     0.000 C 
BRANCH   4   5
ATOM      5  C   UNL     1    -128.053 106.893  41.577  1.00  0.00     0.000 C 
BRANCH   5   6
ATOM      6  C   UNL     1    -129.326 106.355  40.904  1.00  0.00     0.000 C 
BRANCH   6   7
ATOM      7  C   UNL     1    -129.389 106.696  39.404  1.00  0.00     0.006 C 
BRANCH   7   8
ATOM      8  C   UNL     1    -130.626 107.534  39.052  1.00  0.00     0.053 C 
BRANCH   8   9
ATOM      9  C   UNL     1    -130.416 108.985  39.356  1.00  0.00     0.041 C 
ATOM     10  O   UNL     1    -131.381 109.700  39.733  1.00  0.00    -0.550 OA
ATOM     11  O   UNL     1    -129.147 109.541  39.254  1.00  0.00    -0.550 OA
ENDBRANCH   8   9
ENDBRANCH   7   8
ENDBRANCH   6   7
ENDBRANCH   5   6
ENDBRANCH   4   5
ENDBRANCH   3   4
ENDBRANCH   2   3
ENDBRANCH   1   2
BRANCH   1  12
ATOM     12  C   UNL     1    -129.263 112.083  43.828  1.00  0.00     0.000 C 
BRANCH  12  13
ATOM     13  C   UNL     1    -129.732 113.197  42.874  1.00  0.00    -0.000 C 
BRANCH  13  14
ATOM     14  C   UNL     1    -129.476 114.631  43.374  1.00  0.00    -0.000 C 
BRANCH  14  15
ATOM     15  C   UNL     1    -129.301 114.732  44.905  1.00  0.00    -0.000 C 
BRANCH  15  16
ATOM     16  C   UNL     1    -129.979 115.983  45.489  1.00  0.00    -0.000 C 
BRANCH  16  17
ATOM     17  C   UNL     1    -130.057 117.142  44.482  1.00  0.00    -0.000 C 
BRANCH  17  18
ATOM     18  C   UNL     1    -129.308 118.395  44.957  1.00  0.00    -0.000 C 
BRANCH  18  19
ATOM     19  C   UNL     1    -128.369 118.918  43.864  1.00  0.00    -0.003 C 
ATOM     20  C   UNL     1    -128.649 118.241  42.524  1.00  0.00     0.004 C 
ENDBRANCH  18  19
ENDBRANCH  17  18
ENDBRANCH  16  17
ENDBRANCH  15  16
ENDBRANCH  14  15
ENDBRANCH  13  14
ENDBRANCH  12  13
ENDBRANCH   1  12
TORSDOF 16
ENDMDL
MODEL 7
REMARK VINA RESULT:    -4.857      4.776      8.874
REMARK INTER + INTRA:         -10.849
REMARK INTER:                  -9.931
REMARK INTRA:                  -0.918
REMARK UNBOUND:                -1.449
REMARK SMILES CCCCCCCCCCCCCCCCCC(=O)[O-]
REMARK SMILES IDX 10 1 11 2 12 3 13 4 14 5 15 6 16 7 17 8 18 9 19 10 20 11
REMARK SMILES IDX 9 12 8 13 7 14 6 15 5 16 4 17 3 18 2 19 1 20
REMARK H PARENT
REMARK Flexibility Score: inf
ROOT
ATOM      1  C   UNL     1    -129.718 110.430  44.309  1.00  0.00     0.000 C 
ENDROOT
BRANCH   1   2
ATOM      2  C   UNL     1    -129.972 109.017  43.763  1.00  0.00     0.000 C 
BRANCH   2   3
ATOM      3  C   UNL     1    -128.811 108.558  42.868  1.00  0.00     0.000 C 
BRANCH   3   4
ATOM      4  C   UNL     1    -129.292 107.958  41.537  1.00  0.00     0.000 C 
BRANCH   4   5
ATOM      5  C   UNL     1    -129.792 109.028  40.552  1.00  0.00     0.000 C 
BRANCH   5   6
ATOM      6  C   UNL     1    -129.840 108.519  39.102  1.00  0.00     0.000 C 
BRANCH   6   7
ATOM      7  C   UNL     1    -130.438 107.106  38.993  1.00  0.00     0.006 C 
BRANCH   7   8
ATOM      8  C   UNL     1    -129.415 106.082  38.482  1.00  0.00     0.053 C 
BRANCH   8   9
ATOM      9  C   UNL     1    -129.542 104.770  39.192  1.00  0.00     0.041 C 
ATOM     10  O   UNL     1    -129.430 103.690  38.555  1.00  0.00    -0.550 OA
ATOM     11  O   UNL     1    -129.753 104.739  40.565  1.00  0.00    -0.550 OA
ENDBRANCH   8   9
ENDBRANCH   7   8
ENDBRANCH   6   7
ENDBRANCH   5   6
ENDBRANCH   4   5
ENDBRANCH   3   4
ENDBRANCH   2   3
ENDBRANCH   1   2
BRANCH   1  12
ATOM     12  C   UNL     1    -129.212 111.408  43.232  1.00  0.00     0.000 C 
BRANCH  12  13
ATOM     13  C   UNL     1    -129.377 112.899  43.581  1.00  0.00    -0.000 C 
BRANCH  13  14
ATOM     14  C   UNL     1    -130.073 113.747  42.499  1.00  0.00    -0.000 C 
BRANCH  14  15
ATOM     15  C   UNL     1    -129.394 115.111  42.250  1.00  0.00    -0.000 C 
BRANCH  15  16
ATOM     16  C   UNL     1    -130.153 116.271  42.917  1.00  0.00    -0.000 C 
BRANCH  16  17
ATOM     17  C   UNL     1    -129.272 117.512  43.132  1.00  0.00    -0.000 C 
BRANCH  17  18
ATOM     18  C   UNL     1    -129.304 118.021  44.580  1.00  0.00    -0.000 C 
BRANCH  18  19
ATOM     19  C   UNL     1    -130.011 117.016  45.498  1.00  0.00    -0.003 C 
ATOM     20  C   UNL     1    -130.916 117.726  46.502  1.00  0.00     0.004 C 
ENDBRANCH  18  19
ENDBRANCH  17  18
ENDBRANCH  16  17
ENDBRANCH  15  16
ENDBRANCH  14  15
ENDBRANCH  13  14
ENDBRANCH  12  13
ENDBRANCH   1  12
TORSDOF 16
ENDMDL
MODEL 8
REMARK VINA RESULT:    -4.814      1.372      2.477
REMARK INTER + INTRA:         -10.766
REMARK INTER:                  -9.433
REMARK INTRA:                  -1.334
REMARK UNBOUND:                -1.449
REMARK SMILES CCCCCCCCCCCCCCCCCC(=O)[O-]
REMARK SMILES IDX 10 1 11 2 12 3 13 4 14 5 15 6 16 7 17 8 18 9 19 10 20 11
REMARK SMILES IDX 9 12 8 13 7 14 6 15 5 16 4 17 3 18 2 19 1 20
REMARK H PARENT
REMARK Flexibility Score: inf
ROOT
ATOM      1  C   UNL     1    -130.291 111.663  40.792  1.00  0.00     0.000 C 
ENDROOT
BRANCH   1   2
ATOM      2  C   UNL     1    -130.005 113.058  41.368  1.00  0.00     0.000 C 
BRANCH   2   3
ATOM      3  C   UNL     1    -129.690 112.977  42.869  1.00  0.00     0.000 C 
BRANCH   3   4
ATOM      4  C   UNL     1    -129.328 114.344  43.473  1.00  0.00     0.000 C 
BRANCH   4   5
ATOM      5  C   UNL     1    -129.709 115.516  42.553  1.00  0.00     0.000 C 
BRANCH   5   6
ATOM      6  C   UNL     1    -129.719 116.865  43.290  1.00  0.00     0.000 C 
BRANCH   6   7
ATOM      7  C   UNL     1    -129.596 116.705  44.815  1.00  0.00     0.006 C 
BRANCH   7   8
ATOM      8  C   UNL     1    -130.169 117.911  45.572  1.00  0.00     0.053 C 
BRANCH   8   9
ATOM      9  C   UNL     1    -131.100 117.488  46.665  1.00  0.00     0.041 C 
ATOM     10  O   UNL     1    -132.064 118.226  46.998  1.00  0.00    -0.550 OA
ATOM     11  O   UNL     1    -130.923 116.263  47.295  1.00  0.00    -0.550 OA
ENDBRANCH   8   9
ENDBRANCH   7   8
ENDBRANCH   6   7
ENDBRANCH   5   6
ENDBRANCH   4   5
ENDBRANCH   3   4
ENDBRANCH   2   3
ENDBRANCH   1   2
BRANCH   1  12
ATOM     12  C   UNL     1    -129.357 111.292  39.625  1.00  0.00     0.000 C 
BRANCH  12  13
ATOM     13  C   UNL     1    -129.081 109.785  39.470  1.00  0.00    -0.000 C 
BRANCH  13  14
ATOM     14  C   UNL     1    -130.067 108.864  40.214  1.00  0.00    -0.000 C 
BRANCH  14  15
ATOM     15  C   UNL     1    -129.400 107.987  41.296  1.00  0.00    -0.000 C 
BRANCH  15  16
ATOM     16  C   UNL     1    -128.778 108.825  42.425  1.00  0.00    -0.000 C 
BRANCH  16  17
ATOM     17  C   UNL     1    -129.789 109.183  43.526  1.00  0.00    -0.000 C 
BRANCH  17  18
ATOM     18  C   UNL     1    -130.869 108.109  43.715  1.00  0.00    -0.000 C 
BRANCH  18  19
ATOM     19  C   UNL     1    -131.767 108.440  44.913  1.00  0.00    -0.003 C 
ATOM     20  C   UNL     1    -130.939 108.859  46.124  1.00  0.00     0.004 C 
ENDBRANCH  18  19
ENDBRANCH  17  18
ENDBRANCH  16  17
ENDBRANCH  15  16
ENDBRANCH  14  15
ENDBRANCH  13  14
ENDBRANCH  12  13
ENDBRANCH   1  12
TORSDOF 16
ENDMDL
MODEL 9
REMARK VINA RESULT:    -4.694      2.953      7.258
REMARK INTER + INTRA:         -10.535
REMARK INTER:                  -9.283
REMARK INTRA:                  -1.251
REMARK UNBOUND:                -1.449
REMARK SMILES CCCCCCCCCCCCCCCCCC(=O)[O-]
REMARK SMILES IDX 10 1 11 2 12 3 13 4 14 5 15 6 16 7 17 8 18 9 19 10 20 11
REMARK SMILES IDX 9 12 8 13 7 14 6 15 5 16 4 17 3 18 2 19 1 20
REMARK H PARENT
REMARK Flexibility Score: inf
ROOT
ATOM      1  C   UNL     1    -129.529 108.492  42.818  1.00  0.00     0.000 C 
ENDROOT
BRANCH   1   2
ATOM      2  C   UNL     1    -128.049 108.212  42.519  1.00  0.00     0.000 C 
BRANCH   2   3
ATOM      3  C   UNL     1    -127.885 106.892  41.752  1.00  0.00     0.000 C 
BRANCH   3   4
ATOM      4  C   UNL     1    -129.214 106.367  41.185  1.00  0.00     0.000 C 
BRANCH   4   5
ATOM      5  C   UNL     1    -129.096 105.918  39.719  1.00  0.00     0.000 C 
BRANCH   5   6
ATOM      6  C   UNL     1    -129.900 106.812  38.761  1.00  0.00     0.000 C 
BRANCH   6   7
ATOM      7  C   UNL     1    -130.177 108.206  39.349  1.00  0.00     0.006 C 
BRANCH   7   8
ATOM      8  C   UNL     1    -129.007 109.173  39.123  1.00  0.00     0.053 C 
BRANCH   8   9
ATOM      9  C   UNL     1    -129.424 110.600  39.303  1.00  0.00     0.041 C 
ATOM     10  O   UNL     1    -130.295 110.903  40.160  1.00  0.00    -0.550 OA
ATOM     11  O   UNL     1    -128.828 111.600  38.545  1.00  0.00    -0.550 OA
ENDBRANCH   8   9
ENDBRANCH   7   8
ENDBRANCH   6   7
ENDBRANCH   5   6
ENDBRANCH   4   5
ENDBRANCH   3   4
ENDBRANCH   2   3
ENDBRANCH   1   2
BRANCH   1  12
ATOM     12  C   UNL     1    -129.744 109.784  43.630  1.00  0.00     0.000 C 
BRANCH  12  13
ATOM     13  C   UNL     1    -128.987 111.016  43.100  1.00  0.00    -0.000 C 
BRANCH  13  14
ATOM     14  C   UNL     1    -129.383 112.353  43.753  1.00  0.00    -0.000 C 
BRANCH  14  15
ATOM     15  C   UNL     1    -129.731 113.461  42.736  1.00  0.00    -0.000 C 
BRANCH  15  16
ATOM     16  C   UNL     1    -129.776 114.855  43.384  1.00  0.00    -0.000 C 
BRANCH  16  17
ATOM     17  C   UNL     1    -129.717 114.800  44.919  1.00  0.00    -0.000 C 
BRANCH  17  18
ATOM     18  C   UNL     1    -129.710 116.193  45.565  1.00  0.00    -0.000 C 
BRANCH  18  19
ATOM     19  C   UNL     1    -130.101 117.270  44.546  1.00  0.00    -0.003 C 
ATOM     20  C   UNL     1    -128.971 118.277  44.347  1.00  0.00     0.004 C 
ENDBRANCH  18  19
ENDBRANCH  17  18
ENDBRANCH  16  17
ENDBRANCH  15  16
ENDBRANCH  14  15
ENDBRANCH  13  14
ENDBRANCH  12  13
ENDBRANCH   1  12
TORSDOF 16
ENDMDL
