MODEL 1
REMARK VINA RESULT:    -6.623      0.000      0.000
REMARK INTER + INTRA:          -7.253
REMARK INTER:                  -7.204
REMARK INTRA:                  -0.049
REMARK UNBOUND:                -0.049
REMARK SMILES COc1cc2ccc(=O)oc2cc1O
REMARK SMILES IDX 3 1 13 2 12 3 11 4 5 5 4 6 6 7 7 8 8 9 9 10 10 11 2 12 1 13
REMARK SMILES IDX 14 14
REMARK H PARENT 14 15
REMARK Flexibility Score: inf
ROOT
ATOM      1  C   UNL     1      10.044   3.155  18.451  1.00  0.00     0.161 A 
ATOM      2  C   UNL     1      11.382   3.413  18.093  1.00  0.00     0.161 A 
ATOM      3  C   UNL     1      12.071   4.489  18.665  1.00  0.00     0.098 A 
ATOM      4  C   UNL     1      11.440   5.317  19.596  1.00  0.00     0.142 A 
ATOM      5  C   UNL     1      10.102   5.067  19.962  1.00  0.00     0.022 A 
ATOM      6  C   UNL     1       9.408   3.991  19.391  1.00  0.00     0.062 A 
ATOM      7  C   UNL     1       9.497   5.915  20.898  1.00  0.00     0.019 A 
ATOM      8  C   UNL     1      10.229   6.972  21.437  1.00  0.00     0.094 A 
ATOM      9  C   UNL     1      11.554   7.158  21.026  1.00  0.00     0.336 A 
ATOM     10  O   UNL     1      12.232   8.107  21.501  1.00  0.00    -0.246 OA
ATOM     11  O   UNL     1      12.103   6.337  20.136  1.00  0.00    -0.423 OA
ENDROOT
BRANCH   1  12
ATOM     12  O   UNL     1       9.383   2.068  17.858  1.00  0.00    -0.493 OA
ATOM     13  C   UNL     1       8.536   1.159  18.555  1.00  0.00     0.278 C 
ENDBRANCH   1  12
BRANCH   2  14
ATOM     14  O   UNL     1      12.046   2.608  17.168  1.00  0.00    -0.504 OA
ATOM     15  H   UNL     1      12.877   2.918  16.681  1.00  0.00     0.293 HD
ENDBRANCH   2  14
TORSDOF 2
ENDMDL
MODEL 2
REMARK VINA RESULT:    -6.319     18.598     19.253
REMARK INTER + INTRA:          -6.923
REMARK INTER:                  -6.876
REMARK INTRA:                  -0.046
REMARK UNBOUND:                -0.049
REMARK SMILES COc1cc2ccc(=O)oc2cc1O
REMARK SMILES IDX 3 1 13 2 12 3 11 4 5 5 4 6 6 7 7 8 8 9 9 10 10 11 2 12 1 13
REMARK SMILES IDX 14 14
REMARK H PARENT 14 15
REMARK Flexibility Score: inf
ROOT
ATOM      1  C   UNL     1      19.364  -3.044  34.630  1.00  0.00     0.161 A 
ATOM      2  C   UNL     1      20.139  -3.723  33.670  1.00  0.00     0.161 A 
ATOM      3  C   UNL     1      19.608  -4.821  32.983  1.00  0.00     0.098 A 
ATOM      4  C   UNL     1      18.307  -5.255  33.242  1.00  0.00     0.142 A 
ATOM      5  C   UNL     1      17.522  -4.582  34.202  1.00  0.00     0.022 A 
ATOM      6  C   UNL     1      18.050  -3.482  34.892  1.00  0.00     0.062 A 
ATOM      7  C   UNL     1      16.221  -5.041  34.439  1.00  0.00     0.019 A 
ATOM      8  C   UNL     1      15.742  -6.140  33.727  1.00  0.00     0.094 A 
ATOM      9  C   UNL     1      16.578  -6.757  32.790  1.00  0.00     0.336 A 
ATOM     10  O   UNL     1      16.164  -7.751  32.137  1.00  0.00    -0.246 OA
ATOM     11  O   UNL     1      17.810  -6.300  32.584  1.00  0.00    -0.423 OA
ENDROOT
BRANCH   1  12
ATOM     12  O   UNL     1      19.927  -1.946  35.301  1.00  0.00    -0.493 OA
ATOM     13  C   UNL     1      19.198  -0.799  35.729  1.00  0.00     0.278 C 
ENDBRANCH   1  12
BRANCH   2  14
ATOM     14  O   UNL     1      21.443  -3.318  33.382  1.00  0.00    -0.504 OA
ATOM     15  H   UNL     1      22.222  -3.965  33.386  1.00  0.00     0.293 HD
ENDBRANCH   2  14
TORSDOF 2
ENDMDL
MODEL 3
REMARK VINA RESULT:    -6.298      1.306      5.490
REMARK INTER + INTRA:          -6.899
REMARK INTER:                  -6.855
REMARK INTRA:                  -0.044
REMARK UNBOUND:                -0.049
REMARK SMILES COc1cc2ccc(=O)oc2cc1O
REMARK SMILES IDX 3 1 13 2 12 3 11 4 5 5 4 6 6 7 7 8 8 9 9 10 10 11 2 12 1 13
REMARK SMILES IDX 14 14
REMARK H PARENT 14 15
REMARK Flexibility Score: inf
ROOT
ATOM      1  C   UNL     1      11.224   7.290  20.937  1.00  0.00     0.161 A 
ATOM      2  C   UNL     1       9.917   6.978  21.358  1.00  0.00     0.161 A 
ATOM      3  C   UNL     1       9.281   5.823  20.888  1.00  0.00     0.098 A 
ATOM      4  C   UNL     1       9.934   4.969  19.997  1.00  0.00     0.142 A 
ATOM      5  C   UNL     1      11.243   5.272  19.569  1.00  0.00     0.022 A 
ATOM      6  C   UNL     1      11.884   6.428  20.037  1.00  0.00     0.062 A 
ATOM      7  C   UNL     1      11.872   4.397  18.675  1.00  0.00     0.019 A 
ATOM      8  C   UNL     1      11.192   3.261  18.238  1.00  0.00     0.094 A 
ATOM      9  C   UNL     1       9.895   3.025  18.706  1.00  0.00     0.336 A 
ATOM     10  O   UNL     1       9.265   2.004  18.323  1.00  0.00    -0.246 OA
ATOM     11  O   UNL     1       9.322   3.873  19.555  1.00  0.00    -0.423 OA
ENDROOT
BRANCH   1  12
ATOM     12  O   UNL     1      11.833   8.456  21.428  1.00  0.00    -0.493 OA
ATOM     13  C   UNL     1      13.239   8.682  21.460  1.00  0.00     0.278 C 
ENDBRANCH   1  12
BRANCH   2  14
ATOM     14  O   UNL     1       9.232   7.805  22.248  1.00  0.00    -0.504 OA
ATOM     15  H   UNL     1       8.222   7.816  22.307  1.00  0.00     0.293 HD
ENDBRANCH   2  14
TORSDOF 2
ENDMDL
MODEL 4
REMARK VINA RESULT:    -6.010     18.609     18.815
REMARK INTER + INTRA:          -6.586
REMARK INTER:                  -6.538
REMARK INTRA:                  -0.048
REMARK UNBOUND:                -0.049
REMARK SMILES COc1cc2ccc(=O)oc2cc1O
REMARK SMILES IDX 3 1 13 2 12 3 11 4 5 5 4 6 6 7 7 8 8 9 9 10 10 11 2 12 1 13
REMARK SMILES IDX 14 14
REMARK H PARENT 14 15
REMARK Flexibility Score: inf
ROOT
ATOM      1  C   UNL     1      16.823  -7.471  32.834  1.00  0.00     0.161 A 
ATOM      2  C   UNL     1      15.807  -6.766  33.508  1.00  0.00     0.161 A 
ATOM      3  C   UNL     1      16.070  -5.507  34.061  1.00  0.00     0.098 A 
ATOM      4  C   UNL     1      17.340  -4.937  33.949  1.00  0.00     0.142 A 
ATOM      5  C   UNL     1      18.363  -5.635  33.276  1.00  0.00     0.022 A 
ATOM      6  C   UNL     1      18.105  -6.896  32.722  1.00  0.00     0.062 A 
ATOM      7  C   UNL     1      19.626  -5.038  33.181  1.00  0.00     0.019 A 
ATOM      8  C   UNL     1      19.833  -3.782  33.749  1.00  0.00     0.094 A 
ATOM      9  C   UNL     1      18.770  -3.149  34.402  1.00  0.00     0.336 A 
ATOM     10  O   UNL     1      18.937  -2.014  34.922  1.00  0.00    -0.246 OA
ATOM     11  O   UNL     1      17.580  -3.740  34.477  1.00  0.00    -0.423 OA
ENDROOT
BRANCH   1  12
ATOM     12  O   UNL     1      16.525  -8.732  32.292  1.00  0.00    -0.493 OA
ATOM     13  C   UNL     1      16.018  -8.948  30.978  1.00  0.00     0.278 C 
ENDBRANCH   1  12
BRANCH   2  14
ATOM     14  O   UNL     1      14.525  -7.301  33.639  1.00  0.00    -0.504 OA
ATOM     15  H   UNL     1      14.346  -8.295  33.576  1.00  0.00     0.293 HD
ENDBRANCH   2  14
TORSDOF 2
ENDMDL
MODEL 5
REMARK VINA RESULT:    -5.778     19.408     20.238
REMARK INTER + INTRA:          -6.334
REMARK INTER:                  -6.271
REMARK INTRA:                  -0.062
REMARK UNBOUND:                -0.049
REMARK SMILES COc1cc2ccc(=O)oc2cc1O
REMARK SMILES IDX 3 1 13 2 12 3 11 4 5 5 4 6 6 7 7 8 8 9 9 10 10 11 2 12 1 13
REMARK SMILES IDX 14 14
REMARK H PARENT 14 15
REMARK Flexibility Score: inf
ROOT
ATOM      1  C   UNL     1      18.575  -5.801  34.577  1.00  0.00     0.161 A 
ATOM      2  C   UNL     1      17.225  -5.691  34.964  1.00  0.00     0.161 A 
ATOM      3  C   UNL     1      16.258  -6.525  34.392  1.00  0.00     0.098 A 
ATOM      4  C   UNL     1      16.619  -7.473  33.432  1.00  0.00     0.142 A 
ATOM      5  C   UNL     1      17.968  -7.591  33.038  1.00  0.00     0.022 A 
ATOM      6  C   UNL     1      18.940  -6.757  33.609  1.00  0.00     0.062 A 
ATOM      7  C   UNL     1      18.300  -8.550  32.074  1.00  0.00     0.019 A 
ATOM      8  C   UNL     1      17.296  -9.354  31.536  1.00  0.00     0.094 A 
ATOM      9  C   UNL     1      15.979  -9.181  31.976  1.00  0.00     0.336 A 
ATOM     10  O   UNL     1      15.059  -9.898  31.502  1.00  0.00    -0.246 OA
ATOM     11  O   UNL     1      15.693  -8.261  32.894  1.00  0.00    -0.423 OA
ENDROOT
BRANCH   1  12
ATOM     12  O   UNL     1      19.520  -4.949  35.172  1.00  0.00    -0.493 OA
ATOM     13  C   UNL     1      19.953  -3.710  34.618  1.00  0.00     0.278 C 
ENDBRANCH   1  12
BRANCH   2  14
ATOM     14  O   UNL     1      16.825  -4.758  35.920  1.00  0.00    -0.504 OA
ATOM     15  H   UNL     1      17.330  -3.894  36.077  1.00  0.00     0.293 HD
ENDBRANCH   2  14
TORSDOF 2
ENDMDL
MODEL 6
REMARK VINA RESULT:    -5.741      1.887      2.891
REMARK INTER + INTRA:          -6.293
REMARK INTER:                  -6.319
REMARK INTRA:                   0.026
REMARK UNBOUND:                -0.049
REMARK SMILES COc1cc2ccc(=O)oc2cc1O
REMARK SMILES IDX 3 1 13 2 12 3 11 4 5 5 4 6 6 7 7 8 8 9 9 10 10 11 2 12 1 13
REMARK SMILES IDX 14 14
REMARK H PARENT 14 15
REMARK Flexibility Score: inf
ROOT
ATOM      1  C   UNL     1       8.878   1.997  18.868  1.00  0.00     0.161 A 
ATOM      2  C   UNL     1       7.720   2.798  18.857  1.00  0.00     0.161 A 
ATOM      3  C   UNL     1       7.816   4.178  19.069  1.00  0.00     0.098 A 
ATOM      4  C   UNL     1       9.058   4.775  19.294  1.00  0.00     0.142 A 
ATOM      5  C   UNL     1      10.223   3.981  19.308  1.00  0.00     0.022 A 
ATOM      6  C   UNL     1      10.132   2.599  19.096  1.00  0.00     0.062 A 
ATOM      7  C   UNL     1      11.454   4.608  19.536  1.00  0.00     0.019 A 
ATOM      8  C   UNL     1      11.492   5.986  19.742  1.00  0.00     0.094 A 
ATOM      9  C   UNL     1      10.295   6.709  19.715  1.00  0.00     0.336 A 
ATOM     10  O   UNL     1      10.308   7.955  19.899  1.00  0.00    -0.246 OA
ATOM     11  O   UNL     1       9.139   6.088  19.495  1.00  0.00    -0.423 OA
ENDROOT
BRANCH   1  12
ATOM     12  O   UNL     1       8.746   0.615  18.651  1.00  0.00    -0.493 OA
ATOM     13  C   UNL     1       8.534   0.013  17.378  1.00  0.00     0.278 C 
ENDBRANCH   1  12
BRANCH   2  14
ATOM     14  O   UNL     1       6.461   2.240  18.634  1.00  0.00    -0.504 OA
ATOM     15  H   UNL     1       5.720   2.748  18.167  1.00  0.00     0.293 HD
ENDBRANCH   2  14
TORSDOF 2
ENDMDL
MODEL 7
REMARK VINA RESULT:    -5.668      1.993      3.307
REMARK INTER + INTRA:          -6.214
REMARK INTER:                  -6.150
REMARK INTRA:                  -0.064
REMARK UNBOUND:                -0.049
REMARK SMILES COc1cc2ccc(=O)oc2cc1O
REMARK SMILES IDX 3 1 13 2 12 3 11 4 5 5 4 6 6 7 7 8 8 9 9 10 10 11 2 12 1 13
REMARK SMILES IDX 14 14
REMARK H PARENT 14 15
REMARK Flexibility Score: inf
ROOT
ATOM      1  C   UNL     1      10.353   5.640  18.606  1.00  0.00     0.161 A 
ATOM      2  C   UNL     1       9.534   5.903  19.721  1.00  0.00     0.161 A 
ATOM      3  C   UNL     1       9.950   6.808  20.704  1.00  0.00     0.098 A 
ATOM      4  C   UNL     1      11.180   7.460  20.590  1.00  0.00     0.142 A 
ATOM      5  C   UNL     1      12.007   7.205  19.477  1.00  0.00     0.022 A 
ATOM      6  C   UNL     1      11.594   6.299  18.490  1.00  0.00     0.062 A 
ATOM      7  C   UNL     1      13.233   7.874  19.390  1.00  0.00     0.019 A 
ATOM      8  C   UNL     1      13.599   8.766  20.397  1.00  0.00     0.094 A 
ATOM      9  C   UNL     1      12.727   8.969  21.472  1.00  0.00     0.336 A 
ATOM     10  O   UNL     1      13.039   9.770  22.392  1.00  0.00    -0.246 OA
ATOM     11  O   UNL     1      11.567   8.320  21.529  1.00  0.00    -0.423 OA
ENDROOT
BRANCH   1  12
ATOM     12  O   UNL     1       9.905   4.727  17.638  1.00  0.00    -0.493 OA
ATOM     13  C   UNL     1      10.268   3.350  17.598  1.00  0.00     0.278 C 
ENDBRANCH   1  12
BRANCH   2  14
ATOM     14  O   UNL     1       8.299   5.272  19.871  1.00  0.00    -0.504 OA
ATOM     15  H   UNL     1       8.214   4.269  19.982  1.00  0.00     0.293 HD
ENDBRANCH   2  14
TORSDOF 2
ENDMDL
MODEL 8
REMARK VINA RESULT:    -5.603      1.692      5.201
REMARK INTER + INTRA:          -6.143
REMARK INTER:                  -6.084
REMARK INTRA:                  -0.060
REMARK UNBOUND:                -0.049
REMARK SMILES COc1cc2ccc(=O)oc2cc1O
REMARK SMILES IDX 3 1 13 2 12 3 11 4 5 5 4 6 6 7 7 8 8 9 9 10 10 11 2 12 1 13
REMARK SMILES IDX 14 14
REMARK H PARENT 14 15
REMARK Flexibility Score: inf
ROOT
ATOM      1  C   UNL     1      10.457   7.008  20.438  1.00  0.00     0.161 A 
ATOM      2  C   UNL     1       9.746   7.177  19.234  1.00  0.00     0.161 A 
ATOM      3  C   UNL     1       9.324   6.061  18.502  1.00  0.00     0.098 A 
ATOM      4  C   UNL     1       9.602   4.771  18.956  1.00  0.00     0.142 A 
ATOM      5  C   UNL     1      10.313   4.591  20.160  1.00  0.00     0.022 A 
ATOM      6  C   UNL     1      10.738   5.705  20.896  1.00  0.00     0.062 A 
ATOM      7  C   UNL     1      10.578   3.285  20.589  1.00  0.00     0.019 A 
ATOM      8  C   UNL     1      10.134   2.209  19.821  1.00  0.00     0.094 A 
ATOM      9  C   UNL     1       9.435   2.465  18.637  1.00  0.00     0.336 A 
ATOM     10  O   UNL     1       9.026   1.506  17.929  1.00  0.00    -0.246 OA
ATOM     11  O   UNL     1       9.197   3.716  18.253  1.00  0.00    -0.423 OA
ENDROOT
BRANCH   1  12
ATOM     12  O   UNL     1      10.865   8.149  21.148  1.00  0.00    -0.493 OA
ATOM     13  C   UNL     1      12.222   8.516  21.376  1.00  0.00     0.278 C 
ENDBRANCH   1  12
BRANCH   2  14
ATOM     14  O   UNL     1       9.447   8.450  18.748  1.00  0.00    -0.504 OA
ATOM     15  H   UNL     1       9.592   9.286  19.300  1.00  0.00     0.293 HD
ENDBRANCH   2  14
TORSDOF 2
ENDMDL
