MODEL 1
REMARK VINA RESULT:    -1.525      0.000      0.000
REMARK INTER + INTRA:          -1.835
REMARK INTER:                  -1.658
REMARK INTRA:                  -0.177
REMARK UNBOUND:                -0.177
REMARK SMILES C[C@H]1[C@H](C)CC[C@]2(C(=O)[O-])CC[C@@]3(C)C(=CC[C@H]4[C@]5(C)CC[C@@H](O)C(C)(C)[C@H]5CC[C@]43C)[C@H]12
REMARK SMILES IDX 7 1 6 2 11 3 33 4 5 5 12 6 15 7 2 8 3 9 13 10 16 11 1 12
REMARK SMILES IDX 4 13 14 14 31 15 17 16 18 17 30 18 32 19 19 20 29 21 28 22
REMARK SMILES IDX 21 23 20 24 25 25 22 26 23 27 26 28 27 29 8 30 9 31 10 32
REMARK SMILES IDX 24 33
REMARK H PARENT 24 34
REMARK Flexibility Score: inf
ROOT
ATOM      1  C   UNL     1      10.713  29.277  -2.159  1.00  0.00     0.017 C 
ATOM      2  C   UNL     1      11.292  29.206  -0.708  1.00  0.00     0.014 C 
ATOM      3  C   UNL     1      11.788  30.042  -3.039  1.00  0.00     0.014 C 
ATOM      4  C   UNL     1       9.283  29.995  -2.211  1.00  0.00     0.030 C 
ATOM      5  C   UNL     1      10.191  29.058   0.322  1.00  0.00     0.004 C 
ATOM      6  C   UNL     1      11.265  30.931  -4.200  1.00  0.00     0.013 C 
ATOM      7  C   UNL     1       8.953  30.521  -3.652  1.00  0.00    -0.063 C 
ATOM      8  C   UNL     1       9.188  31.050  -1.014  1.00  0.00    -0.003 C 
ATOM      9  C   UNL     1       9.374  30.359   0.392  1.00  0.00    -0.011 C 
ATOM     10  C   UNL     1       9.950  30.422  -4.840  1.00  0.00    -0.006 C 
ATOM     11  C   UNL     1       7.915  31.347  -3.810  1.00  0.00    -0.027 C 
ATOM     12  C   UNL     1       7.877  31.868  -0.921  1.00  0.00     0.008 C 
ATOM     13  C   UNL     1      10.010  31.325   1.415  1.00  0.00     0.008 C 
ATOM     14  C   UNL     1      10.154  28.937  -5.305  1.00  0.00     0.017 C 
ATOM     15  C   UNL     1       9.429  31.257  -6.156  1.00  0.00    -0.020 C 
ATOM     16  C   UNL     1       8.195  32.714  -4.364  1.00  0.00     0.032 C 
ATOM     17  C   UNL     1       8.783  32.675  -5.789  1.00  0.00     0.006 C 
ATOM     18  C   UNL     1      10.559  31.311  -7.287  1.00  0.00     0.008 C 
ATOM     19  C   UNL     1       8.228  30.461  -6.815  1.00  0.00     0.012 C 
ATOM     20  C   UNL     1       9.588  33.957  -6.238  1.00  0.00    -0.025 C 
ATOM     21  C   UNL     1      10.945  32.653  -7.958  1.00  0.00     0.005 C 
ATOM     22  C   UNL     1       9.883  33.743  -7.770  1.00  0.00     0.003 C 
ATOM     23  C   UNL     1       8.745  35.267  -6.041  1.00  0.00     0.010 C 
ATOM     24  C   UNL     1      10.884  34.127  -5.391  1.00  0.00     0.012 C 
ATOM     25  C   UNL     1      10.049  35.060  -8.625  1.00  0.00    -0.006 C 
ATOM     26  C   UNL     1       7.879  35.616  -7.249  1.00  0.00     0.033 C 
ATOM     27  C   UNL     1       8.723  35.913  -8.514  1.00  0.00     0.120 C 
ATOM     28  C   UNL     1      10.246  34.703 -10.124  1.00  0.00     0.014 C 
ATOM     29  C   UNL     1      11.291  35.889  -8.202  1.00  0.00     0.014 C 
ENDROOT
BRANCH   1  30
ATOM     30  C   UNL     1      10.595  27.808  -2.579  1.00  0.00     0.048 C 
ATOM     31  O   UNL     1       9.479  27.226  -2.642  1.00  0.00    -0.550 OA
ATOM     32  O   UNL     1      11.745  27.057  -2.810  1.00  0.00    -0.550 OA
ENDBRANCH   1  30
BRANCH  27  33
ATOM     33  O   UNL     1       9.004  37.290  -8.587  1.00  0.00    -0.393 OA
ATOM     34  H   UNL     1       9.993  37.388  -8.625  1.00  0.00     0.210 HD
ENDBRANCH  27  33
TORSDOF 2
ENDMDL
MODEL 2
REMARK VINA RESULT:     0.396      2.568      7.783
REMARK INTER + INTRA:           0.254
REMARK INTER:                   0.033
REMARK INTRA:                   0.222
REMARK UNBOUND:                -0.177
REMARK SMILES C[C@H]1[C@H](C)CC[C@]2(C(=O)[O-])CC[C@@]3(C)C(=CC[C@H]4[C@]5(C)CC[C@@H](O)C(C)(C)[C@H]5CC[C@]43C)[C@H]12
REMARK SMILES IDX 7 1 6 2 11 3 33 4 5 5 12 6 15 7 2 8 3 9 13 10 16 11 1 12
REMARK SMILES IDX 4 13 14 14 31 15 17 16 18 17 30 18 32 19 19 20 29 21 28 22
REMARK SMILES IDX 21 23 20 24 25 25 22 26 23 27 26 28 27 29 8 30 9 31 10 32
REMARK SMILES IDX 24 33
REMARK H PARENT 24 34
REMARK Flexibility Score: inf
ROOT
ATOM      1  C   UNL     1      10.996  30.513  -7.465  1.00  0.00     0.017 C 
ATOM      2  C   UNL     1      10.184  30.788  -8.774  1.00  0.00     0.014 C 
ATOM      3  C   UNL     1      10.423  29.168  -6.850  1.00  0.00     0.014 C 
ATOM      4  C   UNL     1      10.907  31.727  -6.425  1.00  0.00     0.030 C 
ATOM      5  C   UNL     1      10.191  32.260  -9.132  1.00  0.00     0.004 C 
ATOM      6  C   UNL     1      10.410  29.033  -5.303  1.00  0.00     0.013 C 
ATOM      7  C   UNL     1      11.258  31.265  -4.967  1.00  0.00    -0.063 C 
ATOM      8  C   UNL     1       9.515  32.485  -6.631  1.00  0.00    -0.003 C 
ATOM      9  C   UNL     1       9.363  33.043  -8.099  1.00  0.00    -0.011 C 
ATOM     10  C   UNL     1      11.562  29.787  -4.596  1.00  0.00    -0.006 C 
ATOM     11  C   UNL     1      10.999  32.095  -3.953  1.00  0.00    -0.027 C 
ATOM     12  C   UNL     1       9.236  33.679  -5.686  1.00  0.00     0.008 C 
ATOM     13  C   UNL     1       7.882  33.086  -8.535  1.00  0.00     0.008 C 
ATOM     14  C   UNL     1      12.930  29.306  -5.200  1.00  0.00     0.017 C 
ATOM     15  C   UNL     1      11.666  29.566  -2.971  1.00  0.00    -0.020 C 
ATOM     16  C   UNL     1      10.044  31.621  -2.896  1.00  0.00     0.032 C 
ATOM     17  C   UNL     1      10.547  30.366  -2.153  1.00  0.00     0.006 C 
ATOM     18  C   UNL     1      11.775  28.012  -2.607  1.00  0.00     0.008 C 
ATOM     19  C   UNL     1      13.025  30.202  -2.461  1.00  0.00     0.012 C 
ATOM     20  C   UNL     1       9.438  29.500  -1.436  1.00  0.00    -0.025 C 
ATOM     21  C   UNL     1      10.860  27.386  -1.525  1.00  0.00     0.005 C 
ATOM     22  C   UNL     1      10.232  28.430  -0.595  1.00  0.00     0.003 C 
ATOM     23  C   UNL     1       8.552  30.373  -0.478  1.00  0.00     0.010 C 
ATOM     24  C   UNL     1       8.473  28.858  -2.476  1.00  0.00     0.012 C 
ATOM     25  C   UNL     1       9.495  27.891   0.694  1.00  0.00    -0.006 C 
ATOM     26  C   UNL     1       9.118  30.482   0.937  1.00  0.00     0.033 C 
ATOM     27  C   UNL     1       9.185  29.109   1.653  1.00  0.00     0.120 C 
ATOM     28  C   UNL     1      10.423  26.916   1.470  1.00  0.00     0.014 C 
ATOM     29  C   UNL     1       8.206  27.097   0.353  1.00  0.00     0.014 C 
ENDROOT
BRANCH   1  30
ATOM     30  C   UNL     1      12.436  30.329  -7.959  1.00  0.00     0.048 C 
ATOM     31  O   UNL     1      13.388  31.004  -7.483  1.00  0.00    -0.550 OA
ATOM     32  O   UNL     1      12.701  29.469  -9.020  1.00  0.00    -0.550 OA
ENDBRANCH   1  30
BRANCH  27  33
ATOM     33  O   UNL     1       7.997  28.889   2.374  1.00  0.00    -0.393 OA
ATOM     34  H   UNL     1       7.395  28.351   1.794  1.00  0.00     0.210 HD
ENDBRANCH  27  33
TORSDOF 2
ENDMDL
MODEL 3
REMARK VINA RESULT:     0.659      2.432      7.579
REMARK INTER + INTRA:           0.540
REMARK INTER:                   0.741
REMARK INTRA:                  -0.201
REMARK UNBOUND:                -0.177
REMARK SMILES C[C@H]1[C@H](C)CC[C@]2(C(=O)[O-])CC[C@@]3(C)C(=CC[C@H]4[C@]5(C)CC[C@@H](O)C(C)(C)[C@H]5CC[C@]43C)[C@H]12
REMARK SMILES IDX 7 1 6 2 11 3 33 4 5 5 12 6 15 7 2 8 3 9 13 10 16 11 1 12
REMARK SMILES IDX 4 13 14 14 31 15 17 16 18 17 30 18 32 19 19 20 29 21 28 22
REMARK SMILES IDX 21 23 20 24 25 25 22 26 23 27 26 28 27 29 8 30 9 31 10 32
REMARK SMILES IDX 24 33
REMARK H PARENT 24 34
REMARK Flexibility Score: inf
ROOT
ATOM      1  C   UNL     1       8.937  31.585  -8.254  1.00  0.00     0.017 C 
ATOM      2  C   UNL     1       8.032  32.485  -9.159  1.00  0.00     0.014 C 
ATOM      3  C   UNL     1       7.960  30.760  -7.316  1.00  0.00     0.014 C 
ATOM      4  C   UNL     1       9.995  32.437  -7.409  1.00  0.00     0.030 C 
ATOM      5  C   UNL     1       8.783  33.704  -9.655  1.00  0.00     0.004 C 
ATOM      6  C   UNL     1       8.457  30.419  -5.884  1.00  0.00     0.013 C 
ATOM      7  C   UNL     1      10.519  31.636  -6.165  1.00  0.00    -0.063 C 
ATOM      8  C   UNL     1       9.389  33.891  -7.134  1.00  0.00    -0.003 C 
ATOM      9  C   UNL     1       9.060  34.651  -8.476  1.00  0.00    -0.011 C 
ATOM     10  C   UNL     1       9.989  30.228  -5.779  1.00  0.00    -0.006 C 
ATOM     11  C   UNL     1      11.217  32.289  -5.231  1.00  0.00    -0.027 C 
ATOM     12  C   UNL     1      10.266  34.854  -6.297  1.00  0.00     0.008 C 
ATOM     13  C   UNL     1       7.875  35.626  -8.294  1.00  0.00     0.008 C 
ATOM     14  C   UNL     1      10.437  29.135  -6.813  1.00  0.00     0.017 C 
ATOM     15  C   UNL     1      10.547  29.738  -4.312  1.00  0.00    -0.020 C 
ATOM     16  C   UNL     1      10.661  32.310  -3.837  1.00  0.00     0.032 C 
ATOM     17  C   UNL     1      10.546  30.904  -3.215  1.00  0.00     0.006 C 
ATOM     18  C   UNL     1       9.830  28.385  -3.847  1.00  0.00     0.008 C 
ATOM     19  C   UNL     1      12.079  29.361  -4.455  1.00  0.00     0.012 C 
ATOM     20  C   UNL     1       9.517  30.758  -2.027  1.00  0.00    -0.025 C 
ATOM     21  C   UNL     1       9.220  28.258  -2.429  1.00  0.00     0.005 C 
ATOM     22  C   UNL     1       9.755  29.312  -1.452  1.00  0.00     0.003 C 
ATOM     23  C   UNL     1       9.778  31.823  -0.903  1.00  0.00     0.010 C 
ATOM     24  C   UNL     1       8.057  30.980  -2.523  1.00  0.00     0.012 C 
ATOM     25  C   UNL     1       9.401  29.116   0.075  1.00  0.00    -0.006 C 
ATOM     26  C   UNL     1      10.779  31.355   0.152  1.00  0.00     0.033 C 
ATOM     27  C   UNL     1      10.275  30.116   0.934  1.00  0.00     0.120 C 
ATOM     28  C   UNL     1       9.766  27.676   0.528  1.00  0.00     0.014 C 
ATOM     29  C   UNL     1       7.887  29.300   0.362  1.00  0.00     0.014 C 
ENDROOT
BRANCH   1  30
ATOM     30  C   UNL     1       9.655  30.668  -9.251  1.00  0.00     0.048 C 
ATOM     31  O   UNL     1      10.828  30.910  -9.643  1.00  0.00    -0.550 OA
ATOM     32  O   UNL     1       8.978  29.591  -9.817  1.00  0.00    -0.550 OA
ENDBRANCH   1  30
BRANCH  27  33
ATOM     33  O   UNL     1       9.579  30.529   2.085  1.00  0.00    -0.393 OA
ATOM     34  H   UNL     1       8.888  31.182   1.794  1.00  0.00     0.210 HD
ENDBRANCH  27  33
TORSDOF 2
ENDMDL
MODEL 4
REMARK VINA RESULT:     0.805      2.452      7.641
REMARK INTER + INTRA:           0.699
REMARK INTER:                   0.852
REMARK INTRA:                  -0.153
REMARK UNBOUND:                -0.177
REMARK SMILES C[C@H]1[C@H](C)CC[C@]2(C(=O)[O-])CC[C@@]3(C)C(=CC[C@H]4[C@]5(C)CC[C@@H](O)C(C)(C)[C@H]5CC[C@]43C)[C@H]12
REMARK SMILES IDX 7 1 6 2 11 3 33 4 5 5 12 6 15 7 2 8 3 9 13 10 16 11 1 12
REMARK SMILES IDX 4 13 14 14 31 15 17 16 18 17 30 18 32 19 19 20 29 21 28 22
REMARK SMILES IDX 21 23 20 24 25 25 22 26 23 27 26 28 27 29 8 30 9 31 10 32
REMARK SMILES IDX 24 33
REMARK H PARENT 24 34
REMARK Flexibility Score: inf
ROOT
ATOM      1  C   UNL     1       8.871  31.012  -7.290  1.00  0.00     0.017 C 
ATOM      2  C   UNL     1       7.975  31.870  -8.243  1.00  0.00     0.014 C 
ATOM      3  C   UNL     1       7.888  30.272  -6.289  1.00  0.00     0.014 C 
ATOM      4  C   UNL     1       9.957  31.894  -6.513  1.00  0.00     0.030 C 
ATOM      5  C   UNL     1       8.746  33.038  -8.826  1.00  0.00     0.004 C 
ATOM      6  C   UNL     1       8.394  30.015  -4.843  1.00  0.00     0.013 C 
ATOM      7  C   UNL     1      10.478  31.166  -5.225  1.00  0.00    -0.063 C 
ATOM      8  C   UNL     1       9.385  33.376  -6.328  1.00  0.00    -0.003 C 
ATOM      9  C   UNL     1       9.057  34.054  -7.714  1.00  0.00    -0.011 C 
ATOM     10  C   UNL     1       9.924  29.798  -4.741  1.00  0.00    -0.006 C 
ATOM     11  C   UNL     1      11.202  31.863  -4.344  1.00  0.00    -0.027 C 
ATOM     12  C   UNL     1      10.292  34.373  -5.566  1.00  0.00     0.008 C 
ATOM     13  C   UNL     1       7.895  35.065  -7.585  1.00  0.00     0.008 C 
ATOM     14  C   UNL     1      10.335  28.630  -5.706  1.00  0.00     0.017 C 
ATOM     15  C   UNL     1      10.488  29.393  -3.252  1.00  0.00    -0.020 C 
ATOM     16  C   UNL     1      10.663  31.988  -2.948  1.00  0.00     0.032 C 
ATOM     17  C   UNL     1      10.525  30.628  -2.234  1.00  0.00     0.006 C 
ATOM     18  C   UNL     1       9.748  28.090  -2.691  1.00  0.00     0.008 C 
ATOM     19  C   UNL     1      12.009  28.974  -3.385  1.00  0.00     0.012 C 
ATOM     20  C   UNL     1       9.507  30.583  -1.028  1.00  0.00    -0.025 C 
ATOM     21  C   UNL     1       9.152  28.070  -1.261  1.00  0.00     0.005 C 
ATOM     22  C   UNL     1       9.721  29.173  -0.361  1.00  0.00     0.003 C 
ATOM     23  C   UNL     1       9.804  31.714   0.021  1.00  0.00     0.010 C 
ATOM     24  C   UNL     1       8.047  30.805  -1.522  1.00  0.00     0.012 C 
ATOM     25  C   UNL     1       9.382  29.087   1.179  1.00  0.00    -0.006 C 
ATOM     26  C   UNL     1      10.807  31.294   1.094  1.00  0.00     0.033 C 
ATOM     27  C   UNL     1      10.287  30.120   1.961  1.00  0.00     0.120 C 
ATOM     28  C   UNL     1       9.720  27.671   1.722  1.00  0.00     0.014 C 
ATOM     29  C   UNL     1       7.875  29.322   1.469  1.00  0.00     0.014 C 
ENDROOT
BRANCH   1  30
ATOM     30  C   UNL     1       9.558  30.016  -8.231  1.00  0.00     0.048 C 
ATOM     31  O   UNL     1      10.783  30.108  -8.509  1.00  0.00    -0.550 OA
ATOM     32  O   UNL     1       8.806  29.038  -8.876  1.00  0.00    -0.550 OA
ENDBRANCH   1  30
BRANCH  27  33
ATOM     33  O   UNL     1       9.613  30.624   3.090  1.00  0.00    -0.393 OA
ATOM     34  H   UNL     1      10.150  31.385   3.439  1.00  0.00     0.210 HD
ENDBRANCH  27  33
TORSDOF 2
ENDMDL
