MODEL 1
REMARK VINA RESULT:    -2.967      0.000      0.000
REMARK INTER + INTRA:          -6.587
REMARK INTER:                  -5.049
REMARK INTRA:                  -1.539
REMARK UNBOUND:                -1.539
REMARK SMILES CCCCCCCCCCCCCC(=O)[O-]
REMARK SMILES IDX 8 1 9 2 10 3 11 4 12 5 13 6 14 7 15 8 16 9 7 10 6 11 5 12
REMARK SMILES IDX 4 13 3 14 2 15 1 16
REMARK H PARENT
REMARK Flexibility Score: inf
ROOT
ATOM      1  C   UNL     1       3.509  20.343   5.877  1.00  0.00     0.000 C 
ENDROOT
BRANCH   1   2
ATOM      2  C   UNL     1       4.056  18.911   5.992  1.00  0.00     0.000 C 
BRANCH   2   3
ATOM      3  C   UNL     1       5.285  18.818   6.911  1.00  0.00     0.000 C 
BRANCH   3   4
ATOM      4  C   UNL     1       5.185  17.596   7.836  1.00  0.00     0.000 C 
BRANCH   4   5
ATOM      5  C   UNL     1       3.937  16.743   7.557  1.00  0.00     0.006 C 
BRANCH   5   6
ATOM      6  C   UNL     1       4.131  15.269   7.938  1.00  0.00     0.053 C 
BRANCH   6   7
ATOM      7  C   UNL     1       4.308  14.432   6.710  1.00  0.00     0.041 C 
ATOM      8  O   UNL     1       5.008  14.853   5.752  1.00  0.00    -0.550 OA
ATOM      9  O   UNL     1       3.658  13.209   6.604  1.00  0.00    -0.550 OA
ENDBRANCH   6   7
ENDBRANCH   5   6
ENDBRANCH   4   5
ENDBRANCH   3   4
ENDBRANCH   2   3
ENDBRANCH   1   2
BRANCH   1  10
ATOM     10  C   UNL     1       2.035  20.382   5.450  1.00  0.00     0.000 C 
BRANCH  10  11
ATOM     11  C   UNL     1       1.108  20.355   6.671  1.00  0.00    -0.000 C 
BRANCH  11  12
ATOM     12  C   UNL     1       1.678  21.206   7.813  1.00  0.00    -0.000 C 
BRANCH  12  13
ATOM     13  C   UNL     1       1.492  20.507   9.165  1.00  0.00    -0.000 C 
BRANCH  13  14
ATOM     14  C   UNL     1       2.734  19.682   9.533  1.00  0.00    -0.000 C 
BRANCH  14  15
ATOM     15  C   UNL     1       2.661  19.107  10.956  1.00  0.00    -0.003 C 
ATOM     16  C   UNL     1       3.542  17.873  11.141  1.00  0.00     0.004 C 
ENDBRANCH  14  15
ENDBRANCH  13  14
ENDBRANCH  12  13
ENDBRANCH  11  12
ENDBRANCH  10  11
ENDBRANCH   1  10
TORSDOF 12
ENDMDL
MODEL 2
REMARK VINA RESULT:    -2.875      0.868      1.438
REMARK INTER + INTRA:          -6.431
REMARK INTER:                  -4.784
REMARK INTRA:                  -1.648
REMARK UNBOUND:                -1.539
REMARK SMILES CCCCCCCCCCCCCC(=O)[O-]
REMARK SMILES IDX 8 1 9 2 10 3 11 4 12 5 13 6 14 7 15 8 16 9 7 10 6 11 5 12
REMARK SMILES IDX 4 13 3 14 2 15 1 16
REMARK H PARENT
REMARK Flexibility Score: inf
ROOT
ATOM      1  C   UNL     1       3.176  19.791   5.626  1.00  0.00     0.000 C 
ENDROOT
BRANCH   1   2
ATOM      2  C   UNL     1       4.630  19.631   6.096  1.00  0.00     0.000 C 
BRANCH   2   3
ATOM      3  C   UNL     1       5.151  18.194   5.934  1.00  0.00     0.000 C 
BRANCH   3   4
ATOM      4  C   UNL     1       5.237  17.486   7.295  1.00  0.00     0.000 C 
BRANCH   4   5
ATOM      5  C   UNL     1       4.054  16.538   7.544  1.00  0.00     0.006 C 
BRANCH   5   6
ATOM      6  C   UNL     1       4.500  15.095   7.815  1.00  0.00     0.053 C 
BRANCH   6   7
ATOM      7  C   UNL     1       4.282  14.246   6.602  1.00  0.00     0.041 C 
ATOM      8  O   UNL     1       3.683  13.143   6.699  1.00  0.00    -0.550 OA
ATOM      9  O   UNL     1       4.785  14.651   5.371  1.00  0.00    -0.550 OA
ENDBRANCH   6   7
ENDBRANCH   5   6
ENDBRANCH   4   5
ENDBRANCH   3   4
ENDBRANCH   2   3
ENDBRANCH   1   2
BRANCH   1  10
ATOM     10  C   UNL     1       2.170  19.765   6.787  1.00  0.00     0.000 C 
BRANCH  10  11
ATOM     11  C   UNL     1       2.816  20.270   8.084  1.00  0.00    -0.000 C 
BRANCH  11  12
ATOM     12  C   UNL     1       1.762  20.474   9.180  1.00  0.00    -0.000 C 
BRANCH  12  13
ATOM     13  C   UNL     1       2.113  19.668  10.437  1.00  0.00    -0.000 C 
BRANCH  13  14
ATOM     14  C   UNL     1       3.460  18.951  10.272  1.00  0.00    -0.000 C 
BRANCH  14  15
ATOM     15  C   UNL     1       3.555  17.671  11.116  1.00  0.00    -0.003 C 
ATOM     16  C   UNL     1       4.973  17.106  11.176  1.00  0.00     0.004 C 
ENDBRANCH  14  15
ENDBRANCH  13  14
ENDBRANCH  12  13
ENDBRANCH  11  12
ENDBRANCH  10  11
ENDBRANCH   1  10
TORSDOF 12
ENDMDL
MODEL 3
REMARK VINA RESULT:    -2.874      1.353      3.521
REMARK INTER + INTRA:          -6.429
REMARK INTER:                  -4.473
REMARK INTRA:                  -1.956
REMARK UNBOUND:                -1.539
REMARK SMILES CCCCCCCCCCCCCC(=O)[O-]
REMARK SMILES IDX 8 1 9 2 10 3 11 4 12 5 13 6 14 7 15 8 16 9 7 10 6 11 5 12
REMARK SMILES IDX 4 13 3 14 2 15 1 16
REMARK H PARENT
REMARK Flexibility Score: inf
ROOT
ATOM      1  C   UNL     1       2.553  20.410   9.106  1.00  0.00     0.000 C 
ENDROOT
BRANCH   1   2
ATOM      2  C   UNL     1       2.530  19.416  10.277  1.00  0.00     0.000 C 
BRANCH   2   3
ATOM      3  C   UNL     1       3.520  18.255  10.090  1.00  0.00     0.000 C 
BRANCH   3   4
ATOM      4  C   UNL     1       4.716  18.689   9.229  1.00  0.00     0.000 C 
BRANCH   4   5
ATOM      5  C   UNL     1       5.143  17.610   8.222  1.00  0.00     0.006 C 
BRANCH   5   6
ATOM      6  C   UNL     1       3.953  16.818   7.664  1.00  0.00     0.053 C 
BRANCH   6   7
ATOM      7  C   UNL     1       4.113  15.360   7.958  1.00  0.00     0.041 C 
ATOM      8  O   UNL     1       3.676  14.499   7.150  1.00  0.00    -0.550 OA
ATOM      9  O   UNL     1       4.700  14.952   9.149  1.00  0.00    -0.550 OA
ENDBRANCH   6   7
ENDBRANCH   5   6
ENDBRANCH   4   5
ENDBRANCH   3   4
ENDBRANCH   2   3
ENDBRANCH   1   2
BRANCH   1  10
ATOM     10  C   UNL     1       1.147  20.863   8.684  1.00  0.00     0.000 C 
BRANCH  10  11
ATOM     11  C   UNL     1       0.970  20.762   7.165  1.00  0.00    -0.000 C 
BRANCH  11  12
ATOM     12  C   UNL     1       1.935  19.733   6.565  1.00  0.00    -0.000 C 
BRANCH  12  13
ATOM     13  C   UNL     1       2.618  20.285   5.308  1.00  0.00    -0.000 C 
BRANCH  13  14
ATOM     14  C   UNL     1       4.113  19.938   5.296  1.00  0.00    -0.000 C 
BRANCH  14  15
ATOM     15  C   UNL     1       4.929  20.805   6.268  1.00  0.00    -0.003 C 
ATOM     16  C   UNL     1       4.578  22.289   6.173  1.00  0.00     0.004 C 
ENDBRANCH  14  15
ENDBRANCH  13  14
ENDBRANCH  12  13
ENDBRANCH  11  12
ENDBRANCH  10  11
ENDBRANCH   1  10
TORSDOF 12
ENDMDL
MODEL 4
REMARK VINA RESULT:    -2.829      2.584      5.024
REMARK INTER + INTRA:          -6.352
REMARK INTER:                  -5.138
REMARK INTRA:                  -1.214
REMARK UNBOUND:                -1.539
REMARK SMILES CCCCCCCCCCCCCC(=O)[O-]
REMARK SMILES IDX 8 1 9 2 10 3 11 4 12 5 13 6 14 7 15 8 16 9 7 10 6 11 5 12
REMARK SMILES IDX 4 13 3 14 2 15 1 16
REMARK H PARENT
REMARK Flexibility Score: inf
ROOT
ATOM      1  C   UNL     1       2.469  20.134   9.050  1.00  0.00     0.000 C 
ENDROOT
BRANCH   1   2
ATOM      2  C   UNL     1       1.531  20.683   7.963  1.00  0.00     0.000 C 
BRANCH   2   3
ATOM      3  C   UNL     1       1.744  20.006   6.600  1.00  0.00     0.000 C 
BRANCH   3   4
ATOM      4  C   UNL     1       2.884  18.979   6.670  1.00  0.00     0.000 C 
BRANCH   4   5
ATOM      5  C   UNL     1       4.035  19.306   5.705  1.00  0.00     0.006 C 
BRANCH   5   6
ATOM      6  C   UNL     1       3.673  20.414   4.707  1.00  0.00     0.053 C 
BRANCH   6   7
ATOM      7  C   UNL     1       4.790  20.623   3.734  1.00  0.00     0.041 C 
ATOM      8  O   UNL     1       5.053  19.744   2.872  1.00  0.00    -0.550 OA
ATOM      9  O   UNL     1       5.572  21.769   3.809  1.00  0.00    -0.550 OA
ENDBRANCH   6   7
ENDBRANCH   5   6
ENDBRANCH   4   5
ENDBRANCH   3   4
ENDBRANCH   2   3
ENDBRANCH   1   2
BRANCH   1  10
ATOM     10  C   UNL     1       1.758  19.922  10.395  1.00  0.00     0.000 C 
BRANCH  10  11
ATOM     11  C   UNL     1       2.509  18.902  11.259  1.00  0.00    -0.000 C 
BRANCH  11  12
ATOM     12  C   UNL     1       3.634  18.229  10.463  1.00  0.00    -0.000 C 
BRANCH  12  13
ATOM     13  C   UNL     1       4.106  16.945  11.155  1.00  0.00    -0.000 C 
BRANCH  13  14
ATOM     14  C   UNL     1       4.462  15.864  10.125  1.00  0.00    -0.000 C 
BRANCH  14  15
ATOM     15  C   UNL     1       4.481  16.402   8.686  1.00  0.00    -0.003 C 
ATOM     16  C   UNL     1       3.964  15.388   7.667  1.00  0.00     0.004 C 
ENDBRANCH  14  15
ENDBRANCH  13  14
ENDBRANCH  12  13
ENDBRANCH  11  12
ENDBRANCH  10  11
ENDBRANCH   1  10
TORSDOF 12
ENDMDL
MODEL 5
REMARK VINA RESULT:    -2.788      1.376      3.741
REMARK INTER + INTRA:          -6.282
REMARK INTER:                  -4.806
REMARK INTRA:                  -1.476
REMARK UNBOUND:                -1.539
REMARK SMILES CCCCCCCCCCCCCC(=O)[O-]
REMARK SMILES IDX 8 1 9 2 10 3 11 4 12 5 13 6 14 7 15 8 16 9 7 10 6 11 5 12
REMARK SMILES IDX 4 13 3 14 2 15 1 16
REMARK H PARENT
REMARK Flexibility Score: inf
ROOT
ATOM      1  C   UNL     1       1.197  20.379  10.631  1.00  0.00     0.000 C 
ENDROOT
BRANCH   1   2
ATOM      2  C   UNL     1       2.437  19.772   9.955  1.00  0.00     0.000 C 
BRANCH   2   3
ATOM      3  C   UNL     1       3.043  18.612  10.761  1.00  0.00     0.000 C 
BRANCH   3   4
ATOM      4  C   UNL     1       4.004  17.785   9.894  1.00  0.00     0.000 C 
BRANCH   4   5
ATOM      5  C   UNL     1       4.211  18.392   8.497  1.00  0.00     0.006 C 
BRANCH   5   6
ATOM      6  C   UNL     1       3.812  17.431   7.370  1.00  0.00     0.053 C 
BRANCH   6   7
ATOM      7  C   UNL     1       4.545  16.134   7.506  1.00  0.00     0.041 C 
ATOM      8  O   UNL     1       5.801  16.103   7.419  1.00  0.00    -0.550 OA
ATOM      9  O   UNL     1       3.838  14.951   7.680  1.00  0.00    -0.550 OA
ENDBRANCH   6   7
ENDBRANCH   5   6
ENDBRANCH   4   5
ENDBRANCH   3   4
ENDBRANCH   2   3
ENDBRANCH   1   2
BRANCH   1  10
ATOM     10  C   UNL     1       0.426  21.333   9.706  1.00  0.00     0.000 C 
BRANCH  10  11
ATOM     11  C   UNL     1       1.384  22.107   8.793  1.00  0.00    -0.000 C 
BRANCH  11  12
ATOM     12  C   UNL     1       0.840  22.181   7.361  1.00  0.00    -0.000 C 
BRANCH  12  13
ATOM     13  C   UNL     1       0.325  20.813   6.896  1.00  0.00    -0.000 C 
BRANCH  13  14
ATOM     14  C   UNL     1       1.458  19.977   6.285  1.00  0.00    -0.000 C 
BRANCH  14  15
ATOM     15  C   UNL     1       2.179  20.707   5.140  1.00  0.00    -0.003 C 
ATOM     16  C   UNL     1       3.666  20.365   5.065  1.00  0.00     0.004 C 
ENDBRANCH  14  15
ENDBRANCH  13  14
ENDBRANCH  12  13
ENDBRANCH  11  12
ENDBRANCH  10  11
ENDBRANCH   1  10
TORSDOF 12
ENDMDL
MODEL 6
REMARK VINA RESULT:    -2.778      2.139      4.335
REMARK INTER + INTRA:          -6.265
REMARK INTER:                  -4.961
REMARK INTRA:                  -1.303
REMARK UNBOUND:                -1.539
REMARK SMILES CCCCCCCCCCCCCC(=O)[O-]
REMARK SMILES IDX 8 1 9 2 10 3 11 4 12 5 13 6 14 7 15 8 16 9 7 10 6 11 5 12
REMARK SMILES IDX 4 13 3 14 2 15 1 16
REMARK H PARENT
REMARK Flexibility Score: inf
ROOT
ATOM      1  C   UNL     1       0.342  21.200   8.006  1.00  0.00     0.000 C 
ENDROOT
BRANCH   1   2
ATOM      2  C   UNL     1       1.586  20.894   8.855  1.00  0.00     0.000 C 
BRANCH   2   3
ATOM      3  C   UNL     1       1.234  20.408  10.269  1.00  0.00     0.000 C 
BRANCH   3   4
ATOM      4  C   UNL     1       2.342  19.502  10.829  1.00  0.00     0.000 C 
BRANCH   4   5
ATOM      5  C   UNL     1       3.171  18.830   9.723  1.00  0.00     0.006 C 
BRANCH   5   6
ATOM      6  C   UNL     1       4.477  18.222  10.251  1.00  0.00     0.053 C 
BRANCH   6   7
ATOM      7  C   UNL     1       4.248  16.818  10.716  1.00  0.00     0.041 C 
ATOM      8  O   UNL     1       4.137  16.567  11.944  1.00  0.00    -0.550 OA
ATOM      9  O   UNL     1       4.205  15.779   9.794  1.00  0.00    -0.550 OA
ENDBRANCH   6   7
ENDBRANCH   5   6
ENDBRANCH   4   5
ENDBRANCH   3   4
ENDBRANCH   2   3
ENDBRANCH   1   2
BRANCH   1  10
ATOM     10  C   UNL     1       0.399  20.551   6.615  1.00  0.00     0.000 C 
BRANCH  10  11
ATOM     11  C   UNL     1       1.728  19.815   6.406  1.00  0.00    -0.000 C 
BRANCH  11  12
ATOM     12  C   UNL     1       2.535  20.448   5.266  1.00  0.00    -0.000 C 
BRANCH  12  13
ATOM     13  C   UNL     1       3.954  19.869   5.208  1.00  0.00    -0.000 C 
BRANCH  13  14
ATOM     14  C   UNL     1       4.103  18.682   6.171  1.00  0.00    -0.000 C 
BRANCH  14  15
ATOM     15  C   UNL     1       4.913  17.526   5.563  1.00  0.00    -0.003 C 
ATOM     16  C   UNL     1       5.572  16.645   6.623  1.00  0.00     0.004 C 
ENDBRANCH  14  15
ENDBRANCH  13  14
ENDBRANCH  12  13
ENDBRANCH  11  12
ENDBRANCH  10  11
ENDBRANCH   1  10
TORSDOF 12
ENDMDL
MODEL 7
REMARK VINA RESULT:    -2.751      1.382      3.631
REMARK INTER + INTRA:          -6.219
REMARK INTER:                  -4.574
REMARK INTRA:                  -1.645
REMARK UNBOUND:                -1.539
REMARK SMILES CCCCCCCCCCCCCC(=O)[O-]
REMARK SMILES IDX 8 1 9 2 10 3 11 4 12 5 13 6 14 7 15 8 16 9 7 10 6 11 5 12
REMARK SMILES IDX 4 13 3 14 2 15 1 16
REMARK H PARENT
REMARK Flexibility Score: inf
ROOT
ATOM      1  C   UNL     1       2.798  18.991  10.333  1.00  0.00     0.000 C 
ENDROOT
BRANCH   1   2
ATOM      2  C   UNL     1       3.624  17.935  11.084  1.00  0.00     0.000 C 
BRANCH   2   3
ATOM      3  C   UNL     1       4.695  17.279  10.199  1.00  0.00     0.000 C 
BRANCH   3   4
ATOM      4  C   UNL     1       4.261  15.869   9.768  1.00  0.00     0.000 C 
BRANCH   4   5
ATOM      5  C   UNL     1       4.958  15.404   8.479  1.00  0.00     0.006 C 
BRANCH   5   6
ATOM      6  C   UNL     1       3.967  14.923   7.412  1.00  0.00     0.053 C 
BRANCH   6   7
ATOM      7  C   UNL     1       4.278  13.516   7.007  1.00  0.00     0.041 C 
ATOM      8  O   UNL     1       3.630  12.965   6.079  1.00  0.00    -0.550 OA
ATOM      9  O   UNL     1       5.251  12.796   7.690  1.00  0.00    -0.550 OA
ENDBRANCH   6   7
ENDBRANCH   5   6
ENDBRANCH   4   5
ENDBRANCH   3   4
ENDBRANCH   2   3
ENDBRANCH   1   2
BRANCH   1  10
ATOM     10  C   UNL     1       3.553  19.594   9.138  1.00  0.00     0.000 C 
BRANCH  10  11
ATOM     11  C   UNL     1       2.576  20.175   8.109  1.00  0.00    -0.000 C 
BRANCH  11  12
ATOM     12  C   UNL     1       2.444  19.251   6.892  1.00  0.00    -0.000 C 
BRANCH  12  13
ATOM     13  C   UNL     1       3.742  18.473   6.647  1.00  0.00    -0.000 C 
BRANCH  13  14
ATOM     14  C   UNL     1       4.515  19.055   5.455  1.00  0.00    -0.000 C 
BRANCH  14  15
ATOM     15  C   UNL     1       6.027  19.139   5.716  1.00  0.00    -0.003 C 
ATOM     16  C   UNL     1       6.435  18.503   7.044  1.00  0.00     0.004 C 
ENDBRANCH  14  15
ENDBRANCH  13  14
ENDBRANCH  12  13
ENDBRANCH  11  12
ENDBRANCH  10  11
ENDBRANCH   1  10
TORSDOF 12
ENDMDL
MODEL 8
REMARK VINA RESULT:    -2.747      2.256      2.710
REMARK INTER + INTRA:          -6.213
REMARK INTER:                  -5.044
REMARK INTRA:                  -1.170
REMARK UNBOUND:                -1.539
REMARK SMILES CCCCCCCCCCCCCC(=O)[O-]
REMARK SMILES IDX 8 1 9 2 10 3 11 4 12 5 13 6 14 7 15 8 16 9 7 10 6 11 5 12
REMARK SMILES IDX 4 13 3 14 2 15 1 16
REMARK H PARENT
REMARK Flexibility Score: inf
ROOT
ATOM      1  C   UNL     1       3.991  19.060   5.926  1.00  0.00     0.000 C 
ENDROOT
BRANCH   1   2
ATOM      2  C   UNL     1       3.626  18.199   7.146  1.00  0.00     0.000 C 
BRANCH   2   3
ATOM      3  C   UNL     1       4.557  16.989   7.318  1.00  0.00     0.000 C 
BRANCH   3   4
ATOM      4  C   UNL     1       4.088  16.097   8.478  1.00  0.00     0.000 C 
BRANCH   4   5
ATOM      5  C   UNL     1       5.186  15.868   9.529  1.00  0.00     0.006 C 
BRANCH   5   6
ATOM      6  C   UNL     1       4.617  15.553  10.919  1.00  0.00     0.053 C 
BRANCH   6   7
ATOM      7  C   UNL     1       4.742  14.091  11.214  1.00  0.00     0.041 C 
ATOM      8  O   UNL     1       4.129  13.587  12.191  1.00  0.00    -0.550 OA
ATOM      9  O   UNL     1       5.577  13.295  10.439  1.00  0.00    -0.550 OA
ENDBRANCH   6   7
ENDBRANCH   5   6
ENDBRANCH   4   5
ENDBRANCH   3   4
ENDBRANCH   2   3
ENDBRANCH   1   2
BRANCH   1  10
ATOM     10  C   UNL     1       2.907  20.093   5.583  1.00  0.00     0.000 C 
BRANCH  10  11
ATOM     11  C   UNL     1       1.672  19.910   6.473  1.00  0.00    -0.000 C 
BRANCH  11  12
ATOM     12  C   UNL     1       1.262  21.236   7.125  1.00  0.00    -0.000 C 
BRANCH  12  13
ATOM     13  C   UNL     1       0.847  21.026   8.586  1.00  0.00    -0.000 C 
BRANCH  13  14
ATOM     14  C   UNL     1       2.072  20.767   9.473  1.00  0.00    -0.000 C 
BRANCH  14  15
ATOM     15  C   UNL     1       1.767  19.812  10.638  1.00  0.00    -0.003 C 
ATOM     16  C   UNL     1       2.863  18.769  10.851  1.00  0.00     0.004 C 
ENDBRANCH  14  15
ENDBRANCH  13  14
ENDBRANCH  12  13
ENDBRANCH  11  12
ENDBRANCH  10  11
ENDBRANCH   1  10
TORSDOF 12
ENDMDL
MODEL 9
REMARK VINA RESULT:    -2.712      1.378      1.758
REMARK INTER + INTRA:          -6.153
REMARK INTER:                  -5.027
REMARK INTRA:                  -1.127
REMARK UNBOUND:                -1.539
REMARK SMILES CCCCCCCCCCCCCC(=O)[O-]
REMARK SMILES IDX 8 1 9 2 10 3 11 4 12 5 13 6 14 7 15 8 16 9 7 10 6 11 5 12
REMARK SMILES IDX 4 13 3 14 2 15 1 16
REMARK H PARENT
REMARK Flexibility Score: inf
ROOT
ATOM      1  C   UNL     1       4.581  19.126   5.781  1.00  0.00     0.000 C 
ENDROOT
BRANCH   1   2
ATOM      2  C   UNL     1       5.106  17.866   5.075  1.00  0.00     0.000 C 
BRANCH   2   3
ATOM      3  C   UNL     1       5.241  16.666   6.026  1.00  0.00     0.000 C 
BRANCH   3   4
ATOM      4  C   UNL     1       4.349  16.845   7.264  1.00  0.00     0.000 C 
BRANCH   4   5
ATOM      5  C   UNL     1       3.983  15.508   7.928  1.00  0.00     0.006 C 
BRANCH   5   6
ATOM      6  C   UNL     1       4.368  14.297   7.069  1.00  0.00     0.053 C 
BRANCH   6   7
ATOM      7  C   UNL     1       5.386  13.459   7.776  1.00  0.00     0.041 C 
ATOM      8  O   UNL     1       6.544  13.909   7.984  1.00  0.00    -0.550 OA
ATOM      9  O   UNL     1       5.072  12.162   8.162  1.00  0.00    -0.550 OA
ENDBRANCH   6   7
ENDBRANCH   5   6
ENDBRANCH   4   5
ENDBRANCH   3   4
ENDBRANCH   2   3
ENDBRANCH   1   2
BRANCH   1  10
ATOM     10  C   UNL     1       3.857  20.085   4.824  1.00  0.00     0.000 C 
BRANCH  10  11
ATOM     11  C   UNL     1       2.531  20.565   5.426  1.00  0.00    -0.000 C 
BRANCH  11  12
ATOM     12  C   UNL     1       2.076  19.642   6.563  1.00  0.00    -0.000 C 
BRANCH  12  13
ATOM     13  C   UNL     1       1.953  20.414   7.882  1.00  0.00    -0.000 C 
BRANCH  13  14
ATOM     14  C   UNL     1       2.784  19.749   8.989  1.00  0.00    -0.000 C 
BRANCH  14  15
ATOM     15  C   UNL     1       2.037  19.679  10.329  1.00  0.00    -0.003 C 
ATOM     16  C   UNL     1       2.702  18.736  11.330  1.00  0.00     0.004 C 
ENDBRANCH  14  15
ENDBRANCH  13  14
ENDBRANCH  12  13
ENDBRANCH  11  12
ENDBRANCH  10  11
ENDBRANCH   1  10
TORSDOF 12
ENDMDL
