MODEL 1
REMARK VINA RESULT:    -6.498      0.000      0.000
REMARK INTER + INTRA:         -17.118
REMARK INTER:                 -14.856
REMARK INTRA:                  -2.262
REMARK UNBOUND:                -2.262
REMARK SMILES CCCCCCCCCCCCCCCCCCCCCCCC(=O)[O-]
REMARK SMILES IDX 13 1 14 2 15 3 16 4 17 5 18 6 19 7 20 8 21 9 22 10 23 11
REMARK SMILES IDX 24 12 25 13 26 14 12 15 11 16 10 17 9 18 8 19 7 20 6 21 5 22
REMARK SMILES IDX 4 23 3 24 2 25 1 26
REMARK H PARENT
REMARK Flexibility Score: inf
ROOT
ATOM      1  C   UNL     1     -12.955 -10.959  -5.746  1.00  0.00     0.000 C 
ENDROOT
BRANCH   1   2
ATOM      2  C   UNL     1     -11.741 -11.372  -4.893  1.00  0.00     0.000 C 
BRANCH   2   3
ATOM      3  C   UNL     1     -12.090 -11.503  -3.399  1.00  0.00     0.000 C 
BRANCH   3   4
ATOM      4  C   UNL     1     -11.185 -12.505  -2.665  1.00  0.00     0.000 C 
BRANCH   4   5
ATOM      5  C   UNL     1     -11.398 -12.498  -1.141  1.00  0.00     0.000 C 
BRANCH   5   6
ATOM      6  C   UNL     1     -10.776 -11.268  -0.463  1.00  0.00     0.000 C 
BRANCH   6   7
ATOM      7  C   UNL     1      -9.437 -11.583   0.222  1.00  0.00     0.000 C 
BRANCH   7   8
ATOM      8  C   UNL     1      -9.008 -13.029  -0.050  1.00  0.00     0.000 C 
BRANCH   8   9
ATOM      9  C   UNL     1      -7.710 -13.074  -0.864  1.00  0.00     0.000 C 
BRANCH   9  10
ATOM     10  C   UNL     1      -7.216 -14.519  -1.035  1.00  0.00     0.006 C 
BRANCH  10  11
ATOM     11  C   UNL     1      -8.197 -15.379  -1.843  1.00  0.00     0.053 C 
BRANCH  11  12
ATOM     12  C   UNL     1      -7.899 -16.841  -1.708  1.00  0.00     0.041 C 
ATOM     13  O   UNL     1      -8.096 -17.430  -0.611  1.00  0.00    -0.550 OA
ATOM     14  O   UNL     1      -7.447 -17.564  -2.804  1.00  0.00    -0.550 OA
ENDBRANCH  11  12
ENDBRANCH  10  11
ENDBRANCH   9  10
ENDBRANCH   8   9
ENDBRANCH   7   8
ENDBRANCH   6   7
ENDBRANCH   5   6
ENDBRANCH   4   5
ENDBRANCH   3   4
ENDBRANCH   2   3
ENDBRANCH   1   2
BRANCH   1  15
ATOM     15  C   UNL     1     -12.712  -9.718  -6.624  1.00  0.00     0.000 C 
BRANCH  15  16
ATOM     16  C   UNL     1     -13.858  -9.464  -7.619  1.00  0.00     0.000 C 
BRANCH  16  17
ATOM     17  C   UNL     1     -14.636  -8.171  -7.292  1.00  0.00     0.000 C 
BRANCH  17  18
ATOM     18  C   UNL     1     -15.937  -8.413  -6.510  1.00  0.00    -0.000 C 
BRANCH  18  19
ATOM     19  C   UNL     1     -16.425  -9.869  -6.596  1.00  0.00    -0.000 C 
BRANCH  19  20
ATOM     20  C   UNL     1     -17.787  -9.992  -7.300  1.00  0.00    -0.000 C 
BRANCH  20  21
ATOM     21  C   UNL     1     -17.877  -9.109  -8.558  1.00  0.00    -0.000 C 
BRANCH  21  22
ATOM     22  C   UNL     1     -17.658  -9.903  -9.856  1.00  0.00    -0.000 C 
BRANCH  22  23
ATOM     23  C   UNL     1     -16.177 -10.249 -10.095  1.00  0.00    -0.000 C 
BRANCH  23  24
ATOM     24  C   UNL     1     -15.961 -11.741 -10.390  1.00  0.00    -0.000 C 
BRANCH  24  25
ATOM     25  C   UNL     1     -14.709 -12.307  -9.703  1.00  0.00    -0.003 C 
ATOM     26  C   UNL     1     -15.041 -12.850  -8.317  1.00  0.00     0.004 C 
ENDBRANCH  24  25
ENDBRANCH  23  24
ENDBRANCH  22  23
ENDBRANCH  21  22
ENDBRANCH  20  21
ENDBRANCH  19  20
ENDBRANCH  18  19
ENDBRANCH  17  18
ENDBRANCH  16  17
ENDBRANCH  15  16
ENDBRANCH   1  15
TORSDOF 22
ENDMDL
MODEL 2
REMARK VINA RESULT:    -6.459      0.885      2.577
REMARK INTER + INTRA:         -17.027
REMARK INTER:                 -14.700
REMARK INTRA:                  -2.327
REMARK UNBOUND:                -2.262
REMARK SMILES CCCCCCCCCCCCCCCCCCCCCCCC(=O)[O-]
REMARK SMILES IDX 13 1 14 2 15 3 16 4 17 5 18 6 19 7 20 8 21 9 22 10 23 11
REMARK SMILES IDX 24 12 25 13 26 14 12 15 11 16 10 17 9 18 8 19 7 20 6 21 5 22
REMARK SMILES IDX 4 23 3 24 2 25 1 26
REMARK H PARENT
REMARK Flexibility Score: inf
ROOT
ATOM      1  C   UNL     1     -12.494 -10.756  -5.744  1.00  0.00     0.000 C 
ENDROOT
BRANCH   1   2
ATOM      2  C   UNL     1     -12.276 -10.946  -4.231  1.00  0.00     0.000 C 
BRANCH   2   3
ATOM      3  C   UNL     1     -11.340 -12.127  -3.916  1.00  0.00     0.000 C 
BRANCH   3   4
ATOM      4  C   UNL     1     -11.456 -12.603  -2.460  1.00  0.00     0.000 C 
BRANCH   4   5
ATOM      5  C   UNL     1     -11.777 -11.459  -1.481  1.00  0.00     0.000 C 
BRANCH   5   6
ATOM      6  C   UNL     1     -10.741 -11.338  -0.353  1.00  0.00     0.000 C 
BRANCH   6   7
ATOM      7  C   UNL     1      -9.899 -12.612  -0.182  1.00  0.00     0.000 C 
BRANCH   7   8
ATOM      8  C   UNL     1      -8.407 -12.314  -0.375  1.00  0.00     0.000 C 
BRANCH   8   9
ATOM      9  C   UNL     1      -7.667 -13.540  -0.922  1.00  0.00     0.000 C 
BRANCH   9  10
ATOM     10  C   UNL     1      -8.626 -14.726  -1.105  1.00  0.00     0.006 C 
BRANCH  10  11
ATOM     11  C   UNL     1      -8.297 -15.553  -2.354  1.00  0.00     0.053 C 
BRANCH  11  12
ATOM     12  C   UNL     1      -7.794 -16.920  -2.002  1.00  0.00     0.041 C 
ATOM     13  O   UNL     1      -8.054 -17.421  -0.875  1.00  0.00    -0.550 OA
ATOM     14  O   UNL     1      -7.076 -17.660  -2.933  1.00  0.00    -0.550 OA
ENDBRANCH  11  12
ENDBRANCH  10  11
ENDBRANCH   9  10
ENDBRANCH   8   9
ENDBRANCH   7   8
ENDBRANCH   6   7
ENDBRANCH   5   6
ENDBRANCH   4   5
ENDBRANCH   3   4
ENDBRANCH   2   3
ENDBRANCH   1   2
BRANCH   1  15
ATOM     15  C   UNL     1     -13.885 -11.197  -6.236  1.00  0.00     0.000 C 
BRANCH  15  16
ATOM     16  C   UNL     1     -13.982 -11.243  -7.771  1.00  0.00     0.000 C 
BRANCH  16  17
ATOM     17  C   UNL     1     -15.018 -12.280  -8.258  1.00  0.00     0.000 C 
BRANCH  17  18
ATOM     18  C   UNL     1     -14.983 -12.524  -9.776  1.00  0.00    -0.000 C 
BRANCH  18  19
ATOM     19  C   UNL     1     -15.639 -11.389 -10.579  1.00  0.00    -0.000 C 
BRANCH  19  20
ATOM     20  C   UNL     1     -17.087 -11.716 -10.984  1.00  0.00    -0.000 C 
BRANCH  20  21
ATOM     21  C   UNL     1     -18.072 -10.603 -10.583  1.00  0.00    -0.000 C 
BRANCH  21  22
ATOM     22  C   UNL     1     -17.372  -9.261 -10.314  1.00  0.00    -0.000 C 
BRANCH  22  23
ATOM     23  C   UNL     1     -17.623  -8.738  -8.889  1.00  0.00    -0.000 C 
BRANCH  23  24
ATOM     24  C   UNL     1     -17.629  -9.862  -7.841  1.00  0.00    -0.000 C 
BRANCH  24  25
ATOM     25  C   UNL     1     -17.180  -9.382  -6.453  1.00  0.00    -0.003 C 
ATOM     26  C   UNL     1     -15.981  -8.444  -6.558  1.00  0.00     0.004 C 
ENDBRANCH  24  25
ENDBRANCH  23  24
ENDBRANCH  22  23
ENDBRANCH  21  22
ENDBRANCH  20  21
ENDBRANCH  19  20
ENDBRANCH  18  19
ENDBRANCH  17  18
ENDBRANCH  16  17
ENDBRANCH  15  16
ENDBRANCH   1  15
TORSDOF 22
ENDMDL
MODEL 3
REMARK VINA RESULT:    -6.346      1.372      2.224
REMARK INTER + INTRA:         -16.770
REMARK INTER:                 -15.160
REMARK INTRA:                  -1.610
REMARK UNBOUND:                -2.262
REMARK SMILES CCCCCCCCCCCCCCCCCCCCCCCC(=O)[O-]
REMARK SMILES IDX 13 1 14 2 15 3 16 4 17 5 18 6 19 7 20 8 21 9 22 10 23 11
REMARK SMILES IDX 24 12 25 13 26 14 12 15 11 16 10 17 9 18 8 19 7 20 6 21 5 22
REMARK SMILES IDX 4 23 3 24 2 25 1 26
REMARK H PARENT
REMARK Flexibility Score: inf
ROOT
ATOM      1  C   UNL     1     -12.197  -9.968  -6.122  1.00  0.00     0.000 C 
ENDROOT
BRANCH   1   2
ATOM      2  C   UNL     1     -12.503 -10.783  -4.851  1.00  0.00     0.000 C 
BRANCH   2   3
ATOM      3  C   UNL     1     -11.380 -11.777  -4.506  1.00  0.00     0.000 C 
BRANCH   3   4
ATOM      4  C   UNL     1     -11.561 -12.419  -3.122  1.00  0.00     0.000 C 
BRANCH   4   5
ATOM      5  C   UNL     1     -12.053 -11.421  -2.059  1.00  0.00     0.000 C 
BRANCH   5   6
ATOM      6  C   UNL     1     -11.230 -11.484  -0.763  1.00  0.00     0.000 C 
BRANCH   6   7
ATOM      7  C   UNL     1     -10.389 -12.766  -0.657  1.00  0.00     0.000 C 
BRANCH   7   8
ATOM      8  C   UNL     1      -8.926 -12.438  -0.336  1.00  0.00     0.000 C 
BRANCH   8   9
ATOM      9  C   UNL     1      -7.980 -13.098  -1.346  1.00  0.00     0.000 C 
BRANCH   9  10
ATOM     10  C   UNL     1      -7.788 -14.589  -1.029  1.00  0.00     0.006 C 
BRANCH  10  11
ATOM     11  C   UNL     1      -8.391 -15.496  -2.109  1.00  0.00     0.053 C 
BRANCH  11  12
ATOM     12  C   UNL     1      -7.896 -16.906  -1.994  1.00  0.00     0.041 C 
ATOM     13  O   UNL     1      -8.108 -17.568  -0.943  1.00  0.00    -0.550 OA
ATOM     14  O   UNL     1      -7.241 -17.504  -3.063  1.00  0.00    -0.550 OA
ENDBRANCH  11  12
ENDBRANCH  10  11
ENDBRANCH   9  10
ENDBRANCH   8   9
ENDBRANCH   7   8
ENDBRANCH   6   7
ENDBRANCH   5   6
ENDBRANCH   4   5
ENDBRANCH   3   4
ENDBRANCH   2   3
ENDBRANCH   1   2
BRANCH   1  15
ATOM     15  C   UNL     1     -13.248 -10.125  -7.236  1.00  0.00     0.000 C 
BRANCH  15  16
ATOM     16  C   UNL     1     -14.079 -11.412  -7.088  1.00  0.00     0.000 C 
BRANCH  16  17
ATOM     17  C   UNL     1     -15.508 -11.250  -7.648  1.00  0.00     0.000 C 
BRANCH  17  18
ATOM     18  C   UNL     1     -16.599 -11.218  -6.565  1.00  0.00    -0.000 C 
BRANCH  18  19
ATOM     19  C   UNL     1     -17.317  -9.861  -6.479  1.00  0.00    -0.000 C 
BRANCH  19  20
ATOM     20  C   UNL     1     -16.473  -8.712  -7.056  1.00  0.00    -0.000 C 
BRANCH  20  21
ATOM     21  C   UNL     1     -17.034  -8.186  -8.390  1.00  0.00    -0.000 C 
BRANCH  21  22
ATOM     22  C   UNL     1     -18.185  -9.050  -8.929  1.00  0.00    -0.000 C 
BRANCH  22  23
ATOM     23  C   UNL     1     -17.951  -9.508 -10.379  1.00  0.00    -0.000 C 
BRANCH  23  24
ATOM     24  C   UNL     1     -19.201 -10.149 -11.004  1.00  0.00    -0.000 C 
BRANCH  24  25
ATOM     25  C   UNL     1     -18.889 -11.456 -11.748  1.00  0.00    -0.003 C 
ATOM     26  C   UNL     1     -19.938 -11.741 -12.820  1.00  0.00     0.004 C 
ENDBRANCH  24  25
ENDBRANCH  23  24
ENDBRANCH  22  23
ENDBRANCH  21  22
ENDBRANCH  20  21
ENDBRANCH  19  20
ENDBRANCH  18  19
ENDBRANCH  17  18
ENDBRANCH  16  17
ENDBRANCH  15  16
ENDBRANCH   1  15
TORSDOF 22
ENDMDL
MODEL 4
REMARK VINA RESULT:    -6.330      4.538     11.013
REMARK INTER + INTRA:         -16.733
REMARK INTER:                 -14.832
REMARK INTRA:                  -1.901
REMARK UNBOUND:                -2.262
REMARK SMILES CCCCCCCCCCCCCCCCCCCCCCCC(=O)[O-]
REMARK SMILES IDX 13 1 14 2 15 3 16 4 17 5 18 6 19 7 20 8 21 9 22 10 23 11
REMARK SMILES IDX 24 12 25 13 26 14 12 15 11 16 10 17 9 18 8 19 7 20 6 21 5 22
REMARK SMILES IDX 4 23 3 24 2 25 1 26
REMARK H PARENT
REMARK Flexibility Score: inf
ROOT
ATOM      1  C   UNL     1     -12.514 -11.218  -5.477  1.00  0.00     0.000 C 
ENDROOT
BRANCH   1   2
ATOM      2  C   UNL     1     -12.363  -9.895  -6.251  1.00  0.00     0.000 C 
BRANCH   2   3
ATOM      3  C   UNL     1     -13.490  -9.685  -7.279  1.00  0.00     0.000 C 
BRANCH   3   4
ATOM      4  C   UNL     1     -14.367 -10.933  -7.460  1.00  0.00     0.000 C 
BRANCH   4   5
ATOM      5  C   UNL     1     -15.745 -10.799  -6.789  1.00  0.00     0.000 C 
BRANCH   5   6
ATOM      6  C   UNL     1     -16.122  -9.338  -6.501  1.00  0.00     0.000 C 
BRANCH   6   7
ATOM      7  C   UNL     1     -17.254  -8.828  -7.407  1.00  0.00     0.000 C 
BRANCH   7   8
ATOM      8  C   UNL     1     -16.697  -8.288  -8.730  1.00  0.00     0.000 C 
BRANCH   8   9
ATOM      9  C   UNL     1     -16.936  -9.281  -9.874  1.00  0.00     0.000 C 
BRANCH   9  10
ATOM     10  C   UNL     1     -18.383  -9.798  -9.862  1.00  0.00     0.006 C 
BRANCH  10  11
ATOM     11  C   UNL     1     -18.990  -9.862 -11.269  1.00  0.00     0.053 C 
BRANCH  11  12
ATOM     12  C   UNL     1     -18.877 -11.232 -11.864  1.00  0.00     0.041 C 
ATOM     13  O   UNL     1     -18.068 -12.068 -11.380  1.00  0.00    -0.550 OA
ATOM     14  O   UNL     1     -19.695 -11.602 -12.924  1.00  0.00    -0.550 OA
ENDBRANCH  11  12
ENDBRANCH  10  11
ENDBRANCH   9  10
ENDBRANCH   8   9
ENDBRANCH   7   8
ENDBRANCH   6   7
ENDBRANCH   5   6
ENDBRANCH   4   5
ENDBRANCH   3   4
ENDBRANCH   2   3
ENDBRANCH   1   2
BRANCH   1  15
ATOM     15  C   UNL     1     -12.054 -11.142  -4.009  1.00  0.00     0.000 C 
BRANCH  15  16
ATOM     16  C   UNL     1     -11.344 -12.425  -3.544  1.00  0.00     0.000 C 
BRANCH  16  17
ATOM     17  C   UNL     1     -11.397 -12.596  -2.011  1.00  0.00     0.000 C 
BRANCH  17  18
ATOM     18  C   UNL     1     -11.711 -11.296  -1.253  1.00  0.00    -0.000 C 
BRANCH  18  19
ATOM     19  C   UNL     1     -10.665 -10.964  -0.176  1.00  0.00    -0.000 C 
BRANCH  19  20
ATOM     20  C   UNL     1      -9.804 -12.181   0.202  1.00  0.00    -0.000 C 
BRANCH  20  21
ATOM     21  C   UNL     1      -8.311 -11.960  -0.105  1.00  0.00    -0.000 C 
BRANCH  21  22
ATOM     22  C   UNL     1      -7.697 -13.112  -0.916  1.00  0.00    -0.000 C 
BRANCH  22  23
ATOM     23  C   UNL     1      -8.516 -14.410  -0.813  1.00  0.00    -0.000 C 
BRANCH  23  24
ATOM     24  C   UNL     1      -8.349 -15.313  -2.046  1.00  0.00    -0.000 C 
BRANCH  24  25
ATOM     25  C   UNL     1      -7.850 -16.720  -1.688  1.00  0.00    -0.003 C 
ATOM     26  C   UNL     1      -7.225 -17.406  -2.900  1.00  0.00     0.004 C 
ENDBRANCH  24  25
ENDBRANCH  23  24
ENDBRANCH  22  23
ENDBRANCH  21  22
ENDBRANCH  20  21
ENDBRANCH  19  20
ENDBRANCH  18  19
ENDBRANCH  17  18
ENDBRANCH  16  17
ENDBRANCH  15  16
ENDBRANCH   1  15
TORSDOF 22
ENDMDL
MODEL 5
REMARK VINA RESULT:    -6.326      3.124     10.351
REMARK INTER + INTRA:         -16.723
REMARK INTER:                 -14.778
REMARK INTRA:                  -1.945
REMARK UNBOUND:                -2.262
REMARK SMILES CCCCCCCCCCCCCCCCCCCCCCCC(=O)[O-]
REMARK SMILES IDX 13 1 14 2 15 3 16 4 17 5 18 6 19 7 20 8 21 9 22 10 23 11
REMARK SMILES IDX 24 12 25 13 26 14 12 15 11 16 10 17 9 18 8 19 7 20 6 21 5 22
REMARK SMILES IDX 4 23 3 24 2 25 1 26
REMARK H PARENT
REMARK Flexibility Score: inf
ROOT
ATOM      1  C   UNL     1     -13.099 -10.685  -6.232  1.00  0.00     0.000 C 
ENDROOT
BRANCH   1   2
ATOM      2  C   UNL     1     -13.142  -9.493  -7.207  1.00  0.00     0.000 C 
BRANCH   2   3
ATOM      3  C   UNL     1     -14.570  -8.957  -7.415  1.00  0.00     0.000 C 
BRANCH   3   4
ATOM      4  C   UNL     1     -15.591  -9.605  -6.467  1.00  0.00     0.000 C 
BRANCH   4   5
ATOM      5  C   UNL     1     -17.029  -9.113  -6.710  1.00  0.00     0.000 C 
BRANCH   5   6
ATOM      6  C   UNL     1     -17.152  -8.245  -7.971  1.00  0.00     0.000 C 
BRANCH   6   7
ATOM      7  C   UNL     1     -18.069  -8.870  -9.033  1.00  0.00     0.000 C 
BRANCH   7   8
ATOM      8  C   UNL     1     -17.250  -9.436 -10.200  1.00  0.00     0.000 C 
BRANCH   8   9
ATOM      9  C   UNL     1     -17.575 -10.916 -10.433  1.00  0.00     0.000 C 
BRANCH   9  10
ATOM     10  C   UNL     1     -16.343 -11.677 -10.948  1.00  0.00     0.006 C 
BRANCH  10  11
ATOM     11  C   UNL     1     -15.124 -11.499 -10.034  1.00  0.00     0.053 C 
BRANCH  11  12
ATOM     12  C   UNL     1     -14.973 -12.643  -9.077  1.00  0.00     0.041 C 
ATOM     13  O   UNL     1     -14.348 -13.680  -9.424  1.00  0.00    -0.550 OA
ATOM     14  O   UNL     1     -15.483 -12.545  -7.789  1.00  0.00    -0.550 OA
ENDBRANCH  11  12
ENDBRANCH  10  11
ENDBRANCH   9  10
ENDBRANCH   8   9
ENDBRANCH   7   8
ENDBRANCH   6   7
ENDBRANCH   5   6
ENDBRANCH   4   5
ENDBRANCH   3   4
ENDBRANCH   2   3
ENDBRANCH   1   2
BRANCH   1  15
ATOM     15  C   UNL     1     -12.170 -10.472  -5.022  1.00  0.00     0.000 C 
BRANCH  15  16
ATOM     16  C   UNL     1     -11.801 -11.791  -4.320  1.00  0.00     0.000 C 
BRANCH  16  17
ATOM     17  C   UNL     1     -11.998 -11.710  -2.791  1.00  0.00     0.000 C 
BRANCH  17  18
ATOM     18  C   UNL     1     -11.056 -12.629  -1.996  1.00  0.00    -0.000 C 
BRANCH  18  19
ATOM     19  C   UNL     1     -10.616 -12.020  -0.655  1.00  0.00    -0.000 C 
BRANCH  19  20
ATOM     20  C   UNL     1      -9.204 -12.466  -0.241  1.00  0.00    -0.000 C 
BRANCH  20  21
ATOM     21  C   UNL     1      -8.592 -13.469  -1.236  1.00  0.00    -0.000 C 
BRANCH  21  22
ATOM     22  C   UNL     1      -7.162 -13.884  -0.854  1.00  0.00    -0.000 C 
BRANCH  22  23
ATOM     23  C   UNL     1      -6.813 -15.307  -1.325  1.00  0.00    -0.000 C 
BRANCH  23  24
ATOM     24  C   UNL     1      -7.827 -15.857  -2.340  1.00  0.00    -0.000 C 
BRANCH  24  25
ATOM     25  C   UNL     1      -8.336 -17.258  -1.971  1.00  0.00    -0.003 C 
ATOM     26  C   UNL     1      -7.961 -17.618  -0.536  1.00  0.00     0.004 C 
ENDBRANCH  24  25
ENDBRANCH  23  24
ENDBRANCH  22  23
ENDBRANCH  21  22
ENDBRANCH  20  21
ENDBRANCH  19  20
ENDBRANCH  18  19
ENDBRANCH  17  18
ENDBRANCH  16  17
ENDBRANCH  15  16
ENDBRANCH   1  15
TORSDOF 22
ENDMDL
MODEL 6
REMARK VINA RESULT:    -6.308      3.496     10.512
REMARK INTER + INTRA:         -16.682
REMARK INTER:                 -14.658
REMARK INTRA:                  -2.025
REMARK UNBOUND:                -2.262
REMARK SMILES CCCCCCCCCCCCCCCCCCCCCCCC(=O)[O-]
REMARK SMILES IDX 13 1 14 2 15 3 16 4 17 5 18 6 19 7 20 8 21 9 22 10 23 11
REMARK SMILES IDX 24 12 25 13 26 14 12 15 11 16 10 17 9 18 8 19 7 20 6 21 5 22
REMARK SMILES IDX 4 23 3 24 2 25 1 26
REMARK H PARENT
REMARK Flexibility Score: inf
ROOT
ATOM      1  C   UNL     1     -13.476 -10.115  -7.240  1.00  0.00     0.000 C 
ENDROOT
BRANCH   1   2
ATOM      2  C   UNL     1     -14.281 -10.613  -8.456  1.00  0.00     0.000 C 
BRANCH   2   3
ATOM      3  C   UNL     1     -14.737 -12.074  -8.299  1.00  0.00     0.000 C 
BRANCH   3   4
ATOM      4  C   UNL     1     -15.083 -12.735  -9.642  1.00  0.00     0.000 C 
BRANCH   4   5
ATOM      5  C   UNL     1     -15.709 -11.753 -10.648  1.00  0.00     0.000 C 
BRANCH   5   6
ATOM      6  C   UNL     1     -17.238 -11.881 -10.727  1.00  0.00     0.000 C 
BRANCH   6   7
ATOM      7  C   UNL     1     -17.913 -10.604 -11.250  1.00  0.00     0.000 C 
BRANCH   7   8
ATOM      8  C   UNL     1     -18.320  -9.684 -10.093  1.00  0.00     0.000 C 
BRANCH   8   9
ATOM      9  C   UNL     1     -17.168  -8.751  -9.701  1.00  0.00     0.000 C 
BRANCH   9  10
ATOM     10  C   UNL     1     -17.189  -8.452  -8.194  1.00  0.00     0.006 C 
BRANCH  10  11
ATOM     11  C   UNL     1     -17.918  -9.539  -7.395  1.00  0.00     0.053 C 
BRANCH  11  12
ATOM     12  C   UNL     1     -17.074 -10.072  -6.278  1.00  0.00     0.041 C 
ATOM     13  O   UNL     1     -17.129 -11.293  -5.968  1.00  0.00    -0.550 OA
ATOM     14  O   UNL     1     -16.193  -9.233  -5.608  1.00  0.00    -0.550 OA
ENDBRANCH  11  12
ENDBRANCH  10  11
ENDBRANCH   9  10
ENDBRANCH   8   9
ENDBRANCH   7   8
ENDBRANCH   6   7
ENDBRANCH   5   6
ENDBRANCH   4   5
ENDBRANCH   3   4
ENDBRANCH   2   3
ENDBRANCH   1   2
BRANCH   1  15
ATOM     15  C   UNL     1     -13.260 -11.183  -6.152  1.00  0.00     0.000 C 
BRANCH  15  16
ATOM     16  C   UNL     1     -12.324 -10.702  -5.029  1.00  0.00     0.000 C 
BRANCH  16  17
ATOM     17  C   UNL     1     -11.755 -11.876  -4.203  1.00  0.00     0.000 C 
BRANCH  17  18
ATOM     18  C   UNL     1     -11.945 -11.716  -2.686  1.00  0.00    -0.000 C 
BRANCH  18  19
ATOM     19  C   UNL     1     -11.035 -12.645  -1.868  1.00  0.00    -0.000 C 
BRANCH  19  20
ATOM     20  C   UNL     1     -10.554 -11.995  -0.559  1.00  0.00    -0.000 C 
BRANCH  20  21
ATOM     21  C   UNL     1      -9.093 -12.355  -0.229  1.00  0.00    -0.000 C 
BRANCH  21  22
ATOM     22  C   UNL     1      -8.373 -13.039  -1.402  1.00  0.00    -0.000 C 
BRANCH  22  23
ATOM     23  C   UNL     1      -8.042 -14.513  -1.113  1.00  0.00    -0.000 C 
BRANCH  23  24
ATOM     24  C   UNL     1      -8.562 -15.459  -2.208  1.00  0.00    -0.000 C 
BRANCH  24  25
ATOM     25  C   UNL     1      -8.121 -16.915  -1.992  1.00  0.00    -0.003 C 
ATOM     26  C   UNL     1      -7.040 -17.314  -2.993  1.00  0.00     0.004 C 
ENDBRANCH  24  25
ENDBRANCH  23  24
ENDBRANCH  22  23
ENDBRANCH  21  22
ENDBRANCH  20  21
ENDBRANCH  19  20
ENDBRANCH  18  19
ENDBRANCH  17  18
ENDBRANCH  16  17
ENDBRANCH  15  16
ENDBRANCH   1  15
TORSDOF 22
ENDMDL
MODEL 7
REMARK VINA RESULT:    -6.296      1.380      2.415
REMARK INTER + INTRA:         -16.654
REMARK INTER:                 -15.429
REMARK INTRA:                  -1.225
REMARK UNBOUND:                -2.262
REMARK SMILES CCCCCCCCCCCCCCCCCCCCCCCC(=O)[O-]
REMARK SMILES IDX 13 1 14 2 15 3 16 4 17 5 18 6 19 7 20 8 21 9 22 10 23 11
REMARK SMILES IDX 24 12 25 13 26 14 12 15 11 16 10 17 9 18 8 19 7 20 6 21 5 22
REMARK SMILES IDX 4 23 3 24 2 25 1 26
REMARK H PARENT
REMARK Flexibility Score: inf
ROOT
ATOM      1  C   UNL     1     -13.626 -11.317  -6.595  1.00  0.00     0.000 C 
ENDROOT
BRANCH   1   2
ATOM      2  C   UNL     1     -12.663 -10.668  -5.583  1.00  0.00     0.000 C 
BRANCH   2   3
ATOM      3  C   UNL     1     -11.981 -11.705  -4.674  1.00  0.00     0.000 C 
BRANCH   3   4
ATOM      4  C   UNL     1     -12.145 -11.384  -3.180  1.00  0.00     0.000 C 
BRANCH   4   5
ATOM      5  C   UNL     1     -11.376 -12.358  -2.270  1.00  0.00     0.000 C 
BRANCH   5   6
ATOM      6  C   UNL     1     -11.041 -11.748  -0.901  1.00  0.00     0.000 C 
BRANCH   6   7
ATOM      7  C   UNL     1     -10.315 -12.735   0.026  1.00  0.00     0.000 C 
BRANCH   7   8
ATOM      8  C   UNL     1      -8.800 -12.694  -0.207  1.00  0.00     0.000 C 
BRANCH   8   9
ATOM      9  C   UNL     1      -8.420 -13.438  -1.493  1.00  0.00     0.000 C 
BRANCH   9  10
ATOM     10  C   UNL     1      -7.858 -14.833  -1.178  1.00  0.00     0.006 C 
BRANCH  10  11
ATOM     11  C   UNL     1      -8.121 -15.836  -2.308  1.00  0.00     0.053 C 
BRANCH  11  12
ATOM     12  C   UNL     1      -7.878 -17.248  -1.869  1.00  0.00     0.041 C 
ATOM     13  O   UNL     1      -7.366 -18.080  -2.665  1.00  0.00    -0.550 OA
ATOM     14  O   UNL     1      -8.174 -17.634  -0.568  1.00  0.00    -0.550 OA
ENDBRANCH  11  12
ENDBRANCH  10  11
ENDBRANCH   9  10
ENDBRANCH   8   9
ENDBRANCH   7   8
ENDBRANCH   6   7
ENDBRANCH   5   6
ENDBRANCH   4   5
ENDBRANCH   3   4
ENDBRANCH   2   3
ENDBRANCH   1   2
BRANCH   1  15
ATOM     15  C   UNL     1     -14.164 -10.345  -7.662  1.00  0.00     0.000 C 
BRANCH  15  16
ATOM     16  C   UNL     1     -14.176  -8.884  -7.178  1.00  0.00     0.000 C 
BRANCH  16  17
ATOM     17  C   UNL     1     -15.543  -8.480  -6.585  1.00  0.00     0.000 C 
BRANCH  17  18
ATOM     18  C   UNL     1     -16.566  -9.626  -6.547  1.00  0.00    -0.000 C 
BRANCH  18  19
ATOM     19  C   UNL     1     -17.639  -9.507  -7.641  1.00  0.00    -0.000 C 
BRANCH  19  20
ATOM     20  C   UNL     1     -17.288  -8.445  -8.697  1.00  0.00    -0.000 C 
BRANCH  20  21
ATOM     21  C   UNL     1     -16.722  -9.066  -9.986  1.00  0.00    -0.000 C 
BRANCH  21  22
ATOM     22  C   UNL     1     -16.991 -10.576 -10.084  1.00  0.00    -0.000 C 
BRANCH  22  23
ATOM     23  C   UNL     1     -18.031 -10.923 -11.164  1.00  0.00    -0.000 C 
BRANCH  23  24
ATOM     24  C   UNL     1     -19.317 -10.090 -11.033  1.00  0.00    -0.000 C 
BRANCH  24  25
ATOM     25  C   UNL     1     -20.337 -10.397 -12.140  1.00  0.00    -0.003 C 
ATOM     26  C   UNL     1     -19.798 -11.446 -13.108  1.00  0.00     0.004 C 
ENDBRANCH  24  25
ENDBRANCH  23  24
ENDBRANCH  22  23
ENDBRANCH  21  22
ENDBRANCH  20  21
ENDBRANCH  19  20
ENDBRANCH  18  19
ENDBRANCH  17  18
ENDBRANCH  16  17
ENDBRANCH  15  16
ENDBRANCH   1  15
TORSDOF 22
ENDMDL
MODEL 8
REMARK VINA RESULT:    -6.242      5.266     11.387
REMARK INTER + INTRA:         -16.531
REMARK INTER:                 -14.637
REMARK INTRA:                  -1.894
REMARK UNBOUND:                -2.262
REMARK SMILES CCCCCCCCCCCCCCCCCCCCCCCC(=O)[O-]
REMARK SMILES IDX 13 1 14 2 15 3 16 4 17 5 18 6 19 7 20 8 21 9 22 10 23 11
REMARK SMILES IDX 24 12 25 13 26 14 12 15 11 16 10 17 9 18 8 19 7 20 6 21 5 22
REMARK SMILES IDX 4 23 3 24 2 25 1 26
REMARK H PARENT
REMARK Flexibility Score: inf
ROOT
ATOM      1  C   UNL     1     -14.167 -11.276  -8.013  1.00  0.00     0.000 C 
ENDROOT
BRANCH   1   2
ATOM      2  C   UNL     1     -15.652 -11.661  -7.868  1.00  0.00     0.000 C 
BRANCH   2   3
ATOM      3  C   UNL     1     -16.227 -11.272  -6.494  1.00  0.00     0.000 C 
BRANCH   3   4
ATOM      4  C   UNL     1     -17.427 -10.319  -6.602  1.00  0.00     0.000 C 
BRANCH   4   5
ATOM      5  C   UNL     1     -17.015  -8.873  -6.930  1.00  0.00     0.000 C 
BRANCH   5   6
ATOM      6  C   UNL     1     -17.600  -8.380  -8.262  1.00  0.00     0.000 C 
BRANCH   6   7
ATOM      7  C   UNL     1     -16.582  -8.435  -9.412  1.00  0.00     0.000 C 
BRANCH   7   8
ATOM      8  C   UNL     1     -16.902  -9.588 -10.373  1.00  0.00     0.000 C 
BRANCH   8   9
ATOM      9  C   UNL     1     -18.373 -10.005 -10.262  1.00  0.00     0.000 C 
BRANCH   9  10
ATOM     10  C   UNL     1     -18.649 -11.275 -11.082  1.00  0.00     0.006 C 
BRANCH  10  11
ATOM     11  C   UNL     1     -18.862 -10.971 -12.570  1.00  0.00     0.053 C 
BRANCH  11  12
ATOM     12  C   UNL     1     -20.317 -10.935 -12.930  1.00  0.00     0.041 C 
ATOM     13  O   UNL     1     -20.833 -11.885 -13.577  1.00  0.00    -0.550 OA
ATOM     14  O   UNL     1     -21.112  -9.875 -12.512  1.00  0.00    -0.550 OA
ENDBRANCH  11  12
ENDBRANCH  10  11
ENDBRANCH   9  10
ENDBRANCH   8   9
ENDBRANCH   7   8
ENDBRANCH   6   7
ENDBRANCH   5   6
ENDBRANCH   4   5
ENDBRANCH   3   4
ENDBRANCH   2   3
ENDBRANCH   1   2
BRANCH   1  15
ATOM     15  C   UNL     1     -13.772 -10.001  -7.246  1.00  0.00     0.000 C 
BRANCH  15  16
ATOM     16  C   UNL     1     -12.484 -10.181  -6.424  1.00  0.00     0.000 C 
BRANCH  16  17
ATOM     17  C   UNL     1     -12.776 -10.627  -4.975  1.00  0.00     0.000 C 
BRANCH  17  18
ATOM     18  C   UNL     1     -11.777 -11.662  -4.433  1.00  0.00    -0.000 C 
BRANCH  18  19
ATOM     19  C   UNL     1     -11.783 -11.752  -2.898  1.00  0.00    -0.000 C 
BRANCH  19  20
ATOM     20  C   UNL     1     -10.711 -12.716  -2.361  1.00  0.00    -0.000 C 
BRANCH  20  21
ATOM     21  C   UNL     1     -10.606 -12.678  -0.825  1.00  0.00    -0.000 C 
BRANCH  21  22
ATOM     22  C   UNL     1      -9.212 -12.253  -0.337  1.00  0.00    -0.000 C 
BRANCH  22  23
ATOM     23  C   UNL     1      -8.088 -13.123  -0.927  1.00  0.00    -0.000 C 
BRANCH  23  24
ATOM     24  C   UNL     1      -8.418 -14.623  -0.882  1.00  0.00    -0.000 C 
BRANCH  24  25
ATOM     25  C   UNL     1      -7.397 -15.478  -1.648  1.00  0.00    -0.003 C 
ATOM     26  C   UNL     1      -8.061 -16.709  -2.260  1.00  0.00     0.004 C 
ENDBRANCH  24  25
ENDBRANCH  23  24
ENDBRANCH  22  23
ENDBRANCH  21  22
ENDBRANCH  20  21
ENDBRANCH  19  20
ENDBRANCH  18  19
ENDBRANCH  17  18
ENDBRANCH  16  17
ENDBRANCH  15  16
ENDBRANCH   1  15
TORSDOF 22
ENDMDL
MODEL 9
REMARK VINA RESULT:    -6.163      1.011      2.917
REMARK INTER + INTRA:         -16.350
REMARK INTER:                 -14.433
REMARK INTRA:                  -1.918
REMARK UNBOUND:                -2.262
REMARK SMILES CCCCCCCCCCCCCCCCCCCCCCCC(=O)[O-]
REMARK SMILES IDX 13 1 14 2 15 3 16 4 17 5 18 6 19 7 20 8 21 9 22 10 23 11
REMARK SMILES IDX 24 12 25 13 26 14 12 15 11 16 10 17 9 18 8 19 7 20 6 21 5 22
REMARK SMILES IDX 4 23 3 24 2 25 1 26
REMARK H PARENT
REMARK Flexibility Score: inf
ROOT
ATOM      1  C   UNL     1     -13.389 -10.598  -7.209  1.00  0.00     0.000 C 
ENDROOT
BRANCH   1   2
ATOM      2  C   UNL     1     -12.488 -10.197  -6.025  1.00  0.00     0.000 C 
BRANCH   2   3
ATOM      3  C   UNL     1     -12.126 -11.396  -5.130  1.00  0.00     0.000 C 
BRANCH   3   4
ATOM      4  C   UNL     1     -12.170 -11.052  -3.633  1.00  0.00     0.000 C 
BRANCH   4   5
ATOM      5  C   UNL     1     -11.706 -12.215  -2.738  1.00  0.00     0.000 C 
BRANCH   5   6
ATOM      6  C   UNL     1     -11.564 -11.806  -1.264  1.00  0.00     0.000 C 
BRANCH   6   7
ATOM      7  C   UNL     1     -10.325 -12.423  -0.596  1.00  0.00     0.000 C 
BRANCH   7   8
ATOM      8  C   UNL     1      -9.476 -13.192  -1.615  1.00  0.00     0.000 C 
BRANCH   8   9
ATOM      9  C   UNL     1      -8.016 -13.284  -1.157  1.00  0.00     0.000 C 
BRANCH   9  10
ATOM     10  C   UNL     1      -7.554 -14.748  -1.081  1.00  0.00     0.006 C 
BRANCH  10  11
ATOM     11  C   UNL     1      -8.302 -15.647  -2.073  1.00  0.00     0.053 C 
BRANCH  11  12
ATOM     12  C   UNL     1      -7.854 -17.074  -1.981  1.00  0.00     0.041 C 
ATOM     13  O   UNL     1      -7.286 -17.625  -2.961  1.00  0.00    -0.550 OA
ATOM     14  O   UNL     1      -8.023 -17.782  -0.798  1.00  0.00    -0.550 OA
ENDBRANCH  11  12
ENDBRANCH  10  11
ENDBRANCH   9  10
ENDBRANCH   8   9
ENDBRANCH   7   8
ENDBRANCH   6   7
ENDBRANCH   5   6
ENDBRANCH   4   5
ENDBRANCH   3   4
ENDBRANCH   2   3
ENDBRANCH   1   2
BRANCH   1  15
ATOM     15  C   UNL     1     -14.422 -11.689  -6.868  1.00  0.00     0.000 C 
BRANCH  15  16
ATOM     16  C   UNL     1     -15.411 -11.945  -8.018  1.00  0.00     0.000 C 
BRANCH  16  17
ATOM     17  C   UNL     1     -14.818 -12.876  -9.099  1.00  0.00     0.000 C 
BRANCH  17  18
ATOM     18  C   UNL     1     -15.117 -12.425 -10.537  1.00  0.00    -0.000 C 
BRANCH  18  19
ATOM     19  C   UNL     1     -16.121 -11.262 -10.603  1.00  0.00    -0.000 C 
BRANCH  19  20
ATOM     20  C   UNL     1     -17.529 -11.723 -11.014  1.00  0.00    -0.000 C 
BRANCH  20  21
ATOM     21  C   UNL     1     -18.520 -10.549 -11.126  1.00  0.00    -0.000 C 
BRANCH  21  22
ATOM     22  C   UNL     1     -18.102  -9.339 -10.276  1.00  0.00    -0.000 C 
BRANCH  22  23
ATOM     23  C   UNL     1     -18.535  -9.471  -8.805  1.00  0.00    -0.000 C 
BRANCH  23  24
ATOM     24  C   UNL     1     -17.487  -8.911  -7.830  1.00  0.00    -0.000 C 
BRANCH  24  25
ATOM     25  C   UNL     1     -16.300  -8.253  -8.548  1.00  0.00    -0.003 C 
ATOM     26  C   UNL     1     -15.157  -7.973  -7.576  1.00  0.00     0.004 C 
ENDBRANCH  24  25
ENDBRANCH  23  24
ENDBRANCH  22  23
ENDBRANCH  21  22
ENDBRANCH  20  21
ENDBRANCH  19  20
ENDBRANCH  18  19
ENDBRANCH  17  18
ENDBRANCH  16  17
ENDBRANCH  15  16
ENDBRANCH   1  15
TORSDOF 22
ENDMDL
