MODEL 1
REMARK VINA RESULT:    -0.490      0.000      0.000
REMARK INTER + INTRA:          -0.766
REMARK INTER:                  -0.505
REMARK INTRA:                  -0.262
REMARK UNBOUND:                -0.262
REMARK SMILES C[C@H]1O[C@H](OC[C@@H]2O[C@@H](Oc3c(-c4ccc(O)c(O)c4)oc4cc(O)cc(O)c4c3=O)[C@H](O)[C@@H](O)[C@H]2O)[C@@H](O)[C@H](O)[C@H]1O
REMARK SMILES IDX 7 1 36 2 34 3 32 4 9 5 8 6 6 7 5 8 4 9 1 10 2 11 42 12 3 13
REMARK SMILES IDX 40 14 38 15 43 16 41 18 39 20 37 22 35 24 10 26 11 27 12 28
REMARK SMILES IDX 30 29 21 30 29 31 31 32 22 33 27 34 23 35 26 36 24 37 13 38
REMARK SMILES IDX 20 39 14 40 18 41 15 42 16 43 19 44 17 46 28 48 25 50 33 52
REMARK H PARENT 43 17 41 19 39 21 37 23 35 25 19 45 17 47 28 49 25 51 33 53
REMARK Flexibility Score: inf
ROOT
ATOM      1  C   UNL     1     108.221 112.294 112.776  1.00  0.00     0.180 C 
ATOM      2  C   UNL     1     109.993 112.706 111.419  1.00  0.00     0.177 C 
ATOM      3  C   UNL     1     112.097 111.601 110.607  1.00  0.00     0.180 C 
ATOM      4  C   UNL     1     109.865 110.848 111.213  1.00  0.00     0.214 C 
ATOM      5  C   UNL     1     108.812 110.399 110.735  1.00  0.00     0.339 C 
ATOM      6  O   UNL     1     107.744 111.618 111.519  1.00  0.00    -0.332 OA
ENDROOT
BRANCH   1   7
ATOM      7  C   UNL     1     109.186 109.920 114.269  1.00  0.00     0.198 C 
BRANCH   7   8
ATOM      8  O   UNL     1     110.507 108.939 115.997  1.00  0.00    -0.347 OA
BRANCH   8   9
ATOM      9  C   UNL     1     112.026 109.072 117.855  1.00  0.00     0.281 C 
ATOM     10  C   UNL     1     112.908 109.473 113.378  1.00  0.00     0.041 C 
ATOM     11  C   UNL     1     112.805 109.059 115.644  1.00  0.00     0.150 C 
ATOM     12  C   UNL     1     111.673 111.129 116.810  1.00  0.00     0.174 C 
ATOM     13  O   UNL     1     113.154 108.600 116.965  1.00  0.00    -0.344 OA
ATOM     14  C   UNL     1     112.653 111.909 118.946  1.00  0.00     0.179 C 
ATOM     15  C   UNL     1     112.853 110.783 120.116  1.00  0.00     0.202 C 
BRANCH  12  16
ATOM     16  O   UNL     1     110.831 112.511 116.754  1.00  0.00    -0.388 OA
ATOM     17  H   UNL     1     110.629 113.794 116.667  1.00  0.00     0.211 HD
ENDBRANCH  12  16
BRANCH  14  18
ATOM     18  O   UNL     1     112.864 110.563 120.897  1.00  0.00    -0.387 OA
ATOM     19  H   UNL     1     113.703 109.381 121.715  1.00  0.00     0.211 HD
ENDBRANCH  14  18
BRANCH  15  20
ATOM     20  O   UNL     1     113.816 111.897 122.125  1.00  0.00    -0.385 OA
ATOM     21  H   UNL     1     113.849 112.204 123.637  1.00  0.00     0.211 HD
ENDBRANCH  15  20
ENDBRANCH   8   9
ENDBRANCH   7   8
ENDBRANCH   1   7
BRANCH   2  22
ATOM     22  O   UNL     1     110.081 113.438 110.251  1.00  0.00    -0.387 OA
ATOM     23  H   UNL     1     110.446 113.031 111.128  1.00  0.00     0.211 HD
ENDBRANCH   2  22
BRANCH   3  24
ATOM     24  O   UNL     1     112.211 114.207 109.967  1.00  0.00    -0.387 OA
ATOM     25  H   UNL     1     112.484 115.904 110.153  1.00  0.00     0.211 HD
ENDBRANCH   3  24
BRANCH   5  26
ATOM     26  O   UNL     1     110.126 110.469 109.109  1.00  0.00    -0.454 OA
BRANCH  26  27
ATOM     27  C   UNL     1     111.179 111.035 107.413  1.00  0.00     0.214 A 
ATOM     28  C   UNL     1     110.564 111.650 105.451  1.00  0.00     0.180 A 
ATOM     29  C   UNL     1     113.625 110.128 107.605  1.00  0.00     0.239 A 
ATOM     30  O   UNL     1     111.439 110.679 107.187  1.00  0.00    -0.452 OA
ATOM     31  C   UNL     1     112.342 110.481 107.608  1.00  0.00     0.111 A 
ATOM     32  O   UNL     1     115.065 110.373 108.394  1.00  0.00    -0.285 OA
ATOM     33  C   UNL     1     112.737 109.121 107.927  1.00  0.00     0.146 A 
ATOM     34  C   UNL     1     113.587 111.246 106.981  1.00  0.00     0.134 A 
ATOM     35  C   UNL     1     112.871 107.829 106.752  1.00  0.00     0.094 A 
ATOM     36  C   UNL     1     112.881 110.292 105.400  1.00  0.00     0.093 A 
ATOM     37  C   UNL     1     112.974 108.920 105.437  1.00  0.00     0.123 A 
BRANCH  28  38
ATOM     38  C   UNL     1     109.051 112.391 104.898  1.00  0.00     0.025 A 
ATOM     39  C   UNL     1     111.421 112.341 104.072  1.00  0.00     0.062 A 
ATOM     40  C   UNL     1     107.744 112.211 103.870  1.00  0.00     0.016 A 
ATOM     41  C   UNL     1     111.956 111.930 102.452  1.00  0.00     0.158 A 
ATOM     42  C   UNL     1     109.011 110.983 103.943  1.00  0.00     0.051 A 
ATOM     43  C   UNL     1     109.770 112.001 101.905  1.00  0.00     0.157 A 
BRANCH  41  44
ATOM     44  O   UNL     1     113.424 112.835 101.875  1.00  0.00    -0.504 OA
ATOM     45  H   UNL     1     113.304 113.953 101.388  1.00  0.00     0.293 HD
ENDBRANCH  41  44
BRANCH  43  46
ATOM     46  O   UNL     1     109.628 111.045 102.995  1.00  0.00    -0.504 OA
ATOM     47  H   UNL     1     109.434 111.740 102.265  1.00  0.00     0.293 HD
ENDBRANCH  43  46
ENDBRANCH  28  38
BRANCH  34  48
ATOM     48  O   UNL     1     113.337 112.241 108.458  1.00  0.00    -0.507 OA
ATOM     49  H   UNL     1     113.788 112.355 107.344  1.00  0.00     0.293 HD
ENDBRANCH  34  48
BRANCH  37  50
ATOM     50  O   UNL     1     113.597 108.649 104.150  1.00  0.00    -0.508 OA
ATOM     51  H   UNL     1     114.670 108.437 104.099  1.00  0.00     0.293 HD
ENDBRANCH  37  50
ENDBRANCH  26  27
ENDBRANCH   5  26
BRANCH   4  52
ATOM     52  O   UNL     1     108.681 111.609 109.698  1.00  0.00    -0.384 OA
ATOM     53  H   UNL     1     107.607 110.915 109.273  1.00  0.00     0.211 HD
ENDBRANCH   4  52
TORSDOF 16
ENDMDL
MODEL 2
REMARK VINA RESULT:    -0.294      2.226      4.717
REMARK INTER + INTRA:          -0.564
REMARK INTER:                  -0.260
REMARK INTRA:                  -0.305
REMARK UNBOUND:                -0.262
REMARK SMILES C[C@H]1O[C@H](OC[C@@H]2O[C@@H](Oc3c(-c4ccc(O)c(O)c4)oc4cc(O)cc(O)c4c3=O)[C@H](O)[C@@H](O)[C@H]2O)[C@@H](O)[C@H](O)[C@H]1O
REMARK SMILES IDX 7 1 36 2 34 3 32 4 9 5 8 6 6 7 5 8 4 9 1 10 2 11 42 12 3 13
REMARK SMILES IDX 40 14 38 15 43 16 41 18 39 20 37 22 35 24 10 26 11 27 12 28
REMARK SMILES IDX 30 29 21 30 29 31 31 32 22 33 27 34 23 35 26 36 24 37 13 38
REMARK SMILES IDX 20 39 14 40 18 41 15 42 16 43 19 44 17 46 28 48 25 50 33 52
REMARK H PARENT 43 17 41 19 39 21 37 23 35 25 19 45 17 47 28 49 25 51 33 53
REMARK Flexibility Score: inf
ROOT
ATOM      1  C   UNL     1     114.050 109.916 112.806  1.00  0.00     0.180 C 
ATOM      2  C   UNL     1     112.269 109.503 111.460  1.00  0.00     0.177 C 
ATOM      3  C   UNL     1     110.161 110.607 110.660  1.00  0.00     0.180 C 
ATOM      4  C   UNL     1     112.396 111.361 111.251  1.00  0.00     0.214 C 
ATOM      5  C   UNL     1     113.446 111.809 110.766  1.00  0.00     0.339 C 
ATOM      6  O   UNL     1     114.519 110.591 111.546  1.00  0.00    -0.332 OA
ENDROOT
BRANCH   1   7
ATOM      7  C   UNL     1     113.094 112.292 114.302  1.00  0.00     0.198 C 
BRANCH   7   8
ATOM      8  O   UNL     1     111.841 113.270 116.081  1.00  0.00    -0.347 OA
BRANCH   8   9
ATOM      9  C   UNL     1     110.314 113.144 117.934  1.00  0.00     0.281 C 
ATOM     10  C   UNL     1     109.427 112.895 113.447  1.00  0.00     0.041 C 
ATOM     11  C   UNL     1     109.541 113.246 115.723  1.00  0.00     0.150 C 
ATOM     12  C   UNL     1     110.592 111.104 116.834  1.00  0.00     0.174 C 
ATOM     13  O   UNL     1     109.206 113.682 117.055  1.00  0.00    -0.344 OA
ATOM     14  C   UNL     1     109.579 110.305 118.948  1.00  0.00     0.179 C 
ATOM     15  C   UNL     1     109.418 111.406 120.147  1.00  0.00     0.202 C 
BRANCH  12  16
ATOM     16  O   UNL     1     111.381 109.694 116.743  1.00  0.00    -0.388 OA
ATOM     17  H   UNL     1     112.399 108.889 116.630  1.00  0.00     0.211 HD
ENDBRANCH  12  16
BRANCH  14  18
ATOM     18  O   UNL     1     109.414 111.606 120.934  1.00  0.00    -0.387 OA
ATOM     19  H   UNL     1     108.450 112.237 122.135  1.00  0.00     0.211 HD
ENDBRANCH  14  18
BRANCH  15  20
ATOM     20  O   UNL     1     108.410 110.277 122.125  1.00  0.00    -0.385 OA
ATOM     21  H   UNL     1     107.791 109.054 122.836  1.00  0.00     0.211 HD
ENDBRANCH  15  20
ENDBRANCH   8   9
ENDBRANCH   7   8
ENDBRANCH   1   7
BRANCH   2  22
ATOM     22  O   UNL     1     112.175 108.769 110.293  1.00  0.00    -0.387 OA
ATOM     23  H   UNL     1     112.085 109.622 110.870  1.00  0.00     0.211 HD
ENDBRANCH   2  22
BRANCH   3  24
ATOM     24  O   UNL     1     110.042 108.000 110.023  1.00  0.00    -0.387 OA
ATOM     25  H   UNL     1     110.494 106.332 109.958  1.00  0.00     0.211 HD
ENDBRANCH   3  24
BRANCH   5  26
ATOM     26  O   UNL     1     112.123 111.737 109.148  1.00  0.00    -0.454 OA
BRANCH  26  27
ATOM     27  C   UNL     1     111.067 111.174 107.452  1.00  0.00     0.214 A 
ATOM     28  C   UNL     1     111.680 110.572 105.486  1.00  0.00     0.180 A 
ATOM     29  C   UNL     1     108.617 112.069 107.656  1.00  0.00     0.239 A 
ATOM     30  O   UNL     1     110.805 111.530 107.229  1.00  0.00    -0.452 OA
ATOM     31  C   UNL     1     109.903 111.723 107.653  1.00  0.00     0.111 A 
ATOM     32  O   UNL     1     107.181 111.813 108.449  1.00  0.00    -0.285 OA
ATOM     33  C   UNL     1     109.502 113.079 107.981  1.00  0.00     0.146 A 
ATOM     34  C   UNL     1     108.659 110.954 107.027  1.00  0.00     0.134 A 
ATOM     35  C   UNL     1     109.359 114.376 106.812  1.00  0.00     0.094 A 
ATOM     36  C   UNL     1     109.355 111.919 105.448  1.00  0.00     0.093 A 
ATOM     37  C   UNL     1     109.257 113.291 105.492  1.00  0.00     0.123 A 
BRANCH  28  38
ATOM     38  C   UNL     1     113.194 109.840 104.925  1.00  0.00     0.025 A 
ATOM     39  C   UNL     1     110.827 109.905 104.092  1.00  0.00     0.062 A 
ATOM     40  C   UNL     1     114.504 110.039 103.904  1.00  0.00     0.016 A 
ATOM     41  C   UNL     1     110.297 110.345 102.478  1.00  0.00     0.158 A 
ATOM     42  C   UNL     1     113.238 111.265 103.995  1.00  0.00     0.051 A 
ATOM     43  C   UNL     1     112.485 110.283 101.936  1.00  0.00     0.157 A 
BRANCH  41  44
ATOM     44  O   UNL     1     108.831 109.451 101.881  1.00  0.00    -0.504 OA
ATOM     45  H   UNL     1     108.017 110.017 101.160  1.00  0.00     0.293 HD
ENDBRANCH  41  44
BRANCH  43  46
ATOM     46  O   UNL     1     112.623 111.220 103.044  1.00  0.00    -0.504 OA
ATOM     47  H   UNL     1     112.558 110.363 102.483  1.00  0.00     0.293 HD
ENDBRANCH  43  46
ENDBRANCH  28  38
BRANCH  34  48
ATOM     48  O   UNL     1     108.918 109.953 108.498  1.00  0.00    -0.507 OA
ATOM     49  H   UNL     1     108.132 110.763 108.069  1.00  0.00     0.293 HD
ENDBRANCH  34  48
BRANCH  37  50
ATOM     50  O   UNL     1     108.629 113.565 104.208  1.00  0.00    -0.508 OA
ATOM     51  H   UNL     1     108.173 114.544 104.024  1.00  0.00     0.293 HD
ENDBRANCH  37  50
ENDBRANCH  26  27
ENDBRANCH   5  26
BRANCH   4  52
ATOM     52  O   UNL     1     113.571 110.598 109.730  1.00  0.00    -0.384 OA
ATOM     53  H   UNL     1     112.998 109.925 108.712  1.00  0.00     0.211 HD
ENDBRANCH   4  52
TORSDOF 16
ENDMDL
