MODEL 1
REMARK VINA RESULT:    -4.201      0.000      0.000
REMARK INTER + INTRA:         -10.920
REMARK INTER:                  -8.130
REMARK INTRA:                  -2.791
REMARK UNBOUND:                -2.791
REMARK SMILES CCCCCCCCCCCCCCCCCC(=O)[O-]
REMARK SMILES IDX 10 1 11 2 12 3 13 4 14 5 15 6 16 7 17 8 18 9 19 10 20 11
REMARK SMILES IDX 9 12 8 13 7 14 6 15 5 16 4 17 3 18 2 19 1 20
REMARK H PARENT
REMARK Flexibility Score: inf
ROOT
ATOM      1  C   UNL     1      13.233  62.577  30.178  1.00  0.00     0.000 C 
ENDROOT
BRANCH   1   2
ATOM      2  C   UNL     1      14.286  61.533  30.583  1.00  0.00     0.000 C 
BRANCH   2   3
ATOM      3  C   UNL     1      15.506  62.170  31.285  1.00  0.00     0.000 C 
BRANCH   3   4
ATOM      4  C   UNL     1      15.560  63.704  31.158  1.00  0.00     0.000 C 
BRANCH   4   5
ATOM      5  C   UNL     1      15.632  64.460  32.497  1.00  0.00     0.000 C 
BRANCH   5   6
ATOM      6  C   UNL     1      14.760  65.731  32.578  1.00  0.00     0.000 C 
BRANCH   6   7
ATOM      7  C   UNL     1      15.084  66.675  33.754  1.00  0.00     0.006 C 
BRANCH   7   8
ATOM      8  C   UNL     1      16.574  66.746  34.122  1.00  0.00     0.053 C 
BRANCH   8   9
ATOM      9  C   UNL     1      17.005  68.145  34.438  1.00  0.00     0.041 C 
ATOM     10  O   UNL     1      17.481  68.882  33.535  1.00  0.00    -0.550 OA
ATOM     11  O   UNL     1      16.851  68.646  35.725  1.00  0.00    -0.550 OA
ENDBRANCH   8   9
ENDBRANCH   7   8
ENDBRANCH   6   7
ENDBRANCH   5   6
ENDBRANCH   4   5
ENDBRANCH   3   4
ENDBRANCH   2   3
ENDBRANCH   1   2
BRANCH   1  12
ATOM     12  C   UNL     1      11.967  62.519  31.052  1.00  0.00     0.000 C 
BRANCH  12  13
ATOM     13  C   UNL     1      11.817  63.677  32.059  1.00  0.00    -0.000 C 
BRANCH  13  14
ATOM     14  C   UNL     1      12.019  63.290  33.537  1.00  0.00    -0.000 C 
BRANCH  14  15
ATOM     15  C   UNL     1      12.108  61.776  33.805  1.00  0.00    -0.000 C 
BRANCH  15  16
ATOM     16  C   UNL     1      13.524  61.319  34.184  1.00  0.00    -0.000 C 
BRANCH  16  17
ATOM     17  C   UNL     1      13.767  59.868  33.745  1.00  0.00    -0.000 C 
BRANCH  17  18
ATOM     18  C   UNL     1      12.541  59.232  33.063  1.00  0.00    -0.000 C 
BRANCH  18  19
ATOM     19  C   UNL     1      12.854  58.440  31.782  1.00  0.00    -0.003 C 
ATOM     20  C   UNL     1      11.884  58.741  30.640  1.00  0.00     0.004 C 
ENDBRANCH  18  19
ENDBRANCH  17  18
ENDBRANCH  16  17
ENDBRANCH  15  16
ENDBRANCH  14  15
ENDBRANCH  13  14
ENDBRANCH  12  13
ENDBRANCH   1  12
TORSDOF 16
ENDMDL
MODEL 2
REMARK VINA RESULT:    -4.048      2.078      3.517
REMARK INTER + INTRA:         -10.626
REMARK INTER:                  -8.249
REMARK INTRA:                  -2.377
REMARK UNBOUND:                -2.791
REMARK SMILES CCCCCCCCCCCCCCCCCC(=O)[O-]
REMARK SMILES IDX 10 1 11 2 12 3 13 4 14 5 15 6 16 7 17 8 18 9 19 10 20 11
REMARK SMILES IDX 9 12 8 13 7 14 6 15 5 16 4 17 3 18 2 19 1 20
REMARK H PARENT
REMARK Flexibility Score: inf
ROOT
ATOM      1  C   UNL     1      11.101  62.757  32.745  1.00  0.00     0.000 C 
ENDROOT
BRANCH   1   2
ATOM      2  C   UNL     1      11.257  62.376  31.264  1.00  0.00     0.000 C 
BRANCH   2   3
ATOM      3  C   UNL     1      12.508  63.015  30.620  1.00  0.00     0.000 C 
BRANCH   3   4
ATOM      4  C   UNL     1      13.593  61.993  30.233  1.00  0.00     0.000 C 
BRANCH   4   5
ATOM      5  C   UNL     1      14.943  62.184  30.948  1.00  0.00     0.000 C 
BRANCH   5   6
ATOM      6  C   UNL     1      15.420  63.648  31.065  1.00  0.00     0.000 C 
BRANCH   6   7
ATOM      7  C   UNL     1      15.434  64.221  32.496  1.00  0.00     0.006 C 
BRANCH   7   8
ATOM      8  C   UNL     1      14.528  65.445  32.701  1.00  0.00     0.053 C 
BRANCH   8   9
ATOM      9  C   UNL     1      15.317  66.681  33.007  1.00  0.00     0.041 C 
ATOM     10  O   UNL     1      16.283  66.633  33.813  1.00  0.00    -0.550 OA
ATOM     11  O   UNL     1      15.004  67.878  32.377  1.00  0.00    -0.550 OA
ENDBRANCH   8   9
ENDBRANCH   7   8
ENDBRANCH   6   7
ENDBRANCH   5   6
ENDBRANCH   4   5
ENDBRANCH   3   4
ENDBRANCH   2   3
ENDBRANCH   1   2
BRANCH   1  12
ATOM     12  C   UNL     1      12.393  62.547  33.555  1.00  0.00     0.000 C 
BRANCH  12  13
ATOM     13  C   UNL     1      12.535  61.156  34.206  1.00  0.00    -0.000 C 
BRANCH  13  14
ATOM     14  C   UNL     1      12.893  60.013  33.236  1.00  0.00    -0.000 C 
BRANCH  14  15
ATOM     15  C   UNL     1      11.758  59.006  32.974  1.00  0.00    -0.000 C 
BRANCH  15  16
ATOM     16  C   UNL     1      11.580  58.682  31.484  1.00  0.00    -0.000 C 
BRANCH  16  17
ATOM     17  C   UNL     1      10.092  58.619  31.110  1.00  0.00    -0.000 C 
BRANCH  17  18
ATOM     18  C   UNL     1       9.191  59.387  32.096  1.00  0.00    -0.000 C 
BRANCH  18  19
ATOM     19  C   UNL     1       7.770  59.674  31.582  1.00  0.00    -0.003 C 
ATOM     20  C   UNL     1       6.679  59.181  32.532  1.00  0.00     0.004 C 
ENDBRANCH  18  19
ENDBRANCH  17  18
ENDBRANCH  16  17
ENDBRANCH  15  16
ENDBRANCH  14  15
ENDBRANCH  13  14
ENDBRANCH  12  13
ENDBRANCH   1  12
TORSDOF 16
ENDMDL
MODEL 3
REMARK VINA RESULT:    -4.010      1.071      2.366
REMARK INTER + INTRA:         -10.551
REMARK INTER:                  -7.697
REMARK INTRA:                  -2.855
REMARK UNBOUND:                -2.791
REMARK SMILES CCCCCCCCCCCCCCCCCC(=O)[O-]
REMARK SMILES IDX 10 1 11 2 12 3 13 4 14 5 15 6 16 7 17 8 18 9 19 10 20 11
REMARK SMILES IDX 9 12 8 13 7 14 6 15 5 16 4 17 3 18 2 19 1 20
REMARK H PARENT
REMARK Flexibility Score: inf
ROOT
ATOM      1  C   UNL     1      13.085  61.621  34.073  1.00  0.00     0.000 C 
ENDROOT
BRANCH   1   2
ATOM      2  C   UNL     1      14.596  61.556  33.795  1.00  0.00     0.000 C 
BRANCH   2   3
ATOM      3  C   UNL     1      15.247  62.956  33.747  1.00  0.00     0.000 C 
BRANCH   3   4
ATOM      4  C   UNL     1      15.927  63.276  32.402  1.00  0.00     0.000 C 
BRANCH   4   5
ATOM      5  C   UNL     1      15.499  64.611  31.765  1.00  0.00     0.000 C 
BRANCH   5   6
ATOM      6  C   UNL     1      14.628  65.514  32.664  1.00  0.00     0.000 C 
BRANCH   6   7
ATOM      7  C   UNL     1      15.259  66.871  33.039  1.00  0.00     0.006 C 
BRANCH   7   8
ATOM      8  C   UNL     1      15.455  67.087  34.548  1.00  0.00     0.053 C 
BRANCH   8   9
ATOM      9  C   UNL     1      16.350  68.252  34.834  1.00  0.00     0.041 C 
ATOM     10  O   UNL     1      17.099  68.244  35.846  1.00  0.00    -0.550 OA
ATOM     11  O   UNL     1      16.382  69.335  33.964  1.00  0.00    -0.550 OA
ENDBRANCH   8   9
ENDBRANCH   7   8
ENDBRANCH   6   7
ENDBRANCH   5   6
ENDBRANCH   4   5
ENDBRANCH   3   4
ENDBRANCH   2   3
ENDBRANCH   1   2
BRANCH   1  12
ATOM     12  C   UNL     1      12.409  62.836  33.413  1.00  0.00     0.000 C 
BRANCH  12  13
ATOM     13  C   UNL     1      11.104  62.521  32.653  1.00  0.00    -0.000 C 
BRANCH  13  14
ATOM     14  C   UNL     1      11.277  62.224  31.150  1.00  0.00    -0.000 C 
BRANCH  14  15
ATOM     15  C   UNL     1      12.620  62.677  30.550  1.00  0.00    -0.000 C 
BRANCH  15  16
ATOM     16  C   UNL     1      13.544  61.502  30.199  1.00  0.00    -0.000 C 
BRANCH  16  17
ATOM     17  C   UNL     1      12.830  60.159  30.412  1.00  0.00    -0.000 C 
BRANCH  17  18
ATOM     18  C   UNL     1      13.699  59.127  31.153  1.00  0.00    -0.000 C 
BRANCH  18  19
ATOM     19  C   UNL     1      13.015  58.450  32.354  1.00  0.00    -0.003 C 
ATOM     20  C   UNL     1      11.514  58.727  32.422  1.00  0.00     0.004 C 
ENDBRANCH  18  19
ENDBRANCH  17  18
ENDBRANCH  16  17
ENDBRANCH  15  16
ENDBRANCH  14  15
ENDBRANCH  13  14
ENDBRANCH  12  13
ENDBRANCH   1  12
TORSDOF 16
ENDMDL
MODEL 4
REMARK VINA RESULT:    -3.994      3.885      8.478
REMARK INTER + INTRA:         -10.520
REMARK INTER:                  -8.551
REMARK INTRA:                  -1.969
REMARK UNBOUND:                -2.791
REMARK SMILES CCCCCCCCCCCCCCCCCC(=O)[O-]
REMARK SMILES IDX 10 1 11 2 12 3 13 4 14 5 15 6 16 7 17 8 18 9 19 10 20 11
REMARK SMILES IDX 9 12 8 13 7 14 6 15 5 16 4 17 3 18 2 19 1 20
REMARK H PARENT
REMARK Flexibility Score: inf
ROOT
ATOM      1  C   UNL     1      17.775  68.801  35.330  1.00  0.00     0.000 C 
ENDROOT
BRANCH   1   2
ATOM      2  C   UNL     1      17.085  69.900  34.504  1.00  0.00     0.000 C 
BRANCH   2   3
ATOM      3  C   UNL     1      17.179  69.640  32.984  1.00  0.00     0.000 C 
BRANCH   3   4
ATOM      4  C   UNL     1      15.824  69.311  32.329  1.00  0.00     0.000 C 
BRANCH   4   5
ATOM      5  C   UNL     1      15.016  68.209  33.037  1.00  0.00     0.000 C 
BRANCH   5   6
ATOM      6  C   UNL     1      14.986  66.849  32.308  1.00  0.00     0.000 C 
BRANCH   6   7
ATOM      7  C   UNL     1      14.543  65.651  33.172  1.00  0.00     0.006 C 
BRANCH   7   8
ATOM      8  C   UNL     1      15.322  64.353  32.908  1.00  0.00     0.053 C 
BRANCH   8   9
ATOM      9  C   UNL     1      14.419  63.234  32.489  1.00  0.00     0.041 C 
ATOM     10  O   UNL     1      13.826  62.539  33.355  1.00  0.00    -0.550 OA
ATOM     11  O   UNL     1      14.206  62.981  31.140  1.00  0.00    -0.550 OA
ENDBRANCH   8   9
ENDBRANCH   7   8
ENDBRANCH   6   7
ENDBRANCH   5   6
ENDBRANCH   4   5
ENDBRANCH   3   4
ENDBRANCH   2   3
ENDBRANCH   1   2
BRANCH   1  12
ATOM     12  C   UNL     1      16.776  67.892  36.069  1.00  0.00     0.000 C 
BRANCH  12  13
ATOM     13  C   UNL     1      16.924  66.386  35.774  1.00  0.00    -0.000 C 
BRANCH  13  14
ATOM     14  C   UNL     1      17.391  65.528  36.966  1.00  0.00    -0.000 C 
BRANCH  14  15
ATOM     15  C   UNL     1      18.898  65.214  36.989  1.00  0.00    -0.000 C 
BRANCH  15  16
ATOM     16  C   UNL     1      19.685  66.131  37.935  1.00  0.00    -0.000 C 
BRANCH  16  17
ATOM     17  C   UNL     1      19.081  66.112  39.346  1.00  0.00    -0.000 C 
BRANCH  17  18
ATOM     18  C   UNL     1      19.104  67.492  40.029  1.00  0.00    -0.000 C 
BRANCH  18  19
ATOM     19  C   UNL     1      18.056  68.489  39.503  1.00  0.00    -0.003 C 
ATOM     20  C   UNL     1      18.671  69.635  38.700  1.00  0.00     0.004 C 
ENDBRANCH  18  19
ENDBRANCH  17  18
ENDBRANCH  16  17
ENDBRANCH  15  16
ENDBRANCH  14  15
ENDBRANCH  13  14
ENDBRANCH  12  13
ENDBRANCH   1  12
TORSDOF 16
ENDMDL
MODEL 5
REMARK VINA RESULT:    -3.962      6.058      9.077
REMARK INTER + INTRA:         -10.458
REMARK INTER:                  -8.087
REMARK INTRA:                  -2.371
REMARK UNBOUND:                -2.791
REMARK SMILES CCCCCCCCCCCCCCCCCC(=O)[O-]
REMARK SMILES IDX 10 1 11 2 12 3 13 4 14 5 15 6 16 7 17 8 18 9 19 10 20 11
REMARK SMILES IDX 9 12 8 13 7 14 6 15 5 16 4 17 3 18 2 19 1 20
REMARK H PARENT
REMARK Flexibility Score: inf
ROOT
ATOM      1  C   UNL     1      10.369  57.939  31.696  1.00  0.00     0.000 C 
ENDROOT
BRANCH   1   2
ATOM      2  C   UNL     1       9.299  57.101  32.414  1.00  0.00     0.000 C 
BRANCH   2   3
ATOM      3  C   UNL     1       9.289  57.343  33.940  1.00  0.00     0.000 C 
BRANCH   3   4
ATOM      4  C   UNL     1       8.066  58.142  34.430  1.00  0.00     0.000 C 
BRANCH   4   5
ATOM      5  C   UNL     1       6.816  58.017  33.541  1.00  0.00     0.000 C 
BRANCH   5   6
ATOM      6  C   UNL     1       6.206  59.357  33.079  1.00  0.00     0.000 C 
BRANCH   6   7
ATOM      7  C   UNL     1       6.123  59.549  31.551  1.00  0.00     0.006 C 
BRANCH   7   8
ATOM      8  C   UNL     1       5.875  58.255  30.759  1.00  0.00     0.053 C 
BRANCH   8   9
ATOM      9  C   UNL     1       6.795  58.134  29.584  1.00  0.00     0.041 C 
ATOM     10  O   UNL     1       7.008  59.128  28.840  1.00  0.00    -0.550 OA
ATOM     11  O   UNL     1       7.441  56.932  29.328  1.00  0.00    -0.550 OA
ENDBRANCH   8   9
ENDBRANCH   7   8
ENDBRANCH   6   7
ENDBRANCH   5   6
ENDBRANCH   4   5
ENDBRANCH   3   4
ENDBRANCH   2   3
ENDBRANCH   1   2
BRANCH   1  12
ATOM     12  C   UNL     1       9.811  59.252  31.118  1.00  0.00     0.000 C 
BRANCH  12  13
ATOM     13  C   UNL     1      10.266  60.531  31.850  1.00  0.00    -0.000 C 
BRANCH  13  14
ATOM     14  C   UNL     1      11.409  60.333  32.865  1.00  0.00    -0.000 C 
BRANCH  14  15
ATOM     15  C   UNL     1      11.918  61.625  33.529  1.00  0.00    -0.000 C 
BRANCH  15  16
ATOM     16  C   UNL     1      11.206  62.883  33.012  1.00  0.00    -0.000 C 
BRANCH  16  17
ATOM     17  C   UNL     1      12.038  63.577  31.925  1.00  0.00    -0.000 C 
BRANCH  17  18
ATOM     18  C   UNL     1      13.422  62.932  31.723  1.00  0.00    -0.000 C 
BRANCH  18  19
ATOM     19  C   UNL     1      13.748  62.545  30.271  1.00  0.00    -0.003 C 
ATOM     20  C   UNL     1      13.591  61.049  30.000  1.00  0.00     0.004 C 
ENDBRANCH  18  19
ENDBRANCH  17  18
ENDBRANCH  16  17
ENDBRANCH  15  16
ENDBRANCH  14  15
ENDBRANCH  13  14
ENDBRANCH  12  13
ENDBRANCH   1  12
TORSDOF 16
ENDMDL
MODEL 6
REMARK VINA RESULT:    -3.884      3.145      6.687
REMARK INTER + INTRA:         -10.308
REMARK INTER:                  -8.284
REMARK INTRA:                  -2.023
REMARK UNBOUND:                -2.791
REMARK SMILES CCCCCCCCCCCCCCCCCC(=O)[O-]
REMARK SMILES IDX 10 1 11 2 12 3 13 4 14 5 15 6 16 7 17 8 18 9 19 10 20 11
REMARK SMILES IDX 9 12 8 13 7 14 6 15 5 16 4 17 3 18 2 19 1 20
REMARK H PARENT
REMARK Flexibility Score: inf
ROOT
ATOM      1  C   UNL     1      17.186  63.115  32.355  1.00  0.00     0.000 C 
ENDROOT
BRANCH   1   2
ATOM      2  C   UNL     1      16.158  63.832  31.464  1.00  0.00     0.000 C 
BRANCH   2   3
ATOM      3  C   UNL     1      14.711  63.649  31.973  1.00  0.00     0.000 C 
BRANCH   3   4
ATOM      4  C   UNL     1      14.276  64.717  32.996  1.00  0.00     0.000 C 
BRANCH   4   5
ATOM      5  C   UNL     1      14.816  66.132  32.719  1.00  0.00     0.000 C 
BRANCH   5   6
ATOM      6  C   UNL     1      15.231  66.930  33.972  1.00  0.00     0.000 C 
BRANCH   6   7
ATOM      7  C   UNL     1      16.632  67.572  33.908  1.00  0.00     0.006 C 
BRANCH   7   8
ATOM      8  C   UNL     1      16.770  68.880  34.703  1.00  0.00     0.053 C 
BRANCH   8   9
ATOM      9  C   UNL     1      17.041  70.051  33.809  1.00  0.00     0.041 C 
ATOM     10  O   UNL     1      17.087  69.899  32.560  1.00  0.00    -0.550 OA
ATOM     11  O   UNL     1      17.211  71.317  34.355  1.00  0.00    -0.550 OA
ENDBRANCH   8   9
ENDBRANCH   7   8
ENDBRANCH   6   7
ENDBRANCH   5   6
ENDBRANCH   4   5
ENDBRANCH   3   4
ENDBRANCH   2   3
ENDBRANCH   1   2
BRANCH   1  12
ATOM     12  C   UNL     1      17.903  64.069  33.328  1.00  0.00     0.000 C 
BRANCH  12  13
ATOM     13  C   UNL     1      18.821  63.381  34.357  1.00  0.00    -0.000 C 
BRANCH  13  14
ATOM     14  C   UNL     1      18.506  63.700  35.832  1.00  0.00    -0.000 C 
BRANCH  14  15
ATOM     15  C   UNL     1      17.437  64.787  36.047  1.00  0.00    -0.000 C 
BRANCH  15  16
ATOM     16  C   UNL     1      17.590  65.518  37.388  1.00  0.00    -0.000 C 
BRANCH  16  17
ATOM     17  C   UNL     1      18.441  66.786  37.228  1.00  0.00    -0.000 C 
BRANCH  17  18
ATOM     18  C   UNL     1      19.888  66.605  37.725  1.00  0.00    -0.000 C 
BRANCH  18  19
ATOM     19  C   UNL     1      20.040  65.681  38.946  1.00  0.00    -0.003 C 
ATOM     20  C   UNL     1      20.560  66.409  40.185  1.00  0.00     0.004 C 
ENDBRANCH  18  19
ENDBRANCH  17  18
ENDBRANCH  16  17
ENDBRANCH  15  16
ENDBRANCH  14  15
ENDBRANCH  13  14
ENDBRANCH  12  13
ENDBRANCH   1  12
TORSDOF 16
ENDMDL
MODEL 7
REMARK VINA RESULT:    -3.879      3.002      6.079
REMARK INTER + INTRA:         -10.298
REMARK INTER:                  -9.400
REMARK INTRA:                  -0.898
REMARK UNBOUND:                -2.791
REMARK SMILES CCCCCCCCCCCCCCCCCC(=O)[O-]
REMARK SMILES IDX 10 1 11 2 12 3 13 4 14 5 15 6 16 7 17 8 18 9 19 10 20 11
REMARK SMILES IDX 9 12 8 13 7 14 6 15 5 16 4 17 3 18 2 19 1 20
REMARK H PARENT
REMARK Flexibility Score: inf
ROOT
ATOM      1  C   UNL     1      15.642  68.900  32.745  1.00  0.00     0.000 C 
ENDROOT
BRANCH   1   2
ATOM      2  C   UNL     1      16.601  69.827  33.510  1.00  0.00     0.000 C 
BRANCH   2   3
ATOM      3  C   UNL     1      17.604  69.042  34.385  1.00  0.00     0.000 C 
BRANCH   3   4
ATOM      4  C   UNL     1      18.204  69.875  35.534  1.00  0.00     0.000 C 
BRANCH   4   5
ATOM      5  C   UNL     1      18.998  69.061  36.572  1.00  0.00     0.000 C 
BRANCH   5   6
ATOM      6  C   UNL     1      18.715  69.426  38.045  1.00  0.00     0.000 C 
BRANCH   6   7
ATOM      7  C   UNL     1      17.846  68.412  38.817  1.00  0.00     0.006 C 
BRANCH   7   8
ATOM      8  C   UNL     1      18.631  67.496  39.769  1.00  0.00     0.053 C 
BRANCH   8   9
ATOM      9  C   UNL     1      18.778  66.111  39.219  1.00  0.00     0.041 C 
ATOM     10  O   UNL     1      19.855  65.478  39.373  1.00  0.00    -0.550 OA
ATOM     11  O   UNL     1      17.712  65.508  38.563  1.00  0.00    -0.550 OA
ENDBRANCH   8   9
ENDBRANCH   7   8
ENDBRANCH   6   7
ENDBRANCH   5   6
ENDBRANCH   4   5
ENDBRANCH   3   4
ENDBRANCH   2   3
ENDBRANCH   1   2
BRANCH   1  12
ATOM     12  C   UNL     1      15.442  67.542  33.440  1.00  0.00     0.000 C 
BRANCH  12  13
ATOM     13  C   UNL     1      14.869  66.428  32.540  1.00  0.00    -0.000 C 
BRANCH  13  14
ATOM     14  C   UNL     1      15.493  65.033  32.746  1.00  0.00    -0.000 C 
BRANCH  14  15
ATOM     15  C   UNL     1      15.484  64.129  31.500  1.00  0.00    -0.000 C 
BRANCH  15  16
ATOM     16  C   UNL     1      14.660  62.849  31.698  1.00  0.00    -0.000 C 
BRANCH  16  17
ATOM     17  C   UNL     1      13.751  62.590  30.487  1.00  0.00    -0.000 C 
BRANCH  17  18
ATOM     18  C   UNL     1      12.261  62.833  30.791  1.00  0.00    -0.000 C 
BRANCH  18  19
ATOM     19  C   UNL     1      11.989  63.720  32.018  1.00  0.00    -0.003 C 
ATOM     20  C   UNL     1      11.457  62.935  33.217  1.00  0.00     0.004 C 
ENDBRANCH  18  19
ENDBRANCH  17  18
ENDBRANCH  16  17
ENDBRANCH  15  16
ENDBRANCH  14  15
ENDBRANCH  13  14
ENDBRANCH  12  13
ENDBRANCH   1  12
TORSDOF 16
ENDMDL
MODEL 8
REMARK VINA RESULT:    -3.859      2.069      4.327
REMARK INTER + INTRA:         -10.258
REMARK INTER:                  -8.438
REMARK INTRA:                  -1.821
REMARK UNBOUND:                -2.791
REMARK SMILES CCCCCCCCCCCCCCCCCC(=O)[O-]
REMARK SMILES IDX 10 1 11 2 12 3 13 4 14 5 15 6 16 7 17 8 18 9 19 10 20 11
REMARK SMILES IDX 9 12 8 13 7 14 6 15 5 16 4 17 3 18 2 19 1 20
REMARK H PARENT
REMARK Flexibility Score: inf
ROOT
ATOM      1  C   UNL     1      15.584  64.919  32.488  1.00  0.00     0.000 C 
ENDROOT
BRANCH   1   2
ATOM      2  C   UNL     1      15.330  66.209  33.285  1.00  0.00     0.000 C 
BRANCH   2   3
ATOM      3  C   UNL     1      14.890  67.382  32.381  1.00  0.00     0.000 C 
BRANCH   3   4
ATOM      4  C   UNL     1      15.461  68.746  32.818  1.00  0.00     0.000 C 
BRANCH   4   5
ATOM      5  C   UNL     1      16.891  68.694  33.385  1.00  0.00     0.000 C 
BRANCH   5   6
ATOM      6  C   UNL     1      17.121  69.537  34.657  1.00  0.00     0.000 C 
BRANCH   6   7
ATOM      7  C   UNL     1      17.546  68.738  35.906  1.00  0.00     0.006 C 
BRANCH   7   8
ATOM      8  C   UNL     1      18.985  69.007  36.374  1.00  0.00     0.053 C 
BRANCH   8   9
ATOM      9  C   UNL     1      19.387  68.099  37.495  1.00  0.00     0.041 C 
ATOM     10  O   UNL     1      19.800  68.579  38.583  1.00  0.00    -0.550 OA
ATOM     11  O   UNL     1      19.275  66.722  37.348  1.00  0.00    -0.550 OA
ENDBRANCH   8   9
ENDBRANCH   7   8
ENDBRANCH   6   7
ENDBRANCH   5   6
ENDBRANCH   4   5
ENDBRANCH   3   4
ENDBRANCH   2   3
ENDBRANCH   1   2
BRANCH   1  12
ATOM     12  C   UNL     1      16.112  63.769  33.364  1.00  0.00     0.000 C 
BRANCH  12  13
ATOM     13  C   UNL     1      16.297  62.424  32.632  1.00  0.00    -0.000 C 
BRANCH  13  14
ATOM     14  C   UNL     1      15.441  61.262  33.172  1.00  0.00    -0.000 C 
BRANCH  14  15
ATOM     15  C   UNL     1      14.337  61.675  34.163  1.00  0.00    -0.000 C 
BRANCH  15  16
ATOM     16  C   UNL     1      13.044  60.865  33.988  1.00  0.00    -0.000 C 
BRANCH  16  17
ATOM     17  C   UNL     1      11.887  61.769  33.538  1.00  0.00    -0.000 C 
BRANCH  17  18
ATOM     18  C   UNL     1      12.327  63.221  33.272  1.00  0.00    -0.000 C 
BRANCH  18  19
ATOM     19  C   UNL     1      12.127  63.701  31.823  1.00  0.00    -0.003 C 
ATOM     20  C   UNL     1      12.907  62.870  30.805  1.00  0.00     0.004 C 
ENDBRANCH  18  19
ENDBRANCH  17  18
ENDBRANCH  16  17
ENDBRANCH  15  16
ENDBRANCH  14  15
ENDBRANCH  13  14
ENDBRANCH  12  13
ENDBRANCH   1  12
TORSDOF 16
ENDMDL
MODEL 9
REMARK VINA RESULT:    -3.848      2.723      5.314
REMARK INTER + INTRA:         -10.238
REMARK INTER:                  -9.185
REMARK INTRA:                  -1.053
REMARK UNBOUND:                -2.791
REMARK SMILES CCCCCCCCCCCCCCCCCC(=O)[O-]
REMARK SMILES IDX 10 1 11 2 12 3 13 4 14 5 15 6 16 7 17 8 18 9 19 10 20 11
REMARK SMILES IDX 9 12 8 13 7 14 6 15 5 16 4 17 3 18 2 19 1 20
REMARK H PARENT
REMARK Flexibility Score: inf
ROOT
ATOM      1  C   UNL     1      15.282  68.640  32.323  1.00  0.00     0.000 C 
ENDROOT
BRANCH   1   2
ATOM      2  C   UNL     1      16.004  69.776  33.065  1.00  0.00     0.000 C 
BRANCH   2   3
ATOM      3  C   UNL     1      17.440  69.387  33.483  1.00  0.00     0.000 C 
BRANCH   3   4
ATOM      4  C   UNL     1      17.885  70.012  34.819  1.00  0.00     0.000 C 
BRANCH   4   5
ATOM      5  C   UNL     1      18.182  68.997  35.938  1.00  0.00     0.000 C 
BRANCH   5   6
ATOM      6  C   UNL     1      17.082  67.938  36.169  1.00  0.00     0.000 C 
BRANCH   6   7
ATOM      7  C   UNL     1      17.414  66.869  37.229  1.00  0.00     0.006 C 
BRANCH   7   8
ATOM      8  C   UNL     1      18.914  66.699  37.516  1.00  0.00     0.053 C 
BRANCH   8   9
ATOM      9  C   UNL     1      19.203  66.672  38.985  1.00  0.00     0.041 C 
ATOM     10  O   UNL     1      18.264  66.771  39.818  1.00  0.00    -0.550 OA
ATOM     11  O   UNL     1      20.507  66.504  39.434  1.00  0.00    -0.550 OA
ENDBRANCH   8   9
ENDBRANCH   7   8
ENDBRANCH   6   7
ENDBRANCH   5   6
ENDBRANCH   4   5
ENDBRANCH   3   4
ENDBRANCH   2   3
ENDBRANCH   1   2
BRANCH   1  12
ATOM     12  C   UNL     1      15.281  67.317  33.110  1.00  0.00     0.000 C 
BRANCH  12  13
ATOM     13  C   UNL     1      14.858  66.076  32.299  1.00  0.00    -0.000 C 
BRANCH  13  14
ATOM     14  C   UNL     1      14.127  64.984  33.105  1.00  0.00    -0.000 C 
BRANCH  14  15
ATOM     15  C   UNL     1      14.048  63.611  32.414  1.00  0.00    -0.000 C 
BRANCH  15  16
ATOM     16  C   UNL     1      12.773  63.435  31.578  1.00  0.00    -0.000 C 
BRANCH  16  17
ATOM     17  C   UNL     1      11.558  63.173  32.479  1.00  0.00    -0.000 C 
BRANCH  17  18
ATOM     18  C   UNL     1      11.823  62.094  33.546  1.00  0.00    -0.000 C 
BRANCH  18  19
ATOM     19  C   UNL     1      11.717  60.645  33.039  1.00  0.00    -0.003 C 
ATOM     20  C   UNL     1      10.567  60.439  32.054  1.00  0.00     0.004 C 
ENDBRANCH  18  19
ENDBRANCH  17  18
ENDBRANCH  16  17
ENDBRANCH  15  16
ENDBRANCH  14  15
ENDBRANCH  13  14
ENDBRANCH  12  13
ENDBRANCH   1  12
TORSDOF 16
ENDMDL
