MODEL 1
REMARK VINA RESULT:     0.687      0.000      0.000
REMARK INTER + INTRA:           0.327
REMARK INTER:                   1.491
REMARK INTRA:                  -1.163
REMARK UNBOUND:                -1.163
REMARK SMILES CCCCCCCCCCCCCCCCCCCCCC(=O)[O-]
REMARK SMILES IDX 12 1 11 2 10 3 9 4 8 5 7 6 6 7 5 8 4 9 3 10 2 11 1 12 13 13
REMARK SMILES IDX 14 14 15 15 16 16 17 17 18 18 19 19 20 20 21 21 22 22 23 23
REMARK SMILES IDX 24 24
REMARK H PARENT
REMARK Flexibility Score: inf
ROOT
ATOM      1  C   UNL     1      41.274  23.083  14.597  1.00  0.00     0.000 C 
ENDROOT
BRANCH   1   2
ATOM      2  C   UNL     1      39.791  22.862  14.945  1.00  0.00     0.000 C 
BRANCH   2   3
ATOM      3  C   UNL     1      38.860  23.114  13.750  1.00  0.00     0.000 C 
BRANCH   3   4
ATOM      4  C   UNL     1      37.462  22.499  13.943  1.00  0.00    -0.000 C 
BRANCH   4   5
ATOM      5  C   UNL     1      37.475  21.265  14.862  1.00  0.00    -0.000 C 
BRANCH   5   6
ATOM      6  C   UNL     1      36.200  21.069  15.701  1.00  0.00    -0.000 C 
BRANCH   6   7
ATOM      7  C   UNL     1      34.912  21.223  14.874  1.00  0.00    -0.000 C 
BRANCH   7   8
ATOM      8  C   UNL     1      34.597  19.959  14.046  1.00  0.00    -0.000 C 
BRANCH   8   9
ATOM      9  C   UNL     1      34.778  20.155  12.531  1.00  0.00    -0.000 C 
BRANCH   9  10
ATOM     10  C   UNL     1      33.579  20.855  11.872  1.00  0.00    -0.000 C 
BRANCH  10  11
ATOM     11  C   UNL     1      33.985  22.127  11.111  1.00  0.00    -0.003 C 
ATOM     12  C   UNL     1      35.429  22.082  10.614  1.00  0.00     0.004 C 
ENDBRANCH  10  11
ENDBRANCH   9  10
ENDBRANCH   8   9
ENDBRANCH   7   8
ENDBRANCH   6   7
ENDBRANCH   5   6
ENDBRANCH   4   5
ENDBRANCH   3   4
ENDBRANCH   2   3
ENDBRANCH   1   2
BRANCH   1  13
ATOM     13  C   UNL     1      42.171  23.112  15.845  1.00  0.00     0.000 C 
BRANCH  13  14
ATOM     14  C   UNL     1      43.667  22.995  15.500  1.00  0.00     0.000 C 
BRANCH  14  15
ATOM     15  C   UNL     1      44.567  23.036  16.745  1.00  0.00     0.000 C 
BRANCH  15  16
ATOM     16  C   UNL     1      45.899  22.295  16.535  1.00  0.00     0.000 C 
BRANCH  16  17
ATOM     17  C   UNL     1      47.110  23.125  16.996  1.00  0.00     0.000 C 
BRANCH  17  18
ATOM     18  C   UNL     1      48.294  22.244  17.428  1.00  0.00     0.000 C 
BRANCH  18  19
ATOM     19  C   UNL     1      49.456  23.081  18.005  1.00  0.00     0.000 C 
BRANCH  19  20
ATOM     20  C   UNL     1      50.845  22.448  17.800  1.00  0.00     0.006 C 
BRANCH  20  21
ATOM     21  C   UNL     1      50.914  21.447  16.633  1.00  0.00     0.053 C 
BRANCH  21  22
ATOM     22  C   UNL     1      51.855  21.873  15.546  1.00  0.00     0.041 C 
ATOM     23  O   UNL     1      51.689  21.452  14.371  1.00  0.00    -0.550 OA
ATOM     24  O   UNL     1      52.860  22.796  15.805  1.00  0.00    -0.550 OA
ENDBRANCH  21  22
ENDBRANCH  20  21
ENDBRANCH  19  20
ENDBRANCH  18  19
ENDBRANCH  17  18
ENDBRANCH  16  17
ENDBRANCH  15  16
ENDBRANCH  14  15
ENDBRANCH  13  14
ENDBRANCH   1  13
TORSDOF 20
ENDMDL
MODEL 2
REMARK VINA RESULT:     0.828      5.333     13.720
REMARK INTER + INTRA:           0.633
REMARK INTER:                   1.881
REMARK INTRA:                  -1.248
REMARK UNBOUND:                -1.163
REMARK SMILES CCCCCCCCCCCCCCCCCCCCCC(=O)[O-]
REMARK SMILES IDX 12 1 11 2 10 3 9 4 8 5 7 6 6 7 5 8 4 9 3 10 2 11 1 12 13 13
REMARK SMILES IDX 14 14 15 15 16 16 17 17 18 18 19 19 20 20 21 21 22 22 23 23
REMARK SMILES IDX 24 24
REMARK H PARENT
REMARK Flexibility Score: inf
ROOT
ATOM      1  C   UNL     1      44.386  22.295  16.770  1.00  0.00     0.000 C 
ENDROOT
BRANCH   1   2
ATOM      2  C   UNL     1      45.797  21.903  16.297  1.00  0.00     0.000 C 
BRANCH   2   3
ATOM      3  C   UNL     1      46.807  23.054  16.434  1.00  0.00     0.000 C 
BRANCH   3   4
ATOM      4  C   UNL     1      48.248  22.560  16.653  1.00  0.00    -0.000 C 
BRANCH   4   5
ATOM      5  C   UNL     1      48.517  21.195  15.993  1.00  0.00    -0.000 C 
BRANCH   5   6
ATOM      6  C   UNL     1      49.858  21.092  15.245  1.00  0.00    -0.000 C 
BRANCH   6   7
ATOM      7  C   UNL     1      50.909  22.089  15.762  1.00  0.00    -0.000 C 
BRANCH   7   8
ATOM      8  C   UNL     1      52.209  21.386  16.209  1.00  0.00    -0.000 C 
BRANCH   8   9
ATOM      9  C   UNL     1      52.619  21.711  17.656  1.00  0.00    -0.000 C 
BRANCH   9  10
ATOM     10  C   UNL     1      51.689  22.736  18.324  1.00  0.00    -0.000 C 
BRANCH  10  11
ATOM     11  C   UNL     1      51.438  22.425  19.808  1.00  0.00    -0.003 C 
ATOM     12  C   UNL     1      50.040  22.838  20.269  1.00  0.00     0.004 C 
ENDBRANCH  10  11
ENDBRANCH   9  10
ENDBRANCH   8   9
ENDBRANCH   7   8
ENDBRANCH   6   7
ENDBRANCH   5   6
ENDBRANCH   4   5
ENDBRANCH   3   4
ENDBRANCH   2   3
ENDBRANCH   1   2
BRANCH   1  13
ATOM     13  C   UNL     1      43.616  23.101  15.711  1.00  0.00     0.000 C 
BRANCH  13  14
ATOM     14  C   UNL     1      42.100  23.125  15.975  1.00  0.00     0.000 C 
BRANCH  14  15
ATOM     15  C   UNL     1      41.277  22.726  14.740  1.00  0.00     0.000 C 
BRANCH  15  16
ATOM     16  C   UNL     1      39.764  22.910  14.954  1.00  0.00     0.000 C 
BRANCH  16  17
ATOM     17  C   UNL     1      39.005  23.106  13.630  1.00  0.00     0.000 C 
BRANCH  17  18
ATOM     18  C   UNL     1      37.480  23.124  13.826  1.00  0.00     0.000 C 
BRANCH  18  19
ATOM     19  C   UNL     1      36.990  21.922  14.661  1.00  0.00     0.000 C 
BRANCH  19  20
ATOM     20  C   UNL     1      35.457  21.793  14.733  1.00  0.00     0.006 C 
BRANCH  20  21
ATOM     21  C   UNL     1      34.712  22.506  13.589  1.00  0.00     0.053 C 
BRANCH  21  22
ATOM     22  C   UNL     1      34.154  21.559  12.569  1.00  0.00     0.041 C 
ATOM     23  O   UNL     1      34.623  21.547  11.400  1.00  0.00    -0.550 OA
ATOM     24  O   UNL     1      33.181  20.633  12.923  1.00  0.00    -0.550 OA
ENDBRANCH  21  22
ENDBRANCH  20  21
ENDBRANCH  19  20
ENDBRANCH  18  19
ENDBRANCH  17  18
ENDBRANCH  16  17
ENDBRANCH  15  16
ENDBRANCH  14  15
ENDBRANCH  13  14
ENDBRANCH   1  13
TORSDOF 20
ENDMDL
MODEL 3
REMARK VINA RESULT:     0.866      5.526     13.840
REMARK INTER + INTRA:           0.716
REMARK INTER:                   1.686
REMARK INTRA:                  -0.970
REMARK UNBOUND:                -1.163
REMARK SMILES CCCCCCCCCCCCCCCCCCCCCC(=O)[O-]
REMARK SMILES IDX 12 1 11 2 10 3 9 4 8 5 7 6 6 7 5 8 4 9 3 10 2 11 1 12 13 13
REMARK SMILES IDX 14 14 15 15 16 16 17 17 18 18 19 19 20 20 21 21 22 22 23 23
REMARK SMILES IDX 24 24
REMARK H PARENT
REMARK Flexibility Score: inf
ROOT
ATOM      1  C   UNL     1      44.896  22.214  16.642  1.00  0.00     0.000 C 
ENDROOT
BRANCH   1   2
ATOM      2  C   UNL     1      46.183  23.048  16.763  1.00  0.00     0.000 C 
BRANCH   2   3
ATOM      3  C   UNL     1      47.387  22.213  17.228  1.00  0.00     0.000 C 
BRANCH   3   4
ATOM      4  C   UNL     1      48.544  22.217  16.213  1.00  0.00    -0.000 C 
BRANCH   4   5
ATOM      5  C   UNL     1      48.616  20.921  15.386  1.00  0.00    -0.000 C 
BRANCH   5   6
ATOM      6  C   UNL     1      50.040  20.444  15.053  1.00  0.00    -0.000 C 
BRANCH   6   7
ATOM      7  C   UNL     1      51.001  21.605  14.740  1.00  0.00    -0.000 C 
BRANCH   7   8
ATOM      8  C   UNL     1      52.465  21.257  15.083  1.00  0.00    -0.000 C 
BRANCH   8   9
ATOM      9  C   UNL     1      52.771  21.297  16.590  1.00  0.00    -0.000 C 
BRANCH   9  10
ATOM     10  C   UNL     1      52.299  22.598  17.261  1.00  0.00    -0.000 C 
BRANCH  10  11
ATOM     11  C   UNL     1      52.840  22.754  18.691  1.00  0.00    -0.003 C 
ATOM     12  C   UNL     1      52.837  21.438  19.469  1.00  0.00     0.004 C 
ENDBRANCH  10  11
ENDBRANCH   9  10
ENDBRANCH   8   9
ENDBRANCH   7   8
ENDBRANCH   6   7
ENDBRANCH   5   6
ENDBRANCH   4   5
ENDBRANCH   3   4
ENDBRANCH   2   3
ENDBRANCH   1   2
BRANCH   1  13
ATOM     13  C   UNL     1      43.668  23.076  16.306  1.00  0.00     0.000 C 
BRANCH  13  14
ATOM     14  C   UNL     1      42.506  22.248  15.728  1.00  0.00     0.000 C 
BRANCH  14  15
ATOM     15  C   UNL     1      41.360  23.124  15.200  1.00  0.00     0.000 C 
BRANCH  15  16
ATOM     16  C   UNL     1      40.049  22.338  15.021  1.00  0.00     0.000 C 
BRANCH  16  17
ATOM     17  C   UNL     1      39.015  23.107  14.181  1.00  0.00     0.000 C 
BRANCH  17  18
ATOM     18  C   UNL     1      37.569  22.740  14.551  1.00  0.00     0.000 C 
BRANCH  18  19
ATOM     19  C   UNL     1      36.879  21.917  13.442  1.00  0.00     0.000 C 
BRANCH  19  20
ATOM     20  C   UNL     1      35.763  20.988  13.954  1.00  0.00     0.006 C 
BRANCH  20  21
ATOM     21  C   UNL     1      35.367  21.230  15.422  1.00  0.00     0.053 C 
BRANCH  21  22
ATOM     22  C   UNL     1      34.542  20.119  16.001  1.00  0.00     0.041 C 
ATOM     23  O   UNL     1      34.175  20.172  17.204  1.00  0.00    -0.550 OA
ATOM     24  O   UNL     1      34.108  19.071  15.200  1.00  0.00    -0.550 OA
ENDBRANCH  21  22
ENDBRANCH  20  21
ENDBRANCH  19  20
ENDBRANCH  18  19
ENDBRANCH  17  18
ENDBRANCH  16  17
ENDBRANCH  15  16
ENDBRANCH  14  15
ENDBRANCH  13  14
ENDBRANCH   1  13
TORSDOF 20
ENDMDL
MODEL 4
REMARK VINA RESULT:     0.872      5.695     14.053
REMARK INTER + INTRA:           0.728
REMARK INTER:                   1.393
REMARK INTRA:                  -0.666
REMARK UNBOUND:                -1.163
REMARK SMILES CCCCCCCCCCCCCCCCCCCCCC(=O)[O-]
REMARK SMILES IDX 12 1 11 2 10 3 9 4 8 5 7 6 6 7 5 8 4 9 3 10 2 11 1 12 13 13
REMARK SMILES IDX 14 14 15 15 16 16 17 17 18 18 19 19 20 20 21 21 22 22 23 23
REMARK SMILES IDX 24 24
REMARK H PARENT
REMARK Flexibility Score: inf
ROOT
ATOM      1  C   UNL     1      44.685  21.569  16.499  1.00  0.00     0.000 C 
ENDROOT
BRANCH   1   2
ATOM      2  C   UNL     1      46.206  21.452  16.299  1.00  0.00     0.000 C 
BRANCH   2   3
ATOM      3  C   UNL     1      46.908  22.819  16.299  1.00  0.00     0.000 C 
BRANCH   3   4
ATOM      4  C   UNL     1      47.904  22.979  17.462  1.00  0.00    -0.000 C 
BRANCH   4   5
ATOM      5  C   UNL     1      49.360  23.125  16.986  1.00  0.00    -0.000 C 
BRANCH   5   6
ATOM      6  C   UNL     1      50.365  22.192  17.683  1.00  0.00    -0.000 C 
BRANCH   6   7
ATOM      7  C   UNL     1      51.290  22.936  18.663  1.00  0.00    -0.000 C 
BRANCH   7   8
ATOM      8  C   UNL     1      51.248  22.326  20.080  1.00  0.00    -0.000 C 
BRANCH   8   9
ATOM      9  C   UNL     1      49.928  22.587  20.824  1.00  0.00    -0.000 C 
BRANCH   9  10
ATOM     10  C   UNL     1      50.044  22.370  22.341  1.00  0.00    -0.000 C 
BRANCH  10  11
ATOM     11  C   UNL     1      51.099  21.315  22.707  1.00  0.00    -0.003 C 
ATOM     12  C   UNL     1      52.427  21.935  23.141  1.00  0.00     0.004 C 
ENDBRANCH  10  11
ENDBRANCH   9  10
ENDBRANCH   8   9
ENDBRANCH   7   8
ENDBRANCH   6   7
ENDBRANCH   5   6
ENDBRANCH   4   5
ENDBRANCH   3   4
ENDBRANCH   2   3
ENDBRANCH   1   2
BRANCH   1  13
ATOM     13  C   UNL     1      44.118  22.879  15.928  1.00  0.00     0.000 C 
BRANCH  13  14
ATOM     14  C   UNL     1      42.652  23.115  16.337  1.00  0.00     0.000 C 
BRANCH  14  15
ATOM     15  C   UNL     1      41.696  23.124  15.134  1.00  0.00     0.000 C 
BRANCH  15  16
ATOM     16  C   UNL     1      40.306  22.563  15.479  1.00  0.00     0.000 C 
BRANCH  16  17
ATOM     17  C   UNL     1      39.356  22.563  14.269  1.00  0.00     0.000 C 
BRANCH  17  18
ATOM     18  C   UNL     1      37.922  22.965  14.650  1.00  0.00     0.000 C 
BRANCH  18  19
ATOM     19  C   UNL     1      36.868  22.141  13.880  1.00  0.00     0.000 C 
BRANCH  19  20
ATOM     20  C   UNL     1      35.841  21.436  14.786  1.00  0.00     0.006 C 
BRANCH  20  21
ATOM     21  C   UNL     1      34.912  20.459  14.041  1.00  0.00     0.053 C 
BRANCH  21  22
ATOM     22  C   UNL     1      33.946  19.758  14.949  1.00  0.00     0.041 C 
ATOM     23  O   UNL     1      33.390  20.392  15.885  1.00  0.00    -0.550 OA
ATOM     24  O   UNL     1      33.593  18.435  14.718  1.00  0.00    -0.550 OA
ENDBRANCH  21  22
ENDBRANCH  20  21
ENDBRANCH  19  20
ENDBRANCH  18  19
ENDBRANCH  17  18
ENDBRANCH  16  17
ENDBRANCH  15  16
ENDBRANCH  14  15
ENDBRANCH  13  14
ENDBRANCH   1  13
TORSDOF 20
ENDMDL
MODEL 5
REMARK VINA RESULT:     0.897      1.602      4.264
REMARK INTER + INTRA:           0.783
REMARK INTER:                   1.462
REMARK INTRA:                  -0.679
REMARK UNBOUND:                -1.163
REMARK SMILES CCCCCCCCCCCCCCCCCCCCCC(=O)[O-]
REMARK SMILES IDX 12 1 11 2 10 3 9 4 8 5 7 6 6 7 5 8 4 9 3 10 2 11 1 12 13 13
REMARK SMILES IDX 14 14 15 15 16 16 17 17 18 18 19 19 20 20 21 21 22 22 23 23
REMARK SMILES IDX 24 24
REMARK H PARENT
REMARK Flexibility Score: inf
ROOT
ATOM      1  C   UNL     1      36.982  23.120  13.285  1.00  0.00     0.000 C 
ENDROOT
BRANCH   1   2
ATOM      2  C   UNL     1      37.781  22.695  12.040  1.00  0.00     0.000 C 
BRANCH   2   3
ATOM      3  C   UNL     1      36.952  22.778  10.749  1.00  0.00     0.000 C 
BRANCH   3   4
ATOM      4  C   UNL     1      36.059  21.542  10.535  1.00  0.00    -0.000 C 
BRANCH   4   5
ATOM      5  C   UNL     1      34.588  21.908  10.268  1.00  0.00    -0.000 C 
BRANCH   5   6
ATOM      6  C   UNL     1      33.559  20.975  10.930  1.00  0.00    -0.000 C 
BRANCH   6   7
ATOM      7  C   UNL     1      33.484  21.153  12.456  1.00  0.00    -0.000 C 
BRANCH   7   8
ATOM      8  C   UNL     1      33.168  19.829  13.182  1.00  0.00    -0.000 C 
BRANCH   8   9
ATOM      9  C   UNL     1      34.308  19.337  14.089  1.00  0.00    -0.000 C 
BRANCH   9  10
ATOM     10  C   UNL     1      34.149  19.791  15.549  1.00  0.00    -0.000 C 
BRANCH  10  11
ATOM     11  C   UNL     1      35.475  19.760  16.325  1.00  0.00    -0.003 C 
ATOM     12  C   UNL     1      36.346  20.986  16.051  1.00  0.00     0.004 C 
ENDBRANCH  10  11
ENDBRANCH   9  10
ENDBRANCH   8   9
ENDBRANCH   7   8
ENDBRANCH   6   7
ENDBRANCH   5   6
ENDBRANCH   4   5
ENDBRANCH   3   4
ENDBRANCH   2   3
ENDBRANCH   1   2
BRANCH   1  13
ATOM     13  C   UNL     1      37.813  23.027  14.575  1.00  0.00     0.000 C 
BRANCH  13  14
ATOM     14  C   UNL     1      39.272  22.617  14.309  1.00  0.00     0.000 C 
BRANCH  14  15
ATOM     15  C   UNL     1      40.190  22.877  15.514  1.00  0.00     0.000 C 
BRANCH  15  16
ATOM     16  C   UNL     1      41.651  23.124  15.101  1.00  0.00     0.000 C 
BRANCH  16  17
ATOM     17  C   UNL     1      42.608  23.125  16.306  1.00  0.00     0.000 C 
BRANCH  17  18
ATOM     18  C   UNL     1      44.064  22.842  15.899  1.00  0.00     0.000 C 
BRANCH  18  19
ATOM     19  C   UNL     1      44.883  22.242  17.062  1.00  0.00     0.000 C 
BRANCH  19  20
ATOM     20  C   UNL     1      46.347  22.718  17.107  1.00  0.00     0.006 C 
BRANCH  20  21
ATOM     21  C   UNL     1      47.272  22.000  16.107  1.00  0.00     0.053 C 
BRANCH  21  22
ATOM     22  C   UNL     1      48.727  22.263  16.358  1.00  0.00     0.041 C 
ATOM     23  O   UNL     1      49.077  22.963  17.345  1.00  0.00    -0.550 OA
ATOM     24  O   UNL     1      49.699  21.671  15.562  1.00  0.00    -0.550 OA
ENDBRANCH  21  22
ENDBRANCH  20  21
ENDBRANCH  19  20
ENDBRANCH  18  19
ENDBRANCH  17  18
ENDBRANCH  16  17
ENDBRANCH  15  16
ENDBRANCH  14  15
ENDBRANCH  13  14
ENDBRANCH   1  13
TORSDOF 20
ENDMDL
MODEL 6
REMARK VINA RESULT:     0.913      1.704      2.968
REMARK INTER + INTRA:           0.816
REMARK INTER:                   1.468
REMARK INTRA:                  -0.652
REMARK UNBOUND:                -1.163
REMARK SMILES CCCCCCCCCCCCCCCCCCCCCC(=O)[O-]
REMARK SMILES IDX 12 1 11 2 10 3 9 4 8 5 7 6 6 7 5 8 4 9 3 10 2 11 1 12 13 13
REMARK SMILES IDX 14 14 15 15 16 16 17 17 18 18 19 19 20 20 21 21 22 22 23 23
REMARK SMILES IDX 24 24
REMARK H PARENT
REMARK Flexibility Score: inf
ROOT
ATOM      1  C   UNL     1      40.705  23.102  14.559  1.00  0.00     0.000 C 
ENDROOT
BRANCH   1   2
ATOM      2  C   UNL     1      39.236  22.732  14.832  1.00  0.00     0.000 C 
BRANCH   2   3
ATOM      3  C   UNL     1      38.465  22.390  13.547  1.00  0.00     0.000 C 
BRANCH   3   4
ATOM      4  C   UNL     1      36.938  22.419  13.743  1.00  0.00    -0.000 C 
BRANCH   4   5
ATOM      5  C   UNL     1      36.192  22.997  12.528  1.00  0.00    -0.000 C 
BRANCH   5   6
ATOM      6  C   UNL     1      36.129  22.066  11.304  1.00  0.00    -0.000 C 
BRANCH   6   7
ATOM      7  C   UNL     1      34.855  21.204  11.274  1.00  0.00    -0.000 C 
BRANCH   7   8
ATOM      8  C   UNL     1      34.602  20.492  12.619  1.00  0.00    -0.000 C 
BRANCH   8   9
ATOM      9  C   UNL     1      33.195  20.736  13.190  1.00  0.00    -0.000 C 
BRANCH   9  10
ATOM     10  C   UNL     1      33.097  20.424  14.692  1.00  0.00    -0.000 C 
BRANCH  10  11
ATOM     11  C   UNL     1      34.194  19.458  15.167  1.00  0.00    -0.003 C 
ATOM     12  C   UNL     1      34.693  19.779  16.576  1.00  0.00     0.004 C 
ENDBRANCH  10  11
ENDBRANCH   9  10
ENDBRANCH   8   9
ENDBRANCH   7   8
ENDBRANCH   6   7
ENDBRANCH   5   6
ENDBRANCH   4   5
ENDBRANCH   3   4
ENDBRANCH   2   3
ENDBRANCH   1   2
BRANCH   1  13
ATOM     13  C   UNL     1      41.555  23.109  15.840  1.00  0.00     0.000 C 
BRANCH  13  14
ATOM     14  C   UNL     1      43.061  22.980  15.550  1.00  0.00     0.000 C 
BRANCH  14  15
ATOM     15  C   UNL     1      43.896  22.792  16.826  1.00  0.00     0.000 C 
BRANCH  15  16
ATOM     16  C   UNL     1      45.308  22.254  16.533  1.00  0.00     0.000 C 
BRANCH  16  17
ATOM     17  C   UNL     1      46.409  23.125  17.163  1.00  0.00     0.000 C 
BRANCH  17  18
ATOM     18  C   UNL     1      47.813  22.529  16.965  1.00  0.00     0.000 C 
BRANCH  18  19
ATOM     19  C   UNL     1      48.463  22.126  18.306  1.00  0.00     0.000 C 
BRANCH  19  20
ATOM     20  C   UNL     1      49.975  22.414  18.379  1.00  0.00     0.006 C 
BRANCH  20  21
ATOM     21  C   UNL     1      50.590  22.194  19.774  1.00  0.00     0.053 C 
BRANCH  21  22
ATOM     22  C   UNL     1      52.088  22.255  19.773  1.00  0.00     0.041 C 
ATOM     23  O   UNL     1      52.700  22.650  20.800  1.00  0.00    -0.550 OA
ATOM     24  O   UNL     1      52.813  21.800  18.679  1.00  0.00    -0.550 OA
ENDBRANCH  21  22
ENDBRANCH  20  21
ENDBRANCH  19  20
ENDBRANCH  18  19
ENDBRANCH  17  18
ENDBRANCH  16  17
ENDBRANCH  15  16
ENDBRANCH  14  15
ENDBRANCH  13  14
ENDBRANCH   1  13
TORSDOF 20
ENDMDL
MODEL 7
REMARK VINA RESULT:     1.013      5.524     13.966
REMARK INTER + INTRA:           1.034
REMARK INTER:                   1.959
REMARK INTRA:                  -0.925
REMARK UNBOUND:                -1.163
REMARK SMILES CCCCCCCCCCCCCCCCCCCCCC(=O)[O-]
REMARK SMILES IDX 12 1 11 2 10 3 9 4 8 5 7 6 6 7 5 8 4 9 3 10 2 11 1 12 13 13
REMARK SMILES IDX 14 14 15 15 16 16 17 17 18 18 19 19 20 20 21 21 22 22 23 23
REMARK SMILES IDX 24 24
REMARK H PARENT
REMARK Flexibility Score: inf
ROOT
ATOM      1  C   UNL     1      44.475  22.131  16.598  1.00  0.00     0.000 C 
ENDROOT
BRANCH   1   2
ATOM      2  C   UNL     1      45.897  21.884  16.065  1.00  0.00     0.000 C 
BRANCH   2   3
ATOM      3  C   UNL     1      46.798  23.122  16.188  1.00  0.00     0.000 C 
BRANCH   3   4
ATOM      4  C   UNL     1      47.688  23.089  17.443  1.00  0.00    -0.000 C 
BRANCH   4   5
ATOM      5  C   UNL     1      48.854  22.092  17.321  1.00  0.00    -0.000 C 
BRANCH   5   6
ATOM      6  C   UNL     1      49.778  22.023  18.550  1.00  0.00    -0.000 C 
BRANCH   6   7
ATOM      7  C   UNL     1      49.483  23.125  19.582  1.00  0.00    -0.000 C 
BRANCH   7   8
ATOM      8  C   UNL     1      50.371  22.999  20.838  1.00  0.00    -0.000 C 
BRANCH   8   9
ATOM      9  C   UNL     1      50.229  21.649  21.560  1.00  0.00    -0.000 C 
BRANCH   9  10
ATOM     10  C   UNL     1      51.244  21.471  22.701  1.00  0.00    -0.000 C 
BRANCH  10  11
ATOM     11  C   UNL     1      52.689  21.350  22.191  1.00  0.00    -0.003 C 
ATOM     12  C   UNL     1      52.832  20.332  21.060  1.00  0.00     0.004 C 
ENDBRANCH  10  11
ENDBRANCH   9  10
ENDBRANCH   8   9
ENDBRANCH   7   8
ENDBRANCH   6   7
ENDBRANCH   5   6
ENDBRANCH   4   5
ENDBRANCH   3   4
ENDBRANCH   2   3
ENDBRANCH   1   2
BRANCH   1  13
ATOM     13  C   UNL     1      43.624  22.971  15.632  1.00  0.00     0.000 C 
BRANCH  13  14
ATOM     14  C   UNL     1      42.148  23.051  16.061  1.00  0.00     0.000 C 
BRANCH  14  15
ATOM     15  C   UNL     1      41.186  23.122  14.866  1.00  0.00     0.000 C 
BRANCH  15  16
ATOM     16  C   UNL     1      39.852  22.405  15.137  1.00  0.00     0.000 C 
BRANCH  16  17
ATOM     17  C   UNL     1      38.729  22.882  14.200  1.00  0.00     0.000 C 
BRANCH  17  18
ATOM     18  C   UNL     1      37.358  22.915  14.896  1.00  0.00     0.000 C 
BRANCH  18  19
ATOM     19  C   UNL     1      36.794  21.496  15.128  1.00  0.00     0.000 C 
BRANCH  19  20
ATOM     20  C   UNL     1      35.762  21.053  14.073  1.00  0.00     0.006 C 
BRANCH  20  21
ATOM     21  C   UNL     1      35.124  22.216  13.291  1.00  0.00     0.053 C 
BRANCH  21  22
ATOM     22  C   UNL     1      34.601  21.805  11.947  1.00  0.00     0.041 C 
ATOM     23  O   UNL     1      35.190  20.904  11.294  1.00  0.00    -0.550 OA
ATOM     24  O   UNL     1      33.422  22.347  11.452  1.00  0.00    -0.550 OA
ENDBRANCH  21  22
ENDBRANCH  20  21
ENDBRANCH  19  20
ENDBRANCH  18  19
ENDBRANCH  17  18
ENDBRANCH  16  17
ENDBRANCH  15  16
ENDBRANCH  14  15
ENDBRANCH  13  14
ENDBRANCH   1  13
TORSDOF 20
ENDMDL
MODEL 8
REMARK VINA RESULT:     1.385      5.148     13.733
REMARK INTER + INTRA:           1.840
REMARK INTER:                   2.775
REMARK INTRA:                  -0.934
REMARK UNBOUND:                -1.163
REMARK SMILES CCCCCCCCCCCCCCCCCCCCCC(=O)[O-]
REMARK SMILES IDX 12 1 11 2 10 3 9 4 8 5 7 6 6 7 5 8 4 9 3 10 2 11 1 12 13 13
REMARK SMILES IDX 14 14 15 15 16 16 17 17 18 18 19 19 20 20 21 21 22 22 23 23
REMARK SMILES IDX 24 24
REMARK H PARENT
REMARK Flexibility Score: inf
ROOT
ATOM      1  C   UNL     1      47.162  22.815  17.816  1.00  0.00     0.000 C 
ENDROOT
BRANCH   1   2
ATOM      2  C   UNL     1      48.667  22.774  17.498  1.00  0.00     0.000 C 
BRANCH   2   3
ATOM      3  C   UNL     1      49.016  21.731  16.425  1.00  0.00     0.000 C 
BRANCH   3   4
ATOM      4  C   UNL     1      50.475  21.834  15.945  1.00  0.00    -0.000 C 
BRANCH   4   5
ATOM      5  C   UNL     1      51.236  23.003  16.596  1.00  0.00    -0.000 C 
BRANCH   5   6
ATOM      6  C   UNL     1      52.398  22.587  17.514  1.00  0.00    -0.000 C 
BRANCH   6   7
ATOM      7  C   UNL     1      52.073  22.761  19.008  1.00  0.00    -0.000 C 
BRANCH   7   8
ATOM      8  C   UNL     1      52.170  21.431  19.784  1.00  0.00    -0.000 C 
BRANCH   8   9
ATOM      9  C   UNL     1      52.376  21.614  21.297  1.00  0.00    -0.000 C 
BRANCH   9  10
ATOM     10  C   UNL     1      51.069  21.502  22.097  1.00  0.00    -0.000 C 
BRANCH  10  11
ATOM     11  C   UNL     1      49.990  22.479  21.604  1.00  0.00    -0.003 C 
ATOM     12  C   UNL     1      48.718  22.430  22.450  1.00  0.00     0.004 C 
ENDBRANCH  10  11
ENDBRANCH   9  10
ENDBRANCH   8   9
ENDBRANCH   7   8
ENDBRANCH   6   7
ENDBRANCH   5   6
ENDBRANCH   4   5
ENDBRANCH   3   4
ENDBRANCH   2   3
ENDBRANCH   1   2
BRANCH   1  13
ATOM     13  C   UNL     1      46.332  21.970  16.835  1.00  0.00     0.000 C 
BRANCH  13  14
ATOM     14  C   UNL     1      45.331  22.816  16.027  1.00  0.00     0.000 C 
BRANCH  14  15
ATOM     15  C   UNL     1      43.871  22.531  16.411  1.00  0.00     0.000 C 
BRANCH  15  16
ATOM     16  C   UNL     1      42.869  23.125  15.405  1.00  0.00     0.000 C 
BRANCH  16  17
ATOM     17  C   UNL     1      41.447  22.574  15.599  1.00  0.00     0.000 C 
BRANCH  17  18
ATOM     18  C   UNL     1      40.470  23.076  14.522  1.00  0.00     0.000 C 
BRANCH  18  19
ATOM     19  C   UNL     1      39.012  22.675  14.832  1.00  0.00     0.000 C 
BRANCH  19  20
ATOM     20  C   UNL     1      38.013  23.041  13.719  1.00  0.00     0.006 C 
BRANCH  20  21
ATOM     21  C   UNL     1      36.540  22.782  14.087  1.00  0.00     0.053 C 
BRANCH  21  22
ATOM     22  C   UNL     1      35.778  22.076  13.005  1.00  0.00     0.041 C 
ATOM     23  O   UNL     1      34.974  21.153  13.304  1.00  0.00    -0.550 OA
ATOM     24  O   UNL     1      35.886  22.486  11.683  1.00  0.00    -0.550 OA
ENDBRANCH  21  22
ENDBRANCH  20  21
ENDBRANCH  19  20
ENDBRANCH  18  19
ENDBRANCH  17  18
ENDBRANCH  16  17
ENDBRANCH  15  16
ENDBRANCH  14  15
ENDBRANCH  13  14
ENDBRANCH   1  13
TORSDOF 20
ENDMDL
