MODEL 1
REMARK VINA RESULT:    -8.819      0.000      0.000
REMARK INTER + INTRA:         -11.262
REMARK INTER:                 -10.881
REMARK INTRA:                  -0.381
REMARK UNBOUND:                -0.381
REMARK SMILES Oc1cc(O)c2cc(O)c(-c3cc(O)c(O)c(O)c3)[o+]c2c1
REMARK SMILES IDX 10 1 20 2 21 3 22 4 2 5 3 6 4 7 6 8 7 9 8 10 11 11 12 12
REMARK SMILES IDX 13 13 19 14 15 15 17 16 14 17 16 19 18 21 9 23 1 25 5 27
REMARK H PARENT 14 18 16 20 18 22 9 24 1 26 5 28
REMARK Flexibility Score: inf
ROOT
ATOM      1  C   UNL     1      44.698 -13.386 -35.870  1.00  0.00     0.402 A 
ATOM      2  O   UNL     1      43.892 -14.441 -35.958  1.00  0.00    -0.202 OA
ATOM      3  C   UNL     1      43.820 -15.385 -35.026  1.00  0.00     0.368 A 
ATOM      4  C   UNL     1      42.940 -16.454 -35.208  1.00  0.00     0.162 A 
ATOM      5  C   UNL     1      42.841 -17.458 -34.244  1.00  0.00     0.128 A 
ATOM      6  C   UNL     1      43.626 -17.394 -33.088  1.00  0.00     0.093 A 
ATOM      7  C   UNL     1      44.515 -16.332 -32.881  1.00  0.00     0.136 A 
ATOM      8  C   UNL     1      44.621 -15.311 -33.862  1.00  0.00     0.125 A 
ATOM      9  C   UNL     1      45.495 -14.217 -33.745  1.00  0.00     0.078 A 
ATOM     10  C   UNL     1      45.547 -13.251 -34.754  1.00  0.00     0.223 A 
ENDROOT
BRANCH   1  11
ATOM     11  C   UNL     1      44.681 -12.396 -36.970  1.00  0.00     0.091 A 
ATOM     12  C   UNL     1      45.403 -12.658 -38.145  1.00  0.00     0.068 A 
ATOM     13  C   UNL     1      45.389 -11.750 -39.209  1.00  0.00     0.162 A 
ATOM     14  C   UNL     1      43.912 -11.223 -36.889  1.00  0.00     0.068 A 
ATOM     15  C   UNL     1      44.635 -10.569 -39.114  1.00  0.00     0.200 A 
ATOM     16  C   UNL     1      43.890 -10.309 -37.952  1.00  0.00     0.162 A 
BRANCH  13  17
ATOM     17  O   UNL     1      46.132 -12.042 -40.354  1.00  0.00    -0.504 OA
ATOM     18  H   UNL     1      46.465 -12.977 -40.555  1.00  0.00     0.293 HD
ENDBRANCH  13  17
BRANCH  15  19
ATOM     19  O   UNL     1      44.629  -9.667 -40.180  1.00  0.00    -0.502 OA
ATOM     20  H   UNL     1      45.399  -9.598 -40.834  1.00  0.00     0.293 HD
ENDBRANCH  15  19
BRANCH  16  21
ATOM     21  O   UNL     1      43.129  -9.145 -37.856  1.00  0.00    -0.504 OA
ATOM     22  H   UNL     1      43.559  -8.227 -37.843  1.00  0.00     0.293 HD
ENDBRANCH  16  21
ENDBRANCH   1  11
BRANCH  10  23
ATOM     23  O   UNL     1      46.449 -12.191 -34.664  1.00  0.00    -0.500 OA
ATOM     24  H   UNL     1      46.276 -11.395 -34.061  1.00  0.00     0.294 HD
ENDBRANCH  10  23
BRANCH   5  25
ATOM     25  O   UNL     1      41.957 -18.517 -34.445  1.00  0.00    -0.507 OA
ATOM     26  H   UNL     1      41.059 -18.380 -34.893  1.00  0.00     0.293 HD
ENDBRANCH   5  25
BRANCH   7  27
ATOM     27  O   UNL     1      45.262 -16.339 -31.700  1.00  0.00    -0.507 OA
ATOM     28  H   UNL     1      45.446 -17.163 -31.145  1.00  0.00     0.293 HD
ENDBRANCH   7  27
TORSDOF 7
ENDMDL
MODEL 2
REMARK VINA RESULT:    -8.708      0.145      1.799
REMARK INTER + INTRA:         -11.125
REMARK INTER:                 -10.756
REMARK INTRA:                  -0.369
REMARK UNBOUND:                -0.381
REMARK SMILES Oc1cc(O)c2cc(O)c(-c3cc(O)c(O)c(O)c3)[o+]c2c1
REMARK SMILES IDX 10 1 20 2 21 3 22 4 2 5 3 6 4 7 6 8 7 9 8 10 11 11 12 12
REMARK SMILES IDX 13 13 19 14 15 15 17 16 14 17 16 19 18 21 9 23 1 25 5 27
REMARK H PARENT 14 18 16 20 18 22 9 24 1 26 5 28
REMARK Flexibility Score: inf
ROOT
ATOM      1  C   UNL     1      44.670 -13.532 -35.871  1.00  0.00     0.402 A 
ATOM      2  O   UNL     1      43.878 -14.597 -35.967  1.00  0.00    -0.202 OA
ATOM      3  C   UNL     1      43.797 -15.534 -35.029  1.00  0.00     0.368 A 
ATOM      4  C   UNL     1      42.934 -16.615 -35.219  1.00  0.00     0.162 A 
ATOM      5  C   UNL     1      42.825 -17.612 -34.249  1.00  0.00     0.128 A 
ATOM      6  C   UNL     1      43.584 -17.528 -33.077  1.00  0.00     0.093 A 
ATOM      7  C   UNL     1      44.457 -16.454 -32.861  1.00  0.00     0.136 A 
ATOM      8  C   UNL     1      44.572 -15.440 -33.848  1.00  0.00     0.125 A 
ATOM      9  C   UNL     1      45.430 -14.335 -33.722  1.00  0.00     0.078 A 
ATOM     10  C   UNL     1      45.492 -13.377 -34.738  1.00  0.00     0.223 A 
ENDROOT
BRANCH   1  11
ATOM     11  C   UNL     1      44.665 -12.552 -36.980  1.00  0.00     0.091 A 
ATOM     12  C   UNL     1      43.887 -11.388 -36.870  1.00  0.00     0.068 A 
ATOM     13  C   UNL     1      43.878 -10.436 -37.893  1.00  0.00     0.162 A 
ATOM     14  C   UNL     1      45.466 -12.731 -38.120  1.00  0.00     0.068 A 
ATOM     15  C   UNL     1      44.665 -10.630 -39.040  1.00  0.00     0.200 A 
ATOM     16  C   UNL     1      45.465 -11.780 -39.150  1.00  0.00     0.162 A 
BRANCH  13  17
ATOM     17  O   UNL     1      43.080  -9.300 -37.750  1.00  0.00    -0.504 OA
ATOM     18  H   UNL     1      42.542  -8.920 -38.519  1.00  0.00     0.293 HD
ENDBRANCH  13  17
BRANCH  15  19
ATOM     19  O   UNL     1      44.649  -9.675 -40.059  1.00  0.00    -0.502 OA
ATOM     20  H   UNL     1      43.848  -9.077 -40.226  1.00  0.00     0.293 HD
ENDBRANCH  15  19
BRANCH  16  21
ATOM     21  O   UNL     1      46.259 -11.973 -40.279  1.00  0.00    -0.504 OA
ATOM     22  H   UNL     1      45.855 -12.088 -41.201  1.00  0.00     0.293 HD
ENDBRANCH  16  21
ENDBRANCH   1  11
BRANCH  10  23
ATOM     23  O   UNL     1      46.380 -12.306 -34.638  1.00  0.00    -0.500 OA
ATOM     24  H   UNL     1      46.793 -12.039 -33.752  1.00  0.00     0.294 HD
ENDBRANCH  10  23
BRANCH   5  25
ATOM     25  O   UNL     1      41.959 -18.683 -34.459  1.00  0.00    -0.507 OA
ATOM     26  H   UNL     1      42.290 -19.640 -34.455  1.00  0.00     0.293 HD
ENDBRANCH   5  25
BRANCH   7  27
ATOM     27  O   UNL     1      45.178 -16.441 -31.663  1.00  0.00    -0.507 OA
ATOM     28  H   UNL     1      44.761 -16.364 -30.747  1.00  0.00     0.293 HD
ENDBRANCH   7  27
TORSDOF 7
ENDMDL
MODEL 3
REMARK VINA RESULT:    -8.470      2.080      7.275
REMARK INTER + INTRA:         -10.831
REMARK INTER:                 -10.675
REMARK INTRA:                  -0.157
REMARK UNBOUND:                -0.381
REMARK SMILES Oc1cc(O)c2cc(O)c(-c3cc(O)c(O)c(O)c3)[o+]c2c1
REMARK SMILES IDX 10 1 20 2 21 3 22 4 2 5 3 6 4 7 6 8 7 9 8 10 11 11 12 12
REMARK SMILES IDX 13 13 19 14 15 15 17 16 14 17 16 19 18 21 9 23 1 25 5 27
REMARK H PARENT 14 18 16 20 18 22 9 24 1 26 5 28
REMARK Flexibility Score: inf
ROOT
ATOM      1  C   UNL     1      43.061 -12.658 -36.287  1.00  0.00     0.402 A 
ATOM      2  O   UNL     1      43.751 -12.155 -37.308  1.00  0.00    -0.202 OA
ATOM      3  C   UNL     1      43.201 -11.420 -38.268  1.00  0.00     0.368 A 
ATOM      4  C   UNL     1      44.009 -10.933 -39.298  1.00  0.00     0.162 A 
ATOM      5  C   UNL     1      43.460 -10.155 -40.318  1.00  0.00     0.128 A 
ATOM      6  C   UNL     1      42.093  -9.859 -40.309  1.00  0.00     0.093 A 
ATOM      7  C   UNL     1      41.261 -10.334 -39.287  1.00  0.00     0.136 A 
ATOM      8  C   UNL     1      41.816 -11.129 -38.250  1.00  0.00     0.125 A 
ATOM      9  C   UNL     1      41.056 -11.658 -37.194  1.00  0.00     0.078 A 
ATOM     10  C   UNL     1      41.673 -12.436 -36.209  1.00  0.00     0.223 A 
ENDROOT
BRANCH   1  11
ATOM     11  C   UNL     1      43.789 -13.455 -35.274  1.00  0.00     0.091 A 
ATOM     12  C   UNL     1      44.807 -12.849 -34.521  1.00  0.00     0.068 A 
ATOM     13  C   UNL     1      45.499 -13.571 -33.543  1.00  0.00     0.162 A 
ATOM     14  C   UNL     1      43.446 -14.791 -35.007  1.00  0.00     0.068 A 
ATOM     15  C   UNL     1      45.166 -14.913 -33.295  1.00  0.00     0.200 A 
ATOM     16  C   UNL     1      44.132 -15.522 -34.027  1.00  0.00     0.162 A 
BRANCH  13  17
ATOM     17  O   UNL     1      46.514 -12.936 -32.827  1.00  0.00    -0.504 OA
ATOM     18  H   UNL     1      47.252 -13.453 -32.366  1.00  0.00     0.293 HD
ENDBRANCH  13  17
BRANCH  15  19
ATOM     19  O   UNL     1      45.863 -15.628 -32.319  1.00  0.00    -0.502 OA
ATOM     20  H   UNL     1      45.425 -15.937 -31.460  1.00  0.00     0.293 HD
ENDBRANCH  15  19
BRANCH  16  21
ATOM     21  O   UNL     1      43.787 -16.849 -33.776  1.00  0.00    -0.504 OA
ATOM     22  H   UNL     1      44.396 -17.616 -34.038  1.00  0.00     0.293 HD
ENDBRANCH  16  21
ENDBRANCH   1  11
BRANCH  10  23
ATOM     23  O   UNL     1      40.912 -13.005 -35.187  1.00  0.00    -0.500 OA
ATOM     24  H   UNL     1      40.779 -12.534 -34.299  1.00  0.00     0.294 HD
ENDBRANCH  10  23
BRANCH   5  25
ATOM     25  O   UNL     1      44.283  -9.680 -41.337  1.00  0.00    -0.507 OA
ATOM     26  H   UNL     1      43.906  -9.173 -42.129  1.00  0.00     0.293 HD
ENDBRANCH   5  25
BRANCH   7  27
ATOM     27  O   UNL     1      39.907  -9.993 -39.348  1.00  0.00    -0.507 OA
ATOM     28  H   UNL     1      39.558  -9.095 -39.652  1.00  0.00     0.293 HD
ENDBRANCH   7  27
TORSDOF 7
ENDMDL
MODEL 4
REMARK VINA RESULT:    -8.455      1.949      7.123
REMARK INTER + INTRA:         -10.813
REMARK INTER:                 -10.456
REMARK INTRA:                  -0.357
REMARK UNBOUND:                -0.381
REMARK SMILES Oc1cc(O)c2cc(O)c(-c3cc(O)c(O)c(O)c3)[o+]c2c1
REMARK SMILES IDX 10 1 20 2 21 3 22 4 2 5 3 6 4 7 6 8 7 9 8 10 11 11 12 12
REMARK SMILES IDX 13 13 19 14 15 15 17 16 14 17 16 19 18 21 9 23 1 25 5 27
REMARK H PARENT 14 18 16 20 18 22 9 24 1 26 5 28
REMARK Flexibility Score: inf
ROOT
ATOM      1  C   UNL     1      44.975 -12.674 -37.047  1.00  0.00     0.402 A 
ATOM      2  O   UNL     1      44.076 -11.700 -36.934  1.00  0.00    -0.202 OA
ATOM      3  C   UNL     1      43.615 -11.009 -37.971  1.00  0.00     0.368 A 
ATOM      4  C   UNL     1      42.668 -10.005 -37.752  1.00  0.00     0.162 A 
ATOM      5  C   UNL     1      42.164  -9.265 -38.822  1.00  0.00     0.128 A 
ATOM      6  C   UNL     1      42.607  -9.530 -40.122  1.00  0.00     0.093 A 
ATOM      7  C   UNL     1      43.555 -10.531 -40.369  1.00  0.00     0.136 A 
ATOM      8  C   UNL     1      44.072 -11.284 -39.282  1.00  0.00     0.125 A 
ATOM      9  C   UNL     1      45.034 -12.297 -39.433  1.00  0.00     0.078 A 
ATOM     10  C   UNL     1      45.500 -12.993 -38.314  1.00  0.00     0.223 A 
ENDROOT
BRANCH   1  11
ATOM     11  C   UNL     1      45.403 -13.379 -35.817  1.00  0.00     0.091 A 
ATOM     12  C   UNL     1      46.582 -12.978 -35.168  1.00  0.00     0.068 A 
ATOM     13  C   UNL     1      47.000 -13.612 -33.994  1.00  0.00     0.162 A 
ATOM     14  C   UNL     1      44.627 -14.404 -35.252  1.00  0.00     0.068 A 
ATOM     15  C   UNL     1      46.231 -14.651 -33.444  1.00  0.00     0.200 A 
ATOM     16  C   UNL     1      45.038 -15.043 -34.074  1.00  0.00     0.162 A 
BRANCH  13  17
ATOM     17  O   UNL     1      48.185 -13.194 -33.387  1.00  0.00    -0.504 OA
ATOM     18  H   UNL     1      49.052 -13.105 -33.903  1.00  0.00     0.293 HD
ENDBRANCH  13  17
BRANCH  15  19
ATOM     19  O   UNL     1      46.658 -15.281 -32.273  1.00  0.00    -0.502 OA
ATOM     20  H   UNL     1      47.634 -15.317 -32.004  1.00  0.00     0.293 HD
ENDBRANCH  15  19
BRANCH  16  21
ATOM     21  O   UNL     1      44.262 -16.064 -33.526  1.00  0.00    -0.504 OA
ATOM     22  H   UNL     1      44.677 -16.819 -32.992  1.00  0.00     0.293 HD
ENDBRANCH  16  21
ENDBRANCH   1  11
BRANCH  10  23
ATOM     23  O   UNL     1      46.491 -13.964 -38.455  1.00  0.00    -0.500 OA
ATOM     24  H   UNL     1      47.267 -14.030 -37.807  1.00  0.00     0.294 HD
ENDBRANCH  10  23
BRANCH   5  25
ATOM     25  O   UNL     1      41.221  -8.268 -38.583  1.00  0.00    -0.507 OA
ATOM     26  H   UNL     1      40.232  -8.425 -38.737  1.00  0.00     0.293 HD
ENDBRANCH   5  25
BRANCH   7  27
ATOM     27  O   UNL     1      43.945 -10.737 -41.696  1.00  0.00    -0.507 OA
ATOM     28  H   UNL     1      43.569 -10.231 -42.485  1.00  0.00     0.293 HD
ENDBRANCH   7  27
TORSDOF 7
ENDMDL
MODEL 5
REMARK VINA RESULT:    -8.399      2.036      7.195
REMARK INTER + INTRA:         -10.744
REMARK INTER:                 -10.655
REMARK INTRA:                  -0.089
REMARK UNBOUND:                -0.381
REMARK SMILES Oc1cc(O)c2cc(O)c(-c3cc(O)c(O)c(O)c3)[o+]c2c1
REMARK SMILES IDX 10 1 20 2 21 3 22 4 2 5 3 6 4 7 6 8 7 9 8 10 11 11 12 12
REMARK SMILES IDX 13 13 19 14 15 15 17 16 14 17 16 19 18 21 9 23 1 25 5 27
REMARK H PARENT 14 18 16 20 18 22 9 24 1 26 5 28
REMARK Flexibility Score: inf
ROOT
ATOM      1  C   UNL     1      43.179 -12.578 -36.209  1.00  0.00     0.402 A 
ATOM      2  O   UNL     1      43.843 -12.088 -37.252  1.00  0.00    -0.202 OA
ATOM      3  C   UNL     1      43.265 -11.386 -38.221  1.00  0.00     0.368 A 
ATOM      4  C   UNL     1      44.048 -10.910 -39.276  1.00  0.00     0.162 A 
ATOM      5  C   UNL     1      43.469 -10.166 -40.305  1.00  0.00     0.128 A 
ATOM      6  C   UNL     1      42.097  -9.894 -40.280  1.00  0.00     0.093 A 
ATOM      7  C   UNL     1      41.290 -10.359 -39.234  1.00  0.00     0.136 A 
ATOM      8  C   UNL     1      41.876 -11.119 -38.187  1.00  0.00     0.125 A 
ATOM      9  C   UNL     1      41.143 -11.636 -37.106  1.00  0.00     0.078 A 
ATOM     10  C   UNL     1      41.789 -12.379 -36.113  1.00  0.00     0.223 A 
ENDROOT
BRANCH   1  11
ATOM     11  C   UNL     1      43.938 -13.337 -35.189  1.00  0.00     0.091 A 
ATOM     12  C   UNL     1      43.552 -14.651 -34.878  1.00  0.00     0.068 A 
ATOM     13  C   UNL     1      44.262 -15.399 -33.933  1.00  0.00     0.162 A 
ATOM     14  C   UNL     1      45.072 -12.793 -34.564  1.00  0.00     0.068 A 
ATOM     15  C   UNL     1      45.382 -14.842 -33.296  1.00  0.00     0.200 A 
ATOM     16  C   UNL     1      45.791 -13.537 -33.617  1.00  0.00     0.162 A 
BRANCH  13  17
ATOM     17  O   UNL     1      43.836 -16.696 -33.643  1.00  0.00    -0.504 OA
ATOM     18  H   UNL     1      44.347 -17.301 -33.011  1.00  0.00     0.293 HD
ENDBRANCH  13  17
BRANCH  15  19
ATOM     19  O   UNL     1      46.084 -15.595 -32.352  1.00  0.00    -0.502 OA
ATOM     20  H   UNL     1      46.826 -16.232 -32.612  1.00  0.00     0.293 HD
ENDBRANCH  15  19
BRANCH  16  21
ATOM     21  O   UNL     1      46.910 -12.983 -32.999  1.00  0.00    -0.504 OA
ATOM     22  H   UNL     1      47.515 -13.535 -32.400  1.00  0.00     0.293 HD
ENDBRANCH  16  21
ENDBRANCH   1  11
BRANCH  10  23
ATOM     23  O   UNL     1      41.055 -12.935 -35.066  1.00  0.00    -0.500 OA
ATOM     24  H   UNL     1      40.239 -12.472 -34.683  1.00  0.00     0.294 HD
ENDBRANCH  10  23
BRANCH   5  25
ATOM     25  O   UNL     1      44.266  -9.701 -41.348  1.00  0.00    -0.507 OA
ATOM     26  H   UNL     1      45.150 -10.141 -41.576  1.00  0.00     0.293 HD
ENDBRANCH   5  25
BRANCH   7  27
ATOM     27  O   UNL     1      39.929 -10.043 -39.280  1.00  0.00    -0.507 OA
ATOM     28  H   UNL     1      39.248 -10.353 -38.603  1.00  0.00     0.293 HD
ENDBRANCH   7  27
TORSDOF 7
ENDMDL
MODEL 6
REMARK VINA RESULT:    -8.376      2.075      3.878
REMARK INTER + INTRA:         -10.716
REMARK INTER:                 -10.489
REMARK INTRA:                  -0.227
REMARK UNBOUND:                -0.381
REMARK SMILES Oc1cc(O)c2cc(O)c(-c3cc(O)c(O)c(O)c3)[o+]c2c1
REMARK SMILES IDX 10 1 20 2 21 3 22 4 2 5 3 6 4 7 6 8 7 9 8 10 11 11 12 12
REMARK SMILES IDX 13 13 19 14 15 15 17 16 14 17 16 19 18 21 9 23 1 25 5 27
REMARK H PARENT 14 18 16 20 18 22 9 24 1 26 5 28
REMARK Flexibility Score: inf
ROOT
ATOM      1  C   UNL     1      43.672 -12.129 -36.597  1.00  0.00     0.402 A 
ATOM      2  O   UNL     1      44.944 -12.182 -36.209  1.00  0.00    -0.202 OA
ATOM      3  C   UNL     1      45.380 -12.988 -35.247  1.00  0.00     0.368 A 
ATOM      4  C   UNL     1      46.736 -12.974 -34.912  1.00  0.00     0.162 A 
ATOM      5  C   UNL     1      47.224 -13.812 -33.908  1.00  0.00     0.128 A 
ATOM      6  C   UNL     1      46.350 -14.672 -33.234  1.00  0.00     0.093 A 
ATOM      7  C   UNL     1      44.987 -14.706 -33.552  1.00  0.00     0.136 A 
ATOM      8  C   UNL     1      44.487 -13.852 -34.570  1.00  0.00     0.125 A 
ATOM      9  C   UNL     1      43.134 -13.809 -34.946  1.00  0.00     0.078 A 
ATOM     10  C   UNL     1      42.715 -12.939 -35.957  1.00  0.00     0.223 A 
ENDROOT
BRANCH   1  11
ATOM     11  C   UNL     1      43.310 -11.196 -37.688  1.00  0.00     0.091 A 
ATOM     12  C   UNL     1      42.497 -10.087 -37.406  1.00  0.00     0.068 A 
ATOM     13  C   UNL     1      42.155  -9.178 -38.413  1.00  0.00     0.162 A 
ATOM     14  C   UNL     1      43.809 -11.363 -38.991  1.00  0.00     0.068 A 
ATOM     15  C   UNL     1      42.640  -9.361 -39.718  1.00  0.00     0.200 A 
ATOM     16  C   UNL     1      43.473 -10.455 -40.005  1.00  0.00     0.162 A 
BRANCH  13  17
ATOM     17  O   UNL     1      41.333  -8.097 -38.093  1.00  0.00    -0.504 OA
ATOM     18  H   UNL     1      41.493  -7.523 -37.274  1.00  0.00     0.293 HD
ENDBRANCH  13  17
BRANCH  15  19
ATOM     19  O   UNL     1      42.291  -8.451 -40.717  1.00  0.00    -0.502 OA
ATOM     20  H   UNL     1      42.279  -7.451 -40.557  1.00  0.00     0.293 HD
ENDBRANCH  15  19
BRANCH  16  21
ATOM     21  O   UNL     1      43.969 -10.636 -41.295  1.00  0.00    -0.504 OA
ATOM     22  H   UNL     1      44.763 -11.238 -41.481  1.00  0.00     0.293 HD
ENDBRANCH  16  21
ENDBRANCH   1  11
BRANCH  10  23
ATOM     23  O   UNL     1      41.365 -12.858 -36.296  1.00  0.00    -0.500 OA
ATOM     24  H   UNL     1      40.988 -13.352 -37.097  1.00  0.00     0.294 HD
ENDBRANCH  10  23
BRANCH   5  25
ATOM     25  O   UNL     1      48.579 -13.783 -33.588  1.00  0.00    -0.507 OA
ATOM     26  H   UNL     1      49.293 -13.765 -34.307  1.00  0.00     0.293 HD
ENDBRANCH   5  25
BRANCH   7  27
ATOM     27  O   UNL     1      44.180 -15.595 -32.835  1.00  0.00    -0.507 OA
ATOM     28  H   UNL     1      43.985 -16.544 -33.119  1.00  0.00     0.293 HD
ENDBRANCH   7  27
TORSDOF 7
ENDMDL
MODEL 7
REMARK VINA RESULT:    -8.359      2.128      3.471
REMARK INTER + INTRA:         -10.694
REMARK INTER:                 -10.501
REMARK INTRA:                  -0.194
REMARK UNBOUND:                -0.381
REMARK SMILES Oc1cc(O)c2cc(O)c(-c3cc(O)c(O)c(O)c3)[o+]c2c1
REMARK SMILES IDX 10 1 20 2 21 3 22 4 2 5 3 6 4 7 6 8 7 9 8 10 11 11 12 12
REMARK SMILES IDX 13 13 19 14 15 15 17 16 14 17 16 19 18 21 9 23 1 25 5 27
REMARK H PARENT 14 18 16 20 18 22 9 24 1 26 5 28
REMARK Flexibility Score: inf
ROOT
ATOM      1  C   UNL     1      43.696 -12.065 -36.649  1.00  0.00     0.402 A 
ATOM      2  O   UNL     1      44.959 -12.110 -36.235  1.00  0.00    -0.202 OA
ATOM      3  C   UNL     1      45.371 -12.876 -35.230  1.00  0.00     0.368 A 
ATOM      4  C   UNL     1      46.721 -12.858 -34.870  1.00  0.00     0.162 A 
ATOM      5  C   UNL     1      47.182 -13.653 -33.821  1.00  0.00     0.128 A 
ATOM      6  C   UNL     1      46.289 -14.476 -33.125  1.00  0.00     0.093 A 
ATOM      7  C   UNL     1      44.931 -14.513 -33.467  1.00  0.00     0.136 A 
ATOM      8  C   UNL     1      44.458 -13.702 -34.532  1.00  0.00     0.125 A 
ATOM      9  C   UNL     1      43.113 -13.665 -34.934  1.00  0.00     0.078 A 
ATOM     10  C   UNL     1      42.720 -12.837 -35.991  1.00  0.00     0.223 A 
ENDROOT
BRANCH   1  11
ATOM     11  C   UNL     1      43.363 -11.179 -37.787  1.00  0.00     0.091 A 
ATOM     12  C   UNL     1      43.901 -11.451 -39.054  1.00  0.00     0.068 A 
ATOM     13  C   UNL     1      43.588 -10.643 -40.152  1.00  0.00     0.162 A 
ATOM     14  C   UNL     1      42.472 -10.102 -37.641  1.00  0.00     0.068 A 
ATOM     15  C   UNL     1      42.714  -9.555 -39.996  1.00  0.00     0.200 A 
ATOM     16  C   UNL     1      42.151  -9.288 -38.737  1.00  0.00     0.162 A 
BRANCH  13  17
ATOM     17  O   UNL     1      44.156 -10.940 -41.391  1.00  0.00    -0.504 OA
ATOM     18  H   UNL     1      44.342 -10.224 -42.083  1.00  0.00     0.293 HD
ENDBRANCH  13  17
BRANCH  15  19
ATOM     19  O   UNL     1      42.409  -8.752 -41.096  1.00  0.00    -0.502 OA
ATOM     20  H   UNL     1      43.119  -8.425 -41.740  1.00  0.00     0.293 HD
ENDBRANCH  15  19
BRANCH  16  21
ATOM     21  O   UNL     1      41.272  -8.218 -38.577  1.00  0.00    -0.504 OA
ATOM     22  H   UNL     1      41.325  -7.393 -39.164  1.00  0.00     0.293 HD
ENDBRANCH  16  21
ENDBRANCH   1  11
BRANCH  10  23
ATOM     23  O   UNL     1      41.377 -12.761 -36.359  1.00  0.00    -0.500 OA
ATOM     24  H   UNL     1      40.672 -12.401 -35.726  1.00  0.00     0.294 HD
ENDBRANCH  10  23
BRANCH   5  25
ATOM     25  O   UNL     1      48.532 -13.621 -33.477  1.00  0.00    -0.507 OA
ATOM     26  H   UNL     1      49.057 -14.471 -33.309  1.00  0.00     0.293 HD
ENDBRANCH   5  25
BRANCH   7  27
ATOM     27  O   UNL     1      44.104 -15.362 -32.726  1.00  0.00    -0.507 OA
ATOM     28  H   UNL     1      43.983 -16.347 -32.913  1.00  0.00     0.293 HD
ENDBRANCH   7  27
TORSDOF 7
ENDMDL
MODEL 8
REMARK VINA RESULT:    -8.325      3.617      8.371
REMARK INTER + INTRA:         -10.653
REMARK INTER:                 -10.274
REMARK INTRA:                  -0.379
REMARK UNBOUND:                -0.381
REMARK SMILES Oc1cc(O)c2cc(O)c(-c3cc(O)c(O)c(O)c3)[o+]c2c1
REMARK SMILES IDX 10 1 20 2 21 3 22 4 2 5 3 6 4 7 6 8 7 9 8 10 11 11 12 12
REMARK SMILES IDX 13 13 19 14 15 15 17 16 14 17 16 19 18 21 9 23 1 25 5 27
REMARK H PARENT 14 18 16 20 18 22 9 24 1 26 5 28
REMARK Flexibility Score: inf
ROOT
ATOM      1  C   UNL     1      42.146 -10.541 -39.285  1.00  0.00     0.402 A 
ATOM      2  O   UNL     1      42.405 -11.273 -40.365  1.00  0.00    -0.202 OA
ATOM      3  C   UNL     1      42.186 -10.847 -41.604  1.00  0.00     0.368 A 
ATOM      4  C   UNL     1      42.493 -11.689 -42.676  1.00  0.00     0.162 A 
ATOM      5  C   UNL     1      42.276 -11.268 -43.989  1.00  0.00     0.128 A 
ATOM      6  C   UNL     1      41.750  -9.995 -44.234  1.00  0.00     0.093 A 
ATOM      7  C   UNL     1      41.435  -9.131 -43.177  1.00  0.00     0.136 A 
ATOM      8  C   UNL     1      41.651  -9.558 -41.840  1.00  0.00     0.125 A 
ATOM      9  C   UNL     1      41.352  -8.766 -40.720  1.00  0.00     0.078 A 
ATOM     10  C   UNL     1      41.588  -9.256 -39.432  1.00  0.00     0.223 A 
ENDROOT
BRANCH   1  11
ATOM     11  C   UNL     1      42.443 -11.122 -37.956  1.00  0.00     0.091 A 
ATOM     12  C   UNL     1      43.702 -10.905 -37.373  1.00  0.00     0.068 A 
ATOM     13  C   UNL     1      44.003 -11.426 -36.110  1.00  0.00     0.162 A 
ATOM     14  C   UNL     1      41.473 -11.841 -37.237  1.00  0.00     0.068 A 
ATOM     15  C   UNL     1      43.036 -12.161 -35.405  1.00  0.00     0.200 A 
ATOM     16  C   UNL     1      41.766 -12.364 -35.970  1.00  0.00     0.162 A 
BRANCH  13  17
ATOM     17  O   UNL     1      45.271 -11.199 -35.573  1.00  0.00    -0.504 OA
ATOM     18  H   UNL     1      45.828 -10.393 -35.829  1.00  0.00     0.293 HD
ENDBRANCH  13  17
BRANCH  15  19
ATOM     19  O   UNL     1      43.347 -12.680 -34.147  1.00  0.00    -0.502 OA
ATOM     20  H   UNL     1      42.633 -12.992 -33.500  1.00  0.00     0.293 HD
ENDBRANCH  15  19
BRANCH  16  21
ATOM     21  O   UNL     1      40.797 -13.081 -35.270  1.00  0.00    -0.504 OA
ATOM     22  H   UNL     1      40.173 -13.729 -35.737  1.00  0.00     0.293 HD
ENDBRANCH  16  21
ENDBRANCH   1  11
BRANCH  10  23
ATOM     23  O   UNL     1      41.246  -8.491 -38.317  1.00  0.00    -0.500 OA
ATOM     24  H   UNL     1      41.005  -8.921 -37.431  1.00  0.00     0.294 HD
ENDBRANCH  10  23
BRANCH   5  25
ATOM     25  O   UNL     1      42.588 -12.122 -45.044  1.00  0.00    -0.507 OA
ATOM     26  H   UNL     1      42.430 -13.121 -44.981  1.00  0.00     0.293 HD
ENDBRANCH   5  25
BRANCH   7  27
ATOM     27  O   UNL     1      40.916  -7.875 -43.505  1.00  0.00    -0.507 OA
ATOM     28  H   UNL     1      41.450  -7.018 -43.498  1.00  0.00     0.293 HD
ENDBRANCH   7  27
TORSDOF 7
ENDMDL
MODEL 9
REMARK VINA RESULT:    -8.211      3.439      7.961
REMARK INTER + INTRA:         -10.512
REMARK INTER:                 -10.492
REMARK INTRA:                  -0.020
REMARK UNBOUND:                -0.381
REMARK SMILES Oc1cc(O)c2cc(O)c(-c3cc(O)c(O)c(O)c3)[o+]c2c1
REMARK SMILES IDX 10 1 20 2 21 3 22 4 2 5 3 6 4 7 6 8 7 9 8 10 11 11 12 12
REMARK SMILES IDX 13 13 19 14 15 15 17 16 14 17 16 19 18 21 9 23 1 25 5 27
REMARK H PARENT 14 18 16 20 18 22 9 24 1 26 5 28
REMARK Flexibility Score: inf
ROOT
ATOM      1  C   UNL     1      43.616 -11.026 -39.697  1.00  0.00     0.402 A 
ATOM      2  O   UNL     1      43.336 -11.293 -40.970  1.00  0.00    -0.202 OA
ATOM      3  C   UNL     1      42.413 -10.640 -41.666  1.00  0.00     0.368 A 
ATOM      4  C   UNL     1      42.192 -10.992 -43.000  1.00  0.00     0.162 A 
ATOM      5  C   UNL     1      41.231 -10.321 -43.758  1.00  0.00     0.128 A 
ATOM      6  C   UNL     1      40.484  -9.290 -43.179  1.00  0.00     0.093 A 
ATOM      7  C   UNL     1      40.686  -8.917 -41.844  1.00  0.00     0.136 A 
ATOM      8  C   UNL     1      41.661  -9.600 -41.070  1.00  0.00     0.125 A 
ATOM      9  C   UNL     1      41.921  -9.303 -39.722  1.00  0.00     0.078 A 
ATOM     10  C   UNL     1      42.895 -10.022 -39.022  1.00  0.00     0.223 A 
ENDROOT
BRANCH   1  11
ATOM     11  C   UNL     1      44.675 -11.817 -39.030  1.00  0.00     0.091 A 
ATOM     12  C   UNL     1      45.931 -11.946 -39.645  1.00  0.00     0.068 A 
ATOM     13  C   UNL     1      46.956 -12.671 -39.030  1.00  0.00     0.162 A 
ATOM     14  C   UNL     1      44.471 -12.398 -37.767  1.00  0.00     0.068 A 
ATOM     15  C   UNL     1      46.740 -13.267 -37.776  1.00  0.00     0.200 A 
ATOM     16  C   UNL     1      45.494 -13.124 -37.142  1.00  0.00     0.162 A 
BRANCH  13  17
ATOM     17  O   UNL     1      48.184 -12.787 -39.681  1.00  0.00    -0.504 OA
ATOM     18  H   UNL     1      48.839 -12.016 -39.736  1.00  0.00     0.293 HD
ENDBRANCH  13  17
BRANCH  15  19
ATOM     19  O   UNL     1      47.768 -13.991 -37.170  1.00  0.00    -0.502 OA
ATOM     20  H   UNL     1      48.564 -14.339 -37.691  1.00  0.00     0.293 HD
ENDBRANCH  15  19
BRANCH  16  21
ATOM     21  O   UNL     1      45.277 -13.701 -35.892  1.00  0.00    -0.504 OA
ATOM     22  H   UNL     1      44.627 -13.298 -35.226  1.00  0.00     0.293 HD
ENDBRANCH  16  21
ENDBRANCH   1  11
BRANCH  10  23
ATOM     23  O   UNL     1      43.121  -9.763 -37.670  1.00  0.00    -0.500 OA
ATOM     24  H   UNL     1      43.950  -9.273 -37.354  1.00  0.00     0.294 HD
ENDBRANCH  10  23
BRANCH   5  25
ATOM     25  O   UNL     1      41.026 -10.688 -45.086  1.00  0.00    -0.507 OA
ATOM     26  H   UNL     1      40.137 -10.534 -45.547  1.00  0.00     0.293 HD
ENDBRANCH   5  25
BRANCH   7  27
ATOM     27  O   UNL     1      39.902  -7.875 -41.341  1.00  0.00    -0.507 OA
ATOM     28  H   UNL     1      39.683  -7.030 -41.848  1.00  0.00     0.293 HD
ENDBRANCH   7  27
TORSDOF 7
ENDMDL
