MODEL 1
REMARK VINA RESULT:    -4.096      0.000      0.000
REMARK INTER + INTRA:         -12.842
REMARK INTER:                  -9.365
REMARK INTRA:                  -3.477
REMARK UNBOUND:                -3.477
REMARK SMILES CCCCCCCCCCCCCCCCCCCCCCCC(=O)[O-]
REMARK SMILES IDX 13 1 14 2 15 3 16 4 17 5 18 6 19 7 20 8 21 9 22 10 23 11
REMARK SMILES IDX 24 12 25 13 26 14 12 15 11 16 10 17 9 18 8 19 7 20 6 21 5 22
REMARK SMILES IDX 4 23 3 24 2 25 1 26
REMARK H PARENT
REMARK Flexibility Score: inf
ROOT
ATOM      1  C   UNL     1     -10.673   6.678  28.451  1.00  0.00     0.000 C 
ENDROOT
BRANCH   1   2
ATOM      2  C   UNL     1     -10.556   7.935  29.338  1.00  0.00     0.000 C 
BRANCH   2   3
ATOM      3  C   UNL     1     -11.548   9.067  29.007  1.00  0.00     0.000 C 
BRANCH   3   4
ATOM      4  C   UNL     1     -12.683   8.615  28.075  1.00  0.00     0.000 C 
BRANCH   4   5
ATOM      5  C   UNL     1     -14.074   9.071  28.558  1.00  0.00     0.000 C 
BRANCH   5   6
ATOM      6  C   UNL     1     -14.866   8.030  29.369  1.00  0.00     0.000 C 
BRANCH   6   7
ATOM      7  C   UNL     1     -14.519   6.582  28.985  1.00  0.00     0.000 C 
BRANCH   7   8
ATOM      8  C   UNL     1     -15.379   5.546  29.730  1.00  0.00     0.000 C 
BRANCH   8   9
ATOM      9  C   UNL     1     -16.193   6.104  30.913  1.00  0.00     0.000 C 
BRANCH   9  10
ATOM     10  C   UNL     1     -16.704   5.019  31.883  1.00  0.00     0.006 C 
BRANCH  10  11
ATOM     11  C   UNL     1     -16.285   3.607  31.449  1.00  0.00     0.053 C 
BRANCH  11  12
ATOM     12  C   UNL     1     -15.511   2.932  32.535  1.00  0.00     0.041 C 
ATOM     13  O   UNL     1     -14.712   2.000  32.259  1.00  0.00    -0.550 OA
ATOM     14  O   UNL     1     -15.705   3.303  33.860  1.00  0.00    -0.550 OA
ENDBRANCH  11  12
ENDBRANCH  10  11
ENDBRANCH   9  10
ENDBRANCH   8   9
ENDBRANCH   7   8
ENDBRANCH   6   7
ENDBRANCH   5   6
ENDBRANCH   4   5
ENDBRANCH   3   4
ENDBRANCH   2   3
ENDBRANCH   1   2
BRANCH   1  15
ATOM     15  C   UNL     1     -10.894   5.358  29.215  1.00  0.00     0.000 C 
BRANCH  15  16
ATOM     16  C   UNL     1     -11.627   5.498  30.564  1.00  0.00     0.000 C 
BRANCH  16  17
ATOM     17  C   UNL     1     -12.007   4.169  31.244  1.00  0.00     0.000 C 
BRANCH  17  18
ATOM     18  C   UNL     1     -11.981   2.975  30.277  1.00  0.00    -0.000 C 
BRANCH  18  19
ATOM     19  C   UNL     1     -11.534   1.664  30.951  1.00  0.00    -0.000 C 
BRANCH  19  20
ATOM     20  C   UNL     1     -10.121   1.176  30.581  1.00  0.00    -0.000 C 
BRANCH  20  21
ATOM     21  C   UNL     1      -9.061   2.290  30.652  1.00  0.00    -0.000 C 
BRANCH  21  22
ATOM     22  C   UNL     1      -8.652   2.626  32.095  1.00  0.00    -0.000 C 
BRANCH  22  23
ATOM     23  C   UNL     1      -8.451   4.135  32.325  1.00  0.00    -0.000 C 
BRANCH  23  24
ATOM     24  C   UNL     1      -6.983   4.563  32.118  1.00  0.00    -0.000 C 
BRANCH  24  25
ATOM     25  C   UNL     1      -6.644   4.914  30.660  1.00  0.00    -0.003 C 
ATOM     26  C   UNL     1      -7.321   6.195  30.179  1.00  0.00     0.004 C 
ENDBRANCH  24  25
ENDBRANCH  23  24
ENDBRANCH  22  23
ENDBRANCH  21  22
ENDBRANCH  20  21
ENDBRANCH  19  20
ENDBRANCH  18  19
ENDBRANCH  17  18
ENDBRANCH  16  17
ENDBRANCH  15  16
ENDBRANCH   1  15
TORSDOF 22
ENDMDL
MODEL 2
REMARK VINA RESULT:    -3.986      2.656      5.978
REMARK INTER + INTRA:         -12.590
REMARK INTER:                  -8.591
REMARK INTRA:                  -3.999
REMARK UNBOUND:                -3.477
REMARK SMILES CCCCCCCCCCCCCCCCCCCCCCCC(=O)[O-]
REMARK SMILES IDX 13 1 14 2 15 3 16 4 17 5 18 6 19 7 20 8 21 9 22 10 23 11
REMARK SMILES IDX 24 12 25 13 26 14 12 15 11 16 10 17 9 18 8 19 7 20 6 21 5 22
REMARK SMILES IDX 4 23 3 24 2 25 1 26
REMARK H PARENT
REMARK Flexibility Score: inf
ROOT
ATOM      1  C   UNL     1     -14.878   7.084  29.386  1.00  0.00     0.000 C 
ENDROOT
BRANCH   1   2
ATOM      2  C   UNL     1     -14.539   8.542  29.011  1.00  0.00     0.000 C 
BRANCH   2   3
ATOM      3  C   UNL     1     -13.302   8.718  28.109  1.00  0.00     0.000 C 
BRANCH   3   4
ATOM      4  C   UNL     1     -12.488   7.423  27.950  1.00  0.00     0.000 C 
BRANCH   4   5
ATOM      5  C   UNL     1     -10.967   7.660  28.018  1.00  0.00     0.000 C 
BRANCH   5   6
ATOM      6  C   UNL     1     -10.353   7.614  29.429  1.00  0.00     0.000 C 
BRANCH   6   7
ATOM      7  C   UNL     1     -11.001   6.549  30.329  1.00  0.00     0.000 C 
BRANCH   7   8
ATOM      8  C   UNL     1      -9.978   5.554  30.906  1.00  0.00     0.000 C 
BRANCH   8   9
ATOM      9  C   UNL     1      -8.595   5.574  30.228  1.00  0.00     0.000 C 
BRANCH   9  10
ATOM     10  C   UNL     1      -7.720   4.349  30.563  1.00  0.00     0.006 C 
BRANCH  10  11
ATOM     11  C   UNL     1      -6.464   4.732  31.357  1.00  0.00     0.053 C 
BRANCH  11  12
ATOM     12  C   UNL     1      -6.752   4.739  32.824  1.00  0.00     0.041 C 
ATOM     13  O   UNL     1      -5.975   5.327  33.620  1.00  0.00    -0.550 OA
ATOM     14  O   UNL     1      -7.858   4.058  33.318  1.00  0.00    -0.550 OA
ENDBRANCH  11  12
ENDBRANCH  10  11
ENDBRANCH   9  10
ENDBRANCH   8   9
ENDBRANCH   7   8
ENDBRANCH   6   7
ENDBRANCH   5   6
ENDBRANCH   4   5
ENDBRANCH   3   4
ENDBRANCH   2   3
ENDBRANCH   1   2
BRANCH   1  15
ATOM     15  C   UNL     1     -16.001   6.921  30.429  1.00  0.00     0.000 C 
BRANCH  15  16
ATOM     16  C   UNL     1     -16.470   5.471  30.662  1.00  0.00     0.000 C 
BRANCH  16  17
ATOM     17  C   UNL     1     -16.487   4.578  29.408  1.00  0.00     0.000 C 
BRANCH  17  18
ATOM     18  C   UNL     1     -16.777   3.104  29.729  1.00  0.00    -0.000 C 
BRANCH  18  19
ATOM     19  C   UNL     1     -16.528   2.748  31.207  1.00  0.00    -0.000 C 
BRANCH  19  20
ATOM     20  C   UNL     1     -15.157   2.119  31.515  1.00  0.00    -0.000 C 
BRANCH  20  21
ATOM     21  C   UNL     1     -14.199   3.084  32.237  1.00  0.00    -0.000 C 
BRANCH  21  22
ATOM     22  C   UNL     1     -13.258   3.817  31.267  1.00  0.00    -0.000 C 
BRANCH  22  23
ATOM     23  C   UNL     1     -12.953   3.002  29.997  1.00  0.00    -0.000 C 
BRANCH  23  24
ATOM     24  C   UNL     1     -12.958   3.880  28.728  1.00  0.00    -0.000 C 
BRANCH  24  25
ATOM     25  C   UNL     1     -11.674   3.759  27.891  1.00  0.00    -0.003 C 
ATOM     26  C   UNL     1     -10.634   2.834  28.519  1.00  0.00     0.004 C 
ENDBRANCH  24  25
ENDBRANCH  23  24
ENDBRANCH  22  23
ENDBRANCH  21  22
ENDBRANCH  20  21
ENDBRANCH  19  20
ENDBRANCH  18  19
ENDBRANCH  17  18
ENDBRANCH  16  17
ENDBRANCH  15  16
ENDBRANCH   1  15
TORSDOF 22
ENDMDL
MODEL 3
REMARK VINA RESULT:    -3.921      1.288      2.296
REMARK INTER + INTRA:         -12.441
REMARK INTER:                  -9.483
REMARK INTRA:                  -2.957
REMARK UNBOUND:                -3.477
REMARK SMILES CCCCCCCCCCCCCCCCCCCCCCCC(=O)[O-]
REMARK SMILES IDX 13 1 14 2 15 3 16 4 17 5 18 6 19 7 20 8 21 9 22 10 23 11
REMARK SMILES IDX 24 12 25 13 26 14 12 15 11 16 10 17 9 18 8 19 7 20 6 21 5 22
REMARK SMILES IDX 4 23 3 24 2 25 1 26
REMARK H PARENT
REMARK Flexibility Score: inf
ROOT
ATOM      1  C   UNL     1     -11.143   6.969  28.611  1.00  0.00     0.000 C 
ENDROOT
BRANCH   1   2
ATOM      2  C   UNL     1     -12.188   8.088  28.422  1.00  0.00     0.000 C 
BRANCH   2   3
ATOM      3  C   UNL     1     -13.621   7.606  28.123  1.00  0.00     0.000 C 
BRANCH   3   4
ATOM      4  C   UNL     1     -14.574   7.783  29.317  1.00  0.00     0.000 C 
BRANCH   4   5
ATOM      5  C   UNL     1     -15.223   6.461  29.768  1.00  0.00     0.000 C 
BRANCH   5   6
ATOM      6  C   UNL     1     -16.361   6.600  30.795  1.00  0.00     0.000 C 
BRANCH   6   7
ATOM      7  C   UNL     1     -16.502   5.366  31.703  1.00  0.00     0.000 C 
BRANCH   7   8
ATOM      8  C   UNL     1     -15.299   4.413  31.604  1.00  0.00     0.000 C 
BRANCH   8   9
ATOM      9  C   UNL     1     -14.946   3.671  32.908  1.00  0.00     0.000 C 
BRANCH   9  10
ATOM     10  C   UNL     1     -16.170   3.082  33.639  1.00  0.00     0.006 C 
BRANCH  10  11
ATOM     11  C   UNL     1     -16.012   1.581  33.921  1.00  0.00     0.053 C 
BRANCH  11  12
ATOM     12  C   UNL     1     -16.383   0.779  32.714  1.00  0.00     0.041 C 
ATOM     13  O   UNL     1     -17.125   1.274  31.827  1.00  0.00    -0.550 OA
ATOM     14  O   UNL     1     -15.943  -0.534  32.591  1.00  0.00    -0.550 OA
ENDBRANCH  11  12
ENDBRANCH  10  11
ENDBRANCH   9  10
ENDBRANCH   8   9
ENDBRANCH   7   8
ENDBRANCH   6   7
ENDBRANCH   5   6
ENDBRANCH   4   5
ENDBRANCH   3   4
ENDBRANCH   2   3
ENDBRANCH   1   2
BRANCH   1  15
ATOM     15  C   UNL     1     -10.916   6.525  30.069  1.00  0.00     0.000 C 
BRANCH  15  16
ATOM     16  C   UNL     1     -11.722   5.286  30.507  1.00  0.00     0.000 C 
BRANCH  16  17
ATOM     17  C   UNL     1     -12.109   4.320  29.371  1.00  0.00     0.000 C 
BRANCH  17  18
ATOM     18  C   UNL     1     -12.614   2.964  29.887  1.00  0.00    -0.000 C 
BRANCH  18  19
ATOM     19  C   UNL     1     -11.681   2.333  30.938  1.00  0.00    -0.000 C 
BRANCH  19  20
ATOM     20  C   UNL     1     -11.226   0.892  30.640  1.00  0.00    -0.000 C 
BRANCH  20  21
ATOM     21  C   UNL     1      -9.879   0.536  31.296  1.00  0.00    -0.000 C 
BRANCH  21  22
ATOM     22  C   UNL     1      -8.818   1.629  31.096  1.00  0.00    -0.000 C 
BRANCH  22  23
ATOM     23  C   UNL     1      -8.140   2.054  32.411  1.00  0.00    -0.000 C 
BRANCH  23  24
ATOM     24  C   UNL     1      -8.446   3.523  32.773  1.00  0.00    -0.000 C 
BRANCH  24  25
ATOM     25  C   UNL     1      -8.175   4.509  31.625  1.00  0.00    -0.003 C 
ATOM     26  C   UNL     1      -6.748   5.050  31.624  1.00  0.00     0.004 C 
ENDBRANCH  24  25
ENDBRANCH  23  24
ENDBRANCH  22  23
ENDBRANCH  21  22
ENDBRANCH  20  21
ENDBRANCH  19  20
ENDBRANCH  18  19
ENDBRANCH  17  18
ENDBRANCH  16  17
ENDBRANCH  15  16
ENDBRANCH   1  15
TORSDOF 22
ENDMDL
MODEL 4
REMARK VINA RESULT:    -3.902      2.673      6.885
REMARK INTER + INTRA:         -12.398
REMARK INTER:                 -10.257
REMARK INTRA:                  -2.141
REMARK UNBOUND:                -3.477
REMARK SMILES CCCCCCCCCCCCCCCCCCCCCCCC(=O)[O-]
REMARK SMILES IDX 13 1 14 2 15 3 16 4 17 5 18 6 19 7 20 8 21 9 22 10 23 11
REMARK SMILES IDX 24 12 25 13 26 14 12 15 11 16 10 17 9 18 8 19 7 20 6 21 5 22
REMARK SMILES IDX 4 23 3 24 2 25 1 26
REMARK H PARENT
REMARK Flexibility Score: inf
ROOT
ATOM      1  C   UNL     1     -12.017   8.739  27.950  1.00  0.00     0.000 C 
ENDROOT
BRANCH   1   2
ATOM      2  C   UNL     1     -11.303   8.522  29.300  1.00  0.00     0.000 C 
BRANCH   2   3
ATOM      3  C   UNL     1     -10.082   7.584  29.254  1.00  0.00     0.000 C 
BRANCH   3   4
ATOM      4  C   UNL     1     -10.167   6.440  30.277  1.00  0.00     0.000 C 
BRANCH   4   5
ATOM      5  C   UNL     1     -11.588   5.862  30.413  1.00  0.00     0.000 C 
BRANCH   5   6
ATOM      6  C   UNL     1     -11.698   4.564  31.234  1.00  0.00     0.000 C 
BRANCH   6   7
ATOM      7  C   UNL     1     -10.329   3.990  31.634  1.00  0.00     0.000 C 
BRANCH   7   8
ATOM      8  C   UNL     1      -9.899   2.804  30.753  1.00  0.00     0.000 C 
BRANCH   8   9
ATOM      9  C   UNL     1     -10.981   1.730  30.534  1.00  0.00     0.000 C 
BRANCH   9  10
ATOM     10  C   UNL     1     -10.500   0.293  30.827  1.00  0.00     0.006 C 
BRANCH  10  11
ATOM     11  C   UNL     1      -9.134  -0.002  30.192  1.00  0.00     0.053 C 
BRANCH  11  12
ATOM     12  C   UNL     1      -8.173  -0.500  31.224  1.00  0.00     0.041 C 
ATOM     13  O   UNL     1      -7.739  -1.680  31.169  1.00  0.00    -0.550 OA
ATOM     14  O   UNL     1      -7.789   0.328  32.272  1.00  0.00    -0.550 OA
ENDBRANCH  11  12
ENDBRANCH  10  11
ENDBRANCH   9  10
ENDBRANCH   8   9
ENDBRANCH   7   8
ENDBRANCH   6   7
ENDBRANCH   5   6
ENDBRANCH   4   5
ENDBRANCH   3   4
ENDBRANCH   2   3
ENDBRANCH   1   2
BRANCH   1  15
ATOM     15  C   UNL     1     -13.305   7.917  27.752  1.00  0.00     0.000 C 
BRANCH  15  16
ATOM     16  C   UNL     1     -14.377   8.108  28.843  1.00  0.00     0.000 C 
BRANCH  16  17
ATOM     17  C   UNL     1     -14.976   6.807  29.409  1.00  0.00     0.000 C 
BRANCH  17  18
ATOM     18  C   UNL     1     -16.075   7.059  30.453  1.00  0.00    -0.000 C 
BRANCH  18  19
ATOM     19  C   UNL     1     -16.412   5.809  31.287  1.00  0.00    -0.000 C 
BRANCH  19  20
ATOM     20  C   UNL     1     -15.466   4.609  31.095  1.00  0.00    -0.000 C 
BRANCH  20  21
ATOM     21  C   UNL     1     -15.078   3.928  32.420  1.00  0.00    -0.000 C 
BRANCH  21  22
ATOM     22  C   UNL     1     -16.261   3.202  33.080  1.00  0.00    -0.000 C 
BRANCH  22  23
ATOM     23  C   UNL     1     -16.447   1.765  32.559  1.00  0.00    -0.000 C 
BRANCH  23  24
ATOM     24  C   UNL     1     -16.492   0.734  33.706  1.00  0.00    -0.000 C 
BRANCH  24  25
ATOM     25  C   UNL     1     -16.587   1.369  35.103  1.00  0.00    -0.003 C 
ATOM     26  C   UNL     1     -15.663   0.711  36.125  1.00  0.00     0.004 C 
ENDBRANCH  24  25
ENDBRANCH  23  24
ENDBRANCH  22  23
ENDBRANCH  21  22
ENDBRANCH  20  21
ENDBRANCH  19  20
ENDBRANCH  18  19
ENDBRANCH  17  18
ENDBRANCH  16  17
ENDBRANCH  15  16
ENDBRANCH   1  15
TORSDOF 22
ENDMDL
MODEL 5
REMARK VINA RESULT:    -3.882      2.220      6.624
REMARK INTER + INTRA:         -12.352
REMARK INTER:                  -8.626
REMARK INTRA:                  -3.726
REMARK UNBOUND:                -3.477
REMARK SMILES CCCCCCCCCCCCCCCCCCCCCCCC(=O)[O-]
REMARK SMILES IDX 13 1 14 2 15 3 16 4 17 5 18 6 19 7 20 8 21 9 22 10 23 11
REMARK SMILES IDX 24 12 25 13 26 14 12 15 11 16 10 17 9 18 8 19 7 20 6 21 5 22
REMARK SMILES IDX 4 23 3 24 2 25 1 26
REMARK H PARENT
REMARK Flexibility Score: inf
ROOT
ATOM      1  C   UNL     1     -12.654   2.952  30.198  1.00  0.00     0.000 C 
ENDROOT
BRANCH   1   2
ATOM      2  C   UNL     1     -11.663   4.060  29.784  1.00  0.00     0.000 C 
BRANCH   2   3
ATOM      3  C   UNL     1     -11.618   5.285  30.717  1.00  0.00     0.000 C 
BRANCH   3   4
ATOM      4  C   UNL     1     -10.743   6.424  30.170  1.00  0.00     0.000 C 
BRANCH   4   5
ATOM      5  C   UNL     1      -9.782   5.960  29.058  1.00  0.00     0.000 C 
BRANCH   5   6
ATOM      6  C   UNL     1      -8.388   6.614  29.075  1.00  0.00     0.000 C 
BRANCH   6   7
ATOM      7  C   UNL     1      -7.476   6.051  30.178  1.00  0.00     0.000 C 
BRANCH   7   8
ATOM      8  C   UNL     1      -7.789   4.584  30.520  1.00  0.00     0.000 C 
BRANCH   8   9
ATOM      9  C   UNL     1      -8.171   4.325  31.990  1.00  0.00     0.000 C 
BRANCH   9  10
ATOM     10  C   UNL     1      -8.951   3.012  32.208  1.00  0.00     0.006 C 
BRANCH  10  11
ATOM     11  C   UNL     1      -8.938   2.115  30.963  1.00  0.00     0.053 C 
BRANCH  11  12
ATOM     12  C   UNL     1      -8.765   0.681  31.351  1.00  0.00     0.041 C 
ATOM     13  O   UNL     1      -9.370  -0.224  30.719  1.00  0.00    -0.550 OA
ATOM     14  O   UNL     1      -7.969   0.347  32.439  1.00  0.00    -0.550 OA
ENDBRANCH  11  12
ENDBRANCH  10  11
ENDBRANCH   9  10
ENDBRANCH   8   9
ENDBRANCH   7   8
ENDBRANCH   6   7
ENDBRANCH   5   6
ENDBRANCH   4   5
ENDBRANCH   3   4
ENDBRANCH   2   3
ENDBRANCH   1   2
BRANCH   1  15
ATOM     15  C   UNL     1     -13.136   3.019  31.660  1.00  0.00     0.000 C 
BRANCH  15  16
ATOM     16  C   UNL     1     -14.622   3.386  31.842  1.00  0.00     0.000 C 
BRANCH  16  17
ATOM     17  C   UNL     1     -15.490   3.248  30.577  1.00  0.00     0.000 C 
BRANCH  17  18
ATOM     18  C   UNL     1     -16.661   4.242  30.546  1.00  0.00    -0.000 C 
BRANCH  18  19
ATOM     19  C   UNL     1     -16.404   5.505  31.389  1.00  0.00    -0.000 C 
BRANCH  19  20
ATOM     20  C   UNL     1     -16.229   6.811  30.591  1.00  0.00    -0.000 C 
BRANCH  20  21
ATOM     21  C   UNL     1     -14.876   6.896  29.862  1.00  0.00    -0.000 C 
BRANCH  21  22
ATOM     22  C   UNL     1     -14.787   8.106  28.920  1.00  0.00    -0.000 C 
BRANCH  22  23
ATOM     23  C   UNL     1     -13.370   8.704  28.845  1.00  0.00    -0.000 C 
BRANCH  23  24
ATOM     24  C   UNL     1     -12.634   8.292  27.553  1.00  0.00    -0.000 C 
BRANCH  24  25
ATOM     25  C   UNL     1     -13.407   7.272  26.701  1.00  0.00    -0.003 C 
ATOM     26  C   UNL     1     -12.833   5.860  26.789  1.00  0.00     0.004 C 
ENDBRANCH  24  25
ENDBRANCH  23  24
ENDBRANCH  22  23
ENDBRANCH  21  22
ENDBRANCH  20  21
ENDBRANCH  19  20
ENDBRANCH  18  19
ENDBRANCH  17  18
ENDBRANCH  16  17
ENDBRANCH  15  16
ENDBRANCH   1  15
TORSDOF 22
ENDMDL
MODEL 6
REMARK VINA RESULT:    -3.878      1.640      2.505
REMARK INTER + INTRA:         -12.343
REMARK INTER:                  -9.765
REMARK INTRA:                  -2.578
REMARK UNBOUND:                -3.477
REMARK SMILES CCCCCCCCCCCCCCCCCCCCCCCC(=O)[O-]
REMARK SMILES IDX 13 1 14 2 15 3 16 4 17 5 18 6 19 7 20 8 21 9 22 10 23 11
REMARK SMILES IDX 24 12 25 13 26 14 12 15 11 16 10 17 9 18 8 19 7 20 6 21 5 22
REMARK SMILES IDX 4 23 3 24 2 25 1 26
REMARK H PARENT
REMARK Flexibility Score: inf
ROOT
ATOM      1  C   UNL     1     -12.643   5.539  26.489  1.00  0.00     0.000 C 
ENDROOT
BRANCH   1   2
ATOM      2  C   UNL     1     -13.151   6.993  26.407  1.00  0.00     0.000 C 
BRANCH   2   3
ATOM      3  C   UNL     1     -13.097   7.784  27.728  1.00  0.00     0.000 C 
BRANCH   3   4
ATOM      4  C   UNL     1     -14.266   8.770  27.884  1.00  0.00     0.000 C 
BRANCH   4   5
ATOM      5  C   UNL     1     -15.013   8.609  29.222  1.00  0.00     0.000 C 
BRANCH   5   6
ATOM      6  C   UNL     1     -15.129   7.165  29.744  1.00  0.00     0.000 C 
BRANCH   6   7
ATOM      7  C   UNL     1     -16.358   6.951  30.644  1.00  0.00     0.000 C 
BRANCH   7   8
ATOM      8  C   UNL     1     -16.432   5.526  31.222  1.00  0.00     0.000 C 
BRANCH   8   9
ATOM      9  C   UNL     1     -15.079   4.797  31.334  1.00  0.00     0.000 C 
BRANCH   9  10
ATOM     10  C   UNL     1     -15.181   3.267  31.165  1.00  0.00     0.006 C 
BRANCH  10  11
ATOM     11  C   UNL     1     -14.768   2.514  32.438  1.00  0.00     0.053 C 
BRANCH  11  12
ATOM     12  C   UNL     1     -15.975   2.122  33.230  1.00  0.00     0.041 C 
ATOM     13  O   UNL     1     -17.108   2.086  32.683  1.00  0.00    -0.550 OA
ATOM     14  O   UNL     1     -15.854   1.837  34.584  1.00  0.00    -0.550 OA
ENDBRANCH  11  12
ENDBRANCH  10  11
ENDBRANCH   9  10
ENDBRANCH   8   9
ENDBRANCH   7   8
ENDBRANCH   6   7
ENDBRANCH   5   6
ENDBRANCH   4   5
ENDBRANCH   3   4
ENDBRANCH   2   3
ENDBRANCH   1   2
BRANCH   1  15
ATOM     15  C   UNL     1     -13.489   4.599  27.370  1.00  0.00     0.000 C 
BRANCH  15  16
ATOM     16  C   UNL     1     -12.833   4.185  28.702  1.00  0.00     0.000 C 
BRANCH  16  17
ATOM     17  C   UNL     1     -11.349   4.571  28.849  1.00  0.00     0.000 C 
BRANCH  17  18
ATOM     18  C   UNL     1     -11.127   5.724  29.839  1.00  0.00    -0.000 C 
BRANCH  18  19
ATOM     19  C   UNL     1     -10.803   5.241  31.265  1.00  0.00    -0.000 C 
BRANCH  19  20
ATOM     20  C   UNL     1     -10.321   3.782  31.377  1.00  0.00    -0.000 C 
BRANCH  20  21
ATOM     21  C   UNL     1      -8.905   3.658  31.968  1.00  0.00    -0.000 C 
BRANCH  21  22
ATOM     22  C   UNL     1      -7.805   3.912  30.925  1.00  0.00    -0.000 C 
BRANCH  22  23
ATOM     23  C   UNL     1      -6.586   4.650  31.509  1.00  0.00    -0.000 C 
BRANCH  23  24
ATOM     24  C   UNL     1      -6.701   4.843  33.036  1.00  0.00    -0.000 C 
BRANCH  24  25
ATOM     25  C   UNL     1      -5.513   5.602  33.651  1.00  0.00    -0.003 C 
ATOM     26  C   UNL     1      -4.214   5.415  32.871  1.00  0.00     0.004 C 
ENDBRANCH  24  25
ENDBRANCH  23  24
ENDBRANCH  22  23
ENDBRANCH  21  22
ENDBRANCH  20  21
ENDBRANCH  19  20
ENDBRANCH  18  19
ENDBRANCH  17  18
ENDBRANCH  16  17
ENDBRANCH  15  16
ENDBRANCH   1  15
TORSDOF 22
ENDMDL
MODEL 7
REMARK VINA RESULT:    -3.829      3.564      8.124
REMARK INTER + INTRA:         -12.230
REMARK INTER:                  -9.248
REMARK INTRA:                  -2.981
REMARK UNBOUND:                -3.477
REMARK SMILES CCCCCCCCCCCCCCCCCCCCCCCC(=O)[O-]
REMARK SMILES IDX 13 1 14 2 15 3 16 4 17 5 18 6 19 7 20 8 21 9 22 10 23 11
REMARK SMILES IDX 24 12 25 13 26 14 12 15 11 16 10 17 9 18 8 19 7 20 6 21 5 22
REMARK SMILES IDX 4 23 3 24 2 25 1 26
REMARK H PARENT
REMARK Flexibility Score: inf
ROOT
ATOM      1  C   UNL     1     -10.571   6.695  30.457  1.00  0.00     0.000 C 
ENDROOT
BRANCH   1   2
ATOM      2  C   UNL     1     -11.115   5.348  29.937  1.00  0.00     0.000 C 
BRANCH   2   3
ATOM      3  C   UNL     1     -11.928   4.529  30.958  1.00  0.00     0.000 C 
BRANCH   3   4
ATOM      4  C   UNL     1     -11.337   3.132  31.212  1.00  0.00     0.000 C 
BRANCH   4   5
ATOM      5  C   UNL     1     -10.200   2.775  30.235  1.00  0.00     0.000 C 
BRANCH   5   6
ATOM      6  C   UNL     1      -8.804   2.635  30.868  1.00  0.00     0.000 C 
BRANCH   6   7
ATOM      7  C   UNL     1      -8.802   2.915  32.381  1.00  0.00     0.000 C 
BRANCH   7   8
ATOM      8  C   UNL     1      -7.902   4.101  32.765  1.00  0.00     0.000 C 
BRANCH   8   9
ATOM      9  C   UNL     1      -7.361   4.921  31.578  1.00  0.00     0.000 C 
BRANCH   9  10
ATOM     10  C   UNL     1      -5.933   5.463  31.796  1.00  0.00     0.006 C 
BRANCH  10  11
ATOM     11  C   UNL     1      -5.499   5.382  33.266  1.00  0.00     0.053 C 
BRANCH  11  12
ATOM     12  C   UNL     1      -4.152   6.005  33.451  1.00  0.00     0.041 C 
ATOM     13  O   UNL     1      -3.930   7.171  33.031  1.00  0.00    -0.550 OA
ATOM     14  O   UNL     1      -3.127   5.282  34.049  1.00  0.00    -0.550 OA
ENDBRANCH  11  12
ENDBRANCH  10  11
ENDBRANCH   9  10
ENDBRANCH   8   9
ENDBRANCH   7   8
ENDBRANCH   6   7
ENDBRANCH   5   6
ENDBRANCH   4   5
ENDBRANCH   3   4
ENDBRANCH   2   3
ENDBRANCH   1   2
BRANCH   1  15
ATOM     15  C   UNL     1      -9.859   7.564  29.402  1.00  0.00     0.000 C 
BRANCH  15  16
ATOM     16  C   UNL     1     -10.764   8.086  28.269  1.00  0.00     0.000 C 
BRANCH  16  17
ATOM     17  C   UNL     1     -12.104   8.693  28.727  1.00  0.00     0.000 C 
BRANCH  17  18
ATOM     18  C   UNL     1     -13.320   7.880  28.257  1.00  0.00    -0.000 C 
BRANCH  18  19
ATOM     19  C   UNL     1     -14.540   8.028  29.186  1.00  0.00    -0.000 C 
BRANCH  19  20
ATOM     20  C   UNL     1     -15.178   6.707  29.656  1.00  0.00    -0.000 C 
BRANCH  20  21
ATOM     21  C   UNL     1     -14.669   5.480  28.878  1.00  0.00    -0.000 C 
BRANCH  21  22
ATOM     22  C   UNL     1     -15.241   4.160  29.417  1.00  0.00    -0.000 C 
BRANCH  22  23
ATOM     23  C   UNL     1     -16.677   4.303  29.952  1.00  0.00    -0.000 C 
BRANCH  23  24
ATOM     24  C   UNL     1     -16.802   3.829  31.415  1.00  0.00    -0.000 C 
BRANCH  24  25
ATOM     25  C   UNL     1     -15.449   3.651  32.123  1.00  0.00    -0.003 C 
ATOM     26  C   UNL     1     -15.585   3.151  33.559  1.00  0.00     0.004 C 
ENDBRANCH  24  25
ENDBRANCH  23  24
ENDBRANCH  22  23
ENDBRANCH  21  22
ENDBRANCH  20  21
ENDBRANCH  19  20
ENDBRANCH  18  19
ENDBRANCH  17  18
ENDBRANCH  16  17
ENDBRANCH  15  16
ENDBRANCH   1  15
TORSDOF 22
ENDMDL
MODEL 8
REMARK VINA RESULT:    -3.796      2.500      4.705
REMARK INTER + INTRA:         -12.154
REMARK INTER:                  -8.208
REMARK INTRA:                  -3.946
REMARK UNBOUND:                -3.477
REMARK SMILES CCCCCCCCCCCCCCCCCCCCCCCC(=O)[O-]
REMARK SMILES IDX 13 1 14 2 15 3 16 4 17 5 18 6 19 7 20 8 21 9 22 10 23 11
REMARK SMILES IDX 24 12 25 13 26 14 12 15 11 16 10 17 9 18 8 19 7 20 6 21 5 22
REMARK SMILES IDX 4 23 3 24 2 25 1 26
REMARK H PARENT
REMARK Flexibility Score: inf
ROOT
ATOM      1  C   UNL     1     -15.051   4.212  32.376  1.00  0.00     0.000 C 
ENDROOT
BRANCH   1   2
ATOM      2  C   UNL     1     -15.149   4.887  30.992  1.00  0.00     0.000 C 
BRANCH   2   3
ATOM      3  C   UNL     1     -16.388   5.778  30.782  1.00  0.00     0.000 C 
BRANCH   3   4
ATOM      4  C   UNL     1     -16.029   7.216  30.372  1.00  0.00     0.000 C 
BRANCH   4   5
ATOM      5  C   UNL     1     -14.903   7.277  29.322  1.00  0.00     0.000 C 
BRANCH   5   6
ATOM      6  C   UNL     1     -14.576   8.681  28.784  1.00  0.00     0.000 C 
BRANCH   6   7
ATOM      7  C   UNL     1     -13.075   8.886  28.518  1.00  0.00     0.000 C 
BRANCH   7   8
ATOM      8  C   UNL     1     -12.205   7.769  29.121  1.00  0.00     0.000 C 
BRANCH   8   9
ATOM      9  C   UNL     1     -10.903   7.470  28.353  1.00  0.00     0.000 C 
BRANCH   9  10
ATOM     10  C   UNL     1     -10.950   6.163  27.534  1.00  0.00     0.006 C 
BRANCH  10  11
ATOM     11  C   UNL     1     -12.246   5.376  27.770  1.00  0.00     0.053 C 
BRANCH  11  12
ATOM     12  C   UNL     1     -13.083   5.360  26.531  1.00  0.00     0.041 C 
ATOM     13  O   UNL     1     -13.517   4.271  26.074  1.00  0.00    -0.550 OA
ATOM     14  O   UNL     1     -13.347   6.544  25.855  1.00  0.00    -0.550 OA
ENDBRANCH  11  12
ENDBRANCH  10  11
ENDBRANCH   9  10
ENDBRANCH   8   9
ENDBRANCH   7   8
ENDBRANCH   6   7
ENDBRANCH   5   6
ENDBRANCH   4   5
ENDBRANCH   3   4
ENDBRANCH   2   3
ENDBRANCH   1   2
BRANCH   1  15
ATOM     15  C   UNL     1     -14.867   2.683  32.346  1.00  0.00     0.000 C 
BRANCH  15  16
ATOM     16  C   UNL     1     -15.522   1.969  31.147  1.00  0.00     0.000 C 
BRANCH  16  17
ATOM     17  C   UNL     1     -14.596   1.018  30.365  1.00  0.00     0.000 C 
BRANCH  17  18
ATOM     18  C   UNL     1     -14.058   1.642  29.068  1.00  0.00    -0.000 C 
BRANCH  18  19
ATOM     19  C   UNL     1     -12.638   2.220  29.221  1.00  0.00    -0.000 C 
BRANCH  19  20
ATOM     20  C   UNL     1     -11.723   1.478  30.213  1.00  0.00    -0.000 C 
BRANCH  20  21
ATOM     21  C   UNL     1     -11.063   2.414  31.241  1.00  0.00    -0.000 C 
BRANCH  21  22
ATOM     22  C   UNL     1     -11.583   3.857  31.146  1.00  0.00    -0.000 C 
BRANCH  22  23
ATOM     23  C   UNL     1     -10.461   4.906  31.251  1.00  0.00    -0.000 C 
BRANCH  23  24
ATOM     24  C   UNL     1      -9.191   4.334  31.915  1.00  0.00    -0.000 C 
BRANCH  24  25
ATOM     25  C   UNL     1      -7.884   4.834  31.278  1.00  0.00    -0.003 C 
ATOM     26  C   UNL     1      -8.107   5.600  29.977  1.00  0.00     0.004 C 
ENDBRANCH  24  25
ENDBRANCH  23  24
ENDBRANCH  22  23
ENDBRANCH  21  22
ENDBRANCH  20  21
ENDBRANCH  19  20
ENDBRANCH  18  19
ENDBRANCH  17  18
ENDBRANCH  16  17
ENDBRANCH  15  16
ENDBRANCH   1  15
TORSDOF 22
ENDMDL
MODEL 9
REMARK VINA RESULT:    -3.789     17.273     20.330
REMARK INTER + INTRA:         -12.140
REMARK INTER:                  -7.786
REMARK INTRA:                  -4.354
REMARK UNBOUND:                -3.477
REMARK SMILES CCCCCCCCCCCCCCCCCCCCCCCC(=O)[O-]
REMARK SMILES IDX 13 1 14 2 15 3 16 4 17 5 18 6 19 7 20 8 21 9 22 10 23 11
REMARK SMILES IDX 24 12 25 13 26 14 12 15 11 16 10 17 9 18 8 19 7 20 6 21 5 22
REMARK SMILES IDX 4 23 3 24 2 25 1 26
REMARK H PARENT
REMARK Flexibility Score: inf
ROOT
ATOM      1  C   UNL     1       1.070  -7.051  20.665  1.00  0.00     0.000 C 
ENDROOT
BRANCH   1   2
ATOM      2  C   UNL     1       2.391  -7.722  21.094  1.00  0.00     0.000 C 
BRANCH   2   3
ATOM      3  C   UNL     1       2.476  -9.237  20.828  1.00  0.00     0.000 C 
BRANCH   3   4
ATOM      4  C   UNL     1       2.979  -9.570  19.414  1.00  0.00     0.000 C 
BRANCH   4   5
ATOM      5  C   UNL     1       2.043 -10.528  18.653  1.00  0.00     0.000 C 
BRANCH   5   6
ATOM      6  C   UNL     1       0.661  -9.954  18.292  1.00  0.00     0.000 C 
BRANCH   6   7
ATOM      7  C   UNL     1       0.728  -8.879  17.194  1.00  0.00     0.000 C 
BRANCH   7   8
ATOM      8  C   UNL     1      -0.610  -8.144  16.998  1.00  0.00     0.000 C 
BRANCH   8   9
ATOM      9  C   UNL     1      -1.620  -8.310  18.149  1.00  0.00     0.000 C 
BRANCH   9  10
ATOM     10  C   UNL     1      -3.061  -7.907  17.775  1.00  0.00     0.006 C 
BRANCH  10  11
ATOM     11  C   UNL     1      -3.238  -6.384  17.702  1.00  0.00     0.053 C 
BRANCH  11  12
ATOM     12  C   UNL     1      -4.119  -5.904  18.811  1.00  0.00     0.041 C 
ATOM     13  O   UNL     1      -4.268  -6.600  19.849  1.00  0.00    -0.550 OA
ATOM     14  O   UNL     1      -4.811  -4.706  18.680  1.00  0.00    -0.550 OA
ENDBRANCH  11  12
ENDBRANCH  10  11
ENDBRANCH   9  10
ENDBRANCH   8   9
ENDBRANCH   7   8
ENDBRANCH   6   7
ENDBRANCH   5   6
ENDBRANCH   4   5
ENDBRANCH   3   4
ENDBRANCH   2   3
ENDBRANCH   1   2
BRANCH   1  15
ATOM     15  C   UNL     1       1.200  -6.012  19.535  1.00  0.00     0.000 C 
BRANCH  15  16
ATOM     16  C   UNL     1      -0.073  -5.190  19.253  1.00  0.00     0.000 C 
BRANCH  16  17
ATOM     17  C   UNL     1      -1.008  -4.995  20.461  1.00  0.00     0.000 C 
BRANCH  17  18
ATOM     18  C   UNL     1      -1.617  -3.586  20.524  1.00  0.00    -0.000 C 
BRANCH  18  19
ATOM     19  C   UNL     1      -1.427  -2.788  19.220  1.00  0.00    -0.000 C 
BRANCH  19  20
ATOM     20  C   UNL     1      -0.789  -1.395  19.382  1.00  0.00    -0.000 C 
BRANCH  20  21
ATOM     21  C   UNL     1       0.739  -1.406  19.193  1.00  0.00    -0.000 C 
BRANCH  21  22
ATOM     22  C   UNL     1       1.499  -1.449  20.528  1.00  0.00    -0.000 C 
BRANCH  22  23
ATOM     23  C   UNL     1       2.166  -2.812  20.794  1.00  0.00    -0.000 C 
BRANCH  23  24
ATOM     24  C   UNL     1       2.432  -3.044  22.297  1.00  0.00    -0.000 C 
BRANCH  24  25
ATOM     25  C   UNL     1       1.397  -3.961  22.970  1.00  0.00    -0.003 C 
ATOM     26  C   UNL     1       2.032  -5.111  23.748  1.00  0.00     0.004 C 
ENDBRANCH  24  25
ENDBRANCH  23  24
ENDBRANCH  22  23
ENDBRANCH  21  22
ENDBRANCH  20  21
ENDBRANCH  19  20
ENDBRANCH  18  19
ENDBRANCH  17  18
ENDBRANCH  16  17
ENDBRANCH  15  16
ENDBRANCH   1  15
TORSDOF 22
ENDMDL
