MODEL 1
REMARK VINA RESULT:    -5.089      0.000      0.000
REMARK INTER + INTRA:         -14.234
REMARK INTER:                 -11.039
REMARK INTRA:                  -3.196
REMARK UNBOUND:                -3.196
REMARK SMILES CCCCCCCCCCCCCCCCCCCCCC(=O)[O-]
REMARK SMILES IDX 12 1 11 2 10 3 9 4 8 5 7 6 6 7 5 8 4 9 3 10 2 11 1 12 13 13
REMARK SMILES IDX 14 14 15 15 16 16 17 17 18 18 19 19 20 20 21 21 22 22 23 23
REMARK SMILES IDX 24 24
REMARK H PARENT
REMARK Flexibility Score: inf
ROOT
ATOM      1  C   UNL     1      11.581  13.502  70.440  1.00  0.00     0.000 C 
ENDROOT
BRANCH   1   2
ATOM      2  C   UNL     1      10.494  12.799  69.617  1.00  0.00     0.000 C 
BRANCH   2   3
ATOM      3  C   UNL     1       9.997  13.702  68.478  1.00  0.00     0.000 C 
BRANCH   3   4
ATOM      4  C   UNL     1       9.099  14.844  68.980  1.00  0.00    -0.000 C 
BRANCH   4   5
ATOM      5  C   UNL     1       9.466  16.203  68.357  1.00  0.00    -0.000 C 
BRANCH   5   6
ATOM      6  C   UNL     1      10.525  16.081  67.250  1.00  0.00    -0.000 C 
BRANCH   6   7
ATOM      7  C   UNL     1      11.905  16.597  67.693  1.00  0.00    -0.000 C 
BRANCH   7   8
ATOM      8  C   UNL     1      13.061  15.783  67.091  1.00  0.00    -0.000 C 
BRANCH   8   9
ATOM      9  C   UNL     1      13.689  14.810  68.104  1.00  0.00    -0.000 C 
BRANCH   9  10
ATOM     10  C   UNL     1      14.285  15.527  69.329  1.00  0.00    -0.000 C 
BRANCH  10  11
ATOM     11  C   UNL     1      15.147  14.638  70.245  1.00  0.00    -0.003 C 
ATOM     12  C   UNL     1      16.616  14.592  69.824  1.00  0.00     0.004 C 
ENDBRANCH  10  11
ENDBRANCH   9  10
ENDBRANCH   8   9
ENDBRANCH   7   8
ENDBRANCH   6   7
ENDBRANCH   5   6
ENDBRANCH   4   5
ENDBRANCH   3   4
ENDBRANCH   2   3
ENDBRANCH   1   2
BRANCH   1  13
ATOM     13  C   UNL     1      11.217  13.519  71.933  1.00  0.00     0.000 C 
BRANCH  13  14
ATOM     14  C   UNL     1      11.089  14.942  72.506  1.00  0.00     0.000 C 
BRANCH  14  15
ATOM     15  C   UNL     1      11.935  16.015  71.796  1.00  0.00     0.000 C 
BRANCH  15  16
ATOM     16  C   UNL     1      11.104  17.222  71.328  1.00  0.00     0.000 C 
BRANCH  16  17
ATOM     17  C   UNL     1       9.670  17.212  71.892  1.00  0.00     0.000 C 
BRANCH  17  18
ATOM     18  C   UNL     1       8.789  18.388  71.434  1.00  0.00     0.000 C 
BRANCH  18  19
ATOM     19  C   UNL     1       7.568  18.609  72.344  1.00  0.00     0.000 C 
BRANCH  19  20
ATOM     20  C   UNL     1       7.907  18.448  73.834  1.00  0.00     0.006 C 
BRANCH  20  21
ATOM     21  C   UNL     1       6.790  17.746  74.618  1.00  0.00     0.053 C 
BRANCH  21  22
ATOM     22  C   UNL     1       7.319  16.521  75.294  1.00  0.00     0.041 C 
ATOM     23  O   UNL     1       8.254  15.861  74.769  1.00  0.00    -0.550 OA
ATOM     24  O   UNL     1       6.743  16.078  76.478  1.00  0.00    -0.550 OA
ENDBRANCH  21  22
ENDBRANCH  20  21
ENDBRANCH  19  20
ENDBRANCH  18  19
ENDBRANCH  17  18
ENDBRANCH  16  17
ENDBRANCH  15  16
ENDBRANCH  14  15
ENDBRANCH  13  14
ENDBRANCH   1  13
TORSDOF 20
ENDMDL
MODEL 2
REMARK VINA RESULT:    -4.888      1.275      3.298
REMARK INTER + INTRA:         -13.798
REMARK INTER:                 -10.684
REMARK INTRA:                  -3.114
REMARK UNBOUND:                -3.196
REMARK SMILES CCCCCCCCCCCCCCCCCCCCCC(=O)[O-]
REMARK SMILES IDX 12 1 11 2 10 3 9 4 8 5 7 6 6 7 5 8 4 9 3 10 2 11 1 12 13 13
REMARK SMILES IDX 14 14 15 15 16 16 17 17 18 18 19 19 20 20 21 21 22 22 23 23
REMARK SMILES IDX 24 24
REMARK H PARENT
REMARK Flexibility Score: inf
ROOT
ATOM      1  C   UNL     1      13.546  16.167  70.746  1.00  0.00     0.000 C 
ENDROOT
BRANCH   1   2
ATOM      2  C   UNL     1      13.238  14.664  70.721  1.00  0.00     0.000 C 
BRANCH   2   3
ATOM      3  C   UNL     1      13.480  14.076  69.323  1.00  0.00     0.000 C 
BRANCH   3   4
ATOM      4  C   UNL     1      13.884  15.144  68.295  1.00  0.00    -0.000 C 
BRANCH   4   5
ATOM      5  C   UNL     1      12.850  15.301  67.166  1.00  0.00    -0.000 C 
BRANCH   5   6
ATOM      6  C   UNL     1      12.141  16.666  67.197  1.00  0.00    -0.000 C 
BRANCH   6   7
ATOM      7  C   UNL     1      10.609  16.536  67.138  1.00  0.00    -0.000 C 
BRANCH   7   8
ATOM      8  C   UNL     1       9.977  16.370  68.530  1.00  0.00    -0.000 C 
BRANCH   8   9
ATOM      9  C   UNL     1       9.092  15.116  68.630  1.00  0.00    -0.000 C 
BRANCH   9  10
ATOM     10  C   UNL     1       9.853  13.888  69.161  1.00  0.00    -0.000 C 
BRANCH  10  11
ATOM     11  C   UNL     1      10.223  12.841  68.094  1.00  0.00    -0.003 C 
ATOM     12  C   UNL     1       9.747  11.433  68.448  1.00  0.00     0.004 C 
ENDBRANCH  10  11
ENDBRANCH   9  10
ENDBRANCH   8   9
ENDBRANCH   7   8
ENDBRANCH   6   7
ENDBRANCH   5   6
ENDBRANCH   4   5
ENDBRANCH   3   4
ENDBRANCH   2   3
ENDBRANCH   1   2
BRANCH   1  13
ATOM     13  C   UNL     1      12.433  16.945  71.464  1.00  0.00     0.000 C 
BRANCH  13  14
ATOM     14  C   UNL     1      11.311  16.037  72.000  1.00  0.00     0.000 C 
BRANCH  14  15
ATOM     15  C   UNL     1       9.951  16.726  72.209  1.00  0.00     0.000 C 
BRANCH  15  16
ATOM     16  C   UNL     1       9.784  17.996  71.357  1.00  0.00     0.000 C 
BRANCH  16  17
ATOM     17  C   UNL     1       8.563  18.838  71.776  1.00  0.00     0.000 C 
BRANCH  17  18
ATOM     18  C   UNL     1       7.281  18.027  72.038  1.00  0.00     0.000 C 
BRANCH  18  19
ATOM     19  C   UNL     1       6.271  18.778  72.924  1.00  0.00     0.000 C 
BRANCH  19  20
ATOM     20  C   UNL     1       6.207  18.213  74.352  1.00  0.00     0.006 C 
BRANCH  20  21
ATOM     21  C   UNL     1       6.164  16.679  74.376  1.00  0.00     0.053 C 
BRANCH  21  22
ATOM     22  C   UNL     1       7.125  16.147  75.391  1.00  0.00     0.041 C 
ATOM     23  O   UNL     1       8.261  15.737  75.034  1.00  0.00    -0.550 OA
ATOM     24  O   UNL     1       6.746  16.053  76.724  1.00  0.00    -0.550 OA
ENDBRANCH  21  22
ENDBRANCH  20  21
ENDBRANCH  19  20
ENDBRANCH  18  19
ENDBRANCH  17  18
ENDBRANCH  16  17
ENDBRANCH  15  16
ENDBRANCH  14  15
ENDBRANCH  13  14
ENDBRANCH   1  13
TORSDOF 20
ENDMDL
MODEL 3
REMARK VINA RESULT:    -4.838      1.426      3.485
REMARK INTER + INTRA:         -13.689
REMARK INTER:                 -10.723
REMARK INTRA:                  -2.967
REMARK UNBOUND:                -3.196
REMARK SMILES CCCCCCCCCCCCCCCCCCCCCC(=O)[O-]
REMARK SMILES IDX 12 1 11 2 10 3 9 4 8 5 7 6 6 7 5 8 4 9 3 10 2 11 1 12 13 13
REMARK SMILES IDX 14 14 15 15 16 16 17 17 18 18 19 19 20 20 21 21 22 22 23 23
REMARK SMILES IDX 24 24
REMARK H PARENT
REMARK Flexibility Score: inf
ROOT
ATOM      1  C   UNL     1      13.535  13.998  69.412  1.00  0.00     0.000 C 
ENDROOT
BRANCH   1   2
ATOM      2  C   UNL     1      13.829  15.215  68.525  1.00  0.00     0.000 C 
BRANCH   2   3
ATOM      3  C   UNL     1      12.945  15.205  67.269  1.00  0.00     0.000 C 
BRANCH   3   4
ATOM      4  C   UNL     1      12.381  16.595  66.933  1.00  0.00    -0.000 C 
BRANCH   4   5
ATOM      5  C   UNL     1      10.849  16.660  67.069  1.00  0.00    -0.000 C 
BRANCH   5   6
ATOM      6  C   UNL     1      10.379  16.579  68.530  1.00  0.00    -0.000 C 
BRANCH   6   7
ATOM      7  C   UNL     1       9.231  15.573  68.726  1.00  0.00    -0.000 C 
BRANCH   7   8
ATOM      8  C   UNL     1       9.735  14.166  69.087  1.00  0.00    -0.000 C 
BRANCH   8   9
ATOM      9  C   UNL     1      10.203  13.373  67.854  1.00  0.00    -0.000 C 
BRANCH   9  10
ATOM     10  C   UNL     1      10.481  11.891  68.167  1.00  0.00    -0.000 C 
BRANCH  10  11
ATOM     11  C   UNL     1       9.302  11.129  68.799  1.00  0.00    -0.003 C 
ATOM     12  C   UNL     1       9.121   9.724  68.225  1.00  0.00     0.004 C 
ENDBRANCH  10  11
ENDBRANCH   9  10
ENDBRANCH   8   9
ENDBRANCH   7   8
ENDBRANCH   6   7
ENDBRANCH   5   6
ENDBRANCH   4   5
ENDBRANCH   3   4
ENDBRANCH   2   3
ENDBRANCH   1   2
BRANCH   1  13
ATOM     13  C   UNL     1      13.046  14.434  70.802  1.00  0.00     0.000 C 
BRANCH  13  14
ATOM     14  C   UNL     1      13.133  15.956  71.021  1.00  0.00     0.000 C 
BRANCH  14  15
ATOM     15  C   UNL     1      12.209  16.515  72.117  1.00  0.00     0.000 C 
BRANCH  15  16
ATOM     16  C   UNL     1      10.810  15.875  72.107  1.00  0.00     0.000 C 
BRANCH  16  17
ATOM     17  C   UNL     1       9.723  16.812  72.669  1.00  0.00     0.000 C 
BRANCH  17  18
ATOM     18  C   UNL     1       9.325  17.971  71.736  1.00  0.00     0.000 C 
BRANCH  18  19
ATOM     19  C   UNL     1       8.099  18.749  72.242  1.00  0.00     0.000 C 
BRANCH  19  20
ATOM     20  C   UNL     1       7.885  18.594  73.756  1.00  0.00     0.006 C 
BRANCH  20  21
ATOM     21  C   UNL     1       6.431  18.260  74.113  1.00  0.00     0.053 C 
BRANCH  21  22
ATOM     22  C   UNL     1       6.286  16.799  74.400  1.00  0.00     0.041 C 
ATOM     23  O   UNL     1       5.358  16.137  73.865  1.00  0.00    -0.550 OA
ATOM     24  O   UNL     1       7.144  16.180  75.301  1.00  0.00    -0.550 OA
ENDBRANCH  21  22
ENDBRANCH  20  21
ENDBRANCH  19  20
ENDBRANCH  18  19
ENDBRANCH  17  18
ENDBRANCH  16  17
ENDBRANCH  15  16
ENDBRANCH  14  15
ENDBRANCH  13  14
ENDBRANCH   1  13
TORSDOF 20
ENDMDL
MODEL 4
REMARK VINA RESULT:    -4.824      3.260      6.972
REMARK INTER + INTRA:         -13.660
REMARK INTER:                 -10.657
REMARK INTRA:                  -3.003
REMARK UNBOUND:                -3.196
REMARK SMILES CCCCCCCCCCCCCCCCCCCCCC(=O)[O-]
REMARK SMILES IDX 12 1 11 2 10 3 9 4 8 5 7 6 6 7 5 8 4 9 3 10 2 11 1 12 13 13
REMARK SMILES IDX 14 14 15 15 16 16 17 17 18 18 19 19 20 20 21 21 22 22 23 23
REMARK SMILES IDX 24 24
REMARK H PARENT
REMARK Flexibility Score: inf
ROOT
ATOM      1  C   UNL     1      15.129  14.992  70.433  1.00  0.00     0.000 C 
ENDROOT
BRANCH   1   2
ATOM      2  C   UNL     1      14.250  16.132  69.901  1.00  0.00     0.000 C 
BRANCH   2   3
ATOM      3  C   UNL     1      13.557  16.875  71.053  1.00  0.00     0.000 C 
BRANCH   3   4
ATOM      4  C   UNL     1      12.026  16.770  70.986  1.00  0.00    -0.000 C 
BRANCH   4   5
ATOM      5  C   UNL     1      11.435  15.965  72.157  1.00  0.00    -0.000 C 
BRANCH   5   6
ATOM      6  C   UNL     1      10.126  16.568  72.691  1.00  0.00    -0.000 C 
BRANCH   6   7
ATOM      7  C   UNL     1       9.500  17.578  71.713  1.00  0.00    -0.000 C 
BRANCH   7   8
ATOM      8  C   UNL     1       8.443  18.471  72.383  1.00  0.00    -0.000 C 
BRANCH   8   9
ATOM      9  C   UNL     1       7.024  17.889  72.274  1.00  0.00    -0.000 C 
BRANCH   9  10
ATOM     10  C   UNL     1       6.299  17.822  73.631  1.00  0.00    -0.000 C 
BRANCH  10  11
ATOM     11  C   UNL     1       7.214  17.576  74.844  1.00  0.00    -0.003 C 
ATOM     12  C   UNL     1       7.186  16.127  75.331  1.00  0.00     0.004 C 
ENDBRANCH  10  11
ENDBRANCH   9  10
ENDBRANCH   8   9
ENDBRANCH   7   8
ENDBRANCH   6   7
ENDBRANCH   5   6
ENDBRANCH   4   5
ENDBRANCH   3   4
ENDBRANCH   2   3
ENDBRANCH   1   2
BRANCH   1  13
ATOM     13  C   UNL     1      14.439  13.632  70.250  1.00  0.00     0.000 C 
BRANCH  13  14
ATOM     14  C   UNL     1      13.365  13.645  69.147  1.00  0.00     0.000 C 
BRANCH  14  15
ATOM     15  C   UNL     1      11.970  13.161  69.583  1.00  0.00     0.000 C 
BRANCH  15  16
ATOM     16  C   UNL     1      11.114  12.658  68.408  1.00  0.00     0.000 C 
BRANCH  16  17
ATOM     17  C   UNL     1       9.687  13.239  68.420  1.00  0.00     0.000 C 
BRANCH  17  18
ATOM     18  C   UNL     1       9.492  14.451  69.349  1.00  0.00     0.000 C 
BRANCH  18  19
ATOM     19  C   UNL     1       8.864  15.658  68.630  1.00  0.00     0.000 C 
BRANCH  19  20
ATOM     20  C   UNL     1       9.762  16.210  67.512  1.00  0.00     0.006 C 
BRANCH  20  21
ATOM     21  C   UNL     1      11.168  16.569  68.010  1.00  0.00     0.053 C 
BRANCH  21  22
ATOM     22  C   UNL     1      12.064  16.889  66.856  1.00  0.00     0.041 C 
ATOM     23  O   UNL     1      12.994  16.100  66.539  1.00  0.00    -0.550 OA
ATOM     24  O   UNL     1      11.907  18.083  66.164  1.00  0.00    -0.550 OA
ENDBRANCH  21  22
ENDBRANCH  20  21
ENDBRANCH  19  20
ENDBRANCH  18  19
ENDBRANCH  17  18
ENDBRANCH  16  17
ENDBRANCH  15  16
ENDBRANCH  14  15
ENDBRANCH  13  14
ENDBRANCH   1  13
TORSDOF 20
ENDMDL
MODEL 5
REMARK VINA RESULT:    -4.778      1.127      3.868
REMARK INTER + INTRA:         -13.560
REMARK INTER:                 -10.511
REMARK INTRA:                  -3.049
REMARK UNBOUND:                -3.196
REMARK SMILES CCCCCCCCCCCCCCCCCCCCCC(=O)[O-]
REMARK SMILES IDX 12 1 11 2 10 3 9 4 8 5 7 6 6 7 5 8 4 9 3 10 2 11 1 12 13 13
REMARK SMILES IDX 14 14 15 15 16 16 17 17 18 18 19 19 20 20 21 21 22 22 23 23
REMARK SMILES IDX 24 24
REMARK H PARENT
REMARK Flexibility Score: inf
ROOT
ATOM      1  C   UNL     1      11.724  16.921  67.126  1.00  0.00     0.000 C 
ENDROOT
BRANCH   1   2
ATOM      2  C   UNL     1      12.154  15.458  67.296  1.00  0.00     0.000 C 
BRANCH   2   3
ATOM      3  C   UNL     1      13.634  15.362  67.692  1.00  0.00     0.000 C 
BRANCH   3   4
ATOM      4  C   UNL     1      13.867  14.418  68.882  1.00  0.00    -0.000 C 
BRANCH   4   5
ATOM      5  C   UNL     1      14.481  15.136  70.097  1.00  0.00    -0.000 C 
BRANCH   5   6
ATOM      6  C   UNL     1      13.896  16.541  70.313  1.00  0.00    -0.000 C 
BRANCH   6   7
ATOM      7  C   UNL     1      12.683  16.536  71.260  1.00  0.00    -0.000 C 
BRANCH   7   8
ATOM      8  C   UNL     1      12.245  15.115  71.650  1.00  0.00    -0.000 C 
BRANCH   8   9
ATOM      9  C   UNL     1      10.873  14.738  71.065  1.00  0.00    -0.000 C 
BRANCH   9  10
ATOM     10  C   UNL     1      10.886  13.381  70.337  1.00  0.00    -0.000 C 
BRANCH  10  11
ATOM     11  C   UNL     1       9.944  13.287  69.123  1.00  0.00    -0.003 C 
ATOM     12  C   UNL     1      10.497  12.405  68.004  1.00  0.00     0.004 C 
ENDBRANCH  10  11
ENDBRANCH   9  10
ENDBRANCH   8   9
ENDBRANCH   7   8
ENDBRANCH   6   7
ENDBRANCH   5   6
ENDBRANCH   4   5
ENDBRANCH   3   4
ENDBRANCH   2   3
ENDBRANCH   1   2
BRANCH   1  13
ATOM     13  C   UNL     1      10.684  17.316  68.184  1.00  0.00     0.000 C 
BRANCH  13  14
ATOM     14  C   UNL     1      10.946  18.703  68.799  1.00  0.00     0.000 C 
BRANCH  14  15
ATOM     15  C   UNL     1      10.085  19.050  70.028  1.00  0.00     0.000 C 
BRANCH  15  16
ATOM     16  C   UNL     1       9.367  17.827  70.623  1.00  0.00     0.000 C 
BRANCH  16  17
ATOM     17  C   UNL     1       9.040  17.999  72.119  1.00  0.00     0.000 C 
BRANCH  17  18
ATOM     18  C   UNL     1       7.639  18.567  72.412  1.00  0.00     0.000 C 
BRANCH  18  19
ATOM     19  C   UNL     1       7.486  19.059  73.861  1.00  0.00     0.000 C 
BRANCH  19  20
ATOM     20  C   UNL     1       6.293  18.411  74.581  1.00  0.00     0.006 C 
BRANCH  20  21
ATOM     21  C   UNL     1       6.243  16.890  74.383  1.00  0.00     0.053 C 
BRANCH  21  22
ATOM     22  C   UNL     1       7.186  16.211  75.324  1.00  0.00     0.041 C 
ATOM     23  O   UNL     1       8.285  15.760  74.904  1.00  0.00    -0.550 OA
ATOM     24  O   UNL     1       6.829  16.027  76.654  1.00  0.00    -0.550 OA
ENDBRANCH  21  22
ENDBRANCH  20  21
ENDBRANCH  19  20
ENDBRANCH  18  19
ENDBRANCH  17  18
ENDBRANCH  16  17
ENDBRANCH  15  16
ENDBRANCH  14  15
ENDBRANCH  13  14
ENDBRANCH   1  13
TORSDOF 20
ENDMDL
MODEL 6
REMARK VINA RESULT:    -4.753      2.720      6.536
REMARK INTER + INTRA:         -13.506
REMARK INTER:                 -10.641
REMARK INTRA:                  -2.866
REMARK UNBOUND:                -3.196
REMARK SMILES CCCCCCCCCCCCCCCCCCCCCC(=O)[O-]
REMARK SMILES IDX 12 1 11 2 10 3 9 4 8 5 7 6 6 7 5 8 4 9 3 10 2 11 1 12 13 13
REMARK SMILES IDX 14 14 15 15 16 16 17 17 18 18 19 19 20 20 21 21 22 22 23 23
REMARK SMILES IDX 24 24
REMARK H PARENT
REMARK Flexibility Score: inf
ROOT
ATOM      1  C   UNL     1      12.721  16.132  66.897  1.00  0.00     0.000 C 
ENDROOT
BRANCH   1   2
ATOM      2  C   UNL     1      11.750  17.320  66.880  1.00  0.00     0.000 C 
BRANCH   2   3
ATOM      3  C   UNL     1      10.932  17.380  68.178  1.00  0.00     0.000 C 
BRANCH   3   4
ATOM      4  C   UNL     1      10.850  18.801  68.758  1.00  0.00    -0.000 C 
BRANCH   4   5
ATOM      5  C   UNL     1       9.998  18.869  70.038  1.00  0.00    -0.000 C 
BRANCH   5   6
ATOM      6  C   UNL     1       9.305  17.536  70.362  1.00  0.00    -0.000 C 
BRANCH   6   7
ATOM      7  C   UNL     1       8.172  17.693  71.391  1.00  0.00    -0.000 C 
BRANCH   7   8
ATOM      8  C   UNL     1       8.408  18.870  72.352  1.00  0.00    -0.000 C 
BRANCH   8   9
ATOM      9  C   UNL     1       7.907  18.578  73.777  1.00  0.00    -0.000 C 
BRANCH   9  10
ATOM     10  C   UNL     1       8.157  17.122  74.211  1.00  0.00    -0.000 C 
BRANCH  10  11
ATOM     11  C   UNL     1       6.898  16.349  74.646  1.00  0.00    -0.003 C 
ATOM     12  C   UNL     1       5.617  16.885  74.008  1.00  0.00     0.004 C 
ENDBRANCH  10  11
ENDBRANCH   9  10
ENDBRANCH   8   9
ENDBRANCH   7   8
ENDBRANCH   6   7
ENDBRANCH   5   6
ENDBRANCH   4   5
ENDBRANCH   3   4
ENDBRANCH   2   3
ENDBRANCH   1   2
BRANCH   1  13
ATOM     13  C   UNL     1      12.630  15.365  68.225  1.00  0.00     0.000 C 
BRANCH  13  14
ATOM     14  C   UNL     1      14.008  15.057  68.839  1.00  0.00     0.000 C 
BRANCH  14  15
ATOM     15  C   UNL     1      14.249  15.644  70.241  1.00  0.00     0.000 C 
BRANCH  15  16
ATOM     16  C   UNL     1      13.178  16.668  70.655  1.00  0.00     0.000 C 
BRANCH  16  17
ATOM     17  C   UNL     1      12.412  16.247  71.925  1.00  0.00     0.000 C 
BRANCH  17  18
ATOM     18  C   UNL     1      11.141  15.418  71.666  1.00  0.00     0.000 C 
BRANCH  18  19
ATOM     19  C   UNL     1      11.338  13.920  71.957  1.00  0.00     0.000 C 
BRANCH  19  20
ATOM     20  C   UNL     1      11.346  13.067  70.678  1.00  0.00     0.006 C 
BRANCH  20  21
ATOM     21  C   UNL     1      10.305  13.535  69.653  1.00  0.00     0.053 C 
BRANCH  21  22
ATOM     22  C   UNL     1      10.079  12.477  68.620  1.00  0.00     0.041 C 
ATOM     23  O   UNL     1       9.559  11.376  68.944  1.00  0.00    -0.550 OA
ATOM     24  O   UNL     1      10.490  12.685  67.310  1.00  0.00    -0.550 OA
ENDBRANCH  21  22
ENDBRANCH  20  21
ENDBRANCH  19  20
ENDBRANCH  18  19
ENDBRANCH  17  18
ENDBRANCH  16  17
ENDBRANCH  15  16
ENDBRANCH  14  15
ENDBRANCH  13  14
ENDBRANCH   1  13
TORSDOF 20
ENDMDL
MODEL 7
REMARK VINA RESULT:    -4.715      2.690      6.997
REMARK INTER + INTRA:         -13.423
REMARK INTER:                 -10.087
REMARK INTRA:                  -3.336
REMARK UNBOUND:                -3.196
REMARK SMILES CCCCCCCCCCCCCCCCCCCCCC(=O)[O-]
REMARK SMILES IDX 12 1 11 2 10 3 9 4 8 5 7 6 6 7 5 8 4 9 3 10 2 11 1 12 13 13
REMARK SMILES IDX 14 14 15 15 16 16 17 17 18 18 19 19 20 20 21 21 22 22 23 23
REMARK SMILES IDX 24 24
REMARK H PARENT
REMARK Flexibility Score: inf
ROOT
ATOM      1  C   UNL     1      11.447  13.498  70.272  1.00  0.00     0.000 C 
ENDROOT
BRANCH   1   2
ATOM      2  C   UNL     1      11.183  13.224  71.758  1.00  0.00     0.000 C 
BRANCH   2   3
ATOM      3  C   UNL     1      11.064  14.536  72.547  1.00  0.00     0.000 C 
BRANCH   3   4
ATOM      4  C   UNL     1      11.909  15.667  71.942  1.00  0.00    -0.000 C 
BRANCH   4   5
ATOM      5  C   UNL     1      11.100  16.958  71.720  1.00  0.00    -0.000 C 
BRANCH   5   6
ATOM      6  C   UNL     1       9.647  16.837  72.209  1.00  0.00    -0.000 C 
BRANCH   6   7
ATOM      7  C   UNL     1       8.709  17.850  71.528  1.00  0.00    -0.000 C 
BRANCH   7   8
ATOM      8  C   UNL     1       7.619  18.374  72.476  1.00  0.00    -0.000 C 
BRANCH   8   9
ATOM      9  C   UNL     1       6.269  17.665  72.272  1.00  0.00    -0.000 C 
BRANCH   9  10
ATOM     10  C   UNL     1       5.814  16.877  73.514  1.00  0.00    -0.000 C 
BRANCH  10  11
ATOM     11  C   UNL     1       6.566  17.220  74.813  1.00  0.00    -0.003 C 
ATOM     12  C   UNL     1       7.435  16.072  75.322  1.00  0.00     0.004 C 
ENDBRANCH  10  11
ENDBRANCH   9  10
ENDBRANCH   8   9
ENDBRANCH   7   8
ENDBRANCH   6   7
ENDBRANCH   5   6
ENDBRANCH   4   5
ENDBRANCH   3   4
ENDBRANCH   2   3
ENDBRANCH   1   2
BRANCH   1  13
ATOM     13  C   UNL     1      10.463  12.721  69.385  1.00  0.00     0.000 C 
BRANCH  13  14
ATOM     14  C   UNL     1       9.704  13.622  68.394  1.00  0.00     0.000 C 
BRANCH  14  15
ATOM     15  C   UNL     1       9.473  15.069  68.866  1.00  0.00     0.000 C 
BRANCH  15  16
ATOM     16  C   UNL     1       9.640  16.103  67.739  1.00  0.00     0.000 C 
BRANCH  16  17
ATOM     17  C   UNL     1      10.544  17.283  68.143  1.00  0.00     0.000 C 
BRANCH  17  18
ATOM     18  C   UNL     1      12.012  16.907  68.415  1.00  0.00     0.000 C 
BRANCH  18  19
ATOM     19  C   UNL     1      12.527  15.798  67.481  1.00  0.00     0.000 C 
BRANCH  19  20
ATOM     20  C   UNL     1      13.785  15.105  68.026  1.00  0.00     0.006 C 
BRANCH  20  21
ATOM     21  C   UNL     1      14.228  15.672  69.381  1.00  0.00     0.053 C 
BRANCH  21  22
ATOM     22  C   UNL     1      15.291  14.809  69.985  1.00  0.00     0.041 C 
ATOM     23  O   UNL     1      16.460  14.825  69.517  1.00  0.00    -0.550 OA
ATOM     24  O   UNL     1      14.978  13.949  71.030  1.00  0.00    -0.550 OA
ENDBRANCH  21  22
ENDBRANCH  20  21
ENDBRANCH  19  20
ENDBRANCH  18  19
ENDBRANCH  17  18
ENDBRANCH  16  17
ENDBRANCH  15  16
ENDBRANCH  14  15
ENDBRANCH  13  14
ENDBRANCH   1  13
TORSDOF 20
ENDMDL
MODEL 8
REMARK VINA RESULT:    -4.661      1.102      3.107
REMARK INTER + INTRA:         -13.306
REMARK INTER:                  -9.959
REMARK INTRA:                  -3.348
REMARK UNBOUND:                -3.196
REMARK SMILES CCCCCCCCCCCCCCCCCCCCCC(=O)[O-]
REMARK SMILES IDX 12 1 11 2 10 3 9 4 8 5 7 6 6 7 5 8 4 9 3 10 2 11 1 12 13 13
REMARK SMILES IDX 14 14 15 15 16 16 17 17 18 18 19 19 20 20 21 21 22 22 23 23
REMARK SMILES IDX 24 24
REMARK H PARENT
REMARK Flexibility Score: inf
ROOT
ATOM      1  C   UNL     1      10.170  16.491  67.262  1.00  0.00     0.000 C 
ENDROOT
BRANCH   1   2
ATOM      2  C   UNL     1       9.120  15.785  68.129  1.00  0.00     0.000 C 
BRANCH   2   3
ATOM      3  C   UNL     1       9.788  14.917  69.205  1.00  0.00     0.000 C 
BRANCH   3   4
ATOM      4  C   UNL     1       9.741  13.419  68.867  1.00  0.00    -0.000 C 
BRANCH   4   5
ATOM      5  C   UNL     1      11.008  12.936  68.138  1.00  0.00    -0.000 C 
BRANCH   5   6
ATOM      6  C   UNL     1      12.289  13.180  68.951  1.00  0.00    -0.000 C 
BRANCH   6   7
ATOM      7  C   UNL     1      13.174  14.282  68.342  1.00  0.00    -0.000 C 
BRANCH   7   8
ATOM      8  C   UNL     1      14.103  14.934  69.379  1.00  0.00    -0.000 C 
BRANCH   8   9
ATOM      9  C   UNL     1      13.550  14.835  70.811  1.00  0.00    -0.000 C 
BRANCH   9  10
ATOM     10  C   UNL     1      12.794  16.103  71.249  1.00  0.00    -0.000 C 
BRANCH  10  11
ATOM     11  C   UNL     1      11.651  15.863  72.252  1.00  0.00    -0.003 C 
ATOM     12  C   UNL     1      11.232  14.396  72.342  1.00  0.00     0.004 C 
ENDBRANCH  10  11
ENDBRANCH   9  10
ENDBRANCH   8   9
ENDBRANCH   7   8
ENDBRANCH   6   7
ENDBRANCH   5   6
ENDBRANCH   4   5
ENDBRANCH   3   4
ENDBRANCH   2   3
ENDBRANCH   1   2
BRANCH   1  13
ATOM     13  C   UNL     1      11.259  17.137  68.132  1.00  0.00     0.000 C 
BRANCH  13  14
ATOM     14  C   UNL     1      10.917  18.578  68.553  1.00  0.00     0.000 C 
BRANCH  14  15
ATOM     15  C   UNL     1      10.675  18.782  70.059  1.00  0.00     0.000 C 
BRANCH  15  16
ATOM     16  C   UNL     1       9.182  18.827  70.427  1.00  0.00     0.000 C 
BRANCH  16  17
ATOM     17  C   UNL     1       8.833  17.902  71.609  1.00  0.00     0.000 C 
BRANCH  17  18
ATOM     18  C   UNL     1       8.476  18.633  72.916  1.00  0.00     0.000 C 
BRANCH  18  19
ATOM     19  C   UNL     1       6.970  18.918  73.047  1.00  0.00     0.000 C 
BRANCH  19  20
ATOM     20  C   UNL     1       6.372  18.344  74.342  1.00  0.00     0.006 C 
BRANCH  20  21
ATOM     21  C   UNL     1       6.238  16.816  74.300  1.00  0.00     0.053 C 
BRANCH  21  22
ATOM     22  C   UNL     1       7.165  16.184  75.290  1.00  0.00     0.041 C 
ATOM     23  O   UNL     1       8.283  15.742  74.917  1.00  0.00    -0.550 OA
ATOM     24  O   UNL     1       6.771  16.035  76.614  1.00  0.00    -0.550 OA
ENDBRANCH  21  22
ENDBRANCH  20  21
ENDBRANCH  19  20
ENDBRANCH  18  19
ENDBRANCH  17  18
ENDBRANCH  16  17
ENDBRANCH  15  16
ENDBRANCH  14  15
ENDBRANCH  13  14
ENDBRANCH   1  13
TORSDOF 20
ENDMDL
MODEL 9
REMARK VINA RESULT:    -4.622      1.301      2.593
REMARK INTER + INTRA:         -13.222
REMARK INTER:                  -9.904
REMARK INTRA:                  -3.317
REMARK UNBOUND:                -3.196
REMARK SMILES CCCCCCCCCCCCCCCCCCCCCC(=O)[O-]
REMARK SMILES IDX 12 1 11 2 10 3 9 4 8 5 7 6 6 7 5 8 4 9 3 10 2 11 1 12 13 13
REMARK SMILES IDX 14 14 15 15 16 16 17 17 18 18 19 19 20 20 21 21 22 22 23 23
REMARK SMILES IDX 24 24
REMARK H PARENT
REMARK Flexibility Score: inf
ROOT
ATOM      1  C   UNL     1      11.420  18.188  69.367  1.00  0.00     0.000 C 
ENDROOT
BRANCH   1   2
ATOM      2  C   UNL     1      10.169  17.776  68.580  1.00  0.00     0.000 C 
BRANCH   2   3
ATOM      3  C   UNL     1      10.254  16.306  68.144  1.00  0.00     0.000 C 
BRANCH   3   4
ATOM      4  C   UNL     1       9.201  15.424  68.834  1.00  0.00    -0.000 C 
BRANCH   4   5
ATOM      5  C   UNL     1       9.378  13.929  68.513  1.00  0.00    -0.000 C 
BRANCH   5   6
ATOM      6  C   UNL     1      10.397  13.241  69.437  1.00  0.00    -0.000 C 
BRANCH   6   7
ATOM      7  C   UNL     1      11.778  13.081  68.777  1.00  0.00    -0.000 C 
BRANCH   7   8
ATOM      8  C   UNL     1      12.931  13.194  69.788  1.00  0.00    -0.000 C 
BRANCH   8   9
ATOM      9  C   UNL     1      14.102  14.037  69.255  1.00  0.00    -0.000 C 
BRANCH   9  10
ATOM     10  C   UNL     1      15.215  14.242  70.299  1.00  0.00    -0.000 C 
BRANCH  10  11
ATOM     11  C   UNL     1      16.475  14.955  69.773  1.00  0.00    -0.003 C 
ATOM     12  C   UNL     1      17.657  14.008  69.570  1.00  0.00     0.004 C 
ENDBRANCH  10  11
ENDBRANCH   9  10
ENDBRANCH   8   9
ENDBRANCH   7   8
ENDBRANCH   6   7
ENDBRANCH   5   6
ENDBRANCH   4   5
ENDBRANCH   3   4
ENDBRANCH   2   3
ENDBRANCH   1   2
BRANCH   1  13
ATOM     13  C   UNL     1      12.257  16.960  69.754  1.00  0.00     0.000 C 
BRANCH  13  14
ATOM     14  C   UNL     1      12.856  17.059  71.169  1.00  0.00     0.000 C 
BRANCH  14  15
ATOM     15  C   UNL     1      12.347  16.009  72.172  1.00  0.00     0.000 C 
BRANCH  15  16
ATOM     16  C   UNL     1      10.866  15.649  71.965  1.00  0.00     0.000 C 
BRANCH  16  17
ATOM     17  C   UNL     1       9.924  16.447  72.888  1.00  0.00     0.000 C 
BRANCH  17  18
ATOM     18  C   UNL     1       9.379  17.752  72.280  1.00  0.00     0.000 C 
BRANCH  18  19
ATOM     19  C   UNL     1       7.952  17.601  71.725  1.00  0.00     0.000 C 
BRANCH  19  20
ATOM     20  C   UNL     1       6.929  18.457  72.489  1.00  0.00     0.006 C 
BRANCH  20  21
ATOM     21  C   UNL     1       7.103  18.363  74.010  1.00  0.00     0.053 C 
BRANCH  21  22
ATOM     22  C   UNL     1       6.590  17.051  74.513  1.00  0.00     0.041 C 
ATOM     23  O   UNL     1       7.198  16.443  75.433  1.00  0.00    -0.550 OA
ATOM     24  O   UNL     1       5.469  16.473  73.930  1.00  0.00    -0.550 OA
ENDBRANCH  21  22
ENDBRANCH  20  21
ENDBRANCH  19  20
ENDBRANCH  18  19
ENDBRANCH  17  18
ENDBRANCH  16  17
ENDBRANCH  15  16
ENDBRANCH  14  15
ENDBRANCH  13  14
ENDBRANCH   1  13
TORSDOF 20
ENDMDL
