MODEL 1
REMARK VINA RESULT:    -2.833      0.000      0.000
REMARK INTER + INTRA:          -5.350
REMARK INTER:                  -4.820
REMARK INTRA:                  -0.531
REMARK UNBOUND:                -0.531
REMARK SMILES CCCCCCCCCCCCCC(=O)[O-]
REMARK SMILES IDX 8 1 9 2 10 3 11 4 12 5 13 6 14 7 15 8 16 9 7 10 6 11 5 12
REMARK SMILES IDX 4 13 3 14 2 15 1 16
REMARK H PARENT
REMARK Flexibility Score: inf
ROOT
ATOM      1  C   UNL     1      23.164  -1.171  -2.308  1.00  0.00     0.000 C 
ENDROOT
BRANCH   1   2
ATOM      2  C   UNL     1      22.693   0.268  -2.584  1.00  0.00     0.000 C 
BRANCH   2   3
ATOM      3  C   UNL     1      23.820   1.181  -3.102  1.00  0.00     0.000 C 
BRANCH   3   4
ATOM      4  C   UNL     1      23.714   2.657  -2.677  1.00  0.00     0.000 C 
BRANCH   4   5
ATOM      5  C   UNL     1      25.028   3.214  -2.108  1.00  0.00     0.006 C 
BRANCH   5   6
ATOM      6  C   UNL     1      25.025   4.746  -2.122  1.00  0.00     0.053 C 
BRANCH   6   7
ATOM      7  C   UNL     1      26.147   5.279  -1.289  1.00  0.00     0.041 C 
ATOM      8  O   UNL     1      26.376   6.517  -1.250  1.00  0.00    -0.550 OA
ATOM      9  O   UNL     1      26.973   4.404  -0.593  1.00  0.00    -0.550 OA
ENDBRANCH   6   7
ENDBRANCH   5   6
ENDBRANCH   4   5
ENDBRANCH   3   4
ENDBRANCH   2   3
ENDBRANCH   1   2
BRANCH   1  10
ATOM     10  C   UNL     1      24.356  -1.587  -3.188  1.00  0.00     0.000 C 
BRANCH  10  11
ATOM     11  C   UNL     1      25.336  -2.585  -2.537  1.00  0.00    -0.000 C 
BRANCH  11  12
ATOM     12  C   UNL     1      26.340  -3.245  -3.503  1.00  0.00    -0.000 C 
BRANCH  12  13
ATOM     13  C   UNL     1      26.130  -4.754  -3.725  1.00  0.00    -0.000 C 
BRANCH  13  14
ATOM     14  C   UNL     1      26.572  -5.601  -2.523  1.00  0.00    -0.000 C 
BRANCH  14  15
ATOM     15  C   UNL     1      27.871  -5.058  -1.917  1.00  0.00    -0.003 C 
ATOM     16  C   UNL     1      27.698  -4.741  -0.435  1.00  0.00     0.004 C 
ENDBRANCH  14  15
ENDBRANCH  13  14
ENDBRANCH  12  13
ENDBRANCH  11  12
ENDBRANCH  10  11
ENDBRANCH   1  10
TORSDOF 12
ENDMDL
MODEL 2
REMARK VINA RESULT:    -2.435      3.802      8.286
REMARK INTER + INTRA:          -4.675
REMARK INTER:                  -4.201
REMARK INTRA:                  -0.473
REMARK UNBOUND:                -0.531
REMARK SMILES CCCCCCCCCCCCCC(=O)[O-]
REMARK SMILES IDX 8 1 9 2 10 3 11 4 12 5 13 6 14 7 15 8 16 9 7 10 6 11 5 12
REMARK SMILES IDX 4 13 3 14 2 15 1 16
REMARK H PARENT
REMARK Flexibility Score: inf
ROOT
ATOM      1  C   UNL     1      22.894   0.401  -2.895  1.00  0.00     0.000 C 
ENDROOT
BRANCH   1   2
ATOM      2  C   UNL     1      23.466  -0.907  -2.321  1.00  0.00     0.000 C 
BRANCH   2   3
ATOM      3  C   UNL     1      24.413  -1.629  -3.298  1.00  0.00     0.000 C 
BRANCH   3   4
ATOM      4  C   UNL     1      25.504  -2.491  -2.637  1.00  0.00     0.000 C 
BRANCH   4   5
ATOM      5  C   UNL     1      26.075  -3.563  -3.576  1.00  0.00     0.006 C 
BRANCH   5   6
ATOM      6  C   UNL     1      26.198  -4.911  -2.859  1.00  0.00     0.053 C 
BRANCH   6   7
ATOM      7  C   UNL     1      27.609  -5.143  -2.420  1.00  0.00     0.041 C 
ATOM      8  O   UNL     1      28.466  -5.568  -3.239  1.00  0.00    -0.550 OA
ATOM      9  O   UNL     1      27.968  -4.936  -1.094  1.00  0.00    -0.550 OA
ENDBRANCH   6   7
ENDBRANCH   5   6
ENDBRANCH   4   5
ENDBRANCH   3   4
ENDBRANCH   2   3
ENDBRANCH   1   2
BRANCH   1  10
ATOM     10  C   UNL     1      23.922   1.546  -2.911  1.00  0.00     0.000 C 
BRANCH  10  11
ATOM     11  C   UNL     1      23.326   2.965  -2.804  1.00  0.00    -0.000 C 
BRANCH  11  12
ATOM     12  C   UNL     1      24.328   4.070  -2.412  1.00  0.00    -0.000 C 
BRANCH  12  13
ATOM     13  C   UNL     1      25.553   3.583  -1.617  1.00  0.00    -0.000 C 
BRANCH  13  14
ATOM     14  C   UNL     1      26.308   4.728  -0.925  1.00  0.00    -0.000 C 
BRANCH  14  15
ATOM     15  C   UNL     1      26.079   6.056  -1.655  1.00  0.00    -0.003 C 
ATOM     16  C   UNL     1      27.001   7.146  -1.117  1.00  0.00     0.004 C 
ENDBRANCH  14  15
ENDBRANCH  13  14
ENDBRANCH  12  13
ENDBRANCH  11  12
ENDBRANCH  10  11
ENDBRANCH   1  10
TORSDOF 12
ENDMDL
MODEL 3
REMARK VINA RESULT:    -2.301      3.629      8.374
REMARK INTER + INTRA:          -4.447
REMARK INTER:                  -4.006
REMARK INTRA:                  -0.441
REMARK UNBOUND:                -0.531
REMARK SMILES CCCCCCCCCCCCCC(=O)[O-]
REMARK SMILES IDX 8 1 9 2 10 3 11 4 12 5 13 6 14 7 15 8 16 9 7 10 6 11 5 12
REMARK SMILES IDX 4 13 3 14 2 15 1 16
REMARK H PARENT
REMARK Flexibility Score: inf
ROOT
ATOM      1  C   UNL     1      24.080   1.533  -2.775  1.00  0.00     0.000 C 
ENDROOT
BRANCH   1   2
ATOM      2  C   UNL     1      22.951   0.492  -2.870  1.00  0.00     0.000 C 
BRANCH   2   3
ATOM      3  C   UNL     1      23.397  -0.918  -2.439  1.00  0.00     0.000 C 
BRANCH   3   4
ATOM      4  C   UNL     1      24.439  -1.584  -3.357  1.00  0.00     0.000 C 
BRANCH   4   5
ATOM      5  C   UNL     1      25.564  -2.284  -2.579  1.00  0.00     0.006 C 
BRANCH   5   6
ATOM      6  C   UNL     1      25.842  -3.677  -3.153  1.00  0.00     0.053 C 
BRANCH   6   7
ATOM      7  C   UNL     1      27.054  -4.274  -2.511  1.00  0.00     0.041 C 
ATOM      8  O   UNL     1      27.990  -4.726  -3.222  1.00  0.00    -0.550 OA
ATOM      9  O   UNL     1      27.129  -4.378  -1.128  1.00  0.00    -0.550 OA
ENDBRANCH   6   7
ENDBRANCH   5   6
ENDBRANCH   4   5
ENDBRANCH   3   4
ENDBRANCH   2   3
ENDBRANCH   1   2
BRANCH   1  10
ATOM     10  C   UNL     1      23.557   2.980  -2.732  1.00  0.00     0.000 C 
BRANCH  10  11
ATOM     11  C   UNL     1      24.623   4.055  -2.436  1.00  0.00    -0.000 C 
BRANCH  11  12
ATOM     12  C   UNL     1      25.757   3.613  -1.491  1.00  0.00    -0.000 C 
BRANCH  12  13
ATOM     13  C   UNL     1      26.548   4.764  -0.843  1.00  0.00    -0.000 C 
BRANCH  13  14
ATOM     14  C   UNL     1      26.182   6.139  -1.422  1.00  0.00    -0.000 C 
BRANCH  14  15
ATOM     15  C   UNL     1      27.230   7.191  -1.042  1.00  0.00    -0.003 C 
ATOM     16  C   UNL     1      27.187   8.382  -1.994  1.00  0.00     0.004 C 
ENDBRANCH  14  15
ENDBRANCH  13  14
ENDBRANCH  12  13
ENDBRANCH  11  12
ENDBRANCH  10  11
ENDBRANCH   1  10
TORSDOF 12
ENDMDL
MODEL 4
REMARK VINA RESULT:    -2.207      1.822      3.765
REMARK INTER + INTRA:          -4.286
REMARK INTER:                  -3.942
REMARK INTRA:                  -0.345
REMARK UNBOUND:                -0.531
REMARK SMILES CCCCCCCCCCCCCC(=O)[O-]
REMARK SMILES IDX 8 1 9 2 10 3 11 4 12 5 13 6 14 7 15 8 16 9 7 10 6 11 5 12
REMARK SMILES IDX 4 13 3 14 2 15 1 16
REMARK H PARENT
REMARK Flexibility Score: inf
ROOT
ATOM      1  C   UNL     1      23.817   2.722  -2.593  1.00  0.00     0.000 C 
ENDROOT
BRANCH   1   2
ATOM      2  C   UNL     1      25.159   3.380  -2.226  1.00  0.00     0.000 C 
BRANCH   2   3
ATOM      3  C   UNL     1      25.041   4.898  -1.996  1.00  0.00     0.000 C 
BRANCH   3   4
ATOM      4  C   UNL     1      26.149   5.516  -1.123  1.00  0.00     0.000 C 
BRANCH   4   5
ATOM      5  C   UNL     1      26.504   6.954  -1.531  1.00  0.00     0.006 C 
BRANCH   5   6
ATOM      6  C   UNL     1      27.912   7.327  -1.058  1.00  0.00     0.053 C 
BRANCH   6   7
ATOM      7  C   UNL     1      27.928   8.717  -0.506  1.00  0.00     0.041 C 
ATOM      8  O   UNL     1      26.866   9.241  -0.077  1.00  0.00    -0.550 OA
ATOM      9  O   UNL     1      29.106   9.454  -0.510  1.00  0.00    -0.550 OA
ENDBRANCH   6   7
ENDBRANCH   5   6
ENDBRANCH   4   5
ENDBRANCH   3   4
ENDBRANCH   2   3
ENDBRANCH   1   2
BRANCH   1  10
ATOM     10  C   UNL     1      23.971   1.257  -3.037  1.00  0.00     0.000 C 
BRANCH  10  11
ATOM     11  C   UNL     1      22.877   0.297  -2.525  1.00  0.00    -0.000 C 
BRANCH  11  12
ATOM     12  C   UNL     1      23.284  -1.189  -2.461  1.00  0.00    -0.000 C 
BRANCH  12  13
ATOM     13  C   UNL     1      24.511  -1.562  -3.313  1.00  0.00    -0.000 C 
BRANCH  13  14
ATOM     14  C   UNL     1      25.539  -2.404  -2.543  1.00  0.00    -0.000 C 
BRANCH  14  15
ATOM     15  C   UNL     1      25.960  -3.634  -3.355  1.00  0.00    -0.003 C 
ATOM     16  C   UNL     1      26.427  -4.763  -2.442  1.00  0.00     0.004 C 
ENDBRANCH  14  15
ENDBRANCH  13  14
ENDBRANCH  12  13
ENDBRANCH  11  12
ENDBRANCH  10  11
ENDBRANCH   1  10
TORSDOF 12
ENDMDL
MODEL 5
REMARK VINA RESULT:    -1.889      2.354      4.829
REMARK INTER + INTRA:          -3.745
REMARK INTER:                  -3.313
REMARK INTRA:                  -0.432
REMARK UNBOUND:                -0.531
REMARK SMILES CCCCCCCCCCCCCC(=O)[O-]
REMARK SMILES IDX 8 1 9 2 10 3 11 4 12 5 13 6 14 7 15 8 16 9 7 10 6 11 5 12
REMARK SMILES IDX 4 13 3 14 2 15 1 16
REMARK H PARENT
REMARK Flexibility Score: inf
ROOT
ATOM      1  C   UNL     1      24.554   4.358  -2.389  1.00  0.00     0.000 C 
ENDROOT
BRANCH   1   2
ATOM      2  C   UNL     1      25.715   3.885  -1.496  1.00  0.00     0.000 C 
BRANCH   2   3
ATOM      3  C   UNL     1      26.590   5.044  -0.984  1.00  0.00     0.000 C 
BRANCH   3   4
ATOM      4  C   UNL     1      26.219   6.436  -1.530  1.00  0.00     0.000 C 
BRANCH   4   5
ATOM      5  C   UNL     1      27.128   7.553  -0.996  1.00  0.00     0.006 C 
BRANCH   5   6
ATOM      6  C   UNL     1      27.670   8.413  -2.141  1.00  0.00     0.053 C 
BRANCH   6   7
ATOM      7  C   UNL     1      28.237   9.692  -1.613  1.00  0.00     0.041 C 
ATOM      8  O   UNL     1      28.246  10.726  -2.331  1.00  0.00    -0.550 OA
ATOM      9  O   UNL     1      28.801   9.731  -0.343  1.00  0.00    -0.550 OA
ENDBRANCH   6   7
ENDBRANCH   5   6
ENDBRANCH   4   5
ENDBRANCH   3   4
ENDBRANCH   2   3
ENDBRANCH   1   2
BRANCH   1  10
ATOM     10  C   UNL     1      23.544   3.239  -2.698  1.00  0.00     0.000 C 
BRANCH  10  11
ATOM     11  C   UNL     1      24.123   1.809  -2.684  1.00  0.00    -0.000 C 
BRANCH  11  12
ATOM     12  C   UNL     1      23.124   0.693  -3.050  1.00  0.00    -0.000 C 
BRANCH  12  13
ATOM     13  C   UNL     1      23.444  -0.687  -2.448  1.00  0.00    -0.000 C 
BRANCH  13  14
ATOM     14  C   UNL     1      24.319  -1.551  -3.367  1.00  0.00    -0.000 C 
BRANCH  14  15
ATOM     15  C   UNL     1      25.525  -2.114  -2.607  1.00  0.00    -0.003 C 
ATOM     16  C   UNL     1      25.880  -3.515  -3.095  1.00  0.00     0.004 C 
ENDBRANCH  14  15
ENDBRANCH  13  14
ENDBRANCH  12  13
ENDBRANCH  11  12
ENDBRANCH  10  11
ENDBRANCH   1  10
TORSDOF 12
ENDMDL
MODEL 6
REMARK VINA RESULT:    -1.879      3.424      6.408
REMARK INTER + INTRA:          -3.727
REMARK INTER:                  -3.218
REMARK INTRA:                  -0.509
REMARK UNBOUND:                -0.531
REMARK SMILES CCCCCCCCCCCCCC(=O)[O-]
REMARK SMILES IDX 8 1 9 2 10 3 11 4 12 5 13 6 14 7 15 8 16 9 7 10 6 11 5 12
REMARK SMILES IDX 4 13 3 14 2 15 1 16
REMARK H PARENT
REMARK Flexibility Score: inf
ROOT
ATOM      1  C   UNL     1      25.919   4.353  -1.282  1.00  0.00     0.000 C 
ENDROOT
BRANCH   1   2
ATOM      2  C   UNL     1      26.910   5.446  -0.844  1.00  0.00     0.000 C 
BRANCH   2   3
ATOM      3  C   UNL     1      26.477   6.859  -1.279  1.00  0.00     0.000 C 
BRANCH   3   4
ATOM      4  C   UNL     1      27.458   7.987  -0.912  1.00  0.00     0.000 C 
BRANCH   4   5
ATOM      5  C   UNL     1      28.453   8.308  -2.037  1.00  0.00     0.006 C 
BRANCH   5   6
ATOM      6  C   UNL     1      27.817   9.226  -3.085  1.00  0.00     0.053 C 
BRANCH   6   7
ATOM      7  C   UNL     1      28.251  10.642  -2.872  1.00  0.00     0.041 C 
ATOM      8  O   UNL     1      28.817  10.977  -1.798  1.00  0.00    -0.550 OA
ATOM      9  O   UNL     1      27.987  11.603  -3.840  1.00  0.00    -0.550 OA
ENDBRANCH   6   7
ENDBRANCH   5   6
ENDBRANCH   4   5
ENDBRANCH   3   4
ENDBRANCH   2   3
ENDBRANCH   1   2
BRANCH   1  10
ATOM     10  C   UNL     1      24.853   4.871  -2.263  1.00  0.00     0.000 C 
BRANCH  10  11
ATOM     11  C   UNL     1      23.857   3.809  -2.771  1.00  0.00    -0.000 C 
BRANCH  11  12
ATOM     12  C   UNL     1      24.085   2.383  -2.232  1.00  0.00    -0.000 C 
BRANCH  12  13
ATOM     13  C   UNL     1      23.571   1.254  -3.143  1.00  0.00    -0.000 C 
BRANCH  13  14
ATOM     14  C   UNL     1      22.498   0.385  -2.470  1.00  0.00    -0.000 C 
BRANCH  14  15
ATOM     15  C   UNL     1      23.025  -1.030  -2.208  1.00  0.00    -0.003 C 
ATOM     16  C   UNL     1      24.217  -1.350  -3.103  1.00  0.00     0.004 C 
ENDBRANCH  14  15
ENDBRANCH  13  14
ENDBRANCH  12  13
ENDBRANCH  11  12
ENDBRANCH  10  11
ENDBRANCH   1  10
TORSDOF 12
ENDMDL
MODEL 7
REMARK VINA RESULT:    -1.809      4.237      9.846
REMARK INTER + INTRA:          -3.608
REMARK INTER:                  -3.167
REMARK INTRA:                  -0.442
REMARK UNBOUND:                -0.531
REMARK SMILES CCCCCCCCCCCCCC(=O)[O-]
REMARK SMILES IDX 8 1 9 2 10 3 11 4 12 5 13 6 14 7 15 8 16 9 7 10 6 11 5 12
REMARK SMILES IDX 4 13 3 14 2 15 1 16
REMARK H PARENT
REMARK Flexibility Score: inf
ROOT
ATOM      1  C   UNL     1      26.115   4.968  -0.875  1.00  0.00     0.000 C 
ENDROOT
BRANCH   1   2
ATOM      2  C   UNL     1      25.645   3.834  -1.803  1.00  0.00     0.000 C 
BRANCH   2   3
ATOM      3  C   UNL     1      24.374   4.194  -2.596  1.00  0.00     0.000 C 
BRANCH   3   4
ATOM      4  C   UNL     1      23.318   3.077  -2.682  1.00  0.00     0.000 C 
BRANCH   4   5
ATOM      5  C   UNL     1      23.933   1.669  -2.705  1.00  0.00     0.006 C 
BRANCH   5   6
ATOM      6  C   UNL     1      22.871   0.614  -3.030  1.00  0.00     0.053 C 
BRANCH   6   7
ATOM      7  C   UNL     1      23.310  -0.734  -2.551  1.00  0.00     0.041 C 
ATOM      8  O   UNL     1      22.780  -1.249  -1.531  1.00  0.00    -0.550 OA
ATOM      9  O   UNL     1      24.340  -1.402  -3.203  1.00  0.00    -0.550 OA
ENDBRANCH   6   7
ENDBRANCH   5   6
ENDBRANCH   4   5
ENDBRANCH   3   4
ENDBRANCH   2   3
ENDBRANCH   1   2
BRANCH   1  10
ATOM     10  C   UNL     1      26.268   6.314  -1.606  1.00  0.00     0.000 C 
BRANCH  10  11
ATOM     11  C   UNL     1      26.940   7.434  -0.785  1.00  0.00    -0.000 C 
BRANCH  11  12
ATOM     12  C   UNL     1      28.440   7.648  -1.071  1.00  0.00    -0.000 C 
BRANCH  12  13
ATOM     13  C   UNL     1      28.748   8.498  -2.317  1.00  0.00    -0.000 C 
BRANCH  13  14
ATOM     14  C   UNL     1      28.047   9.864  -2.295  1.00  0.00    -0.000 C 
BRANCH  14  15
ATOM     15  C   UNL     1      29.033  10.993  -2.617  1.00  0.00    -0.003 C 
ATOM     16  C   UNL     1      28.481  11.915  -3.700  1.00  0.00     0.004 C 
ENDBRANCH  14  15
ENDBRANCH  13  14
ENDBRANCH  12  13
ENDBRANCH  11  12
ENDBRANCH  10  11
ENDBRANCH   1  10
TORSDOF 12
ENDMDL
MODEL 8
REMARK VINA RESULT:    -1.596      5.737     10.945
REMARK INTER + INTRA:          -3.247
REMARK INTER:                  -2.666
REMARK INTRA:                  -0.581
REMARK UNBOUND:                -0.531
REMARK SMILES CCCCCCCCCCCCCC(=O)[O-]
REMARK SMILES IDX 8 1 9 2 10 3 11 4 12 5 13 6 14 7 15 8 16 9 7 10 6 11 5 12
REMARK SMILES IDX 4 13 3 14 2 15 1 16
REMARK H PARENT
REMARK Flexibility Score: inf
ROOT
ATOM      1  C   UNL     1      27.934   7.621  -0.775  1.00  0.00     0.000 C 
ENDROOT
BRANCH   1   2
ATOM      2  C   UNL     1      29.036   6.621  -0.384  1.00  0.00     0.000 C 
BRANCH   2   3
ATOM      3  C   UNL     1      28.477   5.307   0.195  1.00  0.00     0.000 C 
BRANCH   3   4
ATOM      4  C   UNL     1      28.627   4.075  -0.715  1.00  0.00     0.000 C 
BRANCH   4   5
ATOM      5  C   UNL     1      27.279   3.478  -1.146  1.00  0.00     0.006 C 
BRANCH   5   6
ATOM      6  C   UNL     1      26.143   4.484  -0.936  1.00  0.00     0.053 C 
BRANCH   6   7
ATOM      7  C   UNL     1      25.101   4.327  -1.997  1.00  0.00     0.041 C 
ATOM      8  O   UNL     1      24.578   3.201  -2.210  1.00  0.00    -0.550 OA
ATOM      9  O   UNL     1      24.742   5.413  -2.787  1.00  0.00    -0.550 OA
ENDBRANCH   6   7
ENDBRANCH   5   6
ENDBRANCH   4   5
ENDBRANCH   3   4
ENDBRANCH   2   3
ENDBRANCH   1   2
BRANCH   1  10
ATOM     10  C   UNL     1      28.302   9.077  -0.441  1.00  0.00     0.000 C 
BRANCH  10  11
ATOM     11  C   UNL     1      29.061   9.834  -1.551  1.00  0.00    -0.000 C 
BRANCH  11  12
ATOM     12  C   UNL     1      29.122   9.114  -2.913  1.00  0.00    -0.000 C 
BRANCH  12  13
ATOM     13  C   UNL     1      28.194   9.695  -3.995  1.00  0.00    -0.000 C 
BRANCH  13  14
ATOM     14  C   UNL     1      27.867  11.178  -3.767  1.00  0.00    -0.000 C 
BRANCH  14  15
ATOM     15  C   UNL     1      29.080  12.062  -4.079  1.00  0.00    -0.003 C 
ATOM     16  C   UNL     1      28.717  13.542  -4.007  1.00  0.00     0.004 C 
ENDBRANCH  14  15
ENDBRANCH  13  14
ENDBRANCH  12  13
ENDBRANCH  11  12
ENDBRANCH  10  11
ENDBRANCH   1  10
TORSDOF 12
ENDMDL
MODEL 9
REMARK VINA RESULT:    -0.967      5.749     10.506
REMARK INTER + INTRA:          -2.176
REMARK INTER:                  -1.185
REMARK INTRA:                  -0.991
REMARK UNBOUND:                -0.531
REMARK SMILES CCCCCCCCCCCCCC(=O)[O-]
REMARK SMILES IDX 8 1 9 2 10 3 11 4 12 5 13 6 14 7 15 8 16 9 7 10 6 11 5 12
REMARK SMILES IDX 4 13 3 14 2 15 1 16
REMARK H PARENT
REMARK Flexibility Score: inf
ROOT
ATOM      1  C   UNL     1      28.628   7.655  -0.295  1.00  0.00     0.000 C 
ENDROOT
BRANCH   1   2
ATOM      2  C   UNL     1      27.149   7.523  -0.697  1.00  0.00     0.000 C 
BRANCH   2   3
ATOM      3  C   UNL     1      26.878   6.303  -1.598  1.00  0.00     0.000 C 
BRANCH   3   4
ATOM      4  C   UNL     1      27.218   4.938  -0.971  1.00  0.00     0.000 C 
BRANCH   4   5
ATOM      5  C   UNL     1      26.386   3.785  -1.554  1.00  0.00     0.006 C 
BRANCH   5   6
ATOM      6  C   UNL     1      24.898   3.969  -1.240  1.00  0.00     0.053 C 
BRANCH   6   7
ATOM      7  C   UNL     1      24.070   3.696  -2.455  1.00  0.00     0.041 C 
ATOM      8  O   UNL     1      23.859   2.511  -2.825  1.00  0.00    -0.550 OA
ATOM      9  O   UNL     1      23.569   4.752  -3.207  1.00  0.00    -0.550 OA
ENDBRANCH   6   7
ENDBRANCH   5   6
ENDBRANCH   4   5
ENDBRANCH   3   4
ENDBRANCH   2   3
ENDBRANCH   1   2
BRANCH   1  10
ATOM     10  C   UNL     1      28.912   8.923   0.529  1.00  0.00     0.000 C 
BRANCH  10  11
ATOM     11  C   UNL     1      29.093  10.215  -0.293  1.00  0.00    -0.000 C 
BRANCH  11  12
ATOM     12  C   UNL     1      29.125  10.021  -1.822  1.00  0.00    -0.000 C 
BRANCH  12  13
ATOM     13  C   UNL     1      28.497  11.167  -2.635  1.00  0.00    -0.000 C 
BRANCH  13  14
ATOM     14  C   UNL     1      28.038  10.726  -4.033  1.00  0.00    -0.000 C 
BRANCH  14  15
ATOM     15  C   UNL     1      27.590   9.260  -4.026  1.00  0.00    -0.003 C 
ATOM     16  C   UNL     1      26.070   9.148  -4.100  1.00  0.00     0.004 C 
ENDBRANCH  14  15
ENDBRANCH  13  14
ENDBRANCH  12  13
ENDBRANCH  11  12
ENDBRANCH  10  11
ENDBRANCH   1  10
TORSDOF 12
ENDMDL
