MODEL 1
REMARK VINA RESULT:    20.764      0.000      0.000
REMARK INTER + INTRA:          38.412
REMARK INTER:                  38.971
REMARK INTRA:                  -0.560
REMARK UNBOUND:                -0.560
REMARK SMILES CCCCCCCCC=CCCCCCCCC(=O)[O-]
REMARK SMILES IDX 10 1 9 2 11 3 12 4 13 5 14 6 15 7 16 8 17 9 18 10 19 11
REMARK SMILES IDX 20 12 8 13 7 14 6 15 5 16 4 17 3 18 2 19 1 20
REMARK H PARENT
REMARK Flexibility Score: inf
ROOT
ATOM      1  C   UNL     1     -36.389  22.447  -9.769  1.00  0.00    -0.031 C 
ATOM      2  C   UNL     1     -37.138  22.936 -10.770  1.00  0.00    -0.031 C 
ENDROOT
BRANCH   1   3
ATOM      3  C   UNL     1     -36.241  23.182  -8.465  1.00  0.00     0.027 C 
BRANCH   3   4
ATOM      4  C   UNL     1     -37.242  22.638  -7.435  1.00  0.00     0.004 C 
BRANCH   4   5
ATOM      5  C   UNL     1     -37.131  23.348  -6.077  1.00  0.00     0.000 C 
BRANCH   5   6
ATOM      6  C   UNL     1     -36.936  24.868  -6.219  1.00  0.00     0.000 C 
BRANCH   6   7
ATOM      7  C   UNL     1     -36.630  25.555  -4.876  1.00  0.00     0.000 C 
BRANCH   7   8
ATOM      8  C   UNL     1     -36.779  27.091  -4.882  1.00  0.00     0.006 C 
BRANCH   8   9
ATOM      9  C   UNL     1     -37.890  27.616  -5.805  1.00  0.00     0.053 C 
BRANCH   9  10
ATOM     10  C   UNL     1     -38.260  29.031  -5.480  1.00  0.00     0.041 C 
ATOM     11  O   UNL     1     -37.367  29.883  -5.231  1.00  0.00    -0.550 OA
ATOM     12  O   UNL     1     -39.595  29.417  -5.481  1.00  0.00    -0.550 OA
ENDBRANCH   9  10
ENDBRANCH   8   9
ENDBRANCH   7   8
ENDBRANCH   6   7
ENDBRANCH   5   6
ENDBRANCH   4   5
ENDBRANCH   3   4
ENDBRANCH   1   3
BRANCH   2  13
ATOM     13  C   UNL     1     -37.232  22.232 -12.096  1.00  0.00     0.027 C 
BRANCH  13  14
ATOM     14  C   UNL     1     -38.519  22.622 -12.831  1.00  0.00     0.004 C 
BRANCH  14  15
ATOM     15  C   UNL     1     -38.449  24.073 -13.335  1.00  0.00     0.000 C 
BRANCH  15  16
ATOM     16  C   UNL     1     -39.760  24.844 -13.101  1.00  0.00     0.000 C 
BRANCH  16  17
ATOM     17  C   UNL     1     -40.750  24.066 -12.218  1.00  0.00    -0.000 C 
BRANCH  17  18
ATOM     18  C   UNL     1     -42.198  24.134 -12.737  1.00  0.00    -0.000 C 
BRANCH  18  19
ATOM     19  C   UNL     1     -42.392  23.636 -14.181  1.00  0.00    -0.003 C 
ATOM     20  C   UNL     1     -41.955  24.658 -15.229  1.00  0.00     0.004 C 
ENDBRANCH  18  19
ENDBRANCH  17  18
ENDBRANCH  16  17
ENDBRANCH  15  16
ENDBRANCH  14  15
ENDBRANCH  13  14
ENDBRANCH   2  13
TORSDOF 15
ENDMDL
MODEL 2
REMARK VINA RESULT:    20.787      6.887     11.234
REMARK INTER + INTRA:          38.455
REMARK INTER:                  39.403
REMARK INTRA:                  -0.948
REMARK UNBOUND:                -0.560
REMARK SMILES CCCCCCCCC=CCCCCCCCC(=O)[O-]
REMARK SMILES IDX 10 1 9 2 11 3 12 4 13 5 14 6 15 7 16 8 17 9 18 10 19 11
REMARK SMILES IDX 20 12 8 13 7 14 6 15 5 16 4 17 3 18 2 19 1 20
REMARK H PARENT
REMARK Flexibility Score: inf
ROOT
ATOM      1  C   UNL     1     -39.588  22.825 -18.288  1.00  0.00    -0.031 C 
ATOM      2  C   UNL     1     -40.790  22.267 -18.071  1.00  0.00    -0.031 C 
ENDROOT
BRANCH   1   3
ATOM      3  C   UNL     1     -38.427  22.020 -18.805  1.00  0.00     0.027 C 
BRANCH   3   4
ATOM      4  C   UNL     1     -37.750  22.758 -19.969  1.00  0.00     0.004 C 
BRANCH   4   5
ATOM      5  C   UNL     1     -37.899  24.284 -19.863  1.00  0.00     0.000 C 
BRANCH   5   6
ATOM      6  C   UNL     1     -38.072  24.956 -21.237  1.00  0.00     0.000 C 
BRANCH   6   7
ATOM      7  C   UNL     1     -37.361  26.319 -21.325  1.00  0.00     0.000 C 
BRANCH   7   8
ATOM      8  C   UNL     1     -38.169  27.431 -22.025  1.00  0.00     0.006 C 
BRANCH   8   9
ATOM      9  C   UNL     1     -38.048  28.814 -21.366  1.00  0.00     0.053 C 
BRANCH   9  10
ATOM     10  C   UNL     1     -39.390  29.401 -21.053  1.00  0.00     0.041 C 
ATOM     11  O   UNL     1     -40.376  29.170 -21.801  1.00  0.00    -0.550 OA
ATOM     12  O   UNL     1     -39.558  30.183 -19.917  1.00  0.00    -0.550 OA
ENDBRANCH   9  10
ENDBRANCH   8   9
ENDBRANCH   7   8
ENDBRANCH   6   7
ENDBRANCH   5   6
ENDBRANCH   4   5
ENDBRANCH   3   4
ENDBRANCH   1   3
BRANCH   2  13
ATOM     13  C   UNL     1     -41.929  23.059 -17.492  1.00  0.00     0.027 C 
BRANCH  13  14
ATOM     14  C   UNL     1     -41.499  23.777 -16.208  1.00  0.00     0.004 C 
BRANCH  14  15
ATOM     15  C   UNL     1     -42.652  23.836 -15.195  1.00  0.00     0.000 C 
BRANCH  15  16
ATOM     16  C   UNL     1     -42.295  23.174 -13.852  1.00  0.00     0.000 C 
BRANCH  16  17
ATOM     17  C   UNL     1     -42.194  24.192 -12.704  1.00  0.00    -0.000 C 
BRANCH  17  18
ATOM     18  C   UNL     1     -40.769  24.311 -12.133  1.00  0.00    -0.000 C 
BRANCH  18  19
ATOM     19  C   UNL     1     -39.676  24.604 -13.176  1.00  0.00    -0.003 C 
ATOM     20  C   UNL     1     -38.410  23.776 -12.963  1.00  0.00     0.004 C 
ENDBRANCH  18  19
ENDBRANCH  17  18
ENDBRANCH  16  17
ENDBRANCH  15  16
ENDBRANCH  14  15
ENDBRANCH  13  14
ENDBRANCH   2  13
TORSDOF 15
ENDMDL
MODEL 3
REMARK VINA RESULT:    20.860      1.295      1.952
REMARK INTER + INTRA:          38.592
REMARK INTER:                  39.518
REMARK INTRA:                  -0.926
REMARK UNBOUND:                -0.560
REMARK SMILES CCCCCCCCC=CCCCCCCCC(=O)[O-]
REMARK SMILES IDX 10 1 9 2 11 3 12 4 13 5 14 6 15 7 16 8 17 9 18 10 19 11
REMARK SMILES IDX 20 12 8 13 7 14 6 15 5 16 4 17 3 18 2 19 1 20
REMARK H PARENT
REMARK Flexibility Score: inf
ROOT
ATOM      1  C   UNL     1     -36.516  22.858  -8.121  1.00  0.00    -0.031 C 
ATOM      2  C   UNL     1     -37.273  22.721  -9.222  1.00  0.00    -0.031 C 
ENDROOT
BRANCH   1   3
ATOM      3  C   UNL     1     -36.978  22.356  -6.780  1.00  0.00     0.027 C 
BRANCH   3   4
ATOM      4  C   UNL     1     -37.955  23.358  -6.149  1.00  0.00     0.004 C 
BRANCH   4   5
ATOM      5  C   UNL     1     -37.325  24.142  -4.987  1.00  0.00     0.000 C 
BRANCH   5   6
ATOM      6  C   UNL     1     -37.701  25.634  -5.008  1.00  0.00     0.000 C 
BRANCH   6   7
ATOM      7  C   UNL     1     -36.584  26.519  -5.591  1.00  0.00     0.000 C 
BRANCH   7   8
ATOM      8  C   UNL     1     -36.949  28.010  -5.745  1.00  0.00     0.006 C 
BRANCH   8   9
ATOM      9  C   UNL     1     -38.131  28.467  -4.875  1.00  0.00     0.053 C 
BRANCH   9  10
ATOM     10  C   UNL     1     -39.331  28.811  -5.703  1.00  0.00     0.041 C 
ATOM     11  O   UNL     1     -40.181  29.638  -5.279  1.00  0.00    -0.550 OA
ATOM     12  O   UNL     1     -39.497  28.237  -6.957  1.00  0.00    -0.550 OA
ENDBRANCH   9  10
ENDBRANCH   8   9
ENDBRANCH   7   8
ENDBRANCH   6   7
ENDBRANCH   5   6
ENDBRANCH   4   5
ENDBRANCH   3   4
ENDBRANCH   1   3
BRANCH   2  13
ATOM     13  C   UNL     1     -36.838  23.282 -10.547  1.00  0.00     0.027 C 
BRANCH  13  14
ATOM     14  C   UNL     1     -37.841  22.920 -11.649  1.00  0.00     0.004 C 
BRANCH  14  15
ATOM     15  C   UNL     1     -38.201  24.151 -12.495  1.00  0.00     0.000 C 
BRANCH  15  16
ATOM     16  C   UNL     1     -39.605  24.696 -12.181  1.00  0.00     0.000 C 
BRANCH  16  17
ATOM     17  C   UNL     1     -40.722  23.754 -12.664  1.00  0.00    -0.000 C 
BRANCH  17  18
ATOM     18  C   UNL     1     -42.129  24.354 -12.487  1.00  0.00    -0.000 C 
BRANCH  18  19
ATOM     19  C   UNL     1     -42.854  23.934 -11.196  1.00  0.00    -0.003 C 
ATOM     20  C   UNL     1     -43.529  25.104 -10.481  1.00  0.00     0.004 C 
ENDBRANCH  18  19
ENDBRANCH  17  18
ENDBRANCH  16  17
ENDBRANCH  15  16
ENDBRANCH  14  15
ENDBRANCH  13  14
ENDBRANCH   2  13
TORSDOF 15
ENDMDL
MODEL 4
REMARK VINA RESULT:    20.925      8.260     12.550
REMARK INTER + INTRA:          38.714
REMARK INTER:                  39.373
REMARK INTRA:                  -0.659
REMARK UNBOUND:                -0.560
REMARK SMILES CCCCCCCCC=CCCCCCCCC(=O)[O-]
REMARK SMILES IDX 10 1 9 2 11 3 12 4 13 5 14 6 15 7 16 8 17 9 18 10 19 11
REMARK SMILES IDX 20 12 8 13 7 14 6 15 5 16 4 17 3 18 2 19 1 20
REMARK H PARENT
REMARK Flexibility Score: inf
ROOT
ATOM      1  C   UNL     1     -37.921  24.515 -20.772  1.00  0.00    -0.031 C 
ATOM      2  C   UNL     1     -37.559  23.754 -19.726  1.00  0.00    -0.031 C 
ENDROOT
BRANCH   1   3
ATOM      3  C   UNL     1     -37.327  25.878 -20.998  1.00  0.00     0.027 C 
BRANCH   3   4
ATOM      4  C   UNL     1     -38.258  26.719 -21.883  1.00  0.00     0.004 C 
BRANCH   4   5
ATOM      5  C   UNL     1     -37.793  28.179 -22.004  1.00  0.00     0.000 C 
BRANCH   5   6
ATOM      6  C   UNL     1     -38.784  29.168 -21.364  1.00  0.00     0.000 C 
BRANCH   6   7
ATOM      7  C   UNL     1     -40.250  28.843 -21.703  1.00  0.00     0.000 C 
BRANCH   7   8
ATOM      8  C   UNL     1     -41.271  29.916 -21.272  1.00  0.00     0.006 C 
BRANCH   8   9
ATOM      9  C   UNL     1     -41.931  30.667 -22.439  1.00  0.00     0.053 C 
BRANCH   9  10
ATOM     10  C   UNL     1     -43.363  31.000 -22.148  1.00  0.00     0.041 C 
ATOM     11  O   UNL     1     -44.281  30.570 -22.896  1.00  0.00    -0.550 OA
ATOM     12  O   UNL     1     -43.686  31.763 -21.034  1.00  0.00    -0.550 OA
ENDBRANCH   9  10
ENDBRANCH   8   9
ENDBRANCH   7   8
ENDBRANCH   6   7
ENDBRANCH   5   6
ENDBRANCH   4   5
ENDBRANCH   3   4
ENDBRANCH   1   3
BRANCH   2  13
ATOM     13  C   UNL     1     -38.202  22.420 -19.466  1.00  0.00     0.027 C 
BRANCH  13  14
ATOM     14  C   UNL     1     -38.995  22.442 -18.154  1.00  0.00     0.004 C 
BRANCH  14  15
ATOM     15  C   UNL     1     -40.481  22.134 -18.402  1.00  0.00     0.000 C 
BRANCH  15  16
ATOM     16  C   UNL     1     -41.413  23.217 -17.829  1.00  0.00     0.000 C 
BRANCH  16  17
ATOM     17  C   UNL     1     -42.103  22.769 -16.529  1.00  0.00    -0.000 C 
BRANCH  17  18
ATOM     18  C   UNL     1     -42.549  23.953 -15.650  1.00  0.00    -0.000 C 
BRANCH  18  19
ATOM     19  C   UNL     1     -41.607  24.278 -14.477  1.00  0.00    -0.003 C 
ATOM     20  C   UNL     1     -42.194  23.903 -13.117  1.00  0.00     0.004 C 
ENDBRANCH  18  19
ENDBRANCH  17  18
ENDBRANCH  16  17
ENDBRANCH  15  16
ENDBRANCH  14  15
ENDBRANCH  13  14
ENDBRANCH   2  13
TORSDOF 15
ENDMDL
MODEL 5
REMARK VINA RESULT:    21.017      6.031      9.559
REMARK INTER + INTRA:          38.887
REMARK INTER:                  39.629
REMARK INTRA:                  -0.742
REMARK UNBOUND:                -0.560
REMARK SMILES CCCCCCCCC=CCCCCCCCC(=O)[O-]
REMARK SMILES IDX 10 1 9 2 11 3 12 4 13 5 14 6 15 7 16 8 17 9 18 10 19 11
REMARK SMILES IDX 20 12 8 13 7 14 6 15 5 16 4 17 3 18 2 19 1 20
REMARK H PARENT
REMARK Flexibility Score: inf
ROOT
ATOM      1  C   UNL     1     -39.763  22.857 -18.660  1.00  0.00    -0.031 C 
ATOM      2  C   UNL     1     -38.512  22.461 -18.947  1.00  0.00    -0.031 C 
ENDROOT
BRANCH   1   3
ATOM      3  C   UNL     1     -40.743  21.941 -17.980  1.00  0.00     0.027 C 
BRANCH   3   4
ATOM      4  C   UNL     1     -42.001  22.722 -17.573  1.00  0.00     0.004 C 
BRANCH   4   5
ATOM      5  C   UNL     1     -41.748  23.667 -16.388  1.00  0.00     0.000 C 
BRANCH   5   6
ATOM      6  C   UNL     1     -42.616  23.324 -15.164  1.00  0.00     0.000 C 
BRANCH   6   7
ATOM      7  C   UNL     1     -42.459  24.343 -14.021  1.00  0.00     0.000 C 
BRANCH   7   8
ATOM      8  C   UNL     1     -41.872  23.770 -12.715  1.00  0.00     0.006 C 
BRANCH   8   9
ATOM      9  C   UNL     1     -40.689  24.570 -12.147  1.00  0.00     0.053 C 
BRANCH   9  10
ATOM     10  C   UNL     1     -39.430  24.330 -12.923  1.00  0.00     0.041 C 
ATOM     11  O   UNL     1     -38.521  23.598 -12.451  1.00  0.00    -0.550 OA
ATOM     12  O   UNL     1     -39.273  24.894 -14.182  1.00  0.00    -0.550 OA
ENDBRANCH   9  10
ENDBRANCH   8   9
ENDBRANCH   7   8
ENDBRANCH   6   7
ENDBRANCH   5   6
ENDBRANCH   4   5
ENDBRANCH   3   4
ENDBRANCH   1   3
BRANCH   2  13
ATOM     13  C   UNL     1     -37.556  23.356 -19.686  1.00  0.00     0.027 C 
BRANCH  13  14
ATOM     14  C   UNL     1     -38.314  24.402 -20.511  1.00  0.00     0.004 C 
BRANCH  14  15
ATOM     15  C   UNL     1     -37.364  25.497 -21.021  1.00  0.00     0.000 C 
BRANCH  15  16
ATOM     16  C   UNL     1     -38.098  26.597 -21.808  1.00  0.00     0.000 C 
BRANCH  16  17
ATOM     17  C   UNL     1     -37.352  27.942 -21.771  1.00  0.00    -0.000 C 
BRANCH  17  18
ATOM     18  C   UNL     1     -38.214  29.089 -21.212  1.00  0.00    -0.000 C 
BRANCH  18  19
ATOM     19  C   UNL     1     -39.714  28.990 -21.537  1.00  0.00    -0.003 C 
ATOM     20  C   UNL     1     -40.573  29.929 -20.692  1.00  0.00     0.004 C 
ENDBRANCH  18  19
ENDBRANCH  17  18
ENDBRANCH  16  17
ENDBRANCH  15  16
ENDBRANCH  14  15
ENDBRANCH  13  14
ENDBRANCH   2  13
TORSDOF 15
ENDMDL
MODEL 6
REMARK VINA RESULT:    21.186      6.931     10.898
REMARK INTER + INTRA:          39.204
REMARK INTER:                  39.846
REMARK INTRA:                  -0.642
REMARK UNBOUND:                -0.560
REMARK SMILES CCCCCCCCC=CCCCCCCCC(=O)[O-]
REMARK SMILES IDX 10 1 9 2 11 3 12 4 13 5 14 6 15 7 16 8 17 9 18 10 19 11
REMARK SMILES IDX 20 12 8 13 7 14 6 15 5 16 4 17 3 18 2 19 1 20
REMARK H PARENT
REMARK Flexibility Score: inf
ROOT
ATOM      1  C   UNL     1     -37.685  24.397 -20.070  1.00  0.00    -0.031 C 
ATOM      2  C   UNL     1     -37.796  25.086 -21.217  1.00  0.00    -0.031 C 
ENDROOT
BRANCH   1   3
ATOM      3  C   UNL     1     -38.172  22.978 -19.953  1.00  0.00     0.027 C 
BRANCH   3   4
ATOM      4  C   UNL     1     -38.628  22.694 -18.515  1.00  0.00     0.004 C 
BRANCH   4   5
ATOM      5  C   UNL     1     -40.051  22.117 -18.453  1.00  0.00     0.000 C 
BRANCH   5   6
ATOM      6  C   UNL     1     -41.105  23.183 -18.101  1.00  0.00     0.000 C 
BRANCH   6   7
ATOM      7  C   UNL     1     -41.832  22.884 -16.778  1.00  0.00     0.000 C 
BRANCH   7   8
ATOM      8  C   UNL     1     -41.890  24.064 -15.786  1.00  0.00     0.006 C 
BRANCH   8   9
ATOM      9  C   UNL     1     -42.626  23.753 -14.473  1.00  0.00     0.053 C 
BRANCH   9  10
ATOM     10  C   UNL     1     -41.794  24.091 -13.274  1.00  0.00     0.041 C 
ATOM     11  O   UNL     1     -42.320  24.161 -12.132  1.00  0.00    -0.550 OA
ATOM     12  O   UNL     1     -40.428  24.304 -13.415  1.00  0.00    -0.550 OA
ENDBRANCH   9  10
ENDBRANCH   8   9
ENDBRANCH   7   8
ENDBRANCH   6   7
ENDBRANCH   5   6
ENDBRANCH   4   5
ENDBRANCH   3   4
ENDBRANCH   1   3
BRANCH   2  13
ATOM     13  C   UNL     1     -37.368  26.525 -21.312  1.00  0.00     0.027 C 
BRANCH  13  14
ATOM     14  C   UNL     1     -38.450  27.372 -21.990  1.00  0.00     0.004 C 
BRANCH  14  15
ATOM     15  C   UNL     1     -38.273  28.863 -21.659  1.00  0.00     0.000 C 
BRANCH  15  16
ATOM     16  C   UNL     1     -39.508  29.467 -20.968  1.00  0.00     0.000 C 
BRANCH  16  17
ATOM     17  C   UNL     1     -40.817  29.120 -21.698  1.00  0.00    -0.000 C 
BRANCH  17  18
ATOM     18  C   UNL     1     -41.605  30.368 -22.139  1.00  0.00    -0.000 C 
BRANCH  18  19
ATOM     19  C   UNL     1     -43.012  30.495 -21.529  1.00  0.00    -0.003 C 
ATOM     20  C   UNL     1     -43.781  31.709 -22.047  1.00  0.00     0.004 C 
ENDBRANCH  18  19
ENDBRANCH  17  18
ENDBRANCH  16  17
ENDBRANCH  15  16
ENDBRANCH  14  15
ENDBRANCH  13  14
ENDBRANCH   2  13
TORSDOF 15
ENDMDL
MODEL 7
REMARK VINA RESULT:    21.195      9.338     12.790
REMARK INTER + INTRA:          39.221
REMARK INTER:                  39.961
REMARK INTRA:                  -0.740
REMARK UNBOUND:                -0.560
REMARK SMILES CCCCCCCCC=CCCCCCCCC(=O)[O-]
REMARK SMILES IDX 10 1 9 2 11 3 12 4 13 5 14 6 15 7 16 8 17 9 18 10 19 11
REMARK SMILES IDX 20 12 8 13 7 14 6 15 5 16 4 17 3 18 2 19 1 20
REMARK H PARENT
REMARK Flexibility Score: inf
ROOT
ATOM      1  C   UNL     1     -37.796  25.610 -21.217  1.00  0.00    -0.031 C 
ATOM      2  C   UNL     1     -37.436  24.712 -20.286  1.00  0.00    -0.031 C 
ENDROOT
BRANCH   1   3
ATOM      3  C   UNL     1     -37.275  27.021 -21.196  1.00  0.00     0.027 C 
BRANCH   3   4
ATOM      4  C   UNL     1     -38.100  27.903 -22.143  1.00  0.00     0.004 C 
BRANCH   4   5
ATOM      5  C   UNL     1     -38.232  29.348 -21.636  1.00  0.00     0.000 C 
BRANCH   5   6
ATOM      6  C   UNL     1     -39.085  29.450 -20.359  1.00  0.00     0.000 C 
BRANCH   6   7
ATOM      7  C   UNL     1     -40.427  30.165 -20.598  1.00  0.00     0.000 C 
BRANCH   7   8
ATOM      8  C   UNL     1     -41.224  29.664 -21.820  1.00  0.00     0.006 C 
BRANCH   8   9
ATOM      9  C   UNL     1     -41.871  30.780 -22.656  1.00  0.00     0.053 C 
BRANCH   9  10
ATOM     10  C   UNL     1     -43.326  30.941 -22.338  1.00  0.00     0.041 C 
ATOM     11  O   UNL     1     -43.693  31.704 -21.406  1.00  0.00    -0.550 OA
ATOM     12  O   UNL     1     -44.280  30.268 -23.091  1.00  0.00    -0.550 OA
ENDBRANCH   9  10
ENDBRANCH   8   9
ENDBRANCH   7   8
ENDBRANCH   6   7
ENDBRANCH   5   6
ENDBRANCH   4   5
ENDBRANCH   3   4
ENDBRANCH   1   3
BRANCH   2  13
ATOM     13  C   UNL     1     -38.009  23.322 -20.273  1.00  0.00     0.027 C 
BRANCH  13  14
ATOM     14  C   UNL     1     -38.089  22.779 -18.841  1.00  0.00     0.004 C 
BRANCH  14  15
ATOM     15  C   UNL     1     -38.678  21.359 -18.822  1.00  0.00     0.000 C 
BRANCH  15  16
ATOM     16  C   UNL     1     -40.180  21.346 -18.490  1.00  0.00     0.000 C 
BRANCH  16  17
ATOM     17  C   UNL     1     -40.734  22.755 -18.219  1.00  0.00    -0.000 C 
BRANCH  17  18
ATOM     18  C   UNL     1     -41.926  22.753 -17.243  1.00  0.00    -0.000 C 
BRANCH  18  19
ATOM     19  C   UNL     1     -41.890  23.859 -16.174  1.00  0.00    -0.003 C 
ATOM     20  C   UNL     1     -42.646  23.484 -14.900  1.00  0.00     0.004 C 
ENDBRANCH  18  19
ENDBRANCH  17  18
ENDBRANCH  16  17
ENDBRANCH  15  16
ENDBRANCH  14  15
ENDBRANCH  13  14
ENDBRANCH   2  13
TORSDOF 15
ENDMDL
MODEL 8
REMARK VINA RESULT:    21.308      1.381      2.180
REMARK INTER + INTRA:          39.433
REMARK INTER:                  40.178
REMARK INTRA:                  -0.745
REMARK UNBOUND:                -0.560
REMARK SMILES CCCCCCCCC=CCCCCCCCC(=O)[O-]
REMARK SMILES IDX 10 1 9 2 11 3 12 4 13 5 14 6 15 7 16 8 17 9 18 10 19 11
REMARK SMILES IDX 20 12 8 13 7 14 6 15 5 16 4 17 3 18 2 19 1 20
REMARK H PARENT
REMARK Flexibility Score: inf
ROOT
ATOM      1  C   UNL     1     -37.157  23.470 -10.489  1.00  0.00    -0.031 C 
ATOM      2  C   UNL     1     -37.561  23.110 -11.718  1.00  0.00    -0.031 C 
ENDROOT
BRANCH   1   3
ATOM      3  C   UNL     1     -36.319  22.557  -9.636  1.00  0.00     0.027 C 
BRANCH   3   4
ATOM      4  C   UNL     1     -37.076  22.192  -8.351  1.00  0.00     0.004 C 
BRANCH   4   5
ATOM      5  C   UNL     1     -37.066  23.331  -7.319  1.00  0.00     0.000 C 
BRANCH   5   6
ATOM      6  C   UNL     1     -37.436  22.850  -5.905  1.00  0.00     0.000 C 
BRANCH   6   7
ATOM      7  C   UNL     1     -37.504  24.001  -4.885  1.00  0.00     0.000 C 
BRANCH   7   8
ATOM      8  C   UNL     1     -36.737  25.276  -5.291  1.00  0.00     0.006 C 
BRANCH   8   9
ATOM      9  C   UNL     1     -37.497  26.585  -5.023  1.00  0.00     0.053 C 
BRANCH   9  10
ATOM     10  C   UNL     1     -36.975  27.713  -5.860  1.00  0.00     0.041 C 
ATOM     11  O   UNL     1     -36.773  27.551  -7.093  1.00  0.00    -0.550 OA
ATOM     12  O   UNL     1     -36.737  28.953  -5.283  1.00  0.00    -0.550 OA
ENDBRANCH   9  10
ENDBRANCH   8   9
ENDBRANCH   7   8
ENDBRANCH   6   7
ENDBRANCH   5   6
ENDBRANCH   4   5
ENDBRANCH   3   4
ENDBRANCH   1   3
BRANCH   2  13
ATOM     13  C   UNL     1     -38.453  23.997 -12.542  1.00  0.00     0.027 C 
BRANCH  13  14
ATOM     14  C   UNL     1     -39.794  23.311 -12.826  1.00  0.00     0.004 C 
BRANCH  14  15
ATOM     15  C   UNL     1     -40.962  24.116 -12.236  1.00  0.00     0.000 C 
BRANCH  15  16
ATOM     16  C   UNL     1     -42.071  24.393 -13.266  1.00  0.00     0.000 C 
BRANCH  16  17
ATOM     17  C   UNL     1     -42.226  23.249 -14.283  1.00  0.00    -0.000 C 
BRANCH  17  18
ATOM     18  C   UNL     1     -42.592  23.747 -15.694  1.00  0.00    -0.000 C 
BRANCH  18  19
ATOM     19  C   UNL     1     -42.366  22.723 -16.821  1.00  0.00    -0.003 C 
ATOM     20  C   UNL     1     -41.246  23.126 -17.779  1.00  0.00     0.004 C 
ENDBRANCH  18  19
ENDBRANCH  17  18
ENDBRANCH  16  17
ENDBRANCH  15  16
ENDBRANCH  14  15
ENDBRANCH  13  14
ENDBRANCH   2  13
TORSDOF 15
ENDMDL
MODEL 9
REMARK VINA RESULT:    21.593      8.921     11.918
REMARK INTER + INTRA:          39.967
REMARK INTER:                  40.435
REMARK INTRA:                  -0.467
REMARK UNBOUND:                -0.560
REMARK SMILES CCCCCCCCC=CCCCCCCCC(=O)[O-]
REMARK SMILES IDX 10 1 9 2 11 3 12 4 13 5 14 6 15 7 16 8 17 9 18 10 19 11
REMARK SMILES IDX 20 12 8 13 7 14 6 15 5 16 4 17 3 18 2 19 1 20
REMARK H PARENT
REMARK Flexibility Score: inf
ROOT
ATOM      1  C   UNL     1     -37.920  25.768 -21.089  1.00  0.00    -0.031 C 
ATOM      2  C   UNL     1     -37.141  26.847 -21.269  1.00  0.00    -0.031 C 
ENDROOT
BRANCH   1   3
ATOM      3  C   UNL     1     -37.351  24.454 -20.627  1.00  0.00     0.027 C 
BRANCH   3   4
ATOM      4  C   UNL     1     -38.469  23.559 -20.076  1.00  0.00     0.004 C 
BRANCH   4   5
ATOM      5  C   UNL     1     -38.017  22.736 -18.859  1.00  0.00     0.000 C 
BRANCH   5   6
ATOM      6  C   UNL     1     -38.706  21.362 -18.788  1.00  0.00     0.000 C 
BRANCH   6   7
ATOM      7  C   UNL     1     -40.216  21.468 -18.509  1.00  0.00     0.000 C 
BRANCH   7   8
ATOM      8  C   UNL     1     -40.681  22.831 -17.955  1.00  0.00     0.006 C 
BRANCH   8   9
ATOM      9  C   UNL     1     -42.058  22.802 -17.273  1.00  0.00     0.053 C 
BRANCH   9  10
ATOM     10  C   UNL     1     -42.060  23.574 -15.989  1.00  0.00     0.041 C 
ATOM     11  O   UNL     1     -41.283  24.552 -15.832  1.00  0.00    -0.550 OA
ATOM     12  O   UNL     1     -42.941  23.228 -14.972  1.00  0.00    -0.550 OA
ENDBRANCH   9  10
ENDBRANCH   8   9
ENDBRANCH   7   8
ENDBRANCH   6   7
ENDBRANCH   5   6
ENDBRANCH   4   5
ENDBRANCH   3   4
ENDBRANCH   1   3
BRANCH   2  13
ATOM     13  C   UNL     1     -37.702  28.140 -21.793  1.00  0.00     0.027 C 
BRANCH  13  14
ATOM     14  C   UNL     1     -37.745  29.203 -20.689  1.00  0.00     0.004 C 
BRANCH  14  15
ATOM     15  C   UNL     1     -39.131  29.861 -20.609  1.00  0.00     0.000 C 
BRANCH  15  16
ATOM     16  C   UNL     1     -40.057  29.434 -21.762  1.00  0.00     0.000 C 
BRANCH  16  17
ATOM     17  C   UNL     1     -41.540  29.704 -21.454  1.00  0.00    -0.000 C 
BRANCH  17  18
ATOM     18  C   UNL     1     -42.298  30.311 -22.649  1.00  0.00    -0.000 C 
BRANCH  18  19
ATOM     19  C   UNL     1     -43.234  31.480 -22.296  1.00  0.00    -0.003 C 
ATOM     20  C   UNL     1     -43.941  31.296 -20.954  1.00  0.00     0.004 C 
ENDBRANCH  18  19
ENDBRANCH  17  18
ENDBRANCH  16  17
ENDBRANCH  15  16
ENDBRANCH  14  15
ENDBRANCH  13  14
ENDBRANCH   2  13
TORSDOF 15
ENDMDL
