MODEL 1
REMARK VINA RESULT:    -4.457      0.000      0.000
REMARK INTER + INTRA:         -10.890
REMARK INTER:                  -8.105
REMARK INTRA:                  -2.785
REMARK UNBOUND:                -2.785
REMARK SMILES CCCCCCCCCCCCCCCC(=O)[O-]
REMARK SMILES IDX 9 1 10 2 11 3 12 4 13 5 14 6 15 7 16 8 17 9 18 10 8 11 7 12
REMARK SMILES IDX 6 13 5 14 4 15 3 16 2 17 1 18
REMARK H PARENT
REMARK Flexibility Score: inf
ROOT
ATOM      1  C   UNL     1      23.470  14.735   3.373  1.00  0.00     0.000 C 
ENDROOT
BRANCH   1   2
ATOM      2  C   UNL     1      24.967  14.864   3.709  1.00  0.00     0.000 C 
BRANCH   2   3
ATOM      3  C   UNL     1      25.871  14.414   2.550  1.00  0.00     0.000 C 
BRANCH   3   4
ATOM      4  C   UNL     1      25.132  13.519   1.539  1.00  0.00     0.000 C 
BRANCH   4   5
ATOM      5  C   UNL     1      25.256  14.030   0.095  1.00  0.00     0.000 C 
BRANCH   5   6
ATOM      6  C   UNL     1      23.994  13.750  -0.741  1.00  0.00     0.006 C 
BRANCH   6   7
ATOM      7  C   UNL     1      23.041  12.774  -0.039  1.00  0.00     0.053 C 
BRANCH   7   8
ATOM      8  C   UNL     1      22.947  11.468  -0.768  1.00  0.00     0.041 C 
ATOM      9  O   UNL     1      21.823  11.000  -1.089  1.00  0.00    -0.550 OA
ATOM     10  O   UNL     1      24.100  10.756  -1.068  1.00  0.00    -0.550 OA
ENDBRANCH   7   8
ENDBRANCH   6   7
ENDBRANCH   5   6
ENDBRANCH   4   5
ENDBRANCH   3   4
ENDBRANCH   2   3
ENDBRANCH   1   2
BRANCH   1  11
ATOM     11  C   UNL     1      22.826  16.081   3.011  1.00  0.00     0.000 C 
BRANCH  11  12
ATOM     12  C   UNL     1      22.265  16.104   1.578  1.00  0.00    -0.000 C 
BRANCH  12  13
ATOM     13  C   UNL     1      22.941  17.179   0.700  1.00  0.00    -0.000 C 
BRANCH  13  14
ATOM     14  C   UNL     1      24.300  17.658   1.246  1.00  0.00    -0.000 C 
BRANCH  14  15
ATOM     15  C   UNL     1      25.438  17.690   0.209  1.00  0.00    -0.000 C 
BRANCH  15  16
ATOM     16  C   UNL     1      26.860  17.565   0.795  1.00  0.00    -0.000 C 
BRANCH  16  17
ATOM     17  C   UNL     1      27.826  16.689  -0.022  1.00  0.00    -0.003 C 
ATOM     18  C   UNL     1      28.811  15.911   0.851  1.00  0.00     0.004 C 
ENDBRANCH  16  17
ENDBRANCH  15  16
ENDBRANCH  14  15
ENDBRANCH  13  14
ENDBRANCH  12  13
ENDBRANCH  11  12
ENDBRANCH   1  11
TORSDOF 14
ENDMDL
MODEL 2
REMARK VINA RESULT:    -4.446      2.628      5.201
REMARK INTER + INTRA:         -10.869
REMARK INTER:                  -8.296
REMARK INTRA:                  -2.574
REMARK UNBOUND:                -2.785
REMARK SMILES CCCCCCCCCCCCCCCC(=O)[O-]
REMARK SMILES IDX 9 1 10 2 11 3 12 4 13 5 14 6 15 7 16 8 17 9 18 10 8 11 7 12
REMARK SMILES IDX 6 13 5 14 4 15 3 16 2 17 1 18
REMARK H PARENT
REMARK Flexibility Score: inf
ROOT
ATOM      1  C   UNL     1      25.918  16.214   0.080  1.00  0.00     0.000 C 
ENDROOT
BRANCH   1   2
ATOM      2  C   UNL     1      25.339  17.606   0.396  1.00  0.00     0.000 C 
BRANCH   2   3
ATOM      3  C   UNL     1      24.304  17.570   1.531  1.00  0.00     0.000 C 
BRANCH   3   4
ATOM      4  C   UNL     1      22.867  17.384   1.013  1.00  0.00     0.000 C 
BRANCH   4   5
ATOM      5  C   UNL     1      22.171  16.157   1.625  1.00  0.00     0.000 C 
BRANCH   5   6
ATOM      6  C   UNL     1      22.777  15.750   2.980  1.00  0.00     0.006 C 
BRANCH   6   7
ATOM      7  C   UNL     1      22.794  14.228   3.171  1.00  0.00     0.053 C 
BRANCH   7   8
ATOM      8  C   UNL     1      23.763  13.813   4.236  1.00  0.00     0.041 C 
ATOM      9  O   UNL     1      23.798  12.617   4.631  1.00  0.00    -0.550 OA
ATOM     10  O   UNL     1      24.609  14.752   4.810  1.00  0.00    -0.550 OA
ENDBRANCH   7   8
ENDBRANCH   6   7
ENDBRANCH   5   6
ENDBRANCH   4   5
ENDBRANCH   3   4
ENDBRANCH   2   3
ENDBRANCH   1   2
BRANCH   1  11
ATOM     11  C   UNL     1      26.122  15.358   1.339  1.00  0.00     0.000 C 
BRANCH  11  12
ATOM     12  C   UNL     1      25.896  13.859   1.080  1.00  0.00    -0.000 C 
BRANCH  12  13
ATOM     13  C   UNL     1      25.190  13.596  -0.268  1.00  0.00    -0.000 C 
BRANCH  13  14
ATOM     14  C   UNL     1      23.770  13.016  -0.120  1.00  0.00    -0.000 C 
BRANCH  14  15
ATOM     15  C   UNL     1      22.802  13.378  -1.260  1.00  0.00    -0.000 C 
BRANCH  15  16
ATOM     16  C   UNL     1      22.857  14.850  -1.722  1.00  0.00    -0.000 C 
BRANCH  16  17
ATOM     17  C   UNL     1      21.623  15.333  -2.504  1.00  0.00    -0.003 C 
ATOM     18  C   UNL     1      21.272  16.794  -2.223  1.00  0.00     0.004 C 
ENDBRANCH  16  17
ENDBRANCH  15  16
ENDBRANCH  14  15
ENDBRANCH  13  14
ENDBRANCH  12  13
ENDBRANCH  11  12
ENDBRANCH   1  11
TORSDOF 14
ENDMDL
MODEL 3
REMARK VINA RESULT:    -4.420      1.935      3.598
REMARK INTER + INTRA:         -10.823
REMARK INTER:                  -8.407
REMARK INTRA:                  -2.416
REMARK UNBOUND:                -2.785
REMARK SMILES CCCCCCCCCCCCCCCC(=O)[O-]
REMARK SMILES IDX 9 1 10 2 11 3 12 4 13 5 14 6 15 7 16 8 17 9 18 10 8 11 7 12
REMARK SMILES IDX 6 13 5 14 4 15 3 16 2 17 1 18
REMARK H PARENT
REMARK Flexibility Score: inf
ROOT
ATOM      1  C   UNL     1      21.399  16.138  -0.093  1.00  0.00     0.000 C 
ENDROOT
BRANCH   1   2
ATOM      2  C   UNL     1      21.505  17.034  -1.341  1.00  0.00     0.000 C 
BRANCH   2   3
ATOM      3  C   UNL     1      21.679  16.222  -2.635  1.00  0.00     0.000 C 
BRANCH   3   4
ATOM      4  C   UNL     1      22.874  15.254  -2.567  1.00  0.00     0.000 C 
BRANCH   4   5
ATOM      5  C   UNL     1      22.519  13.841  -3.054  1.00  0.00     0.000 C 
BRANCH   5   6
ATOM      6  C   UNL     1      22.566  12.798  -1.923  1.00  0.00     0.006 C 
BRANCH   6   7
ATOM      7  C   UNL     1      23.829  11.930  -1.989  1.00  0.00     0.053 C 
BRANCH   7   8
ATOM      8  C   UNL     1      23.566  10.613  -2.651  1.00  0.00     0.041 C 
ATOM      9  O   UNL     1      22.384  10.249  -2.893  1.00  0.00    -0.550 OA
ATOM     10  O   UNL     1      24.624   9.776  -2.978  1.00  0.00    -0.550 OA
ENDBRANCH   7   8
ENDBRANCH   6   7
ENDBRANCH   5   6
ENDBRANCH   4   5
ENDBRANCH   3   4
ENDBRANCH   2   3
ENDBRANCH   1   2
BRANCH   1  11
ATOM     11  C   UNL     1      22.044  16.773   1.149  1.00  0.00     0.000 C 
BRANCH  11  12
ATOM     12  C   UNL     1      22.792  15.749   2.018  1.00  0.00    -0.000 C 
BRANCH  12  13
ATOM     13  C   UNL     1      23.255  14.518   1.209  1.00  0.00    -0.000 C 
BRANCH  13  14
ATOM     14  C   UNL     1      24.777  14.280   1.262  1.00  0.00    -0.000 C 
BRANCH  14  15
ATOM     15  C   UNL     1      25.521  14.556  -0.057  1.00  0.00    -0.000 C 
BRANCH  15  16
ATOM     16  C   UNL     1      26.317  15.877  -0.094  1.00  0.00    -0.000 C 
BRANCH  16  17
ATOM     17  C   UNL     1      25.465  17.146  -0.273  1.00  0.00    -0.003 C 
ATOM     18  C   UNL     1      25.580  18.114   0.904  1.00  0.00     0.004 C 
ENDBRANCH  16  17
ENDBRANCH  15  16
ENDBRANCH  14  15
ENDBRANCH  13  14
ENDBRANCH  12  13
ENDBRANCH  11  12
ENDBRANCH   1  11
TORSDOF 14
ENDMDL
MODEL 4
REMARK VINA RESULT:    -4.370      2.435      4.168
REMARK INTER + INTRA:         -10.731
REMARK INTER:                  -8.346
REMARK INTRA:                  -2.385
REMARK UNBOUND:                -2.785
REMARK SMILES CCCCCCCCCCCCCCCC(=O)[O-]
REMARK SMILES IDX 9 1 10 2 11 3 12 4 13 5 14 6 15 7 16 8 17 9 18 10 8 11 7 12
REMARK SMILES IDX 6 13 5 14 4 15 3 16 2 17 1 18
REMARK H PARENT
REMARK Flexibility Score: inf
ROOT
ATOM      1  C   UNL     1      27.235  14.656  -0.059  1.00  0.00     0.000 C 
ENDROOT
BRANCH   1   2
ATOM      2  C   UNL     1      26.269  14.157   1.031  1.00  0.00     0.000 C 
BRANCH   2   3
ATOM      3  C   UNL     1      25.164  13.250   0.468  1.00  0.00     0.000 C 
BRANCH   3   4
ATOM      4  C   UNL     1      24.274  13.973  -0.560  1.00  0.00     0.000 C 
BRANCH   4   5
ATOM      5  C   UNL     1      23.446  13.000  -1.414  1.00  0.00     0.000 C 
BRANCH   5   6
ATOM      6  C   UNL     1      22.110  13.609  -1.875  1.00  0.00     0.006 C 
BRANCH   6   7
ATOM      7  C   UNL     1      21.893  15.019  -1.313  1.00  0.00     0.053 C 
BRANCH   7   8
ATOM      8  C   UNL     1      21.709  16.030  -2.404  1.00  0.00     0.041 C 
ATOM      9  O   UNL     1      21.104  17.111  -2.172  1.00  0.00    -0.550 OA
ATOM     10  O   UNL     1      22.181  15.766  -3.682  1.00  0.00    -0.550 OA
ENDBRANCH   7   8
ENDBRANCH   6   7
ENDBRANCH   5   6
ENDBRANCH   4   5
ENDBRANCH   3   4
ENDBRANCH   2   3
ENDBRANCH   1   2
BRANCH   1  11
ATOM     11  C   UNL     1      27.467  16.174   0.005  1.00  0.00     0.000 C 
BRANCH  11  12
ATOM     12  C   UNL     1      26.924  16.802   1.300  1.00  0.00    -0.000 C 
BRANCH  12  13
ATOM     13  C   UNL     1      25.912  17.936   1.023  1.00  0.00    -0.000 C 
BRANCH  13  14
ATOM     14  C   UNL     1      24.771  17.527   0.072  1.00  0.00    -0.000 C 
BRANCH  14  15
ATOM     15  C   UNL     1      23.365  17.554   0.698  1.00  0.00    -0.000 C 
BRANCH  15  16
ATOM     16  C   UNL     1      23.310  17.181   2.195  1.00  0.00    -0.000 C 
BRANCH  16  17
ATOM     17  C   UNL     1      23.024  15.698   2.486  1.00  0.00    -0.003 C 
ATOM     18  C   UNL     1      23.843  15.149   3.653  1.00  0.00     0.004 C 
ENDBRANCH  16  17
ENDBRANCH  15  16
ENDBRANCH  14  15
ENDBRANCH  13  14
ENDBRANCH  12  13
ENDBRANCH  11  12
ENDBRANCH   1  11
TORSDOF 14
ENDMDL
MODEL 5
REMARK VINA RESULT:    -4.356      1.211      3.435
REMARK INTER + INTRA:         -10.706
REMARK INTER:                  -8.093
REMARK INTRA:                  -2.613
REMARK UNBOUND:                -2.785
REMARK SMILES CCCCCCCCCCCCCCCC(=O)[O-]
REMARK SMILES IDX 9 1 10 2 11 3 12 4 13 5 14 6 15 7 16 8 17 9 18 10 8 11 7 12
REMARK SMILES IDX 6 13 5 14 4 15 3 16 2 17 1 18
REMARK H PARENT
REMARK Flexibility Score: inf
ROOT
ATOM      1  C   UNL     1      25.490  17.508   0.005  1.00  0.00     0.000 C 
ENDROOT
BRANCH   1   2
ATOM      2  C   UNL     1      26.492  16.338   0.009  1.00  0.00     0.000 C 
BRANCH   2   3
ATOM      3  C   UNL     1      26.352  15.448   1.254  1.00  0.00     0.000 C 
BRANCH   3   4
ATOM      4  C   UNL     1      26.086  13.974   0.899  1.00  0.00     0.000 C 
BRANCH   4   5
ATOM      5  C   UNL     1      24.964  13.809  -0.139  1.00  0.00     0.000 C 
BRANCH   5   6
ATOM      6  C   UNL     1      24.142  12.526   0.079  1.00  0.00     0.006 C 
BRANCH   6   7
ATOM      7  C   UNL     1      22.827  12.541  -0.710  1.00  0.00     0.053 C 
BRANCH   7   8
ATOM      8  C   UNL     1      22.924  11.733  -1.968  1.00  0.00     0.041 C 
ATOM      9  O   UNL     1      22.571  10.523  -1.974  1.00  0.00    -0.550 OA
ATOM     10  O   UNL     1      23.428  12.308  -3.126  1.00  0.00    -0.550 OA
ENDBRANCH   7   8
ENDBRANCH   6   7
ENDBRANCH   5   6
ENDBRANCH   4   5
ENDBRANCH   3   4
ENDBRANCH   2   3
ENDBRANCH   1   2
BRANCH   1  11
ATOM     11  C   UNL     1      25.150  18.001   1.420  1.00  0.00     0.000 C 
BRANCH  11  12
ATOM     12  C   UNL     1      23.642  17.949   1.719  1.00  0.00    -0.000 C 
BRANCH  12  13
ATOM     13  C   UNL     1      22.871  17.077   0.703  1.00  0.00    -0.000 C 
BRANCH  13  14
ATOM     14  C   UNL     1      22.228  15.824   1.327  1.00  0.00    -0.000 C 
BRANCH  14  15
ATOM     15  C   UNL     1      22.717  15.486   2.747  1.00  0.00    -0.000 C 
BRANCH  15  16
ATOM     16  C   UNL     1      22.670  13.988   3.115  1.00  0.00    -0.000 C 
BRANCH  16  17
ATOM     17  C   UNL     1      23.820  13.503   4.016  1.00  0.00    -0.003 C 
ATOM     18  C   UNL     1      24.703  14.643   4.524  1.00  0.00     0.004 C 
ENDBRANCH  16  17
ENDBRANCH  15  16
ENDBRANCH  14  15
ENDBRANCH  13  14
ENDBRANCH  12  13
ENDBRANCH  11  12
ENDBRANCH   1  11
TORSDOF 14
ENDMDL
MODEL 6
REMARK VINA RESULT:    -4.334      1.370      3.211
REMARK INTER + INTRA:         -10.666
REMARK INTER:                  -8.553
REMARK INTRA:                  -2.113
REMARK UNBOUND:                -2.785
REMARK SMILES CCCCCCCCCCCCCCCC(=O)[O-]
REMARK SMILES IDX 9 1 10 2 11 3 12 4 13 5 14 6 15 7 16 8 17 9 18 10 8 11 7 12
REMARK SMILES IDX 6 13 5 14 4 15 3 16 2 17 1 18
REMARK H PARENT
REMARK Flexibility Score: inf
ROOT
ATOM      1  C   UNL     1      23.355  16.601   2.186  1.00  0.00     0.000 C 
ENDROOT
BRANCH   1   2
ATOM      2  C   UNL     1      22.481  15.696   1.299  1.00  0.00     0.000 C 
BRANCH   2   3
ATOM      3  C   UNL     1      21.510  16.497   0.417  1.00  0.00     0.000 C 
BRANCH   3   4
ATOM      4  C   UNL     1      21.484  15.996  -1.039  1.00  0.00     0.000 C 
BRANCH   4   5
ATOM      5  C   UNL     1      22.636  15.027  -1.351  1.00  0.00     0.000 C 
BRANCH   5   6
ATOM      6  C   UNL     1      22.153  13.737  -2.037  1.00  0.00     0.006 C 
BRANCH   6   7
ATOM      7  C   UNL     1      23.148  12.583  -1.863  1.00  0.00     0.053 C 
BRANCH   7   8
ATOM      8  C   UNL     1      22.465  11.250  -1.903  1.00  0.00     0.041 C 
ATOM      9  O   UNL     1      22.560  10.518  -2.924  1.00  0.00    -0.550 OA
ATOM     10  O   UNL     1      21.703  10.828  -0.822  1.00  0.00    -0.550 OA
ENDBRANCH   7   8
ENDBRANCH   6   7
ENDBRANCH   5   6
ENDBRANCH   4   5
ENDBRANCH   3   4
ENDBRANCH   2   3
ENDBRANCH   1   2
BRANCH   1  11
ATOM     11  C   UNL     1      23.622  17.974   1.551  1.00  0.00     0.000 C 
BRANCH  11  12
ATOM     12  C   UNL     1      25.091  18.159   1.135  1.00  0.00    -0.000 C 
BRANCH  12  13
ATOM     13  C   UNL     1      25.510  17.189   0.009  1.00  0.00    -0.000 C 
BRANCH  13  14
ATOM     14  C   UNL     1      26.992  16.772   0.073  1.00  0.00    -0.000 C 
BRANCH  14  15
ATOM     15  C   UNL     1      27.246  15.261  -0.073  1.00  0.00    -0.000 C 
BRANCH  15  16
ATOM     16  C   UNL     1      25.979  14.380  -0.050  1.00  0.00    -0.000 C 
BRANCH  16  17
ATOM     17  C   UNL     1      25.812  13.512   1.210  1.00  0.00    -0.003 C 
ATOM     18  C   UNL     1      26.206  14.241   2.494  1.00  0.00     0.004 C 
ENDBRANCH  16  17
ENDBRANCH  15  16
ENDBRANCH  14  15
ENDBRANCH  13  14
ENDBRANCH  12  13
ENDBRANCH  11  12
ENDBRANCH   1  11
TORSDOF 14
ENDMDL
MODEL 7
REMARK VINA RESULT:    -4.333      2.860      4.978
REMARK INTER + INTRA:         -10.663
REMARK INTER:                  -8.339
REMARK INTRA:                  -2.324
REMARK UNBOUND:                -2.785
REMARK SMILES CCCCCCCCCCCCCCCC(=O)[O-]
REMARK SMILES IDX 9 1 10 2 11 3 12 4 13 5 14 6 15 7 16 8 17 9 18 10 8 11 7 12
REMARK SMILES IDX 6 13 5 14 4 15 3 16 2 17 1 18
REMARK H PARENT
REMARK Flexibility Score: inf
ROOT
ATOM      1  C   UNL     1      21.791  14.534  -1.478  1.00  0.00     0.000 C 
ENDROOT
BRANCH   1   2
ATOM      2  C   UNL     1      22.910  13.483  -1.595  1.00  0.00     0.000 C 
BRANCH   2   3
ATOM      3  C   UNL     1      23.091  12.669  -0.303  1.00  0.00     0.000 C 
BRANCH   3   4
ATOM      4  C   UNL     1      24.476  12.876   0.335  1.00  0.00     0.000 C 
BRANCH   4   5
ATOM      5  C   UNL     1      25.178  14.146  -0.172  1.00  0.00     0.000 C 
BRANCH   5   6
ATOM      6  C   UNL     1      26.523  14.398   0.531  1.00  0.00     0.006 C 
BRANCH   6   7
ATOM      7  C   UNL     1      26.526  15.711   1.323  1.00  0.00     0.053 C 
BRANCH   7   8
ATOM      8  C   UNL     1      27.189  16.818   0.561  1.00  0.00     0.041 C 
ATOM      9  O   UNL     1      26.838  18.014   0.745  1.00  0.00    -0.550 OA
ATOM     10  O   UNL     1      28.177  16.526  -0.369  1.00  0.00    -0.550 OA
ENDBRANCH   7   8
ENDBRANCH   6   7
ENDBRANCH   5   6
ENDBRANCH   4   5
ENDBRANCH   3   4
ENDBRANCH   2   3
ENDBRANCH   1   2
BRANCH   1  11
ATOM     11  C   UNL     1      22.284  15.959  -1.773  1.00  0.00     0.000 C 
BRANCH  11  12
ATOM     12  C   UNL     1      21.681  17.004  -0.819  1.00  0.00    -0.000 C 
BRANCH  12  13
ATOM     13  C   UNL     1      21.592  16.490   0.635  1.00  0.00    -0.000 C 
BRANCH  13  14
ATOM     14  C   UNL     1      22.916  16.610   1.414  1.00  0.00    -0.000 C 
BRANCH  14  15
ATOM     15  C   UNL     1      22.869  16.068   2.854  1.00  0.00    -0.000 C 
BRANCH  15  16
ATOM     16  C   UNL     1      22.583  14.557   2.975  1.00  0.00    -0.000 C 
BRANCH  16  17
ATOM     17  C   UNL     1      23.604  13.765   3.810  1.00  0.00    -0.003 C 
ATOM     18  C   UNL     1      24.671  14.654   4.450  1.00  0.00     0.004 C 
ENDBRANCH  16  17
ENDBRANCH  15  16
ENDBRANCH  14  15
ENDBRANCH  13  14
ENDBRANCH  12  13
ENDBRANCH  11  12
ENDBRANCH   1  11
TORSDOF 14
ENDMDL
MODEL 8
REMARK VINA RESULT:    -4.313      2.971      5.107
REMARK INTER + INTRA:         -10.627
REMARK INTER:                  -8.261
REMARK INTRA:                  -2.366
REMARK UNBOUND:                -2.785
REMARK SMILES CCCCCCCCCCCCCCCC(=O)[O-]
REMARK SMILES IDX 9 1 10 2 11 3 12 4 13 5 14 6 15 7 16 8 17 9 18 10 8 11 7 12
REMARK SMILES IDX 6 13 5 14 4 15 3 16 2 17 1 18
REMARK H PARENT
REMARK Flexibility Score: inf
ROOT
ATOM      1  C   UNL     1      23.009  13.660  -1.689  1.00  0.00     0.000 C 
ENDROOT
BRANCH   1   2
ATOM      2  C   UNL     1      22.919  12.763  -0.441  1.00  0.00     0.000 C 
BRANCH   2   3
ATOM      3  C   UNL     1      24.158  12.884   0.462  1.00  0.00     0.000 C 
BRANCH   3   4
ATOM      4  C   UNL     1      25.289  13.696  -0.196  1.00  0.00     0.000 C 
BRANCH   4   5
ATOM      5  C   UNL     1      26.155  14.442   0.831  1.00  0.00     0.000 C 
BRANCH   5   6
ATOM      6  C   UNL     1      26.478  15.882   0.395  1.00  0.00     0.006 C 
BRANCH   6   7
ATOM      7  C   UNL     1      27.984  16.106   0.211  1.00  0.00     0.053 C 
BRANCH   7   8
ATOM      8  C   UNL     1      28.750  15.794   1.460  1.00  0.00     0.041 C 
ATOM      9  O   UNL     1      29.586  14.852   1.474  1.00  0.00    -0.550 OA
ATOM     10  O   UNL     1      28.519  16.526   2.617  1.00  0.00    -0.550 OA
ENDBRANCH   7   8
ENDBRANCH   6   7
ENDBRANCH   5   6
ENDBRANCH   4   5
ENDBRANCH   3   4
ENDBRANCH   2   3
ENDBRANCH   1   2
BRANCH   1  11
ATOM     11  C   UNL     1      21.733  14.486  -1.917  1.00  0.00     0.000 C 
BRANCH  11  12
ATOM     12  C   UNL     1      22.019  15.991  -2.055  1.00  0.00    -0.000 C 
BRANCH  12  13
ATOM     13  C   UNL     1      23.105  16.476  -1.071  1.00  0.00    -0.000 C 
BRANCH  13  14
ATOM     14  C   UNL     1      22.537  17.146   0.195  1.00  0.00    -0.000 C 
BRANCH  14  15
ATOM     15  C   UNL     1      22.208  16.178   1.346  1.00  0.00    -0.000 C 
BRANCH  15  16
ATOM     16  C   UNL     1      23.239  16.153   2.494  1.00  0.00    -0.000 C 
BRANCH  16  17
ATOM     17  C   UNL     1      23.216  14.882   3.361  1.00  0.00    -0.003 C 
ATOM     18  C   UNL     1      24.448  14.746   4.256  1.00  0.00     0.004 C 
ENDBRANCH  16  17
ENDBRANCH  15  16
ENDBRANCH  14  15
ENDBRANCH  13  14
ENDBRANCH  12  13
ENDBRANCH  11  12
ENDBRANCH   1  11
TORSDOF 14
ENDMDL
MODEL 9
REMARK VINA RESULT:    -4.306      1.511      3.140
REMARK INTER + INTRA:         -10.615
REMARK INTER:                  -7.858
REMARK INTRA:                  -2.757
REMARK UNBOUND:                -2.785
REMARK SMILES CCCCCCCCCCCCCCCC(=O)[O-]
REMARK SMILES IDX 9 1 10 2 11 3 12 4 13 5 14 6 15 7 16 8 17 9 18 10 8 11 7 12
REMARK SMILES IDX 6 13 5 14 4 15 3 16 2 17 1 18
REMARK H PARENT
REMARK Flexibility Score: inf
ROOT
ATOM      1  C   UNL     1      22.869  16.402   2.320  1.00  0.00     0.000 C 
ENDROOT
BRANCH   1   2
ATOM      2  C   UNL     1      22.027  16.253   1.040  1.00  0.00     0.000 C 
BRANCH   2   3
ATOM      3  C   UNL     1      22.581  17.084  -0.129  1.00  0.00     0.000 C 
BRANCH   3   4
ATOM      4  C   UNL     1      22.697  16.268  -1.430  1.00  0.00     0.000 C 
BRANCH   4   5
ATOM      5  C   UNL     1      21.797  15.023  -1.429  1.00  0.00     0.000 C 
BRANCH   5   6
ATOM      6  C   UNL     1      22.365  13.883  -2.294  1.00  0.00     0.006 C 
BRANCH   6   7
ATOM      7  C   UNL     1      22.263  12.522  -1.596  1.00  0.00     0.053 C 
BRANCH   7   8
ATOM      8  C   UNL     1      23.055  11.470  -2.311  1.00  0.00     0.041 C 
ATOM      9  O   UNL     1      24.271  11.662  -2.577  1.00  0.00    -0.550 OA
ATOM     10  O   UNL     1      22.442  10.289  -2.707  1.00  0.00    -0.550 OA
ENDBRANCH   7   8
ENDBRANCH   6   7
ENDBRANCH   5   6
ENDBRANCH   4   5
ENDBRANCH   3   4
ENDBRANCH   2   3
ENDBRANCH   1   2
BRANCH   1  11
ATOM     11  C   UNL     1      23.323  15.050   2.892  1.00  0.00     0.000 C 
BRANCH  11  12
ATOM     12  C   UNL     1      23.324  13.931   1.837  1.00  0.00    -0.000 C 
BRANCH  12  13
ATOM     13  C   UNL     1      24.751  13.466   1.475  1.00  0.00    -0.000 C 
BRANCH  13  14
ATOM     14  C   UNL     1      25.218  13.932   0.082  1.00  0.00    -0.000 C 
BRANCH  14  15
ATOM     15  C   UNL     1      25.982  15.268   0.071  1.00  0.00    -0.000 C 
BRANCH  15  16
ATOM     16  C   UNL     1      26.640  15.657   1.411  1.00  0.00    -0.000 C 
BRANCH  16  17
ATOM     17  C   UNL     1      26.908  17.161   1.593  1.00  0.00    -0.003 C 
ATOM     18  C   UNL     1      25.902  18.042   0.852  1.00  0.00     0.004 C 
ENDBRANCH  16  17
ENDBRANCH  15  16
ENDBRANCH  14  15
ENDBRANCH  13  14
ENDBRANCH  12  13
ENDBRANCH  11  12
ENDBRANCH   1  11
TORSDOF 14
ENDMDL
