MODEL 1
REMARK VINA RESULT:    -4.419      0.000      0.000
REMARK INTER + INTRA:         -10.630
REMARK INTER:                  -8.294
REMARK INTRA:                  -2.336
REMARK UNBOUND:                -2.336
REMARK SMILES CCCCCCCCC=CCCCCCCCC(=O)[O-]
REMARK SMILES IDX 10 1 9 2 11 3 12 4 13 5 14 6 15 7 16 8 17 9 18 10 19 11
REMARK SMILES IDX 20 12 8 13 7 14 6 15 5 16 4 17 3 18 2 19 1 20
REMARK H PARENT
REMARK Flexibility Score: inf
ROOT
ATOM      1  C   UNL     1      24.642  -0.496 -10.414  1.00  0.00    -0.031 C 
ATOM      2  C   UNL     1      24.939   0.660 -11.040  1.00  0.00    -0.031 C 
ENDROOT
BRANCH   1   3
ATOM      3  C   UNL     1      23.724  -1.570 -10.948  1.00  0.00     0.027 C 
BRANCH   3   4
ATOM      4  C   UNL     1      24.445  -2.499 -11.941  1.00  0.00     0.004 C 
BRANCH   4   5
ATOM      5  C   UNL     1      23.684  -3.796 -12.286  1.00  0.00     0.000 C 
BRANCH   5   6
ATOM      6  C   UNL     1      23.732  -4.206 -13.771  1.00  0.00     0.000 C 
BRANCH   6   7
ATOM      7  C   UNL     1      24.833  -3.520 -14.602  1.00  0.00     0.000 C 
BRANCH   7   8
ATOM      8  C   UNL     1      25.238  -4.265 -15.891  1.00  0.00     0.006 C 
BRANCH   8   9
ATOM      9  C   UNL     1      26.547  -3.773 -16.527  1.00  0.00     0.053 C 
BRANCH   9  10
ATOM     10  C   UNL     1      27.695  -4.685 -16.222  1.00  0.00     0.041 C 
ATOM     11  O   UNL     1      27.665  -5.421 -15.201  1.00  0.00    -0.550 OA
ATOM     12  O   UNL     1      28.815  -4.695 -17.045  1.00  0.00    -0.550 OA
ENDBRANCH   9  10
ENDBRANCH   8   9
ENDBRANCH   7   8
ENDBRANCH   6   7
ENDBRANCH   5   6
ENDBRANCH   4   5
ENDBRANCH   3   4
ENDBRANCH   1   3
BRANCH   2  13
ATOM     13  C   UNL     1      24.377   1.106 -12.369  1.00  0.00     0.027 C 
BRANCH  13  14
ATOM     14  C   UNL     1      25.281   0.751 -13.558  1.00  0.00     0.004 C 
BRANCH  14  15
ATOM     15  C   UNL     1      24.500   0.118 -14.720  1.00  0.00     0.000 C 
BRANCH  15  16
ATOM     16  C   UNL     1      23.031  -0.098 -14.339  1.00  0.00     0.000 C 
BRANCH  16  17
ATOM     17  C   UNL     1      22.146  -0.211 -15.589  1.00  0.00    -0.000 C 
BRANCH  17  18
ATOM     18  C   UNL     1      22.559  -1.392 -16.493  1.00  0.00    -0.000 C 
BRANCH  18  19
ATOM     19  C   UNL     1      21.369  -2.230 -16.991  1.00  0.00    -0.003 C 
ATOM     20  C   UNL     1      21.063  -3.428 -16.094  1.00  0.00     0.004 C 
ENDBRANCH  18  19
ENDBRANCH  17  18
ENDBRANCH  16  17
ENDBRANCH  15  16
ENDBRANCH  14  15
ENDBRANCH  13  14
ENDBRANCH   2  13
TORSDOF 15
ENDMDL
MODEL 2
REMARK VINA RESULT:    -4.330      2.838      6.213
REMARK INTER + INTRA:         -10.463
REMARK INTER:                  -8.031
REMARK INTRA:                  -2.432
REMARK UNBOUND:                -2.336
REMARK SMILES CCCCCCCCC=CCCCCCCCC(=O)[O-]
REMARK SMILES IDX 10 1 9 2 11 3 12 4 13 5 14 6 15 7 16 8 17 9 18 10 19 11
REMARK SMILES IDX 20 12 8 13 7 14 6 15 5 16 4 17 3 18 2 19 1 20
REMARK H PARENT
REMARK Flexibility Score: inf
ROOT
ATOM      1  C   UNL     1      21.657  -3.325 -15.786  1.00  0.00    -0.031 C 
ATOM      2  C   UNL     1      22.671  -3.883 -15.095  1.00  0.00    -0.031 C 
ENDROOT
BRANCH   1   3
ATOM      3  C   UNL     1      21.731  -2.843 -17.215  1.00  0.00     0.027 C 
BRANCH   3   4
ATOM      4  C   UNL     1      21.917  -1.318 -17.297  1.00  0.00     0.004 C 
BRANCH   4   5
ATOM      5  C   UNL     1      21.643  -0.560 -15.982  1.00  0.00     0.000 C 
BRANCH   5   6
ATOM      6  C   UNL     1      22.871   0.133 -15.358  1.00  0.00     0.000 C 
BRANCH   6   7
ATOM      7  C   UNL     1      22.969   0.029 -13.823  1.00  0.00     0.000 C 
BRANCH   7   8
ATOM      8  C   UNL     1      24.395   0.163 -13.250  1.00  0.00     0.006 C 
BRANCH   8   9
ATOM      9  C   UNL     1      24.460   0.778 -11.844  1.00  0.00     0.053 C 
BRANCH   9  10
ATOM     10  C   UNL     1      24.813  -0.239 -10.803  1.00  0.00     0.041 C 
ATOM     11  O   UNL     1      24.066  -1.235 -10.613  1.00  0.00    -0.550 OA
ATOM     12  O   UNL     1      25.946  -0.070 -10.018  1.00  0.00    -0.550 OA
ENDBRANCH   9  10
ENDBRANCH   8   9
ENDBRANCH   7   8
ENDBRANCH   6   7
ENDBRANCH   5   6
ENDBRANCH   4   5
ENDBRANCH   3   4
ENDBRANCH   1   3
BRANCH   2  13
ATOM     13  C   UNL     1      24.074  -4.091 -15.615  1.00  0.00     0.027 C 
BRANCH  13  14
ATOM     14  C   UNL     1      25.048  -2.982 -15.190  1.00  0.00     0.004 C 
BRANCH  14  15
ATOM     15  C   UNL     1      25.622  -2.215 -16.391  1.00  0.00     0.000 C 
BRANCH  15  16
ATOM     16  C   UNL     1      25.991  -3.175 -17.528  1.00  0.00     0.000 C 
BRANCH  16  17
ATOM     17  C   UNL     1      27.480  -3.062 -17.885  1.00  0.00    -0.000 C 
BRANCH  17  18
ATOM     18  C   UNL     1      28.262  -4.349 -17.546  1.00  0.00    -0.000 C 
BRANCH  18  19
ATOM     19  C   UNL     1      27.476  -5.331 -16.661  1.00  0.00    -0.003 C 
ATOM     20  C   UNL     1      27.837  -5.224 -15.180  1.00  0.00     0.004 C 
ENDBRANCH  18  19
ENDBRANCH  17  18
ENDBRANCH  16  17
ENDBRANCH  15  16
ENDBRANCH  14  15
ENDBRANCH  13  14
ENDBRANCH   2  13
TORSDOF 15
ENDMDL
MODEL 3
REMARK VINA RESULT:    -4.262      1.050      2.216
REMARK INTER + INTRA:         -10.334
REMARK INTER:                  -7.857
REMARK INTRA:                  -2.477
REMARK UNBOUND:                -2.336
REMARK SMILES CCCCCCCCC=CCCCCCCCC(=O)[O-]
REMARK SMILES IDX 10 1 9 2 11 3 12 4 13 5 14 6 15 7 16 8 17 9 18 10 19 11
REMARK SMILES IDX 20 12 8 13 7 14 6 15 5 16 4 17 3 18 2 19 1 20
REMARK H PARENT
REMARK Flexibility Score: inf
ROOT
ATOM      1  C   UNL     1      23.754  -2.267 -11.325  1.00  0.00    -0.031 C 
ATOM      2  C   UNL     1      24.090  -1.280 -10.471  1.00  0.00    -0.031 C 
ENDROOT
BRANCH   1   3
ATOM      3  C   UNL     1      24.514  -2.640 -12.575  1.00  0.00     0.027 C 
BRANCH   3   4
ATOM      4  C   UNL     1      23.826  -3.781 -13.345  1.00  0.00     0.004 C 
BRANCH   4   5
ATOM      5  C   UNL     1      24.502  -4.165 -14.677  1.00  0.00     0.000 C 
BRANCH   5   6
ATOM      6  C   UNL     1      23.742  -3.730 -15.946  1.00  0.00     0.000 C 
BRANCH   6   7
ATOM      7  C   UNL     1      24.509  -2.760 -16.866  1.00  0.00     0.000 C 
BRANCH   7   8
ATOM      8  C   UNL     1      26.037  -2.732 -16.655  1.00  0.00     0.006 C 
BRANCH   8   9
ATOM      9  C   UNL     1      26.829  -3.624 -17.622  1.00  0.00     0.053 C 
BRANCH   9  10
ATOM     10  C   UNL     1      27.228  -4.922 -16.989  1.00  0.00     0.041 C 
ATOM     11  O   UNL     1      26.601  -5.979 -17.264  1.00  0.00    -0.550 OA
ATOM     12  O   UNL     1      28.268  -4.958 -16.069  1.00  0.00    -0.550 OA
ENDBRANCH   9  10
ENDBRANCH   8   9
ENDBRANCH   7   8
ENDBRANCH   6   7
ENDBRANCH   5   6
ENDBRANCH   4   5
ENDBRANCH   3   4
ENDBRANCH   1   3
BRANCH   2  13
ATOM     13  C   UNL     1      25.266  -0.346 -10.630  1.00  0.00     0.027 C 
BRANCH  13  14
ATOM     14  C   UNL     1      24.860   1.070 -11.065  1.00  0.00     0.004 C 
BRANCH  14  15
ATOM     15  C   UNL     1      24.142   1.083 -12.423  1.00  0.00     0.000 C 
BRANCH  15  16
ATOM     16  C   UNL     1      25.147   0.964 -13.575  1.00  0.00     0.000 C 
BRANCH  16  17
ATOM     17  C   UNL     1      24.573   0.121 -14.723  1.00  0.00    -0.000 C 
BRANCH  17  18
ATOM     18  C   UNL     1      23.052  -0.102 -14.583  1.00  0.00    -0.000 C 
BRANCH  18  19
ATOM     19  C   UNL     1      22.290   0.006 -15.915  1.00  0.00    -0.003 C 
ATOM     20  C   UNL     1      21.134  -0.987 -16.026  1.00  0.00     0.004 C 
ENDBRANCH  18  19
ENDBRANCH  17  18
ENDBRANCH  16  17
ENDBRANCH  15  16
ENDBRANCH  14  15
ENDBRANCH  13  14
ENDBRANCH   2  13
TORSDOF 15
ENDMDL
MODEL 4
REMARK VINA RESULT:    -4.236      2.887      5.860
REMARK INTER + INTRA:         -10.286
REMARK INTER:                  -7.949
REMARK INTRA:                  -2.337
REMARK UNBOUND:                -2.336
REMARK SMILES CCCCCCCCC=CCCCCCCCC(=O)[O-]
REMARK SMILES IDX 10 1 9 2 11 3 12 4 13 5 14 6 15 7 16 8 17 9 18 10 19 11
REMARK SMILES IDX 20 12 8 13 7 14 6 15 5 16 4 17 3 18 2 19 1 20
REMARK H PARENT
REMARK Flexibility Score: inf
ROOT
ATOM      1  C   UNL     1      22.077  -3.352 -15.823  1.00  0.00    -0.031 C 
ATOM      2  C   UNL     1      21.915  -2.569 -16.907  1.00  0.00    -0.031 C 
ENDROOT
BRANCH   1   3
ATOM      3  C   UNL     1      23.370  -4.008 -15.401  1.00  0.00     0.027 C 
BRANCH   3   4
ATOM      4  C   UNL     1      23.459  -4.169 -13.873  1.00  0.00     0.004 C 
BRANCH   4   5
ATOM      5  C   UNL     1      24.426  -3.193 -13.172  1.00  0.00     0.000 C 
BRANCH   5   6
ATOM      6  C   UNL     1      24.970  -2.059 -14.064  1.00  0.00     0.000 C 
BRANCH   6   7
ATOM      7  C   UNL     1      24.262  -0.701 -13.897  1.00  0.00     0.000 C 
BRANCH   7   8
ATOM      8  C   UNL     1      25.077   0.371 -13.143  1.00  0.00     0.006 C 
BRANCH   8   9
ATOM      9  C   UNL     1      24.475   0.796 -11.795  1.00  0.00     0.053 C 
BRANCH   9  10
ATOM     10  C   UNL     1      24.805  -0.174 -10.703  1.00  0.00     0.041 C 
ATOM     11  O   UNL     1      23.978  -1.066 -10.377  1.00  0.00    -0.550 OA
ATOM     12  O   UNL     1      26.010  -0.070 -10.019  1.00  0.00    -0.550 OA
ENDBRANCH   9  10
ENDBRANCH   8   9
ENDBRANCH   7   8
ENDBRANCH   6   7
ENDBRANCH   5   6
ENDBRANCH   4   5
ENDBRANCH   3   4
ENDBRANCH   1   3
BRANCH   2  13
ATOM     13  C   UNL     1      22.988  -2.236 -17.916  1.00  0.00     0.027 C 
BRANCH  13  14
ATOM     14  C   UNL     1      23.734  -0.931 -17.599  1.00  0.00     0.004 C 
BRANCH  14  15
ATOM     15  C   UNL     1      25.248  -1.144 -17.446  1.00  0.00     0.000 C 
BRANCH  15  16
ATOM     16  C   UNL     1      25.660  -2.531 -17.952  1.00  0.00     0.000 C 
BRANCH  16  17
ATOM     17  C   UNL     1      27.177  -2.738 -17.823  1.00  0.00    -0.000 C 
BRANCH  17  18
ATOM     18  C   UNL     1      27.573  -4.228 -17.901  1.00  0.00    -0.000 C 
BRANCH  18  19
ATOM     19  C   UNL     1      28.267  -4.747 -16.631  1.00  0.00    -0.003 C 
ATOM     20  C   UNL     1      27.353  -4.747 -15.406  1.00  0.00     0.004 C 
ENDBRANCH  18  19
ENDBRANCH  17  18
ENDBRANCH  16  17
ENDBRANCH  15  16
ENDBRANCH  14  15
ENDBRANCH  13  14
ENDBRANCH   2  13
TORSDOF 15
ENDMDL
MODEL 5
REMARK VINA RESULT:    -4.176      1.214      4.451
REMARK INTER + INTRA:         -10.173
REMARK INTER:                  -7.770
REMARK INTRA:                  -2.403
REMARK UNBOUND:                -2.336
REMARK SMILES CCCCCCCCC=CCCCCCCCC(=O)[O-]
REMARK SMILES IDX 10 1 9 2 11 3 12 4 13 5 14 6 15 7 16 8 17 9 18 10 19 11
REMARK SMILES IDX 20 12 8 13 7 14 6 15 5 16 4 17 3 18 2 19 1 20
REMARK H PARENT
REMARK Flexibility Score: inf
ROOT
ATOM      1  C   UNL     1      21.773  -2.603 -17.356  1.00  0.00    -0.031 C 
ATOM      2  C   UNL     1      22.184  -1.435 -17.888  1.00  0.00    -0.031 C 
ENDROOT
BRANCH   1   3
ATOM      3  C   UNL     1      21.492  -2.848 -15.892  1.00  0.00     0.027 C 
BRANCH   3   4
ATOM      4  C   UNL     1      22.249  -4.078 -15.361  1.00  0.00     0.004 C 
BRANCH   4   5
ATOM      5  C   UNL     1      23.355  -3.766 -14.333  1.00  0.00     0.000 C 
BRANCH   5   6
ATOM      6  C   UNL     1      24.791  -3.769 -14.895  1.00  0.00     0.000 C 
BRANCH   6   7
ATOM      7  C   UNL     1      24.910  -4.174 -16.377  1.00  0.00     0.000 C 
BRANCH   7   8
ATOM      8  C   UNL     1      26.012  -3.439 -17.168  1.00  0.00     0.006 C 
BRANCH   8   9
ATOM      9  C   UNL     1      27.076  -4.360 -17.784  1.00  0.00     0.053 C 
BRANCH   9  10
ATOM     10  C   UNL     1      28.226  -4.590 -16.854  1.00  0.00     0.041 C 
ATOM     11  O   UNL     1      29.383  -4.208 -17.172  1.00  0.00    -0.550 OA
ATOM     12  O   UNL     1      28.028  -5.257 -15.651  1.00  0.00    -0.550 OA
ENDBRANCH   9  10
ENDBRANCH   8   9
ENDBRANCH   7   8
ENDBRANCH   6   7
ENDBRANCH   5   6
ENDBRANCH   4   5
ENDBRANCH   3   4
ENDBRANCH   1   3
BRANCH   2  13
ATOM     13  C   UNL     1      22.474  -0.173 -17.112  1.00  0.00     0.027 C 
BRANCH  13  14
ATOM     14  C   UNL     1      23.975   0.118 -16.967  1.00  0.00     0.004 C 
BRANCH  14  15
ATOM     15  C   UNL     1      24.491  -0.160 -15.548  1.00  0.00     0.000 C 
BRANCH  15  16
ATOM     16  C   UNL     1      23.360  -0.042 -14.520  1.00  0.00     0.000 C 
BRANCH  16  17
ATOM     17  C   UNL     1      23.864  -0.360 -13.104  1.00  0.00    -0.000 C 
BRANCH  17  18
ATOM     18  C   UNL     1      25.019   0.568 -12.671  1.00  0.00    -0.000 C 
BRANCH  18  19
ATOM     19  C   UNL     1      24.966   0.962 -11.186  1.00  0.00    -0.003 C 
ATOM     20  C   UNL     1      25.632  -0.063 -10.270  1.00  0.00     0.004 C 
ENDBRANCH  18  19
ENDBRANCH  17  18
ENDBRANCH  16  17
ENDBRANCH  15  16
ENDBRANCH  14  15
ENDBRANCH  13  14
ENDBRANCH   2  13
TORSDOF 15
ENDMDL
MODEL 6
REMARK VINA RESULT:    -4.167      3.491      6.082
REMARK INTER + INTRA:         -10.157
REMARK INTER:                  -8.002
REMARK INTRA:                  -2.155
REMARK UNBOUND:                -2.336
REMARK SMILES CCCCCCCCC=CCCCCCCCC(=O)[O-]
REMARK SMILES IDX 10 1 9 2 11 3 12 4 13 5 14 6 15 7 16 8 17 9 18 10 19 11
REMARK SMILES IDX 20 12 8 13 7 14 6 15 5 16 4 17 3 18 2 19 1 20
REMARK H PARENT
REMARK Flexibility Score: inf
ROOT
ATOM      1  C   UNL     1      24.063  -1.952 -11.615  1.00  0.00    -0.031 C 
ATOM      2  C   UNL     1      23.765  -3.259 -11.745  1.00  0.00    -0.031 C 
ENDROOT
BRANCH   1   3
ATOM      3  C   UNL     1      24.815  -1.120 -12.627  1.00  0.00     0.027 C 
BRANCH   3   4
ATOM      4  C   UNL     1      23.861  -0.336 -13.546  1.00  0.00     0.004 C 
BRANCH   4   5
ATOM      5  C   UNL     1      24.376  -0.123 -14.984  1.00  0.00     0.000 C 
BRANCH   5   6
ATOM      6  C   UNL     1      23.279   0.044 -16.054  1.00  0.00     0.000 C 
BRANCH   6   7
ATOM      7  C   UNL     1      21.836  -0.135 -15.542  1.00  0.00     0.000 C 
BRANCH   7   8
ATOM      8  C   UNL     1      20.835  -0.670 -16.587  1.00  0.00     0.006 C 
BRANCH   8   9
ATOM      9  C   UNL     1      20.279  -2.068 -16.277  1.00  0.00     0.053 C 
BRANCH   9  10
ATOM     10  C   UNL     1      18.812  -2.164 -16.562  1.00  0.00     0.041 C 
ATOM     11  O   UNL     1      18.180  -1.156 -16.974  1.00  0.00    -0.550 OA
ATOM     12  O   UNL     1      18.135  -3.356 -16.338  1.00  0.00    -0.550 OA
ENDBRANCH   9  10
ENDBRANCH   8   9
ENDBRANCH   7   8
ENDBRANCH   6   7
ENDBRANCH   5   6
ENDBRANCH   4   5
ENDBRANCH   3   4
ENDBRANCH   1   3
BRANCH   2  13
ATOM     13  C   UNL     1      24.161  -4.137 -12.909  1.00  0.00     0.027 C 
BRANCH  13  14
ATOM     14  C   UNL     1      23.023  -4.358 -13.916  1.00  0.00     0.004 C 
BRANCH  14  15
ATOM     15  C   UNL     1      23.356  -3.800 -15.308  1.00  0.00     0.000 C 
BRANCH  15  16
ATOM     16  C   UNL     1      24.870  -3.631 -15.483  1.00  0.00     0.000 C 
BRANCH  16  17
ATOM     17  C   UNL     1      25.293  -3.910 -16.933  1.00  0.00    -0.000 C 
BRANCH  17  18
ATOM     18  C   UNL     1      26.206  -5.149 -17.049  1.00  0.00    -0.000 C 
BRANCH  18  19
ATOM     19  C   UNL     1      27.485  -5.052 -16.200  1.00  0.00    -0.003 C 
ATOM     20  C   UNL     1      28.694  -4.559 -16.993  1.00  0.00     0.004 C 
ENDBRANCH  18  19
ENDBRANCH  17  18
ENDBRANCH  16  17
ENDBRANCH  15  16
ENDBRANCH  14  15
ENDBRANCH  13  14
ENDBRANCH   2  13
TORSDOF 15
ENDMDL
MODEL 7
REMARK VINA RESULT:    -4.059      2.934      5.703
REMARK INTER + INTRA:          -9.954
REMARK INTER:                  -6.852
REMARK INTRA:                  -3.102
REMARK UNBOUND:                -2.336
REMARK SMILES CCCCCCCCC=CCCCCCCCC(=O)[O-]
REMARK SMILES IDX 10 1 9 2 11 3 12 4 13 5 14 6 15 7 16 8 17 9 18 10 19 11
REMARK SMILES IDX 20 12 8 13 7 14 6 15 5 16 4 17 3 18 2 19 1 20
REMARK H PARENT
REMARK Flexibility Score: inf
ROOT
ATOM      1  C   UNL     1      25.752  -3.552 -17.548  1.00  0.00    -0.031 C 
ATOM      2  C   UNL     1      25.433  -4.274 -16.456  1.00  0.00    -0.031 C 
ENDROOT
BRANCH   1   3
ATOM      3  C   UNL     1      26.122  -2.087 -17.553  1.00  0.00     0.027 C 
BRANCH   3   4
ATOM      4  C   UNL     1      24.948  -1.202 -18.008  1.00  0.00     0.004 C 
BRANCH   4   5
ATOM      5  C   UNL     1      24.607  -0.037 -17.057  1.00  0.00     0.000 C 
BRANCH   5   6
ATOM      6  C   UNL     1      25.086  -0.218 -15.603  1.00  0.00     0.000 C 
BRANCH   6   7
ATOM      7  C   UNL     1      24.134   0.341 -14.528  1.00  0.00     0.000 C 
BRANCH   7   8
ATOM      8  C   UNL     1      24.019  -0.514 -13.249  1.00  0.00     0.006 C 
BRANCH   8   9
ATOM      9  C   UNL     1      25.309  -0.597 -12.420  1.00  0.00     0.053 C 
BRANCH   9  10
ATOM     10  C   UNL     1      25.058  -0.343 -10.966  1.00  0.00     0.041 C 
ATOM     11  O   UNL     1      25.697   0.558 -10.362  1.00  0.00    -0.550 OA
ATOM     12  O   UNL     1      24.146  -1.125 -10.269  1.00  0.00    -0.550 OA
ENDBRANCH   9  10
ENDBRANCH   8   9
ENDBRANCH   7   8
ENDBRANCH   6   7
ENDBRANCH   5   6
ENDBRANCH   4   5
ENDBRANCH   3   4
ENDBRANCH   1   3
BRANCH   2  13
ATOM     13  C   UNL     1      25.350  -3.740 -15.046  1.00  0.00     0.027 C 
BRANCH  13  14
ATOM     14  C   UNL     1      23.957  -3.899 -14.419  1.00  0.00     0.004 C 
BRANCH  14  15
ATOM     15  C   UNL     1      22.851  -4.042 -15.476  1.00  0.00     0.000 C 
BRANCH  15  16
ATOM     16  C   UNL     1      22.250  -2.677 -15.829  1.00  0.00     0.000 C 
BRANCH  16  17
ATOM     17  C   UNL     1      21.601  -2.702 -17.220  1.00  0.00    -0.000 C 
BRANCH  17  18
ATOM     18  C   UNL     1      21.084  -1.313 -17.650  1.00  0.00    -0.000 C 
BRANCH  18  19
ATOM     19  C   UNL     1      21.059  -0.285 -16.507  1.00  0.00    -0.003 C 
ATOM     20  C   UNL     1      20.957   1.158 -16.999  1.00  0.00     0.004 C 
ENDBRANCH  18  19
ENDBRANCH  17  18
ENDBRANCH  16  17
ENDBRANCH  15  16
ENDBRANCH  14  15
ENDBRANCH  13  14
ENDBRANCH   2  13
TORSDOF 15
ENDMDL
MODEL 8
REMARK VINA RESULT:    -3.985      2.882      5.280
REMARK INTER + INTRA:          -9.815
REMARK INTER:                  -7.257
REMARK INTRA:                  -2.558
REMARK UNBOUND:                -2.336
REMARK SMILES CCCCCCCCC=CCCCCCCCC(=O)[O-]
REMARK SMILES IDX 10 1 9 2 11 3 12 4 13 5 14 6 15 7 16 8 17 9 18 10 19 11
REMARK SMILES IDX 20 12 8 13 7 14 6 15 5 16 4 17 3 18 2 19 1 20
REMARK H PARENT
REMARK Flexibility Score: inf
ROOT
ATOM      1  C   UNL     1      21.363  -0.823 -15.777  1.00  0.00    -0.031 C 
ATOM      2  C   UNL     1      22.458  -0.052 -15.918  1.00  0.00    -0.031 C 
ENDROOT
BRANCH   1   3
ATOM      3  C   UNL     1      21.029  -2.033 -16.617  1.00  0.00     0.027 C 
BRANCH   3   4
ATOM      4  C   UNL     1      21.393  -3.346 -15.901  1.00  0.00     0.004 C 
BRANCH   4   5
ATOM      5  C   UNL     1      22.900  -3.674 -15.875  1.00  0.00     0.000 C 
BRANCH   5   6
ATOM      6  C   UNL     1      23.477  -3.988 -14.481  1.00  0.00     0.000 C 
BRANCH   6   7
ATOM      7  C   UNL     1      24.689  -3.130 -14.068  1.00  0.00     0.000 C 
BRANCH   7   8
ATOM      8  C   UNL     1      24.339  -1.807 -13.357  1.00  0.00     0.006 C 
BRANCH   8   9
ATOM      9  C   UNL     1      25.552  -1.035 -12.816  1.00  0.00     0.053 C 
BRANCH   9  10
ATOM     10  C   UNL     1      25.167   0.307 -12.275  1.00  0.00     0.041 C 
ATOM     11  O   UNL     1      25.398   0.594 -11.071  1.00  0.00    -0.550 OA
ATOM     12  O   UNL     1      24.520   1.228 -13.089  1.00  0.00    -0.550 OA
ENDBRANCH   9  10
ENDBRANCH   8   9
ENDBRANCH   7   8
ENDBRANCH   6   7
ENDBRANCH   5   6
ENDBRANCH   4   5
ENDBRANCH   3   4
ENDBRANCH   1   3
BRANCH   2  13
ATOM     13  C   UNL     1      23.531  -0.236 -16.965  1.00  0.00     0.027 C 
BRANCH  13  14
ATOM     14  C   UNL     1      24.925   0.196 -16.488  1.00  0.00     0.004 C 
BRANCH  14  15
ATOM     15  C   UNL     1      26.051  -0.440 -17.317  1.00  0.00     0.000 C 
BRANCH  15  16
ATOM     16  C   UNL     1      26.017  -1.969 -17.205  1.00  0.00     0.000 C 
BRANCH  16  17
ATOM     17  C   UNL     1      27.202  -2.603 -17.948  1.00  0.00    -0.000 C 
BRANCH  17  18
ATOM     18  C   UNL     1      27.519  -4.026 -17.439  1.00  0.00    -0.000 C 
BRANCH  18  19
ATOM     19  C   UNL     1      26.270  -4.819 -17.018  1.00  0.00    -0.003 C 
ATOM     20  C   UNL     1      26.024  -6.053 -17.885  1.00  0.00     0.004 C 
ENDBRANCH  18  19
ENDBRANCH  17  18
ENDBRANCH  16  17
ENDBRANCH  15  16
ENDBRANCH  14  15
ENDBRANCH  13  14
ENDBRANCH   2  13
TORSDOF 15
ENDMDL
MODEL 9
REMARK VINA RESULT:    -3.935      2.849      6.131
REMARK INTER + INTRA:          -9.722
REMARK INTER:                  -7.175
REMARK INTRA:                  -2.547
REMARK UNBOUND:                -2.336
REMARK SMILES CCCCCCCCC=CCCCCCCCC(=O)[O-]
REMARK SMILES IDX 10 1 9 2 11 3 12 4 13 5 14 6 15 7 16 8 17 9 18 10 19 11
REMARK SMILES IDX 20 12 8 13 7 14 6 15 5 16 4 17 3 18 2 19 1 20
REMARK H PARENT
REMARK Flexibility Score: inf
ROOT
ATOM      1  C   UNL     1      21.392  -0.481 -16.877  1.00  0.00    -0.031 C 
ATOM      2  C   UNL     1      20.901  -1.560 -16.237  1.00  0.00    -0.031 C 
ENDROOT
BRANCH   1   3
ATOM      3  C   UNL     1      22.366  -0.515 -18.031  1.00  0.00     0.027 C 
BRANCH   3   4
ATOM      4  C   UNL     1      23.826  -0.574 -17.546  1.00  0.00     0.004 C 
BRANCH   4   5
ATOM      5  C   UNL     1      24.210   0.502 -16.511  1.00  0.00     0.000 C 
BRANCH   5   6
ATOM      6  C   UNL     1      24.863  -0.034 -15.222  1.00  0.00     0.000 C 
BRANCH   6   7
ATOM      7  C   UNL     1      23.880  -0.596 -14.177  1.00  0.00     0.000 C 
BRANCH   7   8
ATOM      8  C   UNL     1      23.563   0.352 -13.002  1.00  0.00     0.006 C 
BRANCH   8   9
ATOM      9  C   UNL     1      24.778   0.727 -12.141  1.00  0.00     0.053 C 
BRANCH   9  10
ATOM     10  C   UNL     1      24.926  -0.177 -10.956  1.00  0.00     0.041 C 
ATOM     11  O   UNL     1      25.920  -0.062 -10.193  1.00  0.00    -0.550 OA
ATOM     12  O   UNL     1      23.984  -1.169 -10.714  1.00  0.00    -0.550 OA
ENDBRANCH   9  10
ENDBRANCH   8   9
ENDBRANCH   7   8
ENDBRANCH   6   7
ENDBRANCH   5   6
ENDBRANCH   4   5
ENDBRANCH   3   4
ENDBRANCH   1   3
BRANCH   2  13
ATOM     13  C   UNL     1      21.265  -2.995 -16.533  1.00  0.00     0.027 C 
BRANCH  13  14
ATOM     14  C   UNL     1      22.210  -3.608 -15.488  1.00  0.00     0.004 C 
BRANCH  14  15
ATOM     15  C   UNL     1      23.636  -3.798 -16.027  1.00  0.00     0.000 C 
BRANCH  15  16
ATOM     16  C   UNL     1      24.623  -4.066 -14.885  1.00  0.00     0.000 C 
BRANCH  16  17
ATOM     17  C   UNL     1      26.015  -3.507 -15.215  1.00  0.00    -0.000 C 
BRANCH  17  18
ATOM     18  C   UNL     1      26.219  -3.301 -16.732  1.00  0.00    -0.000 C 
BRANCH  18  19
ATOM     19  C   UNL     1      27.214  -4.292 -17.358  1.00  0.00    -0.003 C 
ATOM     20  C   UNL     1      26.620  -5.683 -17.573  1.00  0.00     0.004 C 
ENDBRANCH  18  19
ENDBRANCH  17  18
ENDBRANCH  16  17
ENDBRANCH  15  16
ENDBRANCH  14  15
ENDBRANCH  13  14
ENDBRANCH   2  13
TORSDOF 15
ENDMDL
