MODEL 1
REMARK VINA RESULT:    -5.954      0.000      0.000
REMARK INTER + INTRA:          -7.589
REMARK INTER:                  -7.172
REMARK INTRA:                  -0.417
REMARK UNBOUND:                -0.417
REMARK SMILES O=c1c(O)c(-c2ccc(O)cc2O)oc2cc(O)cc(O)c12
REMARK SMILES IDX 5 1 3 2 2 3 1 4 22 5 20 6 19 7 17 8 16 9 15 10 14 11 6 12
REMARK SMILES IDX 8 13 7 14 9 15 11 16 12 17 10 18 13 20 4 22 21 24 18 26
REMARK H PARENT 10 19 13 21 4 23 21 25 18 27
REMARK Flexibility Score: inf
ROOT
ATOM      1  C   UNL     1      27.934  38.543  21.070  1.00  0.00     0.184 A 
ATOM      2  C   UNL     1      28.396  38.034  19.844  1.00  0.00     0.208 A 
ATOM      3  C   UNL     1      28.649  36.657  19.735  1.00  0.00     0.238 A 
ATOM      4  O   UNL     1      29.075  36.190  18.643  1.00  0.00    -0.285 OA
ATOM      5  C   UNL     1      28.415  35.817  20.843  1.00  0.00     0.111 A 
ATOM      6  C   UNL     1      28.641  34.420  20.815  1.00  0.00     0.134 A 
ATOM      7  C   UNL     1      28.376  33.649  21.957  1.00  0.00     0.093 A 
ATOM      8  C   UNL     1      27.891  34.247  23.123  1.00  0.00     0.123 A 
ATOM      9  C   UNL     1      27.666  35.627  23.157  1.00  0.00     0.094 A 
ATOM     10  C   UNL     1      27.926  36.412  22.030  1.00  0.00     0.146 A 
ATOM     11  O   UNL     1      27.709  37.721  22.089  1.00  0.00    -0.451 OA
ENDROOT
BRANCH   1  12
ATOM     12  C   UNL     1      27.659  39.984  21.256  1.00  0.00     0.063 A 
ATOM     13  C   UNL     1      28.515  42.241  21.543  1.00  0.00     0.047 A 
ATOM     14  C   UNL     1      28.739  40.873  21.373  1.00  0.00     0.020 A 
ATOM     15  C   UNL     1      27.207  42.740  21.585  1.00  0.00     0.119 A 
ATOM     16  C   UNL     1      26.126  41.865  21.445  1.00  0.00     0.093 A 
ATOM     17  C   UNL     1      26.342  40.490  21.268  1.00  0.00     0.130 A 
BRANCH  15  18
ATOM     18  O   UNL     1      26.972  44.102  21.758  1.00  0.00    -0.508 OA
ATOM     19  H   UNL     1      27.703  44.788  21.613  1.00  0.00     0.293 HD
ENDBRANCH  15  18
BRANCH  17  20
ATOM     20  O   UNL     1      25.256  39.634  21.081  1.00  0.00    -0.507 OA
ATOM     21  H   UNL     1      24.330  39.871  21.418  1.00  0.00     0.293 HD
ENDBRANCH  17  20
ENDBRANCH   1  12
BRANCH   2  22
ATOM     22  O   UNL     1      28.574  38.886  18.751  1.00  0.00    -0.502 OA
ATOM     23  H   UNL     1      27.889  38.967  18.009  1.00  0.00     0.293 HD
ENDBRANCH   2  22
BRANCH   6  24
ATOM     24  O   UNL     1      29.124  33.792  19.665  1.00  0.00    -0.507 OA
ATOM     25  H   UNL     1      28.502  33.462  18.937  1.00  0.00     0.293 HD
ENDBRANCH   6  24
BRANCH   8  26
ATOM     26  O   UNL     1      27.635  33.459  24.243  1.00  0.00    -0.508 OA
ATOM     27  H   UNL     1      27.982  32.510  24.314  1.00  0.00     0.293 HD
ENDBRANCH   8  26
TORSDOF 6
ENDMDL
MODEL 2
REMARK VINA RESULT:    -5.427      1.776      6.570
REMARK INTER + INTRA:          -6.955
REMARK INTER:                  -6.831
REMARK INTRA:                  -0.124
REMARK UNBOUND:                -0.417
REMARK SMILES O=c1c(O)c(-c2ccc(O)cc2O)oc2cc(O)cc(O)c12
REMARK SMILES IDX 5 1 3 2 2 3 1 4 22 5 20 6 19 7 17 8 16 9 15 10 14 11 6 12
REMARK SMILES IDX 8 13 7 14 9 15 11 16 12 17 10 18 13 20 4 22 21 24 18 26
REMARK H PARENT 10 19 13 21 4 23 21 25 18 27
REMARK Flexibility Score: inf
ROOT
ATOM      1  C   UNL     1      28.179  38.885  20.543  1.00  0.00     0.184 A 
ATOM      2  C   UNL     1      27.759  39.658  19.447  1.00  0.00     0.208 A 
ATOM      3  C   UNL     1      27.642  41.049  19.604  1.00  0.00     0.238 A 
ATOM      4  O   UNL     1      27.255  41.752  18.632  1.00  0.00    -0.285 OA
ATOM      5  C   UNL     1      27.967  41.638  20.844  1.00  0.00     0.111 A 
ATOM      6  C   UNL     1      27.881  43.030  21.084  1.00  0.00     0.134 A 
ATOM      7  C   UNL     1      28.230  43.543  22.343  1.00  0.00     0.093 A 
ATOM      8  C   UNL     1      28.664  42.692  23.362  1.00  0.00     0.123 A 
ATOM      9  C   UNL     1      28.752  41.315  23.131  1.00  0.00     0.094 A 
ATOM     10  C   UNL     1      28.406  40.785  21.884  1.00  0.00     0.146 A 
ATOM     11  O   UNL     1      28.493  39.474  21.692  1.00  0.00    -0.451 OA
ENDROOT
BRANCH   1  12
ATOM     12  C   UNL     1      28.312  37.415  20.448  1.00  0.00     0.063 A 
ATOM     13  C   UNL     1      29.125  35.479  19.224  1.00  0.00     0.047 A 
ATOM     14  C   UNL     1      28.976  36.863  19.341  1.00  0.00     0.020 A 
ATOM     15  C   UNL     1      28.624  34.630  20.219  1.00  0.00     0.119 A 
ATOM     16  C   UNL     1      27.984  35.173  21.336  1.00  0.00     0.093 A 
ATOM     17  C   UNL     1      27.834  36.563  21.465  1.00  0.00     0.130 A 
BRANCH  15  18
ATOM     18  O   UNL     1      28.764  33.249  20.110  1.00  0.00    -0.508 OA
ATOM     19  H   UNL     1      28.005  32.619  20.342  1.00  0.00     0.293 HD
ENDBRANCH  15  18
BRANCH  17  20
ATOM     20  O   UNL     1      27.237  37.094  22.608  1.00  0.00    -0.507 OA
ATOM     21  H   UNL     1      26.263  36.921  22.828  1.00  0.00     0.293 HD
ENDBRANCH  17  20
ENDBRANCH   1  12
BRANCH   2  22
ATOM     22  O   UNL     1      27.488  39.049  18.219  1.00  0.00    -0.502 OA
ATOM     23  H   UNL     1      27.881  39.386  17.348  1.00  0.00     0.293 HD
ENDBRANCH   2  22
BRANCH   6  24
ATOM     24  O   UNL     1      27.452  43.907  20.086  1.00  0.00    -0.507 OA
ATOM     25  H   UNL     1      27.155  44.853  20.298  1.00  0.00     0.293 HD
ENDBRANCH   6  24
BRANCH   8  26
ATOM     26  O   UNL     1      29.006  43.226  24.602  1.00  0.00    -0.508 OA
ATOM     27  H   UNL     1      29.966  43.239  24.927  1.00  0.00     0.293 HD
ENDBRANCH   8  26
TORSDOF 6
ENDMDL
MODEL 3
REMARK VINA RESULT:    -5.382      1.409      6.353
REMARK INTER + INTRA:          -6.901
REMARK INTER:                  -7.501
REMARK INTRA:                   0.600
REMARK UNBOUND:                -0.417
REMARK SMILES O=c1c(O)c(-c2ccc(O)cc2O)oc2cc(O)cc(O)c12
REMARK SMILES IDX 5 1 3 2 2 3 1 4 22 5 20 6 19 7 17 8 16 9 15 10 14 11 6 12
REMARK SMILES IDX 8 13 7 14 9 15 11 16 12 17 10 18 13 20 4 22 21 24 18 26
REMARK H PARENT 10 19 13 21 4 23 21 25 18 27
REMARK Flexibility Score: inf
ROOT
ATOM      1  C   UNL     1      28.023  36.501  21.060  1.00  0.00     0.184 A 
ATOM      2  C   UNL     1      28.498  36.531  19.738  1.00  0.00     0.208 A 
ATOM      3  C   UNL     1      28.354  37.712  18.993  1.00  0.00     0.238 A 
ATOM      4  O   UNL     1      28.767  37.748  17.801  1.00  0.00    -0.285 OA
ATOM      5  C   UNL     1      27.759  38.843  19.590  1.00  0.00     0.111 A 
ATOM      6  C   UNL     1      27.580  40.072  18.911  1.00  0.00     0.134 A 
ATOM      7  C   UNL     1      26.986  41.155  19.577  1.00  0.00     0.093 A 
ATOM      8  C   UNL     1      26.570  41.032  20.905  1.00  0.00     0.123 A 
ATOM      9  C   UNL     1      26.745  39.821  21.581  1.00  0.00     0.094 A 
ATOM     10  C   UNL     1      27.333  38.730  20.935  1.00  0.00     0.146 A 
ATOM     11  O   UNL     1      27.482  37.589  21.597  1.00  0.00    -0.451 OA
ENDROOT
BRANCH   1  12
ATOM     12  C   UNL     1      28.134  35.285  21.895  1.00  0.00     0.063 A 
ATOM     13  C   UNL     1      28.859  32.975  22.114  1.00  0.00     0.047 A 
ATOM     14  C   UNL     1      28.732  34.138  21.351  1.00  0.00     0.020 A 
ATOM     15  C   UNL     1      28.399  32.949  23.437  1.00  0.00     0.119 A 
ATOM     16  C   UNL     1      27.825  34.094  23.995  1.00  0.00     0.093 A 
ATOM     17  C   UNL     1      27.699  35.268  23.237  1.00  0.00     0.130 A 
BRANCH  15  18
ATOM     18  O   UNL     1      28.517  31.794  24.206  1.00  0.00    -0.508 OA
ATOM     19  H   UNL     1      29.091  31.014  23.907  1.00  0.00     0.293 HD
ENDBRANCH  15  18
BRANCH  17  20
ATOM     20  O   UNL     1      27.168  36.419  23.821  1.00  0.00    -0.507 OA
ATOM     21  H   UNL     1      27.472  37.344  23.543  1.00  0.00     0.293 HD
ENDBRANCH  17  20
ENDBRANCH   1  12
BRANCH   2  22
ATOM     22  O   UNL     1      29.125  35.409  19.189  1.00  0.00    -0.502 OA
ATOM     23  H   UNL     1      29.598  35.434  18.294  1.00  0.00     0.293 HD
ENDBRANCH   2  22
BRANCH   6  24
ATOM     24  O   UNL     1      27.985  40.226  17.584  1.00  0.00    -0.507 OA
ATOM     25  H   UNL     1      28.951  40.413  17.340  1.00  0.00     0.293 HD
ENDBRANCH   6  24
BRANCH   8  26
ATOM     26  O   UNL     1      25.985  42.124  21.544  1.00  0.00    -0.508 OA
ATOM     27  H   UNL     1      25.180  42.014  22.150  1.00  0.00     0.293 HD
ENDBRANCH   8  26
TORSDOF 6
ENDMDL
MODEL 4
REMARK VINA RESULT:    -4.950      7.717     11.946
REMARK INTER + INTRA:          -6.381
REMARK INTER:                  -6.325
REMARK INTRA:                  -0.056
REMARK UNBOUND:                -0.417
REMARK SMILES O=c1c(O)c(-c2ccc(O)cc2O)oc2cc(O)cc(O)c12
REMARK SMILES IDX 5 1 3 2 2 3 1 4 22 5 20 6 19 7 17 8 16 9 15 10 14 11 6 12
REMARK SMILES IDX 8 13 7 14 9 15 11 16 12 17 10 18 13 20 4 22 21 24 18 26
REMARK H PARENT 10 19 13 21 4 23 21 25 18 27
REMARK Flexibility Score: inf
ROOT
ATOM      1  C   UNL     1      28.182  28.332  26.612  1.00  0.00     0.184 A 
ATOM      2  C   UNL     1      28.539  26.984  26.431  1.00  0.00     0.208 A 
ATOM      3  C   UNL     1      28.282  26.070  27.465  1.00  0.00     0.238 A 
ATOM      4  O   UNL     1      28.608  24.860  27.319  1.00  0.00    -0.285 OA
ATOM      5  C   UNL     1      27.655  26.516  28.648  1.00  0.00     0.111 A 
ATOM      6  C   UNL     1      27.357  25.660  29.735  1.00  0.00     0.134 A 
ATOM      7  C   UNL     1      26.724  26.178  30.875  1.00  0.00     0.093 A 
ATOM      8  C   UNL     1      26.384  27.531  30.948  1.00  0.00     0.123 A 
ATOM      9  C   UNL     1      26.676  28.381  29.877  1.00  0.00     0.094 A 
ATOM     10  C   UNL     1      27.308  27.885  28.733  1.00  0.00     0.146 A 
ATOM     11  O   UNL     1      27.579  28.715  27.733  1.00  0.00    -0.451 OA
ENDROOT
BRANCH   1  12
ATOM     12  C   UNL     1      28.436  29.347  25.568  1.00  0.00     0.063 A 
ATOM     13  C   UNL     1      28.379  29.968  23.218  1.00  0.00     0.047 A 
ATOM     14  C   UNL     1      28.158  29.029  24.229  1.00  0.00     0.020 A 
ATOM     15  C   UNL     1      28.869  31.241  23.535  1.00  0.00     0.119 A 
ATOM     16  C   UNL     1      29.125  31.574  24.868  1.00  0.00     0.093 A 
ATOM     17  C   UNL     1      28.900  30.639  25.891  1.00  0.00     0.130 A 
BRANCH  15  18
ATOM     18  O   UNL     1      29.097  32.182  22.535  1.00  0.00    -0.508 OA
ATOM     19  H   UNL     1      28.332  32.630  22.044  1.00  0.00     0.293 HD
ENDBRANCH  15  18
BRANCH  17  20
ATOM     20  O   UNL     1      29.114  31.000  27.221  1.00  0.00    -0.507 OA
ATOM     21  H   UNL     1      28.534  30.638  27.969  1.00  0.00     0.293 HD
ENDBRANCH  17  20
ENDBRANCH   1  12
BRANCH   2  22
ATOM     22  O   UNL     1      29.117  26.565  25.230  1.00  0.00    -0.502 OA
ATOM     23  H   UNL     1      30.109  26.654  25.044  1.00  0.00     0.293 HD
ENDBRANCH   2  22
BRANCH   6  24
ATOM     24  O   UNL     1      27.683  24.303  29.693  1.00  0.00    -0.507 OA
ATOM     25  H   UNL     1      27.150  23.610  30.205  1.00  0.00     0.293 HD
ENDBRANCH   6  24
BRANCH   8  26
ATOM     26  O   UNL     1      25.754  28.019  32.091  1.00  0.00    -0.508 OA
ATOM     27  H   UNL     1      26.235  28.632  32.740  1.00  0.00     0.293 HD
ENDBRANCH   8  26
TORSDOF 6
ENDMDL
MODEL 5
REMARK VINA RESULT:    -4.739      2.212      6.971
REMARK INTER + INTRA:          -6.126
REMARK INTER:                  -6.578
REMARK INTRA:                   0.452
REMARK UNBOUND:                -0.417
REMARK SMILES O=c1c(O)c(-c2ccc(O)cc2O)oc2cc(O)cc(O)c12
REMARK SMILES IDX 5 1 3 2 2 3 1 4 22 5 20 6 19 7 17 8 16 9 15 10 14 11 6 12
REMARK SMILES IDX 8 13 7 14 9 15 11 16 12 17 10 18 13 20 4 22 21 24 18 26
REMARK H PARENT 10 19 13 21 4 23 21 25 18 27
REMARK Flexibility Score: inf
ROOT
ATOM      1  C   UNL     1      28.145  35.906  21.366  1.00  0.00     0.184 A 
ATOM      2  C   UNL     1      27.457  36.948  22.010  1.00  0.00     0.208 A 
ATOM      3  C   UNL     1      27.244  38.150  21.317  1.00  0.00     0.238 A 
ATOM      4  O   UNL     1      26.637  39.097  21.888  1.00  0.00    -0.285 OA
ATOM      5  C   UNL     1      27.703  38.278  19.989  1.00  0.00     0.111 A 
ATOM      6  C   UNL     1      27.526  39.452  19.220  1.00  0.00     0.134 A 
ATOM      7  C   UNL     1      28.004  39.500  17.902  1.00  0.00     0.093 A 
ATOM      8  C   UNL     1      28.654  38.398  17.340  1.00  0.00     0.123 A 
ATOM      9  C   UNL     1      28.832  37.235  18.095  1.00  0.00     0.094 A 
ATOM     10  C   UNL     1      28.364  37.169  19.411  1.00  0.00     0.146 A 
ATOM     11  O   UNL     1      28.550  36.054  20.109  1.00  0.00    -0.451 OA
ENDROOT
BRANCH   1  12
ATOM     12  C   UNL     1      28.413  34.619  22.043  1.00  0.00     0.063 A 
ATOM     13  C   UNL     1      28.517  33.342  24.109  1.00  0.00     0.047 A 
ATOM     14  C   UNL     1      28.278  34.544  23.438  1.00  0.00     0.020 A 
ATOM     15  C   UNL     1      28.881  32.196  23.390  1.00  0.00     0.119 A 
ATOM     16  C   UNL     1      28.993  32.256  21.999  1.00  0.00     0.093 A 
ATOM     17  C   UNL     1      28.749  33.458  21.316  1.00  0.00     0.130 A 
BRANCH  15  18
ATOM     18  O   UNL     1      29.125  30.994  24.050  1.00  0.00    -0.508 OA
ATOM     19  H   UNL     1      29.127  30.934  25.061  1.00  0.00     0.293 HD
ENDBRANCH  15  18
BRANCH  17  20
ATOM     20  O   UNL     1      28.817  33.492  19.924  1.00  0.00    -0.507 OA
ATOM     21  H   UNL     1      28.631  32.668  19.363  1.00  0.00     0.293 HD
ENDBRANCH  17  20
ENDBRANCH   1  12
BRANCH   2  22
ATOM     22  O   UNL     1      26.974  36.774  23.310  1.00  0.00    -0.502 OA
ATOM     23  H   UNL     1      27.402  36.132  23.967  1.00  0.00     0.293 HD
ENDBRANCH   2  22
BRANCH   6  24
ATOM     24  O   UNL     1      26.880  40.571  19.752  1.00  0.00    -0.507 OA
ATOM     25  H   UNL     1      26.214  41.109  19.211  1.00  0.00     0.293 HD
ENDBRANCH   6  24
BRANCH   8  26
ATOM     26  O   UNL     1      29.118  38.471  16.029  1.00  0.00    -0.508 OA
ATOM     27  H   UNL     1      29.728  37.759  15.642  1.00  0.00     0.293 HD
ENDBRANCH   8  26
TORSDOF 6
ENDMDL
MODEL 6
REMARK VINA RESULT:    -4.452      1.600      6.439
REMARK INTER + INTRA:          -5.780
REMARK INTER:                  -5.825
REMARK INTRA:                   0.045
REMARK UNBOUND:                -0.417
REMARK SMILES O=c1c(O)c(-c2ccc(O)cc2O)oc2cc(O)cc(O)c12
REMARK SMILES IDX 5 1 3 2 2 3 1 4 22 5 20 6 19 7 17 8 16 9 15 10 14 11 6 12
REMARK SMILES IDX 8 13 7 14 9 15 11 16 12 17 10 18 13 20 4 22 21 24 18 26
REMARK H PARENT 10 19 13 21 4 23 21 25 18 27
REMARK Flexibility Score: inf
ROOT
ATOM      1  C   UNL     1      28.194  37.653  21.081  1.00  0.00     0.184 A 
ATOM      2  C   UNL     1      27.952  38.029  19.748  1.00  0.00     0.208 A 
ATOM      3  C   UNL     1      27.825  39.393  19.441  1.00  0.00     0.238 A 
ATOM      4  O   UNL     1      27.597  39.743  18.251  1.00  0.00    -0.285 OA
ATOM      5  C   UNL     1      27.963  40.353  20.466  1.00  0.00     0.111 A 
ATOM      6  C   UNL     1      27.854  41.746  20.241  1.00  0.00     0.134 A 
ATOM      7  C   UNL     1      28.013  42.638  21.312  1.00  0.00     0.093 A 
ATOM      8  C   UNL     1      28.279  42.166  22.599  1.00  0.00     0.123 A 
ATOM      9  C   UNL     1      28.388  40.790  22.828  1.00  0.00     0.094 A 
ATOM     10  C   UNL     1      28.231  39.885  21.774  1.00  0.00     0.146 A 
ATOM     11  O   UNL     1      28.335  38.584  22.019  1.00  0.00    -0.451 OA
ENDROOT
BRANCH   1  12
ATOM     12  C   UNL     1      28.327  36.234  21.473  1.00  0.00     0.063 A 
ATOM     13  C   UNL     1      29.125  33.999  20.945  1.00  0.00     0.047 A 
ATOM     14  C   UNL     1      28.977  35.345  20.602  1.00  0.00     0.020 A 
ATOM     15  C   UNL     1      28.637  33.527  22.170  1.00  0.00     0.119 A 
ATOM     16  C   UNL     1      28.011  34.410  23.053  1.00  0.00     0.093 A 
ATOM     17  C   UNL     1      27.862  35.765  22.719  1.00  0.00     0.130 A 
BRANCH  15  18
ATOM     18  O   UNL     1      28.776  32.187  22.520  1.00  0.00    -0.508 OA
ATOM     19  H   UNL     1      28.104  31.722  23.119  1.00  0.00     0.293 HD
ENDBRANCH  15  18
BRANCH  17  20
ATOM     20  O   UNL     1      27.279  36.645  23.631  1.00  0.00    -0.507 OA
ATOM     21  H   UNL     1      26.551  37.294  23.353  1.00  0.00     0.293 HD
ENDBRANCH  17  20
ENDBRANCH   1  12
BRANCH   2  22
ATOM     22  O   UNL     1      27.865  37.057  18.748  1.00  0.00    -0.502 OA
ATOM     23  H   UNL     1      28.609  36.391  18.572  1.00  0.00     0.293 HD
ENDBRANCH   2  22
BRANCH   6  24
ATOM     24  O   UNL     1      27.590  42.250  18.966  1.00  0.00    -0.507 OA
ATOM     25  H   UNL     1      26.714  42.065  18.491  1.00  0.00     0.293 HD
ENDBRANCH   6  24
BRANCH   8  26
ATOM     26  O   UNL     1      28.434  43.073  23.645  1.00  0.00    -0.508 OA
ATOM     27  H   UNL     1      28.072  44.018  23.585  1.00  0.00     0.293 HD
ENDBRANCH   8  26
TORSDOF 6
ENDMDL
MODEL 7
REMARK VINA RESULT:    -4.419      2.893      4.108
REMARK INTER + INTRA:          -5.740
REMARK INTER:                  -5.607
REMARK INTRA:                  -0.134
REMARK UNBOUND:                -0.417
REMARK SMILES O=c1c(O)c(-c2ccc(O)cc2O)oc2cc(O)cc(O)c12
REMARK SMILES IDX 5 1 3 2 2 3 1 4 22 5 20 6 19 7 17 8 16 9 15 10 14 11 6 12
REMARK SMILES IDX 8 13 7 14 9 15 11 16 12 17 10 18 13 20 4 22 21 24 18 26
REMARK H PARENT 10 19 13 21 4 23 21 25 18 27
REMARK Flexibility Score: inf
ROOT
ATOM      1  C   UNL     1      28.000  36.361  20.740  1.00  0.00     0.184 A 
ATOM      2  C   UNL     1      27.713  36.912  22.001  1.00  0.00     0.208 A 
ATOM      3  C   UNL     1      27.742  36.076  23.129  1.00  0.00     0.238 A 
ATOM      4  O   UNL     1      27.475  36.556  24.264  1.00  0.00    -0.285 OA
ATOM      5  C   UNL     1      28.077  34.715  22.977  1.00  0.00     0.111 A 
ATOM      6  C   UNL     1      28.133  33.806  24.060  1.00  0.00     0.134 A 
ATOM      7  C   UNL     1      28.483  32.467  23.829  1.00  0.00     0.093 A 
ATOM      8  C   UNL     1      28.778  32.021  22.539  1.00  0.00     0.123 A 
ATOM      9  C   UNL     1      28.725  32.914  21.464  1.00  0.00     0.094 A 
ATOM     10  C   UNL     1      28.376  34.252  21.673  1.00  0.00     0.146 A 
ATOM     11  O   UNL     1      28.328  35.078  20.635  1.00  0.00    -0.451 OA
ENDROOT
BRANCH   1  12
ATOM     12  C   UNL     1      27.976  37.183  19.512  1.00  0.00     0.063 A 
ATOM     13  C   UNL     1      29.125  37.976  17.521  1.00  0.00     0.047 A 
ATOM     14  C   UNL     1      29.116  37.215  18.692  1.00  0.00     0.020 A 
ATOM     15  C   UNL     1      27.989  38.705  17.147  1.00  0.00     0.119 A 
ATOM     16  C   UNL     1      26.842  38.659  17.944  1.00  0.00     0.093 A 
ATOM     17  C   UNL     1      26.822  37.893  19.120  1.00  0.00     0.130 A 
BRANCH  15  18
ATOM     18  O   UNL     1      27.988  39.470  15.984  1.00  0.00    -0.508 OA
ATOM     19  H   UNL     1      28.341  40.420  15.973  1.00  0.00     0.293 HD
ENDBRANCH  15  18
BRANCH  17  20
ATOM     20  O   UNL     1      25.655  37.818  19.880  1.00  0.00    -0.507 OA
ATOM     21  H   UNL     1      25.322  38.607  20.421  1.00  0.00     0.293 HD
ENDBRANCH  17  20
ENDBRANCH   1  12
BRANCH   2  22
ATOM     22  O   UNL     1      27.429  38.275  22.125  1.00  0.00    -0.502 OA
ATOM     23  H   UNL     1      27.442  38.906  21.333  1.00  0.00     0.293 HD
ENDBRANCH   2  22
BRANCH   6  24
ATOM     24  O   UNL     1      27.844  34.221  25.362  1.00  0.00    -0.507 OA
ATOM     25  H   UNL     1      28.331  33.838  26.164  1.00  0.00     0.293 HD
ENDBRANCH   6  24
BRANCH   8  26
ATOM     26  O   UNL     1      29.125  30.687  22.337  1.00  0.00    -0.508 OA
ATOM     27  H   UNL     1      28.782  30.166  21.538  1.00  0.00     0.293 HD
ENDBRANCH   8  26
TORSDOF 6
ENDMDL
MODEL 8
REMARK VINA RESULT:    -4.414      2.249      3.904
REMARK INTER + INTRA:          -5.734
REMARK INTER:                  -5.738
REMARK INTRA:                   0.004
REMARK UNBOUND:                -0.417
REMARK SMILES O=c1c(O)c(-c2ccc(O)cc2O)oc2cc(O)cc(O)c12
REMARK SMILES IDX 5 1 3 2 2 3 1 4 22 5 20 6 19 7 17 8 16 9 15 10 14 11 6 12
REMARK SMILES IDX 8 13 7 14 9 15 11 16 12 17 10 18 13 20 4 22 21 24 18 26
REMARK H PARENT 10 19 13 21 4 23 21 25 18 27
REMARK Flexibility Score: inf
ROOT
ATOM      1  C   UNL     1      27.996  41.009  21.778  1.00  0.00     0.184 A 
ATOM      2  C   UNL     1      27.769  41.576  20.512  1.00  0.00     0.208 A 
ATOM      3  C   UNL     1      27.854  40.754  19.377  1.00  0.00     0.238 A 
ATOM      4  O   UNL     1      27.663  41.253  18.234  1.00  0.00    -0.285 OA
ATOM      5  C   UNL     1      28.144  39.382  19.531  1.00  0.00     0.111 A 
ATOM      6  C   UNL     1      28.244  38.485  18.441  1.00  0.00     0.134 A 
ATOM      7  C   UNL     1      28.527  37.132  18.677  1.00  0.00     0.093 A 
ATOM      8  C   UNL     1      28.710  36.659  19.978  1.00  0.00     0.123 A 
ATOM      9  C   UNL     1      28.612  37.540  21.060  1.00  0.00     0.094 A 
ATOM     10  C   UNL     1      28.333  38.893  20.845  1.00  0.00     0.146 A 
ATOM     11  O   UNL     1      28.251  39.710  21.889  1.00  0.00    -0.451 OA
ENDROOT
BRANCH   1  12
ATOM     12  C   UNL     1      27.932  41.821  23.012  1.00  0.00     0.063 A 
ATOM     13  C   UNL     1      29.031  42.629  25.025  1.00  0.00     0.047 A 
ATOM     14  C   UNL     1      29.055  41.867  23.854  1.00  0.00     0.020 A 
ATOM     15  C   UNL     1      27.888  43.365  25.362  1.00  0.00     0.119 A 
ATOM     16  C   UNL     1      26.776  43.344  24.517  1.00  0.00     0.093 A 
ATOM     17  C   UNL     1      26.793  42.586  23.336  1.00  0.00     0.130 A 
BRANCH  15  18
ATOM     18  O   UNL     1      27.853  44.125  26.528  1.00  0.00    -0.508 OA
ATOM     19  H   UNL     1      28.197  43.761  27.409  1.00  0.00     0.293 HD
ENDBRANCH  15  18
BRANCH  17  20
ATOM     20  O   UNL     1      25.694  42.612  22.478  1.00  0.00    -0.507 OA
ATOM     21  H   UNL     1      24.977  43.324  22.554  1.00  0.00     0.293 HD
ENDBRANCH  17  20
ENDBRANCH   1  12
BRANCH   2  22
ATOM     22  O   UNL     1      27.439  42.929  20.396  1.00  0.00    -0.502 OA
ATOM     23  H   UNL     1      26.480  43.251  20.346  1.00  0.00     0.293 HD
ENDBRANCH   2  22
BRANCH   6  24
ATOM     24  O   UNL     1      28.065  38.926  17.128  1.00  0.00    -0.507 OA
ATOM     25  H   UNL     1      28.051  39.912  16.894  1.00  0.00     0.293 HD
ENDBRANCH   6  24
BRANCH   8  26
ATOM     26  O   UNL     1      28.989  35.310  20.185  1.00  0.00    -0.508 OA
ATOM     27  H   UNL     1      29.766  34.852  19.724  1.00  0.00     0.293 HD
ENDBRANCH   8  26
TORSDOF 6
ENDMDL
MODEL 9
REMARK VINA RESULT:    -3.335      1.733      7.244
REMARK INTER + INTRA:          -4.435
REMARK INTER:                  -4.566
REMARK INTRA:                   0.131
REMARK UNBOUND:                -0.417
REMARK SMILES O=c1c(O)c(-c2ccc(O)cc2O)oc2cc(O)cc(O)c12
REMARK SMILES IDX 5 1 3 2 2 3 1 4 22 5 20 6 19 7 17 8 16 9 15 10 14 11 6 12
REMARK SMILES IDX 8 13 7 14 9 15 11 16 12 17 10 18 13 20 4 22 21 24 18 26
REMARK H PARENT 10 19 13 21 4 23 21 25 18 27
REMARK Flexibility Score: inf
ROOT
ATOM      1  C   UNL     1      28.033  39.136  20.734  1.00  0.00     0.184 A 
ATOM      2  C   UNL     1      28.110  39.649  22.040  1.00  0.00     0.208 A 
ATOM      3  C   UNL     1      27.866  41.016  22.247  1.00  0.00     0.238 A 
ATOM      4  O   UNL     1      27.943  41.490  23.413  1.00  0.00    -0.285 OA
ATOM      5  C   UNL     1      27.531  41.836  21.150  1.00  0.00     0.111 A 
ATOM      6  C   UNL     1      27.267  43.221  21.272  1.00  0.00     0.134 A 
ATOM      7  C   UNL     1      26.932  43.969  20.133  1.00  0.00     0.093 A 
ATOM      8  C   UNL     1      26.854  43.360  18.879  1.00  0.00     0.123 A 
ATOM      9  C   UNL     1      27.114  41.991  18.751  1.00  0.00     0.094 A 
ATOM     10  C   UNL     1      27.452  41.230  19.873  1.00  0.00     0.146 A 
ATOM     11  O   UNL     1      27.699  39.933  19.725  1.00  0.00    -0.451 OA
ENDROOT
BRANCH   1  12
ATOM     12  C   UNL     1      28.289  37.708  20.445  1.00  0.00     0.063 A 
ATOM     13  C   UNL     1      28.155  35.389  21.162  1.00  0.00     0.047 A 
ATOM     14  C   UNL     1      27.934  36.747  21.405  1.00  0.00     0.020 A 
ATOM     15  C   UNL     1      28.723  34.974  19.951  1.00  0.00     0.119 A 
ATOM     16  C   UNL     1      29.057  35.923  18.981  1.00  0.00     0.093 A 
ATOM     17  C   UNL     1      28.833  37.289  19.214  1.00  0.00     0.130 A 
BRANCH  15  18
ATOM     18  O   UNL     1      28.952  33.624  19.700  1.00  0.00    -0.508 OA
ATOM     19  H   UNL     1      29.887  33.234  19.706  1.00  0.00     0.293 HD
ENDBRANCH  15  18
BRANCH  17  20
ATOM     20  O   UNL     1      29.125  38.221  18.218  1.00  0.00    -0.507 OA
ATOM     21  H   UNL     1      30.073  38.371  17.894  1.00  0.00     0.293 HD
ENDBRANCH  17  20
ENDBRANCH   1  12
BRANCH   2  22
ATOM     22  O   UNL     1      28.399  38.801  23.113  1.00  0.00    -0.502 OA
ATOM     23  H   UNL     1      29.131  39.004  23.783  1.00  0.00     0.293 HD
ENDBRANCH   2  22
BRANCH   6  24
ATOM     24  O   UNL     1      27.335  43.860  22.512  1.00  0.00    -0.507 OA
ATOM     25  H   UNL     1      27.875  44.707  22.646  1.00  0.00     0.293 HD
ENDBRANCH   6  24
BRANCH   8  26
ATOM     26  O   UNL     1      26.518  44.125  17.764  1.00  0.00    -0.508 OA
ATOM     27  H   UNL     1      25.806  44.845  17.810  1.00  0.00     0.293 HD
ENDBRANCH   8  26
TORSDOF 6
ENDMDL
