MODEL 1
REMARK VINA RESULT:    -4.985      0.000      0.000
REMARK INTER + INTRA:         -14.450
REMARK INTER:                 -11.396
REMARK INTRA:                  -3.054
REMARK UNBOUND:                -3.054
REMARK SMILES CCCCCCCCCCCCCCCCCCCCCCCC(=O)[O-]
REMARK SMILES IDX 13 1 14 2 15 3 16 4 17 5 18 6 19 7 20 8 21 9 22 10 23 11
REMARK SMILES IDX 24 12 25 13 26 14 12 15 11 16 10 17 9 18 8 19 7 20 6 21 5 22
REMARK SMILES IDX 4 23 3 24 2 25 1 26
REMARK H PARENT
REMARK Flexibility Score: inf
ROOT
ATOM      1  C   UNL     1      11.511 -15.012  13.963  1.00  0.00     0.000 C 
ENDROOT
BRANCH   1   2
ATOM      2  C   UNL     1      11.547 -15.529  15.414  1.00  0.00     0.000 C 
BRANCH   2   3
ATOM      3  C   UNL     1      12.964 -15.909  15.872  1.00  0.00     0.000 C 
BRANCH   3   4
ATOM      4  C   UNL     1      13.394 -17.297  15.366  1.00  0.00     0.000 C 
BRANCH   4   5
ATOM      5  C   UNL     1      14.860 -17.620  15.695  1.00  0.00     0.000 C 
BRANCH   5   6
ATOM      6  C   UNL     1      15.754 -17.641  14.444  1.00  0.00     0.000 C 
BRANCH   6   7
ATOM      7  C   UNL     1      14.993 -17.237  13.170  1.00  0.00     0.000 C 
BRANCH   7   8
ATOM      8  C   UNL     1      15.706 -16.123  12.382  1.00  0.00     0.000 C 
BRANCH   8   9
ATOM      9  C   UNL     1      14.819 -14.887  12.169  1.00  0.00     0.000 C 
BRANCH   9  10
ATOM     10  C   UNL     1      15.411 -13.618  12.808  1.00  0.00     0.006 C 
BRANCH  10  11
ATOM     11  C   UNL     1      14.976 -13.447  14.268  1.00  0.00     0.053 C 
BRANCH  11  12
ATOM     12  C   UNL     1      14.297 -12.131  14.497  1.00  0.00     0.041 C 
ATOM     13  O   UNL     1      13.143 -12.091  15.002  1.00  0.00    -0.550 OA
ATOM     14  O   UNL     1      14.928 -10.950  14.127  1.00  0.00    -0.550 OA
ENDBRANCH  11  12
ENDBRANCH  10  11
ENDBRANCH   9  10
ENDBRANCH   8   9
ENDBRANCH   7   8
ENDBRANCH   6   7
ENDBRANCH   5   6
ENDBRANCH   4   5
ENDBRANCH   3   4
ENDBRANCH   2   3
ENDBRANCH   1   2
BRANCH   1  15
ATOM     15  C   UNL     1      11.179 -16.116  12.948  1.00  0.00     0.000 C 
BRANCH  15  16
ATOM     16  C   UNL     1      10.482 -15.572  11.691  1.00  0.00     0.000 C 
BRANCH  16  17
ATOM     17  C   UNL     1      11.283 -15.911  10.428  1.00  0.00     0.000 C 
BRANCH  17  18
ATOM     18  C   UNL     1      12.379 -16.946  10.731  1.00  0.00    -0.000 C 
BRANCH  18  19
ATOM     19  C   UNL     1      12.353 -18.141   9.765  1.00  0.00    -0.000 C 
BRANCH  19  20
ATOM     20  C   UNL     1      11.577 -17.846   8.473  1.00  0.00    -0.000 C 
BRANCH  20  21
ATOM     21  C   UNL     1      10.362 -18.772   8.340  1.00  0.00    -0.000 C 
BRANCH  21  22
ATOM     22  C   UNL     1       9.309 -18.170   7.396  1.00  0.00    -0.000 C 
BRANCH  22  23
ATOM     23  C   UNL     1       9.410 -16.638   7.308  1.00  0.00    -0.000 C 
BRANCH  23  24
ATOM     24  C   UNL     1       8.759 -16.079   6.032  1.00  0.00    -0.000 C 
BRANCH  24  25
ATOM     25  C   UNL     1       9.788 -15.444   5.083  1.00  0.00    -0.003 C 
ATOM     26  C   UNL     1      10.671 -14.407   5.780  1.00  0.00     0.004 C 
ENDBRANCH  24  25
ENDBRANCH  23  24
ENDBRANCH  22  23
ENDBRANCH  21  22
ENDBRANCH  20  21
ENDBRANCH  19  20
ENDBRANCH  18  19
ENDBRANCH  17  18
ENDBRANCH  16  17
ENDBRANCH  15  16
ENDBRANCH   1  15
TORSDOF 22
ENDMDL
MODEL 2
REMARK VINA RESULT:    -4.921      2.495      5.425
REMARK INTER + INTRA:         -14.306
REMARK INTER:                 -11.351
REMARK INTRA:                  -2.955
REMARK UNBOUND:                -3.054
REMARK SMILES CCCCCCCCCCCCCCCCCCCCCCCC(=O)[O-]
REMARK SMILES IDX 13 1 14 2 15 3 16 4 17 5 18 6 19 7 20 8 21 9 22 10 23 11
REMARK SMILES IDX 24 12 25 13 26 14 12 15 11 16 10 17 9 18 8 19 7 20 6 21 5 22
REMARK SMILES IDX 4 23 3 24 2 25 1 26
REMARK H PARENT
REMARK Flexibility Score: inf
ROOT
ATOM      1  C   UNL     1      10.174 -17.749   7.988  1.00  0.00     0.000 C 
ENDROOT
BRANCH   1   2
ATOM      2  C   UNL     1      11.320 -16.911   8.584  1.00  0.00     0.000 C 
BRANCH   2   3
ATOM      3  C   UNL     1      11.486 -17.126  10.097  1.00  0.00     0.000 C 
BRANCH   3   4
ATOM      4  C   UNL     1      12.568 -16.218  10.705  1.00  0.00     0.000 C 
BRANCH   4   5
ATOM      5  C   UNL     1      12.478 -16.132  12.237  1.00  0.00     0.000 C 
BRANCH   5   6
ATOM      6  C   UNL     1      11.053 -15.826  12.728  1.00  0.00     0.000 C 
BRANCH   6   7
ATOM      7  C   UNL     1      10.984 -15.648  14.255  1.00  0.00     0.000 C 
BRANCH   7   8
ATOM      8  C   UNL     1      11.595 -14.314  14.723  1.00  0.00     0.000 C 
BRANCH   8   9
ATOM      9  C   UNL     1      12.549 -14.488  15.916  1.00  0.00     0.000 C 
BRANCH   9  10
ATOM     10  C   UNL     1      13.886 -15.133  15.514  1.00  0.00     0.006 C 
BRANCH  10  11
ATOM     11  C   UNL     1      14.081 -16.511  16.158  1.00  0.00     0.053 C 
BRANCH  11  12
ATOM     12  C   UNL     1      14.299 -17.580  15.130  1.00  0.00     0.041 C 
ATOM     13  O   UNL     1      13.344 -18.317  14.767  1.00  0.00    -0.550 OA
ATOM     14  O   UNL     1      15.566 -17.781  14.595  1.00  0.00    -0.550 OA
ENDBRANCH  11  12
ENDBRANCH  10  11
ENDBRANCH   9  10
ENDBRANCH   8   9
ENDBRANCH   7   8
ENDBRANCH   6   7
ENDBRANCH   5   6
ENDBRANCH   4   5
ENDBRANCH   3   4
ENDBRANCH   2   3
ENDBRANCH   1   2
BRANCH   1  15
ATOM     15  C   UNL     1      10.621 -18.595   6.785  1.00  0.00     0.000 C 
BRANCH  15  16
ATOM     16  C   UNL     1       9.474 -19.424   6.188  1.00  0.00     0.000 C 
BRANCH  16  17
ATOM     17  C   UNL     1       8.128 -19.028   6.806  1.00  0.00     0.000 C 
BRANCH  17  18
ATOM     18  C   UNL     1       6.987 -19.176   5.786  1.00  0.00    -0.000 C 
BRANCH  18  19
ATOM     19  C   UNL     1       7.477 -19.658   4.412  1.00  0.00    -0.000 C 
BRANCH  19  20
ATOM     20  C   UNL     1       7.039 -18.734   3.266  1.00  0.00    -0.000 C 
BRANCH  20  21
ATOM     21  C   UNL     1       7.250 -17.261   3.639  1.00  0.00    -0.000 C 
BRANCH  21  22
ATOM     22  C   UNL     1       8.505 -16.693   2.955  1.00  0.00    -0.000 C 
BRANCH  22  23
ATOM     23  C   UNL     1       9.613 -16.347   3.962  1.00  0.00    -0.000 C 
BRANCH  23  24
ATOM     24  C   UNL     1       9.061 -15.706   5.247  1.00  0.00    -0.000 C 
BRANCH  24  25
ATOM     25  C   UNL     1      10.025 -14.666   5.841  1.00  0.00    -0.003 C 
ATOM     26  C   UNL     1      11.481 -14.918   5.443  1.00  0.00     0.004 C 
ENDBRANCH  24  25
ENDBRANCH  23  24
ENDBRANCH  22  23
ENDBRANCH  21  22
ENDBRANCH  20  21
ENDBRANCH  19  20
ENDBRANCH  18  19
ENDBRANCH  17  18
ENDBRANCH  16  17
ENDBRANCH  15  16
ENDBRANCH   1  15
TORSDOF 22
ENDMDL
MODEL 3
REMARK VINA RESULT:    -4.915      2.285      4.558
REMARK INTER + INTRA:         -14.292
REMARK INTER:                 -11.441
REMARK INTRA:                  -2.851
REMARK UNBOUND:                -3.054
REMARK SMILES CCCCCCCCCCCCCCCCCCCCCCCC(=O)[O-]
REMARK SMILES IDX 13 1 14 2 15 3 16 4 17 5 18 6 19 7 20 8 21 9 22 10 23 11
REMARK SMILES IDX 24 12 25 13 26 14 12 15 11 16 10 17 9 18 8 19 7 20 6 21 5 22
REMARK SMILES IDX 4 23 3 24 2 25 1 26
REMARK H PARENT
REMARK Flexibility Score: inf
ROOT
ATOM      1  C   UNL     1      11.400 -17.144  10.336  1.00  0.00     0.000 C 
ENDROOT
BRANCH   1   2
ATOM      2  C   UNL     1      11.297 -15.798  11.076  1.00  0.00     0.000 C 
BRANCH   2   3
ATOM      3  C   UNL     1      10.580 -15.921  12.431  1.00  0.00     0.000 C 
BRANCH   3   4
ATOM      4  C   UNL     1      11.268 -15.101  13.537  1.00  0.00     0.000 C 
BRANCH   4   5
ATOM      5  C   UNL     1      11.105 -15.731  14.929  1.00  0.00     0.000 C 
BRANCH   5   6
ATOM      6  C   UNL     1      11.720 -14.868  16.043  1.00  0.00     0.000 C 
BRANCH   6   7
ATOM      7  C   UNL     1      12.858 -15.590  16.785  1.00  0.00     0.000 C 
BRANCH   7   8
ATOM      8  C   UNL     1      14.047 -15.924  15.865  1.00  0.00     0.000 C 
BRANCH   8   9
ATOM      9  C   UNL     1      14.268 -17.436  15.709  1.00  0.00     0.000 C 
BRANCH   9  10
ATOM     10  C   UNL     1      14.914 -17.803  14.362  1.00  0.00     0.006 C 
BRANCH  10  11
ATOM     11  C   UNL     1      13.992 -17.495  13.175  1.00  0.00     0.053 C 
BRANCH  11  12
ATOM     12  C   UNL     1      14.640 -16.567  12.193  1.00  0.00     0.041 C 
ATOM     13  O   UNL     1      15.193 -17.023  11.157  1.00  0.00    -0.550 OA
ATOM     14  O   UNL     1      14.658 -15.199  12.437  1.00  0.00    -0.550 OA
ENDBRANCH  11  12
ENDBRANCH  10  11
ENDBRANCH   9  10
ENDBRANCH   8   9
ENDBRANCH   7   8
ENDBRANCH   6   7
ENDBRANCH   5   6
ENDBRANCH   4   5
ENDBRANCH   3   4
ENDBRANCH   2   3
ENDBRANCH   1   2
BRANCH   1  15
ATOM     15  C   UNL     1      12.031 -17.008   8.942  1.00  0.00     0.000 C 
BRANCH  15  16
ATOM     16  C   UNL     1      11.730 -18.211   8.036  1.00  0.00     0.000 C 
BRANCH  16  17
ATOM     17  C   UNL     1      10.291 -18.704   8.237  1.00  0.00     0.000 C 
BRANCH  17  18
ATOM     18  C   UNL     1       9.397 -18.291   7.057  1.00  0.00    -0.000 C 
BRANCH  18  19
ATOM     19  C   UNL     1       8.749 -16.912   7.255  1.00  0.00    -0.000 C 
BRANCH  19  20
ATOM     20  C   UNL     1       9.110 -15.918   6.141  1.00  0.00    -0.000 C 
BRANCH  20  21
ATOM     21  C   UNL     1       9.716 -16.645   4.934  1.00  0.00    -0.000 C 
BRANCH  21  22
ATOM     22  C   UNL     1       8.906 -16.365   3.658  1.00  0.00    -0.000 C 
BRANCH  22  23
ATOM     23  C   UNL     1       7.510 -17.008   3.699  1.00  0.00    -0.000 C 
BRANCH  23  24
ATOM     24  C   UNL     1       7.451 -18.336   2.926  1.00  0.00    -0.000 C 
BRANCH  24  25
ATOM     25  C   UNL     1       7.251 -19.544   3.855  1.00  0.00    -0.003 C 
ATOM     26  C   UNL     1       6.510 -19.178   5.144  1.00  0.00     0.004 C 
ENDBRANCH  24  25
ENDBRANCH  23  24
ENDBRANCH  22  23
ENDBRANCH  21  22
ENDBRANCH  20  21
ENDBRANCH  19  20
ENDBRANCH  18  19
ENDBRANCH  17  18
ENDBRANCH  16  17
ENDBRANCH  15  16
ENDBRANCH   1  15
TORSDOF 22
ENDMDL
MODEL 4
REMARK VINA RESULT:    -4.890      3.111      7.503
REMARK INTER + INTRA:         -14.234
REMARK INTER:                 -10.852
REMARK INTRA:                  -3.382
REMARK UNBOUND:                -3.054
REMARK SMILES CCCCCCCCCCCCCCCCCCCCCCCC(=O)[O-]
REMARK SMILES IDX 13 1 14 2 15 3 16 4 17 5 18 6 19 7 20 8 21 9 22 10 23 11
REMARK SMILES IDX 24 12 25 13 26 14 12 15 11 16 10 17 9 18 8 19 7 20 6 21 5 22
REMARK SMILES IDX 4 23 3 24 2 25 1 26
REMARK H PARENT
REMARK Flexibility Score: inf
ROOT
ATOM      1  C   UNL     1      14.066 -16.361  16.389  1.00  0.00     0.000 C 
ENDROOT
BRANCH   1   2
ATOM      2  C   UNL     1      12.778 -15.520  16.311  1.00  0.00     0.000 C 
BRANCH   2   3
ATOM      3  C   UNL     1      12.508 -14.984  14.895  1.00  0.00     0.000 C 
BRANCH   3   4
ATOM      4  C   UNL     1      11.086 -15.309  14.405  1.00  0.00     0.000 C 
BRANCH   4   5
ATOM      5  C   UNL     1      11.080 -16.228  13.174  1.00  0.00     0.000 C 
BRANCH   5   6
ATOM      6  C   UNL     1      10.534 -15.528  11.918  1.00  0.00     0.000 C 
BRANCH   6   7
ATOM      7  C   UNL     1      11.423 -15.757  10.684  1.00  0.00     0.000 C 
BRANCH   7   8
ATOM      8  C   UNL     1      11.930 -17.207  10.580  1.00  0.00     0.000 C 
BRANCH   8   9
ATOM      9  C   UNL     1      12.850 -17.428   9.369  1.00  0.00     0.000 C 
BRANCH   9  10
ATOM     10  C   UNL     1      12.246 -18.397   8.338  1.00  0.00     0.006 C 
BRANCH  10  11
ATOM     11  C   UNL     1      10.765 -18.685   8.611  1.00  0.00     0.053 C 
BRANCH  11  12
ATOM     12  C   UNL     1       9.872 -17.996   7.625  1.00  0.00     0.041 C 
ATOM     13  O   UNL     1       9.217 -18.667   6.784  1.00  0.00    -0.550 OA
ATOM     14  O   UNL     1       9.784 -16.609   7.618  1.00  0.00    -0.550 OA
ENDBRANCH  11  12
ENDBRANCH  10  11
ENDBRANCH   9  10
ENDBRANCH   8   9
ENDBRANCH   7   8
ENDBRANCH   6   7
ENDBRANCH   5   6
ENDBRANCH   4   5
ENDBRANCH   3   4
ENDBRANCH   2   3
ENDBRANCH   1   2
BRANCH   1  15
ATOM     15  C   UNL     1      14.030 -17.590  15.468  1.00  0.00     0.000 C 
BRANCH  15  16
ATOM     16  C   UNL     1      15.178 -17.597  14.446  1.00  0.00     0.000 C 
BRANCH  16  17
ATOM     17  C   UNL     1      14.678 -17.186  13.055  1.00  0.00     0.000 C 
BRANCH  17  18
ATOM     18  C   UNL     1      15.259 -15.825  12.640  1.00  0.00    -0.000 C 
BRANCH  18  19
ATOM     19  C   UNL     1      16.420 -15.374  13.540  1.00  0.00    -0.000 C 
BRANCH  19  20
ATOM     20  C   UNL     1      16.278 -13.919  14.013  1.00  0.00    -0.000 C 
BRANCH  20  21
ATOM     21  C   UNL     1      15.117 -13.221  13.295  1.00  0.00    -0.000 C 
BRANCH  21  22
ATOM     22  C   UNL     1      15.032 -11.739  13.694  1.00  0.00    -0.000 C 
BRANCH  22  23
ATOM     23  C   UNL     1      14.094 -11.507  14.889  1.00  0.00    -0.000 C 
BRANCH  23  24
ATOM     24  C   UNL     1      13.487 -10.094  14.894  1.00  0.00    -0.000 C 
BRANCH  24  25
ATOM     25  C   UNL     1      11.987 -10.104  15.229  1.00  0.00    -0.003 C 
ATOM     26  C   UNL     1      11.385 -11.511  15.189  1.00  0.00     0.004 C 
ENDBRANCH  24  25
ENDBRANCH  23  24
ENDBRANCH  22  23
ENDBRANCH  21  22
ENDBRANCH  20  21
ENDBRANCH  19  20
ENDBRANCH  18  19
ENDBRANCH  17  18
ENDBRANCH  16  17
ENDBRANCH  15  16
ENDBRANCH   1  15
TORSDOF 22
ENDMDL
MODEL 5
REMARK VINA RESULT:    -4.880      1.974      3.249
REMARK INTER + INTRA:         -14.212
REMARK INTER:                 -11.409
REMARK INTRA:                  -2.802
REMARK UNBOUND:                -3.054
REMARK SMILES CCCCCCCCCCCCCCCCCCCCCCCC(=O)[O-]
REMARK SMILES IDX 13 1 14 2 15 3 16 4 17 5 18 6 19 7 20 8 21 9 22 10 23 11
REMARK SMILES IDX 24 12 25 13 26 14 12 15 11 16 10 17 9 18 8 19 7 20 6 21 5 22
REMARK SMILES IDX 4 23 3 24 2 25 1 26
REMARK H PARENT
REMARK Flexibility Score: inf
ROOT
ATOM      1  C   UNL     1      10.621 -16.038  12.415  1.00  0.00     0.000 C 
ENDROOT
BRANCH   1   2
ATOM      2  C   UNL     1      11.323 -15.168  13.473  1.00  0.00     0.000 C 
BRANCH   2   3
ATOM      3  C   UNL     1      11.285 -15.795  14.876  1.00  0.00     0.000 C 
BRANCH   3   4
ATOM      4  C   UNL     1      12.381 -15.237  15.800  1.00  0.00     0.000 C 
BRANCH   4   5
ATOM      5  C   UNL     1      13.541 -16.225  16.007  1.00  0.00     0.000 C 
BRANCH   5   6
ATOM      6  C   UNL     1      13.348 -17.534  15.223  1.00  0.00     0.000 C 
BRANCH   6   7
ATOM      7  C   UNL     1      14.507 -17.812  14.250  1.00  0.00     0.000 C 
BRANCH   7   8
ATOM      8  C   UNL     1      14.135 -17.510  12.786  1.00  0.00     0.000 C 
BRANCH   8   9
ATOM      9  C   UNL     1      15.087 -16.496  12.132  1.00  0.00     0.000 C 
BRANCH   9  10
ATOM     10  C   UNL     1      14.989 -15.099  12.768  1.00  0.00     0.006 C 
BRANCH  10  11
ATOM     11  C   UNL     1      16.224 -14.758  13.611  1.00  0.00     0.053 C 
BRANCH  11  12
ATOM     12  C   UNL     1      17.135 -13.801  12.903  1.00  0.00     0.041 C 
ATOM     13  O   UNL     1      17.504 -14.032  11.721  1.00  0.00    -0.550 OA
ATOM     14  O   UNL     1      17.599 -12.668  13.561  1.00  0.00    -0.550 OA
ENDBRANCH  11  12
ENDBRANCH  10  11
ENDBRANCH   9  10
ENDBRANCH   8   9
ENDBRANCH   7   8
ENDBRANCH   6   7
ENDBRANCH   5   6
ENDBRANCH   4   5
ENDBRANCH   3   4
ENDBRANCH   2   3
ENDBRANCH   1   2
BRANCH   1  15
ATOM     15  C   UNL     1      11.069 -15.709  10.983  1.00  0.00     0.000 C 
BRANCH  15  16
ATOM     16  C   UNL     1      11.618 -16.934  10.238  1.00  0.00     0.000 C 
BRANCH  16  17
ATOM     17  C   UNL     1      11.182 -16.926   8.768  1.00  0.00     0.000 C 
BRANCH  17  18
ATOM     18  C   UNL     1      10.530 -18.263   8.378  1.00  0.00    -0.000 C 
BRANCH  18  19
ATOM     19  C   UNL     1       9.424 -18.100   7.324  1.00  0.00    -0.000 C 
BRANCH  19  20
ATOM     20  C   UNL     1       9.077 -16.631   7.045  1.00  0.00    -0.000 C 
BRANCH  20  21
ATOM     21  C   UNL     1       9.288 -16.290   5.565  1.00  0.00    -0.000 C 
BRANCH  21  22
ATOM     22  C   UNL     1       7.974 -16.415   4.777  1.00  0.00    -0.000 C 
BRANCH  22  23
ATOM     23  C   UNL     1       8.115 -17.319   3.542  1.00  0.00    -0.000 C 
BRANCH  23  24
ATOM     24  C   UNL     1       6.969 -18.337   3.425  1.00  0.00    -0.000 C 
BRANCH  24  25
ATOM     25  C   UNL     1       6.626 -18.988   4.775  1.00  0.00    -0.003 C 
ATOM     26  C   UNL     1       7.419 -20.272   5.028  1.00  0.00     0.004 C 
ENDBRANCH  24  25
ENDBRANCH  23  24
ENDBRANCH  22  23
ENDBRANCH  21  22
ENDBRANCH  20  21
ENDBRANCH  19  20
ENDBRANCH  18  19
ENDBRANCH  17  18
ENDBRANCH  16  17
ENDBRANCH  15  16
ENDBRANCH   1  15
TORSDOF 22
ENDMDL
MODEL 6
REMARK VINA RESULT:    -4.871      1.493      3.732
REMARK INTER + INTRA:         -14.191
REMARK INTER:                 -10.982
REMARK INTRA:                  -3.209
REMARK UNBOUND:                -3.054
REMARK SMILES CCCCCCCCCCCCCCCCCCCCCCCC(=O)[O-]
REMARK SMILES IDX 13 1 14 2 15 3 16 4 17 5 18 6 19 7 20 8 21 9 22 10 23 11
REMARK SMILES IDX 24 12 25 13 26 14 12 15 11 16 10 17 9 18 8 19 7 20 6 21 5 22
REMARK SMILES IDX 4 23 3 24 2 25 1 26
REMARK H PARENT
REMARK Flexibility Score: inf
ROOT
ATOM      1  C   UNL     1      11.239 -15.837  10.392  1.00  0.00     0.000 C 
ENDROOT
BRANCH   1   2
ATOM      2  C   UNL     1      10.417 -15.525  11.657  1.00  0.00     0.000 C 
BRANCH   2   3
ATOM      3  C   UNL     1      11.062 -16.086  12.935  1.00  0.00     0.000 C 
BRANCH   3   4
ATOM      4  C   UNL     1      11.356 -14.990  13.975  1.00  0.00     0.000 C 
BRANCH   4   5
ATOM      5  C   UNL     1      11.417 -15.536  15.410  1.00  0.00     0.000 C 
BRANCH   5   6
ATOM      6  C   UNL     1      12.671 -15.068  16.167  1.00  0.00     0.000 C 
BRANCH   6   7
ATOM      7  C   UNL     1      13.625 -16.229  16.496  1.00  0.00     0.000 C 
BRANCH   7   8
ATOM      8  C   UNL     1      13.577 -17.351  15.443  1.00  0.00     0.000 C 
BRANCH   8   9
ATOM      9  C   UNL     1      14.962 -17.953  15.157  1.00  0.00     0.000 C 
BRANCH   9  10
ATOM     10  C   UNL     1      15.764 -17.129  14.135  1.00  0.00     0.006 C 
BRANCH  10  11
ATOM     11  C   UNL     1      14.967 -16.862  12.852  1.00  0.00     0.053 C 
BRANCH  11  12
ATOM     12  C   UNL     1      14.853 -15.397  12.561  1.00  0.00     0.041 C 
ATOM     13  O   UNL     1      14.672 -14.995  11.380  1.00  0.00    -0.550 OA
ATOM     14  O   UNL     1      14.976 -14.472  13.591  1.00  0.00    -0.550 OA
ENDBRANCH  11  12
ENDBRANCH  10  11
ENDBRANCH   9  10
ENDBRANCH   8   9
ENDBRANCH   7   8
ENDBRANCH   6   7
ENDBRANCH   5   6
ENDBRANCH   4   5
ENDBRANCH   3   4
ENDBRANCH   2   3
ENDBRANCH   1   2
BRANCH   1  15
ATOM     15  C   UNL     1      12.062 -17.128  10.522  1.00  0.00     0.000 C 
BRANCH  15  16
ATOM     16  C   UNL     1      11.975 -18.013   9.269  1.00  0.00     0.000 C 
BRANCH  16  17
ATOM     17  C   UNL     1      10.775 -17.618   8.399  1.00  0.00     0.000 C 
BRANCH  17  18
ATOM     18  C   UNL     1      10.725 -18.460   7.114  1.00  0.00    -0.000 C 
BRANCH  18  19
ATOM     19  C   UNL     1       9.466 -18.192   6.276  1.00  0.00    -0.000 C 
BRANCH  19  20
ATOM     20  C   UNL     1       8.722 -16.919   6.707  1.00  0.00    -0.000 C 
BRANCH  20  21
ATOM     21  C   UNL     1       8.742 -15.868   5.591  1.00  0.00    -0.000 C 
BRANCH  21  22
ATOM     22  C   UNL     1       9.794 -16.214   4.526  1.00  0.00    -0.000 C 
BRANCH  22  23
ATOM     23  C   UNL     1      11.060 -15.352   4.651  1.00  0.00    -0.000 C 
BRANCH  23  24
ATOM     24  C   UNL     1      10.945 -14.296   5.764  1.00  0.00    -0.000 C 
BRANCH  24  25
ATOM     25  C   UNL     1      12.201 -14.241   6.649  1.00  0.00    -0.003 C 
ATOM     26  C   UNL     1      13.075 -15.489   6.508  1.00  0.00     0.004 C 
ENDBRANCH  24  25
ENDBRANCH  23  24
ENDBRANCH  22  23
ENDBRANCH  21  22
ENDBRANCH  20  21
ENDBRANCH  19  20
ENDBRANCH  18  19
ENDBRANCH  17  18
ENDBRANCH  16  17
ENDBRANCH  15  16
ENDBRANCH   1  15
TORSDOF 22
ENDMDL
MODEL 7
REMARK VINA RESULT:    -4.856      2.501      5.517
REMARK INTER + INTRA:         -14.156
REMARK INTER:                 -11.270
REMARK INTRA:                  -2.886
REMARK UNBOUND:                -3.054
REMARK SMILES CCCCCCCCCCCCCCCCCCCCCCCC(=O)[O-]
REMARK SMILES IDX 13 1 14 2 15 3 16 4 17 5 18 6 19 7 20 8 21 9 22 10 23 11
REMARK SMILES IDX 24 12 25 13 26 14 12 15 11 16 10 17 9 18 8 19 7 20 6 21 5 22
REMARK SMILES IDX 4 23 3 24 2 25 1 26
REMARK H PARENT
REMARK Flexibility Score: inf
ROOT
ATOM      1  C   UNL     1      10.545 -19.084   8.767  1.00  0.00     0.000 C 
ENDROOT
BRANCH   1   2
ATOM      2  C   UNL     1      11.543 -18.083   9.378  1.00  0.00     0.000 C 
BRANCH   2   3
ATOM      3  C   UNL     1      11.138 -16.620   9.132  1.00  0.00     0.000 C 
BRANCH   3   4
ATOM      4  C   UNL     1      11.600 -15.684  10.262  1.00  0.00     0.000 C 
BRANCH   4   5
ATOM      5  C   UNL     1      10.496 -15.415  11.297  1.00  0.00     0.000 C 
BRANCH   5   6
ATOM      6  C   UNL     1      10.703 -16.206  12.600  1.00  0.00     0.000 C 
BRANCH   6   7
ATOM      7  C   UNL     1      11.097 -15.301  13.780  1.00  0.00     0.000 C 
BRANCH   7   8
ATOM      8  C   UNL     1      12.507 -15.609  14.316  1.00  0.00     0.000 C 
BRANCH   8   9
ATOM      9  C   UNL     1      12.821 -17.113  14.326  1.00  0.00     0.000 C 
BRANCH   9  10
ATOM     10  C   UNL     1      14.194 -17.434  13.710  1.00  0.00     0.006 C 
BRANCH  10  11
ATOM     11  C   UNL     1      14.143 -17.488  12.178  1.00  0.00     0.053 C 
BRANCH  11  12
ATOM     12  C   UNL     1      15.100 -16.519  11.555  1.00  0.00     0.041 C 
ATOM     13  O   UNL     1      15.950 -16.917  10.713  1.00  0.00    -0.550 OA
ATOM     14  O   UNL     1      15.073 -15.179  11.924  1.00  0.00    -0.550 OA
ENDBRANCH  11  12
ENDBRANCH  10  11
ENDBRANCH   9  10
ENDBRANCH   8   9
ENDBRANCH   7   8
ENDBRANCH   6   7
ENDBRANCH   5   6
ENDBRANCH   4   5
ENDBRANCH   3   4
ENDBRANCH   2   3
ENDBRANCH   1   2
BRANCH   1  15
ATOM     15  C   UNL     1       9.742 -18.486   7.602  1.00  0.00     0.000 C 
BRANCH  15  16
ATOM     16  C   UNL     1       8.643 -19.432   7.094  1.00  0.00     0.000 C 
BRANCH  16  17
ATOM     17  C   UNL     1       9.021 -20.035   5.735  1.00  0.00     0.000 C 
BRANCH  17  18
ATOM     18  C   UNL     1       7.773 -20.261   4.866  1.00  0.00    -0.000 C 
BRANCH  18  19
ATOM     19  C   UNL     1       6.707 -19.172   5.060  1.00  0.00    -0.000 C 
BRANCH  19  20
ATOM     20  C   UNL     1       6.431 -18.372   3.779  1.00  0.00    -0.000 C 
BRANCH  20  21
ATOM     21  C   UNL     1       7.689 -18.285   2.905  1.00  0.00    -0.000 C 
BRANCH  21  22
ATOM     22  C   UNL     1       8.287 -16.870   2.938  1.00  0.00    -0.000 C 
BRANCH  22  23
ATOM     23  C   UNL     1       9.265 -16.675   4.108  1.00  0.00    -0.000 C 
BRANCH  23  24
ATOM     24  C   UNL     1       8.650 -15.858   5.257  1.00  0.00    -0.000 C 
BRANCH  24  25
ATOM     25  C   UNL     1       9.720 -15.182   6.130  1.00  0.00    -0.003 C 
ATOM     26  C   UNL     1      10.893 -14.640   5.309  1.00  0.00     0.004 C 
ENDBRANCH  24  25
ENDBRANCH  23  24
ENDBRANCH  22  23
ENDBRANCH  21  22
ENDBRANCH  20  21
ENDBRANCH  19  20
ENDBRANCH  18  19
ENDBRANCH  17  18
ENDBRANCH  16  17
ENDBRANCH  15  16
ENDBRANCH   1  15
TORSDOF 22
ENDMDL
MODEL 8
REMARK VINA RESULT:    -4.852      2.572      5.212
REMARK INTER + INTRA:         -14.147
REMARK INTER:                 -11.357
REMARK INTRA:                  -2.791
REMARK UNBOUND:                -3.054
REMARK SMILES CCCCCCCCCCCCCCCCCCCCCCCC(=O)[O-]
REMARK SMILES IDX 13 1 14 2 15 3 16 4 17 5 18 6 19 7 20 8 21 9 22 10 23 11
REMARK SMILES IDX 24 12 25 13 26 14 12 15 11 16 10 17 9 18 8 19 7 20 6 21 5 22
REMARK SMILES IDX 4 23 3 24 2 25 1 26
REMARK H PARENT
REMARK Flexibility Score: inf
ROOT
ATOM      1  C   UNL     1      11.216 -18.530   8.968  1.00  0.00     0.000 C 
ENDROOT
BRANCH   1   2
ATOM      2  C   UNL     1      12.536 -17.765   9.177  1.00  0.00     0.000 C 
BRANCH   2   3
ATOM      3  C   UNL     1      12.895 -17.600  10.664  1.00  0.00     0.000 C 
BRANCH   3   4
ATOM      4  C   UNL     1      12.681 -16.161  11.164  1.00  0.00     0.000 C 
BRANCH   4   5
ATOM      5  C   UNL     1      11.239 -15.903  11.628  1.00  0.00     0.000 C 
BRANCH   5   6
ATOM      6  C   UNL     1      11.021 -16.269  13.106  1.00  0.00     0.000 C 
BRANCH   6   7
ATOM      7  C   UNL     1      11.368 -15.110  14.056  1.00  0.00     0.000 C 
BRANCH   7   8
ATOM      8  C   UNL     1      11.941 -15.597  15.399  1.00  0.00     0.000 C 
BRANCH   8   9
ATOM      9  C   UNL     1      13.478 -15.598  15.421  1.00  0.00     0.000 C 
BRANCH   9  10
ATOM     10  C   UNL     1      14.063 -16.994  15.697  1.00  0.00     0.006 C 
BRANCH  10  11
ATOM     11  C   UNL     1      14.336 -17.773  14.404  1.00  0.00     0.053 C 
BRANCH  11  12
ATOM     12  C   UNL     1      15.585 -17.304  13.723  1.00  0.00     0.041 C 
ATOM     13  O   UNL     1      16.455 -16.658  14.366  1.00  0.00    -0.550 OA
ATOM     14  O   UNL     1      15.776 -17.556  12.370  1.00  0.00    -0.550 OA
ENDBRANCH  11  12
ENDBRANCH  10  11
ENDBRANCH   9  10
ENDBRANCH   8   9
ENDBRANCH   7   8
ENDBRANCH   6   7
ENDBRANCH   5   6
ENDBRANCH   4   5
ENDBRANCH   3   4
ENDBRANCH   2   3
ENDBRANCH   1   2
BRANCH   1  15
ATOM     15  C   UNL     1      10.262 -17.814   8.000  1.00  0.00     0.000 C 
BRANCH  15  16
ATOM     16  C   UNL     1      10.315 -16.285   8.141  1.00  0.00     0.000 C 
BRANCH  16  17
ATOM     17  C   UNL     1      10.421 -15.610   6.768  1.00  0.00     0.000 C 
BRANCH  17  18
ATOM     18  C   UNL     1       9.064 -15.613   6.045  1.00  0.00    -0.000 C 
BRANCH  18  19
ATOM     19  C   UNL     1       9.187 -15.944   4.550  1.00  0.00    -0.000 C 
BRANCH  19  20
ATOM     20  C   UNL     1      10.100 -17.149   4.279  1.00  0.00    -0.000 C 
BRANCH  20  21
ATOM     21  C   UNL     1       9.761 -17.801   2.933  1.00  0.00    -0.000 C 
BRANCH  21  22
ATOM     22  C   UNL     1       8.366 -17.375   2.449  1.00  0.00    -0.000 C 
BRANCH  22  23
ATOM     23  C   UNL     1       7.334 -18.508   2.569  1.00  0.00    -0.000 C 
BRANCH  23  24
ATOM     24  C   UNL     1       6.475 -18.387   3.839  1.00  0.00    -0.000 C 
BRANCH  24  25
ATOM     25  C   UNL     1       6.788 -19.491   4.862  1.00  0.00    -0.003 C 
ATOM     26  C   UNL     1       7.410 -18.942   6.149  1.00  0.00     0.004 C 
ENDBRANCH  24  25
ENDBRANCH  23  24
ENDBRANCH  22  23
ENDBRANCH  21  22
ENDBRANCH  20  21
ENDBRANCH  19  20
ENDBRANCH  18  19
ENDBRANCH  17  18
ENDBRANCH  16  17
ENDBRANCH  15  16
ENDBRANCH   1  15
TORSDOF 22
ENDMDL
MODEL 9
REMARK VINA RESULT:    -4.808      4.139      9.289
REMARK INTER + INTRA:         -14.045
REMARK INTER:                 -10.993
REMARK INTRA:                  -3.052
REMARK UNBOUND:                -3.054
REMARK SMILES CCCCCCCCCCCCCCCCCCCCCCCC(=O)[O-]
REMARK SMILES IDX 13 1 14 2 15 3 16 4 17 5 18 6 19 7 20 8 21 9 22 10 23 11
REMARK SMILES IDX 24 12 25 13 26 14 12 15 11 16 10 17 9 18 8 19 7 20 6 21 5 22
REMARK SMILES IDX 4 23 3 24 2 25 1 26
REMARK H PARENT
REMARK Flexibility Score: inf
ROOT
ATOM      1  C   UNL     1      12.558 -17.800   9.841  1.00  0.00     0.000 C 
ENDROOT
BRANCH   1   2
ATOM      2  C   UNL     1      12.070 -18.754   8.735  1.00  0.00     0.000 C 
BRANCH   2   3
ATOM      3  C   UNL     1      10.851 -19.586   9.166  1.00  0.00     0.000 C 
BRANCH   3   4
ATOM      4  C   UNL     1       9.699 -19.512   8.149  1.00  0.00     0.000 C 
BRANCH   4   5
ATOM      5  C   UNL     1       9.963 -18.495   7.028  1.00  0.00     0.000 C 
BRANCH   5   6
ATOM      6  C   UNL     1       9.145 -17.203   7.198  1.00  0.00     0.000 C 
BRANCH   6   7
ATOM      7  C   UNL     1       9.859 -15.975   6.608  1.00  0.00     0.000 C 
BRANCH   7   8
ATOM      8  C   UNL     1       9.474 -15.716   5.139  1.00  0.00     0.000 C 
BRANCH   8   9
ATOM      9  C   UNL     1       8.097 -16.294   4.778  1.00  0.00     0.000 C 
BRANCH   9  10
ATOM     10  C   UNL     1       8.136 -17.164   3.509  1.00  0.00     0.006 C 
BRANCH  10  11
ATOM     11  C   UNL     1       6.974 -18.164   3.456  1.00  0.00     0.053 C 
BRANCH  11  12
ATOM     12  C   UNL     1       7.127 -19.249   4.479  1.00  0.00     0.041 C 
ATOM     13  O   UNL     1       8.076 -20.072   4.395  1.00  0.00    -0.550 OA
ATOM     14  O   UNL     1       6.202 -19.367   5.510  1.00  0.00    -0.550 OA
ENDBRANCH  11  12
ENDBRANCH  10  11
ENDBRANCH   9  10
ENDBRANCH   8   9
ENDBRANCH   7   8
ENDBRANCH   6   7
ENDBRANCH   5   6
ENDBRANCH   4   5
ENDBRANCH   3   4
ENDBRANCH   2   3
ENDBRANCH   1   2
BRANCH   1  15
ATOM     15  C   UNL     1      11.428 -16.937  10.421  1.00  0.00     0.000 C 
BRANCH  15  16
ATOM     16  C   UNL     1      11.920 -15.980  11.518  1.00  0.00     0.000 C 
BRANCH  16  17
ATOM     17  C   UNL     1      10.897 -15.876  12.656  1.00  0.00     0.000 C 
BRANCH  17  18
ATOM     18  C   UNL     1      11.405 -16.587  13.921  1.00  0.00    -0.000 C 
BRANCH  18  19
ATOM     19  C   UNL     1      12.184 -15.651  14.858  1.00  0.00    -0.000 C 
BRANCH  19  20
ATOM     20  C   UNL     1      13.248 -16.387  15.686  1.00  0.00    -0.000 C 
BRANCH  20  21
ATOM     21  C   UNL     1      13.623 -17.723  15.034  1.00  0.00    -0.000 C 
BRANCH  21  22
ATOM     22  C   UNL     1      15.012 -17.647  14.381  1.00  0.00    -0.000 C 
BRANCH  22  23
ATOM     23  C   UNL     1      14.938 -17.289  12.888  1.00  0.00    -0.000 C 
BRANCH  23  24
ATOM     24  C   UNL     1      15.788 -16.056  12.536  1.00  0.00    -0.000 C 
BRANCH  24  25
ATOM     25  C   UNL     1      15.050 -14.738  12.821  1.00  0.00    -0.003 C 
ATOM     26  C   UNL     1      15.618 -13.996  14.033  1.00  0.00     0.004 C 
ENDBRANCH  24  25
ENDBRANCH  23  24
ENDBRANCH  22  23
ENDBRANCH  21  22
ENDBRANCH  20  21
ENDBRANCH  19  20
ENDBRANCH  18  19
ENDBRANCH  17  18
ENDBRANCH  16  17
ENDBRANCH  15  16
ENDBRANCH   1  15
TORSDOF 22
ENDMDL
