MODEL 1
REMARK VINA RESULT:    -5.514      0.000      0.000
REMARK INTER + INTRA:          -6.621
REMARK INTER:                  -6.642
REMARK INTRA:                   0.021
REMARK UNBOUND:                 0.021
REMARK SMILES O=c1c(O)c(-c2ccc(O)cc2O)oc2cc(O)cc(O)c12
REMARK SMILES IDX 5 1 3 2 2 3 1 4 22 5 20 6 19 7 17 8 16 9 15 10 14 11 6 12
REMARK SMILES IDX 8 13 7 14 9 15 11 16 12 17 10 18 13 20 4 22 21 24 18 26
REMARK H PARENT 10 19 13 21 4 23 21 25 18 27
REMARK Flexibility Score: inf
ROOT
ATOM      1  C   UNL     1       5.210  -6.661  -8.332  1.00  0.00     0.184 A 
ATOM      2  C   UNL     1       5.777  -6.505  -9.606  1.00  0.00     0.208 A 
ATOM      3  C   UNL     1       6.848  -5.612  -9.770  1.00  0.00     0.238 A 
ATOM      4  O   UNL     1       7.391  -5.523 -10.902  1.00  0.00    -0.285 OA
ATOM      5  C   UNL     1       7.320  -4.867  -8.663  1.00  0.00     0.111 A 
ATOM      6  C   UNL     1       8.372  -3.904  -8.721  1.00  0.00     0.134 A 
ATOM      7  C   UNL     1       8.836  -3.316  -7.539  1.00  0.00     0.093 A 
ATOM      8  C   UNL     1       8.245  -3.605  -6.309  1.00  0.00     0.123 A 
ATOM      9  C   UNL     1       7.177  -4.500  -6.248  1.00  0.00     0.094 A 
ATOM     10  C   UNL     1       6.714  -5.131  -7.405  1.00  0.00     0.146 A 
ATOM     11  O   UNL     1       5.706  -5.987  -7.301  1.00  0.00    -0.451 OA
ENDROOT
BRANCH   1  12
ATOM     12  C   UNL     1       4.066  -7.569  -8.104  1.00  0.00     0.063 A 
ATOM     13  C   UNL     1       2.926  -9.655  -8.623  1.00  0.00     0.047 A 
ATOM     14  C   UNL     1       4.021  -8.802  -8.777  1.00  0.00     0.020 A 
ATOM     15  C   UNL     1       1.857  -9.284  -7.800  1.00  0.00     0.119 A 
ATOM     16  C   UNL     1       1.891  -8.060  -7.127  1.00  0.00     0.093 A 
ATOM     17  C   UNL     1       2.988  -7.201  -7.265  1.00  0.00     0.130 A 
BRANCH  15  18
ATOM     18  O   UNL     1       0.757 -10.125  -7.644  1.00  0.00    -0.508 OA
ATOM     19  H   UNL     1      -0.065 -10.036  -8.229  1.00  0.00     0.293 HD
ENDBRANCH  15  18
BRANCH  17  20
ATOM     20  O   UNL     1       2.986  -6.007  -6.541  1.00  0.00    -0.507 OA
ATOM     21  H   UNL     1       3.234  -5.954  -5.562  1.00  0.00     0.293 HD
ENDBRANCH  17  20
ENDBRANCH   1  12
BRANCH   2  22
ATOM     22  O   UNL     1       5.290  -7.251 -10.682  1.00  0.00    -0.502 OA
ATOM     23  H   UNL     1       4.360  -7.653 -10.688  1.00  0.00     0.293 HD
ENDBRANCH   2  22
BRANCH   6  24
ATOM     24  O   UNL     1       8.973  -3.475  -9.908  1.00  0.00    -0.507 OA
ATOM     25  H   UNL     1       9.351  -2.552 -10.062  1.00  0.00     0.293 HD
ENDBRANCH   6  24
BRANCH   8  26
ATOM     26  O   UNL     1       8.723  -2.989  -5.155  1.00  0.00    -0.508 OA
ATOM     27  H   UNL     1       8.903  -1.991  -5.122  1.00  0.00     0.293 HD
ENDBRANCH   8  26
TORSDOF 6
ENDMDL
MODEL 2
REMARK VINA RESULT:    -5.335      5.570      7.139
REMARK INTER + INTRA:          -6.405
REMARK INTER:                  -6.285
REMARK INTRA:                  -0.120
REMARK UNBOUND:                 0.021
REMARK SMILES O=c1c(O)c(-c2ccc(O)cc2O)oc2cc(O)cc(O)c12
REMARK SMILES IDX 5 1 3 2 2 3 1 4 22 5 20 6 19 7 17 8 16 9 15 10 14 11 6 12
REMARK SMILES IDX 8 13 7 14 9 15 11 16 12 17 10 18 13 20 4 22 21 24 18 26
REMARK H PARENT 10 19 13 21 4 23 21 25 18 27
REMARK Flexibility Score: inf
ROOT
ATOM      1  C   UNL     1       9.975  -4.632  -7.665  1.00  0.00     0.184 A 
ATOM      2  C   UNL     1      10.148  -4.644  -9.058  1.00  0.00     0.208 A 
ATOM      3  C   UNL     1      10.704  -5.781  -9.665  1.00  0.00     0.238 A 
ATOM      4  O   UNL     1      10.800  -5.809 -10.920  1.00  0.00    -0.285 OA
ATOM      5  C   UNL     1      11.105  -6.880  -8.867  1.00  0.00     0.111 A 
ATOM      6  C   UNL     1      11.717  -8.068  -9.370  1.00  0.00     0.134 A 
ATOM      7  C   UNL     1      11.961  -9.139  -8.503  1.00  0.00     0.093 A 
ATOM      8  C   UNL     1      11.676  -9.044  -7.142  1.00  0.00     0.123 A 
ATOM      9  C   UNL     1      11.132  -7.867  -6.628  1.00  0.00     0.094 A 
ATOM     10  C   UNL     1      10.843  -6.793  -7.474  1.00  0.00     0.146 A 
ATOM     11  O   UNL     1      10.313  -5.696  -6.948  1.00  0.00    -0.451 OA
ENDROOT
BRANCH   1  12
ATOM     12  C   UNL     1       9.416  -3.453  -6.969  1.00  0.00     0.063 A 
ATOM     13  C   UNL     1       7.731  -1.700  -6.864  1.00  0.00     0.047 A 
ATOM     14  C   UNL     1       8.250  -2.847  -7.469  1.00  0.00     0.020 A 
ATOM     15  C   UNL     1       8.374  -1.139  -5.756  1.00  0.00     0.119 A 
ATOM     16  C   UNL     1       9.534  -1.733  -5.252  1.00  0.00     0.093 A 
ATOM     17  C   UNL     1      10.058  -2.889  -5.843  1.00  0.00     0.130 A 
BRANCH  15  18
ATOM     18  O   UNL     1       7.868   0.008  -5.148  1.00  0.00    -0.508 OA
ATOM     19  H   UNL     1       8.321   0.426  -4.344  1.00  0.00     0.293 HD
ENDBRANCH  15  18
BRANCH  17  20
ATOM     20  O   UNL     1      11.199  -3.461  -5.275  1.00  0.00    -0.507 OA
ATOM     21  H   UNL     1      11.243  -3.765  -4.311  1.00  0.00     0.293 HD
ENDBRANCH  17  20
ENDBRANCH   1  12
BRANCH   2  22
ATOM     22  O   UNL     1       9.745  -3.544  -9.821  1.00  0.00    -0.502 OA
ATOM     23  H   UNL     1       8.811  -3.155  -9.762  1.00  0.00     0.293 HD
ENDBRANCH   2  22
BRANCH   6  24
ATOM     24  O   UNL     1      12.125  -8.234 -10.697  1.00  0.00    -0.507 OA
ATOM     25  H   UNL     1      12.905  -8.801 -10.993  1.00  0.00     0.293 HD
ENDBRANCH   6  24
BRANCH   8  26
ATOM     26  O   UNL     1      11.947 -10.125  -6.306  1.00  0.00    -0.508 OA
ATOM     27  H   UNL     1      12.720 -10.107  -5.650  1.00  0.00     0.293 HD
ENDBRANCH   8  26
TORSDOF 6
ENDMDL
MODEL 3
REMARK VINA RESULT:    -5.291      2.163      2.415
REMARK INTER + INTRA:          -6.353
REMARK INTER:                  -5.987
REMARK INTRA:                  -0.366
REMARK UNBOUND:                 0.021
REMARK SMILES O=c1c(O)c(-c2ccc(O)cc2O)oc2cc(O)cc(O)c12
REMARK SMILES IDX 5 1 3 2 2 3 1 4 22 5 20 6 19 7 17 8 16 9 15 10 14 11 6 12
REMARK SMILES IDX 8 13 7 14 9 15 11 16 12 17 10 18 13 20 4 22 21 24 18 26
REMARK H PARENT 10 19 13 21 4 23 21 25 18 27
REMARK Flexibility Score: inf
ROOT
ATOM      1  C   UNL     1       6.197  -6.754  -8.770  1.00  0.00     0.184 A 
ATOM      2  C   UNL     1       7.375  -7.424  -8.403  1.00  0.00     0.208 A 
ATOM      3  C   UNL     1       8.457  -6.677  -7.911  1.00  0.00     0.238 A 
ATOM      4  O   UNL     1       9.487  -7.290  -7.527  1.00  0.00    -0.285 OA
ATOM      5  C   UNL     1       8.357  -5.268  -7.819  1.00  0.00     0.111 A 
ATOM      6  C   UNL     1       9.404  -4.407  -7.372  1.00  0.00     0.134 A 
ATOM      7  C   UNL     1       9.151  -3.041  -7.207  1.00  0.00     0.093 A 
ATOM      8  C   UNL     1       7.911  -2.492  -7.532  1.00  0.00     0.123 A 
ATOM      9  C   UNL     1       6.898  -3.314  -8.025  1.00  0.00     0.094 A 
ATOM     10  C   UNL     1       7.107  -4.688  -8.167  1.00  0.00     0.146 A 
ATOM     11  O   UNL     1       6.113  -5.437  -8.625  1.00  0.00    -0.451 OA
ENDROOT
BRANCH   1  12
ATOM     12  C   UNL     1       5.034  -7.485  -9.316  1.00  0.00     0.063 A 
ATOM     13  C   UNL     1       4.050  -8.782 -11.125  1.00  0.00     0.047 A 
ATOM     14  C   UNL     1       5.148  -8.131 -10.560  1.00  0.00     0.020 A 
ATOM     15  C   UNL     1       2.819  -8.790 -10.460  1.00  0.00     0.119 A 
ATOM     16  C   UNL     1       2.694  -8.149  -9.224  1.00  0.00     0.093 A 
ATOM     17  C   UNL     1       3.791  -7.502  -8.642  1.00  0.00     0.130 A 
BRANCH  15  18
ATOM     18  O   UNL     1       1.715  -9.431 -11.017  1.00  0.00    -0.508 OA
ATOM     19  H   UNL     1       1.568 -10.427 -10.904  1.00  0.00     0.293 HD
ENDBRANCH  15  18
BRANCH  17  20
ATOM     20  O   UNL     1       3.618  -6.910  -7.389  1.00  0.00    -0.507 OA
ATOM     21  H   UNL     1       3.327  -7.426  -6.569  1.00  0.00     0.293 HD
ENDBRANCH  17  20
ENDBRANCH   1  12
BRANCH   2  22
ATOM     22  O   UNL     1       7.447  -8.815  -8.507  1.00  0.00    -0.502 OA
ATOM     23  H   UNL     1       7.700  -9.283  -9.370  1.00  0.00     0.293 HD
ENDBRANCH   2  22
BRANCH   6  24
ATOM     24  O   UNL     1      10.707  -4.837  -7.106  1.00  0.00    -0.507 OA
ATOM     25  H   UNL     1      11.195  -5.554  -7.622  1.00  0.00     0.293 HD
ENDBRANCH   6  24
BRANCH   8  26
ATOM     26  O   UNL     1       7.701  -1.125  -7.370  1.00  0.00    -0.508 OA
ATOM     27  H   UNL     1       8.196  -0.592  -6.663  1.00  0.00     0.293 HD
ENDBRANCH   8  26
TORSDOF 6
ENDMDL
MODEL 4
REMARK VINA RESULT:    -5.239      2.337      3.071
REMARK INTER + INTRA:          -6.289
REMARK INTER:                  -6.009
REMARK INTRA:                  -0.280
REMARK UNBOUND:                 0.021
REMARK SMILES O=c1c(O)c(-c2ccc(O)cc2O)oc2cc(O)cc(O)c12
REMARK SMILES IDX 5 1 3 2 2 3 1 4 22 5 20 6 19 7 17 8 16 9 15 10 14 11 6 12
REMARK SMILES IDX 8 13 7 14 9 15 11 16 12 17 10 18 13 20 4 22 21 24 18 26
REMARK H PARENT 10 19 13 21 4 23 21 25 18 27
REMARK Flexibility Score: inf
ROOT
ATOM      1  C   UNL     1       4.555  -7.473  -7.976  1.00  0.00     0.184 A 
ATOM      2  C   UNL     1       5.147  -8.717  -8.246  1.00  0.00     0.208 A 
ATOM      3  C   UNL     1       6.540  -8.786  -8.404  1.00  0.00     0.238 A 
ATOM      4  O   UNL     1       7.071  -9.913  -8.585  1.00  0.00    -0.285 OA
ATOM      5  C   UNL     1       7.319  -7.607  -8.318  1.00  0.00     0.111 A 
ATOM      6  C   UNL     1       8.734  -7.553  -8.501  1.00  0.00     0.134 A 
ATOM      7  C   UNL     1       9.414  -6.352  -8.273  1.00  0.00     0.093 A 
ATOM      8  C   UNL     1       8.728  -5.187  -7.931  1.00  0.00     0.123 A 
ATOM      9  C   UNL     1       7.338  -5.214  -7.806  1.00  0.00     0.094 A 
ATOM     10  C   UNL     1       6.634  -6.406  -7.992  1.00  0.00     0.146 A 
ATOM     11  O   UNL     1       5.314  -6.392  -7.850  1.00  0.00    -0.451 OA
ENDROOT
BRANCH   1  12
ATOM     12  C   UNL     1       3.091  -7.335  -7.823  1.00  0.00     0.063 A 
ATOM     13  C   UNL     1       1.178  -6.912  -6.379  1.00  0.00     0.047 A 
ATOM     14  C   UNL     1       2.559  -6.995  -6.566  1.00  0.00     0.020 A 
ATOM     15  C   UNL     1       0.308  -7.174  -7.443  1.00  0.00     0.119 A 
ATOM     16  C   UNL     1       0.826  -7.514  -8.695  1.00  0.00     0.093 A 
ATOM     17  C   UNL     1       2.209  -7.590  -8.898  1.00  0.00     0.130 A 
BRANCH  15  18
ATOM     18  O   UNL     1      -1.072  -7.099  -7.266  1.00  0.00    -0.508 OA
ATOM     19  H   UNL     1      -1.662  -7.919  -7.343  1.00  0.00     0.293 HD
ENDBRANCH  15  18
BRANCH  17  20
ATOM     20  O   UNL     1       2.672  -7.898 -10.180  1.00  0.00    -0.507 OA
ATOM     21  H   UNL     1       2.976  -7.196 -10.841  1.00  0.00     0.293 HD
ENDBRANCH  17  20
ENDBRANCH   1  12
BRANCH   2  22
ATOM     22  O   UNL     1       4.354  -9.864  -8.328  1.00  0.00    -0.502 OA
ATOM     23  H   UNL     1       4.128 -10.427  -7.517  1.00  0.00     0.293 HD
ENDBRANCH   2  22
BRANCH   6  24
ATOM     24  O   UNL     1       9.507  -8.636  -8.929  1.00  0.00    -0.507 OA
ATOM     25  H   UNL     1      10.500  -8.731  -8.778  1.00  0.00     0.293 HD
ENDBRANCH   6  24
BRANCH   8  26
ATOM     26  O   UNL     1       9.436  -4.006  -7.727  1.00  0.00    -0.508 OA
ATOM     27  H   UNL     1       9.157  -3.137  -8.168  1.00  0.00     0.293 HD
ENDBRANCH   8  26
TORSDOF 6
ENDMDL
MODEL 5
REMARK VINA RESULT:    -5.233      2.549      4.033
REMARK INTER + INTRA:          -6.283
REMARK INTER:                  -5.883
REMARK INTRA:                  -0.400
REMARK UNBOUND:                 0.021
REMARK SMILES O=c1c(O)c(-c2ccc(O)cc2O)oc2cc(O)cc(O)c12
REMARK SMILES IDX 5 1 3 2 2 3 1 4 22 5 20 6 19 7 17 8 16 9 15 10 14 11 6 12
REMARK SMILES IDX 8 13 7 14 9 15 11 16 12 17 10 18 13 20 4 22 21 24 18 26
REMARK H PARENT 10 19 13 21 4 23 21 25 18 27
REMARK Flexibility Score: inf
ROOT
ATOM      1  C   UNL     1       7.944  -5.471  -8.185  1.00  0.00     0.184 A 
ATOM      2  C   UNL     1       9.281  -5.857  -8.003  1.00  0.00     0.208 A 
ATOM      3  C   UNL     1      10.139  -5.017  -7.275  1.00  0.00     0.238 A 
ATOM      4  O   UNL     1      11.320  -5.397  -7.063  1.00  0.00    -0.285 OA
ATOM      5  C   UNL     1       9.654  -3.789  -6.762  1.00  0.00     0.111 A 
ATOM      6  C   UNL     1      10.444  -2.841  -6.044  1.00  0.00     0.134 A 
ATOM      7  C   UNL     1       9.829  -1.717  -5.480  1.00  0.00     0.093 A 
ATOM      8  C   UNL     1       8.468  -1.472  -5.661  1.00  0.00     0.123 A 
ATOM      9  C   UNL     1       7.698  -2.361  -6.410  1.00  0.00     0.094 A 
ATOM     10  C   UNL     1       8.274  -3.511  -6.956  1.00  0.00     0.146 A 
ATOM     11  O   UNL     1       7.504  -4.339  -7.650  1.00  0.00    -0.451 OA
ENDROOT
BRANCH   1  12
ATOM     12  C   UNL     1       7.002  -6.304  -8.962  1.00  0.00     0.063 A 
ATOM     13  C   UNL     1       5.350  -8.091  -9.007  1.00  0.00     0.047 A 
ATOM     14  C   UNL     1       6.208  -7.253  -8.293  1.00  0.00     0.020 A 
ATOM     15  C   UNL     1       5.278  -7.998 -10.401  1.00  0.00     0.119 A 
ATOM     16  C   UNL     1       6.063  -7.060 -11.076  1.00  0.00     0.093 A 
ATOM     17  C   UNL     1       6.920  -6.207 -10.370  1.00  0.00     0.130 A 
BRANCH  15  18
ATOM     18  O   UNL     1       4.429  -8.833 -11.125  1.00  0.00    -0.508 OA
ATOM     19  H   UNL     1       4.064  -9.691 -10.728  1.00  0.00     0.293 HD
ENDBRANCH  15  18
BRANCH  17  20
ATOM     20  O   UNL     1       7.654  -5.263 -11.092  1.00  0.00    -0.507 OA
ATOM     21  H   UNL     1       8.654  -5.327 -11.227  1.00  0.00     0.293 HD
ENDBRANCH  17  20
ENDBRANCH   1  12
BRANCH   2  22
ATOM     22  O   UNL     1       9.733  -7.073  -8.522  1.00  0.00    -0.502 OA
ATOM     23  H   UNL     1      10.369  -7.125  -9.309  1.00  0.00     0.293 HD
ENDBRANCH   2  22
BRANCH   6  24
ATOM     24  O   UNL     1      11.828  -2.942  -5.881  1.00  0.00    -0.507 OA
ATOM     25  H   UNL     1      12.288  -3.543  -5.213  1.00  0.00     0.293 HD
ENDBRANCH   6  24
BRANCH   8  26
ATOM     26  O   UNL     1       7.894  -0.335  -5.098  1.00  0.00    -0.508 OA
ATOM     27  H   UNL     1       7.360  -0.381  -4.238  1.00  0.00     0.293 HD
ENDBRANCH   8  26
TORSDOF 6
ENDMDL
MODEL 6
REMARK VINA RESULT:    -5.184      2.633      6.693
REMARK INTER + INTRA:          -6.223
REMARK INTER:                  -5.860
REMARK INTRA:                  -0.364
REMARK UNBOUND:                 0.021
REMARK SMILES O=c1c(O)c(-c2ccc(O)cc2O)oc2cc(O)cc(O)c12
REMARK SMILES IDX 5 1 3 2 2 3 1 4 22 5 20 6 19 7 17 8 16 9 15 10 14 11 6 12
REMARK SMILES IDX 8 13 7 14 9 15 11 16 12 17 10 18 13 20 4 22 21 24 18 26
REMARK H PARENT 10 19 13 21 4 23 21 25 18 27
REMARK Flexibility Score: inf
ROOT
ATOM      1  C   UNL     1       8.311  -4.627  -8.357  1.00  0.00     0.184 A 
ATOM      2  C   UNL     1       9.443  -5.162  -8.992  1.00  0.00     0.208 A 
ATOM      3  C   UNL     1       9.307  -6.337  -9.748  1.00  0.00     0.238 A 
ATOM      4  O   UNL     1      10.313  -6.778 -10.363  1.00  0.00    -0.285 OA
ATOM      5  C   UNL     1       8.046  -6.976  -9.837  1.00  0.00     0.111 A 
ATOM      6  C   UNL     1       7.801  -8.192 -10.542  1.00  0.00     0.134 A 
ATOM      7  C   UNL     1       6.490  -8.668 -10.664  1.00  0.00     0.093 A 
ATOM      8  C   UNL     1       5.424  -8.008 -10.053  1.00  0.00     0.123 A 
ATOM      9  C   UNL     1       5.660  -6.850  -9.311  1.00  0.00     0.094 A 
ATOM     10  C   UNL     1       6.952  -6.330  -9.201  1.00  0.00     0.146 A 
ATOM     11  O   UNL     1       7.131  -5.218  -8.499  1.00  0.00    -0.451 OA
ENDROOT
BRANCH   1  12
ATOM     12  C   UNL     1       8.398  -3.405  -7.529  1.00  0.00     0.063 A 
ATOM     13  C   UNL     1       9.210  -2.306  -5.515  1.00  0.00     0.047 A 
ATOM     14  C   UNL     1       9.155  -3.429  -6.345  1.00  0.00     0.020 A 
ATOM     15  C   UNL     1       8.503  -1.148  -5.853  1.00  0.00     0.119 A 
ATOM     16  C   UNL     1       7.746  -1.114  -7.027  1.00  0.00     0.093 A 
ATOM     17  C   UNL     1       7.691  -2.229  -7.873  1.00  0.00     0.130 A 
BRANCH  15  18
ATOM     18  O   UNL     1       8.546  -0.025  -5.030  1.00  0.00    -0.508 OA
ATOM     19  H   UNL     1       9.419   0.442  -4.815  1.00  0.00     0.293 HD
ENDBRANCH  15  18
BRANCH  17  20
ATOM     20  O   UNL     1       6.949  -2.128  -9.051  1.00  0.00    -0.507 OA
ATOM     21  H   UNL     1       7.368  -1.954  -9.956  1.00  0.00     0.293 HD
ENDBRANCH  17  20
ENDBRANCH   1  12
BRANCH   2  22
ATOM     22  O   UNL     1      10.675  -4.512  -8.884  1.00  0.00    -0.502 OA
ATOM     23  H   UNL     1      10.964  -4.031  -8.041  1.00  0.00     0.293 HD
ENDBRANCH   2  22
BRANCH   6  24
ATOM     24  O   UNL     1       8.805  -8.979 -11.114  1.00  0.00    -0.507 OA
ATOM     25  H   UNL     1       8.708  -9.504 -11.971  1.00  0.00     0.293 HD
ENDBRANCH   6  24
BRANCH   8  26
ATOM     26  O   UNL     1       4.135  -8.519 -10.182  1.00  0.00    -0.508 OA
ATOM     27  H   UNL     1       3.381  -8.215  -9.575  1.00  0.00     0.293 HD
ENDBRANCH   8  26
TORSDOF 6
ENDMDL
MODEL 7
REMARK VINA RESULT:    -5.136      2.580      6.640
REMARK INTER + INTRA:          -6.165
REMARK INTER:                  -5.811
REMARK INTRA:                  -0.354
REMARK UNBOUND:                 0.021
REMARK SMILES O=c1c(O)c(-c2ccc(O)cc2O)oc2cc(O)cc(O)c12
REMARK SMILES IDX 5 1 3 2 2 3 1 4 22 5 20 6 19 7 17 8 16 9 15 10 14 11 6 12
REMARK SMILES IDX 8 13 7 14 9 15 11 16 12 17 10 18 13 20 4 22 21 24 18 26
REMARK H PARENT 10 19 13 21 4 23 21 25 18 27
REMARK Flexibility Score: inf
ROOT
ATOM      1  C   UNL     1       4.383  -8.206  -9.009  1.00  0.00     0.184 A 
ATOM      2  C   UNL     1       3.842  -8.967 -10.057  1.00  0.00     0.208 A 
ATOM      3  C   UNL     1       2.448  -9.106 -10.148  1.00  0.00     0.238 A 
ATOM      4  O   UNL     1       1.968  -9.738 -11.125  1.00  0.00    -0.285 OA
ATOM      5  C   UNL     1       1.615  -8.505  -9.174  1.00  0.00     0.111 A 
ATOM      6  C   UNL     1       0.192  -8.613  -9.144  1.00  0.00     0.134 A 
ATOM      7  C   UNL     1      -0.537  -7.877  -8.203  1.00  0.00     0.093 A 
ATOM      8  C   UNL     1       0.106  -7.087  -7.250  1.00  0.00     0.123 A 
ATOM      9  C   UNL     1       1.499  -7.020  -7.233  1.00  0.00     0.094 A 
ATOM     10  C   UNL     1       2.254  -7.714  -8.181  1.00  0.00     0.146 A 
ATOM     11  O   UNL     1       3.576  -7.612  -8.138  1.00  0.00    -0.451 OA
ENDROOT
BRANCH   1  12
ATOM     12  C   UNL     1       5.844  -8.044  -8.849  1.00  0.00     0.063 A 
ATOM     13  C   UNL     1       8.011  -9.043  -8.372  1.00  0.00     0.047 A 
ATOM     14  C   UNL     1       6.637  -9.174  -8.582  1.00  0.00     0.020 A 
ATOM     15  C   UNL     1       8.611  -7.780  -8.417  1.00  0.00     0.119 A 
ATOM     16  C   UNL     1       7.832  -6.650  -8.680  1.00  0.00     0.093 A 
ATOM     17  C   UNL     1       6.455  -6.770  -8.903  1.00  0.00     0.130 A 
BRANCH  15  18
ATOM     18  O   UNL     1       9.980  -7.637  -8.204  1.00  0.00    -0.508 OA
ATOM     19  H   UNL     1      10.449  -6.750  -8.343  1.00  0.00     0.293 HD
ENDBRANCH  15  18
BRANCH  17  20
ATOM     20  O   UNL     1       5.731  -5.612  -9.197  1.00  0.00    -0.507 OA
ATOM     21  H   UNL     1       5.166  -5.125  -8.514  1.00  0.00     0.293 HD
ENDBRANCH  17  20
ENDBRANCH   1  12
BRANCH   2  22
ATOM     22  O   UNL     1       4.688  -9.551 -11.003  1.00  0.00    -0.502 OA
ATOM     23  H   UNL     1       4.337 -10.030 -11.824  1.00  0.00     0.293 HD
ENDBRANCH   2  22
BRANCH   6  24
ATOM     24  O   UNL     1      -0.545  -9.444  -9.993  1.00  0.00    -0.507 OA
ATOM     25  H   UNL     1      -0.215  -9.806 -10.875  1.00  0.00     0.293 HD
ENDBRANCH   6  24
BRANCH   8  26
ATOM     26  O   UNL     1      -0.652  -6.381  -6.319  1.00  0.00    -0.508 OA
ATOM     27  H   UNL     1      -0.841  -6.755  -5.396  1.00  0.00     0.293 HD
ENDBRANCH   8  26
TORSDOF 6
ENDMDL
MODEL 8
REMARK VINA RESULT:    -5.127      4.670      7.487
REMARK INTER + INTRA:          -6.155
REMARK INTER:                  -5.991
REMARK INTRA:                  -0.164
REMARK UNBOUND:                 0.021
REMARK SMILES O=c1c(O)c(-c2ccc(O)cc2O)oc2cc(O)cc(O)c12
REMARK SMILES IDX 5 1 3 2 2 3 1 4 22 5 20 6 19 7 17 8 16 9 15 10 14 11 6 12
REMARK SMILES IDX 8 13 7 14 9 15 11 16 12 17 10 18 13 20 4 22 21 24 18 26
REMARK H PARENT 10 19 13 21 4 23 21 25 18 27
REMARK Flexibility Score: inf
ROOT
ATOM      1  C   UNL     1      -1.684  -8.545  -8.345  1.00  0.00     0.184 A 
ATOM      2  C   UNL     1      -1.058  -7.681  -9.257  1.00  0.00     0.208 A 
ATOM      3  C   UNL     1       0.315  -7.426  -9.121  1.00  0.00     0.238 A 
ATOM      4  O   UNL     1       0.881  -6.698  -9.978  1.00  0.00    -0.285 OA
ATOM      5  C   UNL     1       1.040  -8.017  -8.058  1.00  0.00     0.111 A 
ATOM      6  C   UNL     1       2.426  -7.798  -7.800  1.00  0.00     0.134 A 
ATOM      7  C   UNL     1       3.065  -8.530  -6.792  1.00  0.00     0.093 A 
ATOM      8  C   UNL     1       2.357  -9.425  -5.992  1.00  0.00     0.123 A 
ATOM      9  C   UNL     1       0.989  -9.605  -6.196  1.00  0.00     0.094 A 
ATOM     10  C   UNL     1       0.329  -8.916  -7.217  1.00  0.00     0.146 A 
ATOM     11  O   UNL     1      -0.970  -9.126  -7.388  1.00  0.00    -0.451 OA
ENDROOT
BRANCH   1  12
ATOM     12  C   UNL     1      -3.131  -8.833  -8.425  1.00  0.00     0.063 A 
ATOM     13  C   UNL     1      -5.062  -9.450  -9.772  1.00  0.00     0.047 A 
ATOM     14  C   UNL     1      -3.689  -9.225  -9.654  1.00  0.00     0.020 A 
ATOM     15  C   UNL     1      -5.899  -9.278  -8.664  1.00  0.00     0.119 A 
ATOM     16  C   UNL     1      -5.356  -8.887  -7.438  1.00  0.00     0.093 A 
ATOM     17  C   UNL     1      -3.979  -8.669  -7.305  1.00  0.00     0.130 A 
BRANCH  15  18
ATOM     18  O   UNL     1      -7.271  -9.494  -8.772  1.00  0.00    -0.508 OA
ATOM     19  H   UNL     1      -7.646 -10.390  -9.059  1.00  0.00     0.293 HD
ENDBRANCH  15  18
BRANCH  17  20
ATOM     20  O   UNL     1      -3.486  -8.315  -6.047  1.00  0.00    -0.507 OA
ATOM     21  H   UNL     1      -4.031  -8.390  -5.198  1.00  0.00     0.293 HD
ENDBRANCH  17  20
ENDBRANCH   1  12
BRANCH   2  22
ATOM     22  O   UNL     1      -1.798  -7.109 -10.295  1.00  0.00    -0.502 OA
ATOM     23  H   UNL     1      -2.247  -7.666 -11.013  1.00  0.00     0.293 HD
ENDBRANCH   2  22
BRANCH   6  24
ATOM     24  O   UNL     1       3.208  -6.860  -8.481  1.00  0.00    -0.507 OA
ATOM     25  H   UNL     1       3.867  -6.233  -8.044  1.00  0.00     0.293 HD
ENDBRANCH   6  24
BRANCH   8  26
ATOM     26  O   UNL     1       3.023 -10.125  -4.988  1.00  0.00    -0.508 OA
ATOM     27  H   UNL     1       3.882 -10.631  -5.175  1.00  0.00     0.293 HD
ENDBRANCH   8  26
TORSDOF 6
ENDMDL
MODEL 9
REMARK VINA RESULT:    -4.982      1.560      2.015
REMARK INTER + INTRA:          -5.980
REMARK INTER:                  -5.713
REMARK INTRA:                  -0.267
REMARK UNBOUND:                 0.021
REMARK SMILES O=c1c(O)c(-c2ccc(O)cc2O)oc2cc(O)cc(O)c12
REMARK SMILES IDX 5 1 3 2 2 3 1 4 22 5 20 6 19 7 17 8 16 9 15 10 14 11 6 12
REMARK SMILES IDX 8 13 7 14 9 15 11 16 12 17 10 18 13 20 4 22 21 24 18 26
REMARK H PARENT 10 19 13 21 4 23 21 25 18 27
REMARK Flexibility Score: inf
ROOT
ATOM      1  C   UNL     1       5.393  -7.404  -8.320  1.00  0.00     0.184 A 
ATOM      2  C   UNL     1       6.566  -7.944  -8.871  1.00  0.00     0.208 A 
ATOM      3  C   UNL     1       7.779  -7.260  -8.692  1.00  0.00     0.238 A 
ATOM      4  O   UNL     1       8.835  -7.781  -9.136  1.00  0.00    -0.285 OA
ATOM      5  C   UNL     1       7.798  -6.032  -7.988  1.00  0.00     0.111 A 
ATOM      6  C   UNL     1       8.963  -5.234  -7.780  1.00  0.00     0.134 A 
ATOM      7  C   UNL     1       8.886  -4.098  -6.965  1.00  0.00     0.093 A 
ATOM      8  C   UNL     1       7.676  -3.695  -6.403  1.00  0.00     0.123 A 
ATOM      9  C   UNL     1       6.518  -4.435  -6.646  1.00  0.00     0.094 A 
ATOM     10  C   UNL     1       6.569  -5.593  -7.426  1.00  0.00     0.146 A 
ATOM     11  O   UNL     1       5.449  -6.277  -7.621  1.00  0.00    -0.451 OA
ENDROOT
BRANCH   1  12
ATOM     12  C   UNL     1       4.084  -8.067  -8.496  1.00  0.00     0.063 A 
ATOM     13  C   UNL     1       2.211  -9.275  -7.517  1.00  0.00     0.047 A 
ATOM     14  C   UNL     1       3.423  -8.595  -7.373  1.00  0.00     0.020 A 
ATOM     15  C   UNL     1       1.647  -9.443  -8.786  1.00  0.00     0.119 A 
ATOM     16  C   UNL     1       2.296  -8.923  -9.909  1.00  0.00     0.093 A 
ATOM     17  C   UNL     1       3.506  -8.231  -9.776  1.00  0.00     0.130 A 
BRANCH  15  18
ATOM     18  O   UNL     1       0.442 -10.125  -8.941  1.00  0.00    -0.508 OA
ATOM     19  H   UNL     1       0.345 -10.887  -9.601  1.00  0.00     0.293 HD
ENDBRANCH  15  18
BRANCH  17  20
ATOM     20  O   UNL     1       4.092  -7.700 -10.928  1.00  0.00    -0.507 OA
ATOM     21  H   UNL     1       5.032  -7.328 -10.948  1.00  0.00     0.293 HD
ENDBRANCH  17  20
ENDBRANCH   1  12
BRANCH   2  22
ATOM     22  O   UNL     1       6.517  -9.156  -9.563  1.00  0.00    -0.502 OA
ATOM     23  H   UNL     1       6.265 -10.028  -9.114  1.00  0.00     0.293 HD
ENDBRANCH   2  22
BRANCH   6  24
ATOM     24  O   UNL     1      10.204  -5.495  -8.369  1.00  0.00    -0.507 OA
ATOM     25  H   UNL     1      10.782  -4.806  -8.827  1.00  0.00     0.293 HD
ENDBRANCH   6  24
BRANCH   8  26
ATOM     26  O   UNL     1       7.633  -2.551  -5.610  1.00  0.00    -0.508 OA
ATOM     27  H   UNL     1       8.458  -1.982  -5.456  1.00  0.00     0.293 HD
ENDBRANCH   8  26
TORSDOF 6
ENDMDL
