MODEL 1
REMARK VINA RESULT:    -3.812      0.000      0.000
REMARK INTER + INTRA:          -6.688
REMARK INTER:                  -6.041
REMARK INTRA:                  -0.647
REMARK UNBOUND:                -0.647
REMARK SMILES CCCCCCCCCCCC(=O)[O-]
REMARK SMILES IDX 7 1 8 2 9 3 10 4 11 5 12 6 13 7 14 8 6 9 5 10 4 11 3 12 2 13
REMARK SMILES IDX 1 14
REMARK H PARENT
REMARK Flexibility Score: inf
ROOT
ATOM      1  C   UNL     1     -17.796 -17.974  -3.166  1.00  0.00     0.000 C 
ENDROOT
BRANCH   1   2
ATOM      2  C   UNL     1     -17.531 -16.507  -2.794  1.00  0.00     0.000 C 
BRANCH   2   3
ATOM      3  C   UNL     1     -16.095 -16.062  -3.127  1.00  0.00     0.000 C 
BRANCH   3   4
ATOM      4  C   UNL     1     -16.049 -14.693  -3.825  1.00  0.00     0.006 C 
BRANCH   4   5
ATOM      5  C   UNL     1     -16.150 -14.803  -5.352  1.00  0.00     0.053 C 
BRANCH   5   6
ATOM      6  C   UNL     1     -16.408 -13.459  -5.955  1.00  0.00     0.041 C 
ATOM      7  O   UNL     1     -17.263 -13.329  -6.870  1.00  0.00    -0.550 OA
ATOM      8  O   UNL     1     -15.740 -12.341  -5.474  1.00  0.00    -0.550 OA
ENDBRANCH   5   6
ENDBRANCH   4   5
ENDBRANCH   3   4
ENDBRANCH   2   3
ENDBRANCH   1   2
BRANCH   1   9
ATOM      9  C   UNL     1     -18.242 -18.146  -4.626  1.00  0.00     0.000 C 
BRANCH   9  10
ATOM     10  C   UNL     1     -17.806 -19.513  -5.174  1.00  0.00    -0.000 C 
BRANCH  10  11
ATOM     11  C   UNL     1     -18.698 -20.666  -4.681  1.00  0.00    -0.000 C 
BRANCH  11  12
ATOM     12  C   UNL     1     -19.839 -21.058  -5.638  1.00  0.00    -0.000 C 
BRANCH  12  13
ATOM     13  C   UNL     1     -21.249 -20.819  -5.057  1.00  0.00    -0.003 C 
ATOM     14  C   UNL     1     -21.906 -19.557  -5.617  1.00  0.00     0.004 C 
ENDBRANCH  12  13
ENDBRANCH  11  12
ENDBRANCH  10  11
ENDBRANCH   9  10
ENDBRANCH   1   9
TORSDOF 10
ENDMDL
MODEL 2
REMARK VINA RESULT:    -3.799     10.650     11.896
REMARK INTER + INTRA:          -6.667
REMARK INTER:                  -5.803
REMARK INTRA:                  -0.864
REMARK UNBOUND:                -0.647
REMARK SMILES CCCCCCCCCCCC(=O)[O-]
REMARK SMILES IDX 7 1 8 2 9 3 10 4 11 5 12 6 13 7 14 8 6 9 5 10 4 11 3 12 2 13
REMARK SMILES IDX 1 14
REMARK H PARENT
REMARK Flexibility Score: inf
ROOT
ATOM      1  C   UNL     1     -24.336 -11.727   5.605  1.00  0.00     0.000 C 
ENDROOT
BRANCH   1   2
ATOM      2  C   UNL     1     -24.522 -10.366   4.915  1.00  0.00     0.000 C 
BRANCH   2   3
ATOM      3  C   UNL     1     -23.239  -9.875   4.219  1.00  0.00     0.000 C 
BRANCH   3   4
ATOM      4  C   UNL     1     -21.967 -10.256   4.994  1.00  0.00     0.006 C 
BRANCH   4   5
ATOM      5  C   UNL     1     -20.688 -10.037   4.175  1.00  0.00     0.053 C 
BRANCH   5   6
ATOM      6  C   UNL     1     -20.070 -11.351   3.813  1.00  0.00     0.041 C 
ATOM      7  O   UNL     1     -20.642 -12.428   4.127  1.00  0.00    -0.550 OA
ATOM      8  O   UNL     1     -18.887 -11.386   3.086  1.00  0.00    -0.550 OA
ENDBRANCH   5   6
ENDBRANCH   4   5
ENDBRANCH   3   4
ENDBRANCH   2   3
ENDBRANCH   1   2
BRANCH   1   9
ATOM      9  C   UNL     1     -25.621 -12.568   5.615  1.00  0.00     0.000 C 
BRANCH   9  10
ATOM     10  C   UNL     1     -26.223 -12.666   4.205  1.00  0.00    -0.000 C 
BRANCH  10  11
ATOM     11  C   UNL     1     -26.439 -14.119   3.748  1.00  0.00    -0.000 C 
BRANCH  11  12
ATOM     12  C   UNL     1     -25.320 -15.098   4.149  1.00  0.00    -0.000 C 
BRANCH  12  13
ATOM     13  C   UNL     1     -24.340 -15.426   3.003  1.00  0.00    -0.003 C 
ATOM     14  C   UNL     1     -23.121 -14.504   2.993  1.00  0.00     0.004 C 
ENDBRANCH  12  13
ENDBRANCH  11  12
ENDBRANCH  10  11
ENDBRANCH   9  10
ENDBRANCH   1   9
TORSDOF 10
ENDMDL
MODEL 3
REMARK VINA RESULT:    -3.791     10.998     13.356
REMARK INTER + INTRA:          -6.655
REMARK INTER:                  -6.153
REMARK INTRA:                  -0.502
REMARK UNBOUND:                -0.647
REMARK SMILES CCCCCCCCCCCC(=O)[O-]
REMARK SMILES IDX 7 1 8 2 9 3 10 4 11 5 12 6 13 7 14 8 6 9 5 10 4 11 3 12 2 13
REMARK SMILES IDX 1 14
REMARK H PARENT
REMARK Flexibility Score: inf
ROOT
ATOM      1  C   UNL     1     -23.362 -14.600   2.759  1.00  0.00     0.000 C 
ENDROOT
BRANCH   1   2
ATOM      2  C   UNL     1     -24.766 -14.465   3.369  1.00  0.00     0.000 C 
BRANCH   2   3
ATOM      3  C   UNL     1     -25.419 -15.829   3.655  1.00  0.00     0.000 C 
BRANCH   3   4
ATOM      4  C   UNL     1     -26.954 -15.749   3.703  1.00  0.00     0.006 C 
BRANCH   4   5
ATOM      5  C   UNL     1     -27.631 -16.855   2.882  1.00  0.00     0.053 C 
BRANCH   5   6
ATOM      6  C   UNL     1     -29.068 -16.519   2.640  1.00  0.00     0.041 C 
ATOM      7  O   UNL     1     -29.726 -15.886   3.508  1.00  0.00    -0.550 OA
ATOM      8  O   UNL     1     -29.668 -16.860   1.435  1.00  0.00    -0.550 OA
ENDBRANCH   5   6
ENDBRANCH   4   5
ENDBRANCH   3   4
ENDBRANCH   2   3
ENDBRANCH   1   2
BRANCH   1   9
ATOM      9  C   UNL     1     -22.354 -13.610   3.363  1.00  0.00     0.000 C 
BRANCH   9  10
ATOM     10  C   UNL     1     -23.021 -12.736   4.437  1.00  0.00    -0.000 C 
BRANCH  10  11
ATOM     11  C   UNL     1     -22.052 -11.720   5.067  1.00  0.00    -0.000 C 
BRANCH  11  12
ATOM     12  C   UNL     1     -21.944 -10.378   4.319  1.00  0.00    -0.000 C 
BRANCH  12  13
ATOM     13  C   UNL     1     -20.492  -9.936   4.041  1.00  0.00    -0.003 C 
ATOM     14  C   UNL     1     -19.571 -11.116   3.727  1.00  0.00     0.004 C 
ENDBRANCH  12  13
ENDBRANCH  11  12
ENDBRANCH  10  11
ENDBRANCH   9  10
ENDBRANCH   1   9
TORSDOF 10
ENDMDL
MODEL 4
REMARK VINA RESULT:    -3.778      3.653      7.140
REMARK INTER + INTRA:          -6.634
REMARK INTER:                  -6.203
REMARK INTRA:                  -0.431
REMARK UNBOUND:                -0.647
REMARK SMILES CCCCCCCCCCCC(=O)[O-]
REMARK SMILES IDX 7 1 8 2 9 3 10 4 11 5 12 6 13 7 14 8 6 9 5 10 4 11 3 12 2 13
REMARK SMILES IDX 1 14
REMARK H PARENT
REMARK Flexibility Score: inf
ROOT
ATOM      1  C   UNL     1     -18.972 -18.829  -4.127  1.00  0.00     0.000 C 
ENDROOT
BRANCH   1   2
ATOM      2  C   UNL     1     -18.851 -20.309  -4.523  1.00  0.00     0.000 C 
BRANCH   2   3
ATOM      3  C   UNL     1     -20.177 -20.892  -5.042  1.00  0.00     0.000 C 
BRANCH   3   4
ATOM      4  C   UNL     1     -21.252 -19.814  -5.255  1.00  0.00     0.006 C 
BRANCH   4   5
ATOM      5  C   UNL     1     -22.296 -20.218  -6.305  1.00  0.00     0.053 C 
BRANCH   5   6
ATOM      6  C   UNL     1     -23.631 -19.638  -5.962  1.00  0.00     0.041 C 
ATOM      7  O   UNL     1     -23.767 -18.392  -5.829  1.00  0.00    -0.550 OA
ATOM      8  O   UNL     1     -24.738 -20.467  -5.838  1.00  0.00    -0.550 OA
ENDBRANCH   5   6
ENDBRANCH   4   5
ENDBRANCH   3   4
ENDBRANCH   2   3
ENDBRANCH   1   2
BRANCH   1   9
ATOM      9  C   UNL     1     -17.624 -18.092  -4.161  1.00  0.00     0.000 C 
BRANCH   9  10
ATOM     10  C   UNL     1     -17.472 -17.172  -2.940  1.00  0.00    -0.000 C 
BRANCH  10  11
ATOM     11  C   UNL     1     -16.046 -16.617  -2.784  1.00  0.00    -0.000 C 
BRANCH  11  12
ATOM     12  C   UNL     1     -15.541 -15.782  -3.976  1.00  0.00    -0.000 C 
BRANCH  12  13
ATOM     13  C   UNL     1     -16.302 -14.454  -4.171  1.00  0.00    -0.003 C 
ATOM     14  C   UNL     1     -16.165 -13.904  -5.591  1.00  0.00     0.004 C 
ENDBRANCH  12  13
ENDBRANCH  11  12
ENDBRANCH  10  11
ENDBRANCH   9  10
ENDBRANCH   1   9
TORSDOF 10
ENDMDL
MODEL 5
REMARK VINA RESULT:    -3.682     11.035     13.133
REMARK INTER + INTRA:          -6.481
REMARK INTER:                  -5.608
REMARK INTRA:                  -0.874
REMARK UNBOUND:                -0.647
REMARK SMILES CCCCCCCCCCCC(=O)[O-]
REMARK SMILES IDX 7 1 8 2 9 3 10 4 11 5 12 6 13 7 14 8 6 9 5 10 4 11 3 12 2 13
REMARK SMILES IDX 1 14
REMARK H PARENT
REMARK Flexibility Score: inf
ROOT
ATOM      1  C   UNL     1     -25.161 -11.264   5.827  1.00  0.00     0.000 C 
ENDROOT
BRANCH   1   2
ATOM      2  C   UNL     1     -26.470 -11.893   5.322  1.00  0.00     0.000 C 
BRANCH   2   3
ATOM      3  C   UNL     1     -26.355 -12.418   3.879  1.00  0.00     0.000 C 
BRANCH   3   4
ATOM      4  C   UNL     1     -26.137 -13.939   3.821  1.00  0.00     0.006 C 
BRANCH   4   5
ATOM      5  C   UNL     1     -24.653 -14.325   3.862  1.00  0.00     0.053 C 
BRANCH   5   6
ATOM      6  C   UNL     1     -24.418 -15.578   3.079  1.00  0.00     0.041 C 
ATOM      7  O   UNL     1     -25.372 -16.367   2.845  1.00  0.00    -0.550 OA
ATOM      8  O   UNL     1     -23.158 -15.850   2.563  1.00  0.00    -0.550 OA
ENDBRANCH   5   6
ENDBRANCH   4   5
ENDBRANCH   3   4
ENDBRANCH   2   3
ENDBRANCH   1   2
BRANCH   1   9
ATOM      9  C   UNL     1     -24.727 -10.047   4.996  1.00  0.00     0.000 C 
BRANCH   9  10
ATOM     10  C   UNL     1     -23.315 -10.250   4.425  1.00  0.00    -0.000 C 
BRANCH  10  11
ATOM     11  C   UNL     1     -22.590 -11.459   5.042  1.00  0.00    -0.000 C 
BRANCH  11  12
ATOM     12  C   UNL     1     -21.336 -11.922   4.277  1.00  0.00    -0.000 C 
BRANCH  12  13
ATOM     13  C   UNL     1     -20.303 -10.800   4.039  1.00  0.00    -0.003 C 
ATOM     14  C   UNL     1     -18.984 -11.329   3.475  1.00  0.00     0.004 C 
ENDBRANCH  12  13
ENDBRANCH  11  12
ENDBRANCH  10  11
ENDBRANCH   9  10
ENDBRANCH   1   9
TORSDOF 10
ENDMDL
MODEL 6
REMARK VINA RESULT:    -3.663     10.520     11.618
REMARK INTER + INTRA:          -6.452
REMARK INTER:                  -5.402
REMARK INTRA:                  -1.050
REMARK UNBOUND:                -0.647
REMARK SMILES CCCCCCCCCCCC(=O)[O-]
REMARK SMILES IDX 7 1 8 2 9 3 10 4 11 5 12 6 13 7 14 8 6 9 5 10 4 11 3 12 2 13
REMARK SMILES IDX 1 14
REMARK H PARENT
REMARK Flexibility Score: inf
ROOT
ATOM      1  C   UNL     1     -24.416 -13.221   3.909  1.00  0.00     0.000 C 
ENDROOT
BRANCH   1   2
ATOM      2  C   UNL     1     -23.731 -12.631   5.152  1.00  0.00     0.000 C 
BRANCH   2   3
ATOM      3  C   UNL     1     -23.457 -11.122   5.015  1.00  0.00     0.000 C 
BRANCH   3   4
ATOM      4  C   UNL     1     -22.000 -10.756   5.343  1.00  0.00     0.006 C 
BRANCH   4   5
ATOM      5  C   UNL     1     -21.208 -10.317   4.104  1.00  0.00     0.053 C 
BRANCH   5   6
ATOM      6  C   UNL     1     -20.258 -11.393   3.684  1.00  0.00     0.041 C 
ATOM      7  O   UNL     1     -20.695 -12.493   3.256  1.00  0.00    -0.550 OA
ATOM      8  O   UNL     1     -18.888 -11.163   3.719  1.00  0.00    -0.550 OA
ENDBRANCH   5   6
ENDBRANCH   4   5
ENDBRANCH   3   4
ENDBRANCH   2   3
ENDBRANCH   1   2
BRANCH   1   9
ATOM      9  C   UNL     1     -23.640 -14.402   3.306  1.00  0.00     0.000 C 
BRANCH   9  10
ATOM     10  C   UNL     1     -24.565 -15.608   3.084  1.00  0.00    -0.000 C 
BRANCH  10  11
ATOM     11  C   UNL     1     -25.966 -15.405   3.687  1.00  0.00    -0.000 C 
BRANCH  11  12
ATOM     12  C   UNL     1     -26.261 -16.249   4.941  1.00  0.00    -0.000 C 
BRANCH  12  13
ATOM     13  C   UNL     1     -26.017 -15.498   6.267  1.00  0.00    -0.003 C 
ATOM     14  C   UNL     1     -24.640 -15.794   6.862  1.00  0.00     0.004 C 
ENDBRANCH  12  13
ENDBRANCH  11  12
ENDBRANCH  10  11
ENDBRANCH   9  10
ENDBRANCH   1   9
TORSDOF 10
ENDMDL
MODEL 7
REMARK VINA RESULT:    -3.652      1.754      2.937
REMARK INTER + INTRA:          -6.434
REMARK INTER:                  -5.779
REMARK INTRA:                  -0.655
REMARK UNBOUND:                -0.647
REMARK SMILES CCCCCCCCCCCC(=O)[O-]
REMARK SMILES IDX 7 1 8 2 9 3 10 4 11 5 12 6 13 7 14 8 6 9 5 10 4 11 3 12 2 13
REMARK SMILES IDX 1 14
REMARK H PARENT
REMARK Flexibility Score: inf
ROOT
ATOM      1  C   UNL     1     -18.991 -19.207  -3.624  1.00  0.00     0.000 C 
ENDROOT
BRANCH   1   2
ATOM      2  C   UNL     1     -18.032 -18.119  -4.134  1.00  0.00     0.000 C 
BRANCH   2   3
ATOM      3  C   UNL     1     -17.679 -17.086  -3.049  1.00  0.00     0.000 C 
BRANCH   3   4
ATOM      4  C   UNL     1     -16.203 -16.658  -3.101  1.00  0.00     0.006 C 
BRANCH   4   5
ATOM      5  C   UNL     1     -16.026 -15.196  -3.531  1.00  0.00     0.053 C 
BRANCH   5   6
ATOM      6  C   UNL     1     -15.948 -15.097  -5.022  1.00  0.00     0.041 C 
ATOM      7  O   UNL     1     -15.319 -15.966  -5.683  1.00  0.00    -0.550 OA
ATOM      8  O   UNL     1     -16.610 -14.073  -5.687  1.00  0.00    -0.550 OA
ENDBRANCH   5   6
ENDBRANCH   4   5
ENDBRANCH   3   4
ENDBRANCH   2   3
ENDBRANCH   1   2
BRANCH   1   9
ATOM      9  C   UNL     1     -20.248 -19.347  -4.496  1.00  0.00     0.000 C 
BRANCH   9  10
ATOM     10  C   UNL     1     -20.591 -20.827  -4.727  1.00  0.00    -0.000 C 
BRANCH  10  11
ATOM     11  C   UNL     1     -19.820 -21.441  -5.908  1.00  0.00    -0.000 C 
BRANCH  11  12
ATOM     12  C   UNL     1     -18.521 -22.174  -5.523  1.00  0.00    -0.000 C 
BRANCH  12  13
ATOM     13  C   UNL     1     -17.241 -21.485  -6.042  1.00  0.00    -0.003 C 
ATOM     14  C   UNL     1     -16.063 -22.452  -6.161  1.00  0.00     0.004 C 
ENDBRANCH  12  13
ENDBRANCH  11  12
ENDBRANCH  10  11
ENDBRANCH   9  10
ENDBRANCH   1   9
TORSDOF 10
ENDMDL
MODEL 8
REMARK VINA RESULT:    -3.633     11.328     13.555
REMARK INTER + INTRA:          -6.404
REMARK INTER:                  -5.605
REMARK INTRA:                  -0.799
REMARK UNBOUND:                -0.647
REMARK SMILES CCCCCCCCCCCC(=O)[O-]
REMARK SMILES IDX 7 1 8 2 9 3 10 4 11 5 12 6 13 7 14 8 6 9 5 10 4 11 3 12 2 13
REMARK SMILES IDX 1 14
REMARK H PARENT
REMARK Flexibility Score: inf
ROOT
ATOM      1  C   UNL     1     -23.642 -13.639   3.859  1.00  0.00     0.000 C 
ENDROOT
BRANCH   1   2
ATOM      2  C   UNL     1     -24.231 -15.059   3.822  1.00  0.00     0.000 C 
BRANCH   2   3
ATOM      3  C   UNL     1     -25.056 -15.389   5.079  1.00  0.00     0.000 C 
BRANCH   3   4
ATOM      4  C   UNL     1     -26.355 -16.143   4.749  1.00  0.00     0.006 C 
BRANCH   4   5
ATOM      5  C   UNL     1     -26.469 -16.503   3.261  1.00  0.00     0.053 C 
BRANCH   5   6
ATOM      6  C   UNL     1     -27.889 -16.806   2.906  1.00  0.00     0.041 C 
ATOM      7  O   UNL     1     -28.675 -15.876   2.584  1.00  0.00    -0.550 OA
ATOM      8  O   UNL     1     -28.335 -18.122   2.880  1.00  0.00    -0.550 OA
ENDBRANCH   5   6
ENDBRANCH   4   5
ENDBRANCH   3   4
ENDBRANCH   2   3
ENDBRANCH   1   2
BRANCH   1   9
ATOM      9  C   UNL     1     -24.594 -12.618   4.500  1.00  0.00     0.000 C 
BRANCH   9  10
ATOM     10  C   UNL     1     -23.821 -11.634   5.391  1.00  0.00    -0.000 C 
BRANCH  10  11
ATOM     11  C   UNL     1     -23.594 -10.269   4.717  1.00  0.00    -0.000 C 
BRANCH  11  12
ATOM     12  C   UNL     1     -22.157 -10.022   4.221  1.00  0.00    -0.000 C 
BRANCH  12  13
ATOM     13  C   UNL     1     -21.109 -10.957   4.861  1.00  0.00    -0.003 C 
ATOM     14  C   UNL     1     -20.369 -11.804   3.825  1.00  0.00     0.004 C 
ENDBRANCH  12  13
ENDBRANCH  11  12
ENDBRANCH  10  11
ENDBRANCH   9  10
ENDBRANCH   1   9
TORSDOF 10
ENDMDL
MODEL 9
REMARK VINA RESULT:    -3.597     11.226     13.481
REMARK INTER + INTRA:          -6.348
REMARK INTER:                  -5.666
REMARK INTRA:                  -0.681
REMARK UNBOUND:                -0.647
REMARK SMILES CCCCCCCCCCCC(=O)[O-]
REMARK SMILES IDX 7 1 8 2 9 3 10 4 11 5 12 6 13 7 14 8 6 9 5 10 4 11 3 12 2 13
REMARK SMILES IDX 1 14
REMARK H PARENT
REMARK Flexibility Score: inf
ROOT
ATOM      1  C   UNL     1     -23.971 -13.221   5.591  1.00  0.00     0.000 C 
ENDROOT
BRANCH   1   2
ATOM      2  C   UNL     1     -23.683 -13.387   4.091  1.00  0.00     0.000 C 
BRANCH   2   3
ATOM      3  C   UNL     1     -24.270 -14.689   3.517  1.00  0.00     0.000 C 
BRANCH   3   4
ATOM      4  C   UNL     1     -25.785 -14.807   3.755  1.00  0.00     0.006 C 
BRANCH   4   5
ATOM      5  C   UNL     1     -26.231 -16.251   4.022  1.00  0.00     0.053 C 
BRANCH   5   6
ATOM      6  C   UNL     1     -27.513 -16.540   3.309  1.00  0.00     0.041 C 
ATOM      7  O   UNL     1     -27.577 -17.481   2.474  1.00  0.00    -0.550 OA
ATOM      8  O   UNL     1     -28.654 -15.803   3.601  1.00  0.00    -0.550 OA
ENDBRANCH   5   6
ENDBRANCH   4   5
ENDBRANCH   3   4
ENDBRANCH   2   3
ENDBRANCH   1   2
BRANCH   1   9
ATOM      9  C   UNL     1     -23.766 -11.779   6.079  1.00  0.00     0.000 C 
BRANCH   9  10
ATOM     10  C   UNL     1     -22.270 -11.449   6.198  1.00  0.00    -0.000 C 
BRANCH  10  11
ATOM     11  C   UNL     1     -21.900 -10.109   5.539  1.00  0.00    -0.000 C 
BRANCH  11  12
ATOM     12  C   UNL     1     -21.227 -10.228   4.159  1.00  0.00    -0.000 C 
BRANCH  12  13
ATOM     13  C   UNL     1     -20.518 -11.579   3.928  1.00  0.00    -0.003 C 
ATOM     14  C   UNL     1     -19.077 -11.409   3.445  1.00  0.00     0.004 C 
ENDBRANCH  12  13
ENDBRANCH  11  12
ENDBRANCH  10  11
ENDBRANCH   9  10
ENDBRANCH   1   9
TORSDOF 10
ENDMDL
