MODEL 1
REMARK VINA RESULT:    -5.755      0.000      0.000
REMARK INTER + INTRA:          -7.028
REMARK INTER:                  -6.765
REMARK INTRA:                  -0.263
REMARK UNBOUND:                -0.263
REMARK SMILES O=c1cc(-c2ccc(O)c(O)c2)oc2cc(O)cc(O)c12
REMARK SMILES IDX 4 1 3 2 2 3 1 4 21 5 19 6 18 7 16 8 15 9 14 10 13 11 5 12
REMARK SMILES IDX 6 13 7 14 8 15 12 16 10 17 9 18 11 20 20 22 17 24
REMARK H PARENT 9 19 11 21 20 23 17 25
REMARK Flexibility Score: inf
ROOT
ATOM      1  C   UNL     1     144.077 145.322 157.440  1.00  0.00     0.138 A 
ATOM      2  C   UNL     1     143.569 144.065 157.806  1.00  0.00     0.100 A 
ATOM      3  C   UNL     1     144.389 142.940 157.720  1.00  0.00     0.197 A 
ATOM      4  O   UNL     1     143.924 141.817 158.052  1.00  0.00    -0.289 OA
ATOM      5  C   UNL     1     145.717 143.081 157.268  1.00  0.00     0.107 A 
ATOM      6  C   UNL     1     146.613 141.993 157.150  1.00  0.00     0.134 A 
ATOM      7  C   UNL     1     147.923 142.217 156.697  1.00  0.00     0.093 A 
ATOM      8  C   UNL     1     148.350 143.505 156.364  1.00  0.00     0.123 A 
ATOM      9  C   UNL     1     147.467 144.584 156.480  1.00  0.00     0.094 A 
ATOM     10  C   UNL     1     146.159 144.381 156.927  1.00  0.00     0.146 A 
ATOM     11  O   UNL     1     145.339 145.422 157.027  1.00  0.00    -0.456 OA
ENDROOT
BRANCH   1  12
ATOM     12  C   UNL     1     143.251 146.553 157.513  1.00  0.00     0.021 A 
ATOM     13  C   UNL     1     143.294 147.407 158.633  1.00  0.00     0.016 A 
ATOM     14  C   UNL     1     142.497 148.555 158.679  1.00  0.00     0.051 A 
ATOM     15  C   UNL     1     141.639 148.864 157.617  1.00  0.00     0.157 A 
ATOM     16  C   UNL     1     142.376 146.865 156.457  1.00  0.00     0.062 A 
ATOM     17  C   UNL     1     141.578 148.016 156.504  1.00  0.00     0.158 A 
BRANCH  15  18
ATOM     18  O   UNL     1     140.845 150.008 157.660  1.00  0.00    -0.504 OA
ATOM     19  H   UNL     1     140.548 150.414 158.539  1.00  0.00     0.293 HD
ENDBRANCH  15  18
BRANCH  17  20
ATOM     20  O   UNL     1     140.720 148.324 155.450  1.00  0.00    -0.504 OA
ATOM     21  H   UNL     1     141.049 148.807 154.622  1.00  0.00     0.293 HD
ENDBRANCH  17  20
ENDBRANCH   1  12
BRANCH   6  22
ATOM     22  O   UNL     1     146.216 140.696 157.476  1.00  0.00    -0.507 OA
ATOM     23  H   UNL     1     146.868 139.920 157.468  1.00  0.00     0.293 HD
ENDBRANCH   6  22
BRANCH   8  24
ATOM     24  O   UNL     1     149.655 143.700 155.917  1.00  0.00    -0.508 OA
ATOM     25  H   UNL     1     149.860 143.873 154.940  1.00  0.00     0.293 HD
ENDBRANCH   8  24
TORSDOF 5
ENDMDL
MODEL 2
REMARK VINA RESULT:    -5.745      5.258      7.777
REMARK INTER + INTRA:          -7.015
REMARK INTER:                  -6.752
REMARK INTRA:                  -0.264
REMARK UNBOUND:                -0.263
REMARK SMILES O=c1cc(-c2ccc(O)c(O)c2)oc2cc(O)cc(O)c12
REMARK SMILES IDX 4 1 3 2 2 3 1 4 21 5 19 6 18 7 16 8 15 9 14 10 13 11 5 12
REMARK SMILES IDX 6 13 7 14 8 15 12 16 10 17 9 18 11 20 20 22 17 24
REMARK H PARENT 9 19 11 21 20 23 17 25
REMARK Flexibility Score: inf
ROOT
ATOM      1  C   UNL     1     145.278 151.478 157.431  1.00  0.00     0.138 A 
ATOM      2  C   UNL     1     144.023 151.977 157.815  1.00  0.00     0.100 A 
ATOM      3  C   UNL     1     142.901 151.152 157.731  1.00  0.00     0.197 A 
ATOM      4  O   UNL     1     141.779 151.608 158.079  1.00  0.00    -0.289 OA
ATOM      5  C   UNL     1     143.044 149.828 157.267  1.00  0.00     0.107 A 
ATOM      6  C   UNL     1     141.960 148.927 157.150  1.00  0.00     0.134 A 
ATOM      7  C   UNL     1     142.187 147.623 156.684  1.00  0.00     0.093 A 
ATOM      8  C   UNL     1     143.473 147.206 156.334  1.00  0.00     0.123 A 
ATOM      9  C   UNL     1     144.549 148.094 156.447  1.00  0.00     0.094 A 
ATOM     10  C   UNL     1     144.344 149.396 156.909  1.00  0.00     0.146 A 
ATOM     11  O   UNL     1     145.381 150.221 157.006  1.00  0.00    -0.456 OA
ENDROOT
BRANCH   1  12
ATOM     12  C   UNL     1     146.506 152.311 157.501  1.00  0.00     0.021 A 
ATOM     13  C   UNL     1     147.328 152.324 158.645  1.00  0.00     0.016 A 
ATOM     14  C   UNL     1     148.472 153.125 158.686  1.00  0.00     0.051 A 
ATOM     15  C   UNL     1     148.811 153.931 157.593  1.00  0.00     0.157 A 
ATOM     16  C   UNL     1     146.848 153.134 156.412  1.00  0.00     0.062 A 
ATOM     17  C   UNL     1     147.996 153.937 156.455  1.00  0.00     0.158 A 
BRANCH  15  18
ATOM     18  O   UNL     1     149.952 154.730 157.631  1.00  0.00    -0.504 OA
ATOM     19  H   UNL     1     150.253 155.263 156.824  1.00  0.00     0.293 HD
ENDBRANCH  15  18
BRANCH  17  20
ATOM     20  O   UNL     1     148.333 154.744 155.369  1.00  0.00    -0.504 OA
ATOM     21  H   UNL     1     149.019 155.485 155.453  1.00  0.00     0.293 HD
ENDBRANCH  17  20
ENDBRANCH   1  12
BRANCH   6  22
ATOM     22  O   UNL     1     140.664 149.315 157.493  1.00  0.00    -0.507 OA
ATOM     23  H   UNL     1     140.489 150.067 158.149  1.00  0.00     0.293 HD
ENDBRANCH   6  22
BRANCH   8  24
ATOM     24  O   UNL     1     143.672 145.907 155.873  1.00  0.00    -0.508 OA
ATOM     25  H   UNL     1     143.948 145.720 154.917  1.00  0.00     0.293 HD
ENDBRANCH   8  24
TORSDOF 5
ENDMDL
MODEL 3
REMARK VINA RESULT:    -5.694      5.152      7.695
REMARK INTER + INTRA:          -6.956
REMARK INTER:                  -6.693
REMARK INTRA:                  -0.263
REMARK UNBOUND:                -0.263
REMARK SMILES O=c1cc(-c2ccc(O)c(O)c2)oc2cc(O)cc(O)c12
REMARK SMILES IDX 4 1 3 2 2 3 1 4 21 5 19 6 18 7 16 8 15 9 14 10 13 11 5 12
REMARK SMILES IDX 6 13 7 14 8 15 12 16 10 17 9 18 11 20 20 22 17 24
REMARK H PARENT 9 19 11 21 20 23 17 25
REMARK Flexibility Score: inf
ROOT
ATOM      1  C   UNL     1     150.139 144.084 157.487  1.00  0.00     0.138 A 
ATOM      2  C   UNL     1     151.389 143.546 157.834  1.00  0.00     0.100 A 
ATOM      3  C   UNL     1     152.532 144.340 157.729  1.00  0.00     0.197 A 
ATOM      4  O   UNL     1     153.649 143.848 158.044  1.00  0.00    -0.289 OA
ATOM      5  C   UNL     1     152.415 145.671 157.280  1.00  0.00     0.107 A 
ATOM      6  C   UNL     1     153.522 146.542 157.144  1.00  0.00     0.134 A 
ATOM      7  C   UNL     1     153.321 147.856 156.696  1.00  0.00     0.093 A 
ATOM      8  C   UNL     1     152.039 148.314 156.383  1.00  0.00     0.123 A 
ATOM      9  C   UNL     1     150.941 147.456 156.515  1.00  0.00     0.094 A 
ATOM     10  C   UNL     1     151.120 146.144 156.960  1.00  0.00     0.146 A 
ATOM     11  O   UNL     1     150.062 145.348 157.076  1.00  0.00    -0.456 OA
ENDROOT
BRANCH   1  12
ATOM     12  C   UNL     1     148.890 143.287 157.581  1.00  0.00     0.021 A 
ATOM     13  C   UNL     1     148.018 143.404 158.681  1.00  0.00     0.016 A 
ATOM     14  C   UNL     1     146.854 142.633 158.746  1.00  0.00     0.051 A 
ATOM     15  C   UNL     1     146.545 141.728 157.724  1.00  0.00     0.157 A 
ATOM     16  C   UNL     1     148.578 142.366 156.564  1.00  0.00     0.062 A 
ATOM     17  C   UNL     1     147.411 141.593 156.631  1.00  0.00     0.158 A 
BRANCH  15  18
ATOM     18  O   UNL     1     145.385 140.960 157.787  1.00  0.00    -0.504 OA
ATOM     19  H   UNL     1     144.764 140.871 156.991  1.00  0.00     0.293 HD
ENDBRANCH  15  18
BRANCH  17  20
ATOM     20  O   UNL     1     147.103 140.689 155.616  1.00  0.00    -0.504 OA
ATOM     21  H   UNL     1     147.620 139.825 155.501  1.00  0.00     0.293 HD
ENDBRANCH  17  20
ENDBRANCH   1  12
BRANCH   6  22
ATOM     22  O   UNL     1     154.814 146.114 157.450  1.00  0.00    -0.507 OA
ATOM     23  H   UNL     1     155.517 145.985 156.731  1.00  0.00     0.293 HD
ENDBRANCH   6  22
BRANCH   8  24
ATOM     24  O   UNL     1     151.866 149.623 155.939  1.00  0.00    -0.508 OA
ATOM     25  H   UNL     1     152.078 149.892 154.986  1.00  0.00     0.293 HD
ENDBRANCH   8  24
TORSDOF 5
ENDMDL
MODEL 4
REMARK VINA RESULT:    -5.690      7.376     11.053
REMARK INTER + INTRA:          -6.951
REMARK INTER:                  -6.691
REMARK INTRA:                  -0.260
REMARK UNBOUND:                -0.263
REMARK SMILES O=c1cc(-c2ccc(O)c(O)c2)oc2cc(O)cc(O)c12
REMARK SMILES IDX 4 1 3 2 2 3 1 4 21 5 19 6 18 7 16 8 15 9 14 10 13 11 5 12
REMARK SMILES IDX 6 13 7 14 8 15 12 16 10 17 9 18 11 20 20 22 17 24
REMARK H PARENT 9 19 11 21 20 23 17 25
REMARK Flexibility Score: inf
ROOT
ATOM      1  C   UNL     1     151.568 150.150 157.493  1.00  0.00     0.138 A 
ATOM      2  C   UNL     1     152.128 151.386 157.856  1.00  0.00     0.100 A 
ATOM      3  C   UNL     1     151.356 152.544 157.760  1.00  0.00     0.197 A 
ATOM      4  O   UNL     1     151.867 153.648 158.089  1.00  0.00    -0.289 OA
ATOM      5  C   UNL     1     150.025 152.457 157.304  1.00  0.00     0.107 A 
ATOM      6  C   UNL     1     149.175 153.581 157.177  1.00  0.00     0.134 A 
ATOM      7  C   UNL     1     147.859 153.409 156.720  1.00  0.00     0.093 A 
ATOM      8  C   UNL     1     147.379 152.139 156.392  1.00  0.00     0.123 A 
ATOM      9  C   UNL     1     148.216 151.024 156.516  1.00  0.00     0.094 A 
ATOM     10  C   UNL     1     149.530 151.174 156.968  1.00  0.00     0.146 A 
ATOM     11  O   UNL     1     150.305 150.100 157.076  1.00  0.00    -0.456 OA
ENDROOT
BRANCH   1  12
ATOM     12  C   UNL     1     152.342 148.885 157.576  1.00  0.00     0.021 A 
ATOM     13  C   UNL     1     152.179 147.987 158.650  1.00  0.00     0.016 A 
ATOM     14  C   UNL     1     152.928 146.809 158.707  1.00  0.00     0.051 A 
ATOM     15  C   UNL     1     153.856 146.510 157.702  1.00  0.00     0.157 A 
ATOM     16  C   UNL     1     153.286 148.583 156.578  1.00  0.00     0.062 A 
ATOM     17  C   UNL     1     154.037 147.401 156.637  1.00  0.00     0.158 A 
BRANCH  15  18
ATOM     18  O   UNL     1     154.603 145.336 157.757  1.00  0.00    -0.504 OA
ATOM     19  H   UNL     1     155.537 145.283 157.368  1.00  0.00     0.293 HD
ENDBRANCH  15  18
BRANCH  17  20
ATOM     20  O   UNL     1     154.964 147.104 155.640  1.00  0.00    -0.504 OA
ATOM     21  H   UNL     1     155.367 147.829 155.058  1.00  0.00     0.293 HD
ENDBRANCH  17  20
ENDBRANCH   1  12
BRANCH   6  22
ATOM     22  O   UNL     1     149.626 154.862 157.498  1.00  0.00    -0.507 OA
ATOM     23  H   UNL     1     150.250 155.376 156.888  1.00  0.00     0.293 HD
ENDBRANCH   6  22
BRANCH   8  24
ATOM     24  O   UNL     1     146.070 151.996 155.941  1.00  0.00    -0.508 OA
ATOM     25  H   UNL     1     145.278 152.127 156.560  1.00  0.00     0.293 HD
ENDBRANCH   8  24
TORSDOF 5
ENDMDL
MODEL 5
REMARK VINA RESULT:    -5.641      5.319      7.312
REMARK INTER + INTRA:          -6.893
REMARK INTER:                  -6.623
REMARK INTRA:                  -0.270
REMARK UNBOUND:                -0.263
REMARK SMILES O=c1cc(-c2ccc(O)c(O)c2)oc2cc(O)cc(O)c12
REMARK SMILES IDX 4 1 3 2 2 3 1 4 21 5 19 6 18 7 16 8 15 9 14 10 13 11 5 12
REMARK SMILES IDX 6 13 7 14 8 15 12 16 10 17 9 18 11 20 20 22 17 24
REMARK H PARENT 9 19 11 21 20 23 17 25
REMARK Flexibility Score: inf
ROOT
ATOM      1  C   UNL     1     146.419 150.362 157.040  1.00  0.00     0.138 A 
ATOM      2  C   UNL     1     146.947 149.079 156.820  1.00  0.00     0.100 A 
ATOM      3  C   UNL     1     146.081 147.994 156.682  1.00  0.00     0.197 A 
ATOM      4  O   UNL     1     146.564 146.847 156.484  1.00  0.00    -0.289 OA
ATOM      5  C   UNL     1     144.689 148.201 156.760  1.00  0.00     0.107 A 
ATOM      6  C   UNL     1     143.743 147.157 156.632  1.00  0.00     0.134 A 
ATOM      7  C   UNL     1     142.372 147.447 156.717  1.00  0.00     0.093 A 
ATOM      8  C   UNL     1     141.933 148.757 156.926  1.00  0.00     0.123 A 
ATOM      9  C   UNL     1     142.865 149.793 157.053  1.00  0.00     0.094 A 
ATOM     10  C   UNL     1     144.234 149.524 156.973  1.00  0.00     0.146 A 
ATOM     11  O   UNL     1     145.100 150.525 157.098  1.00  0.00    -0.456 OA
ENDROOT
BRANCH   1  12
ATOM     12  C   UNL     1     147.293 151.553 157.192  1.00  0.00     0.021 A 
ATOM     13  C   UNL     1     148.028 151.784 158.371  1.00  0.00     0.016 A 
ATOM     14  C   UNL     1     148.835 152.920 158.491  1.00  0.00     0.051 A 
ATOM     15  C   UNL     1     148.914 153.845 157.444  1.00  0.00     0.157 A 
ATOM     16  C   UNL     1     147.369 152.495 156.150  1.00  0.00     0.062 A 
ATOM     17  C   UNL     1     148.178 153.633 156.272  1.00  0.00     0.158 A 
BRANCH  15  18
ATOM     18  O   UNL     1     149.718 154.976 157.560  1.00  0.00    -0.504 OA
ATOM     19  H   UNL     1     150.539 155.105 156.981  1.00  0.00     0.293 HD
ENDBRANCH  15  18
BRANCH  17  20
ATOM     20  O   UNL     1     148.256 154.557 155.232  1.00  0.00    -0.504 OA
ATOM     21  H   UNL     1     148.059 155.540 155.380  1.00  0.00     0.293 HD
ENDBRANCH  17  20
ENDBRANCH   1  12
BRANCH   6  22
ATOM     22  O   UNL     1     144.151 145.840 156.422  1.00  0.00    -0.507 OA
ATOM     23  H   UNL     1     144.904 145.423 156.957  1.00  0.00     0.293 HD
ENDBRANCH   6  22
BRANCH   8  24
ATOM     24  O   UNL     1     140.567 149.018 157.006  1.00  0.00    -0.508 OA
ATOM     25  H   UNL     1     140.074 149.496 156.262  1.00  0.00     0.293 HD
ENDBRANCH   8  24
TORSDOF 5
ENDMDL
MODEL 6
REMARK VINA RESULT:    -5.621      6.366      9.979
REMARK INTER + INTRA:          -6.871
REMARK INTER:                  -6.602
REMARK INTRA:                  -0.269
REMARK UNBOUND:                -0.263
REMARK SMILES O=c1cc(-c2ccc(O)c(O)c2)oc2cc(O)cc(O)c12
REMARK SMILES IDX 4 1 3 2 2 3 1 4 21 5 19 6 18 7 16 8 15 9 14 10 13 11 5 12
REMARK SMILES IDX 6 13 7 14 8 15 12 16 10 17 9 18 11 20 20 22 17 24
REMARK H PARENT 9 19 11 21 20 23 17 25
REMARK Flexibility Score: inf
ROOT
ATOM      1  C   UNL     1     150.272 149.125 157.055  1.00  0.00     0.138 A 
ATOM      2  C   UNL     1     148.984 148.613 156.829  1.00  0.00     0.100 A 
ATOM      3  C   UNL     1     147.911 149.492 156.685  1.00  0.00     0.197 A 
ATOM      4  O   UNL     1     146.759 149.023 156.481  1.00  0.00    -0.289 OA
ATOM      5  C   UNL     1     148.135 150.882 156.764  1.00  0.00     0.107 A 
ATOM      6  C   UNL     1     147.104 151.841 156.630  1.00  0.00     0.134 A 
ATOM      7  C   UNL     1     147.411 153.208 156.715  1.00  0.00     0.093 A 
ATOM      8  C   UNL     1     148.724 153.631 156.931  1.00  0.00     0.123 A 
ATOM      9  C   UNL     1     149.748 152.686 157.065  1.00  0.00     0.094 A 
ATOM     10  C   UNL     1     149.463 151.320 156.983  1.00  0.00     0.146 A 
ATOM     11  O   UNL     1     150.452 150.442 157.114  1.00  0.00    -0.456 OA
ENDROOT
BRANCH   1  12
ATOM     12  C   UNL     1     151.451 148.236 157.214  1.00  0.00     0.021 A 
ATOM     13  C   UNL     1     151.640 147.457 158.373  1.00  0.00     0.016 A 
ATOM     14  C   UNL     1     152.764 146.637 158.499  1.00  0.00     0.051 A 
ATOM     15  C   UNL     1     153.723 146.588 157.480  1.00  0.00     0.157 A 
ATOM     16  C   UNL     1     152.426 148.190 156.201  1.00  0.00     0.062 A 
ATOM     17  C   UNL     1     153.554 147.367 156.330  1.00  0.00     0.158 A 
BRANCH  15  18
ATOM     18  O   UNL     1     154.844 145.771 157.604  1.00  0.00    -0.504 OA
ATOM     19  H   UNL     1     154.766 144.761 157.609  1.00  0.00     0.293 HD
ENDBRANCH  15  18
BRANCH  17  20
ATOM     20  O   UNL     1     154.511 147.319 155.318  1.00  0.00    -0.504 OA
ATOM     21  H   UNL     1     154.251 147.368 154.339  1.00  0.00     0.293 HD
ENDBRANCH  17  20
ENDBRANCH   1  12
BRANCH   6  22
ATOM     22  O   UNL     1     145.782 151.449 156.413  1.00  0.00    -0.507 OA
ATOM     23  H   UNL     1     145.285 151.698 155.566  1.00  0.00     0.293 HD
ENDBRANCH   6  22
BRANCH   8  24
ATOM     24  O   UNL     1     149.002 154.993 157.013  1.00  0.00    -0.508 OA
ATOM     25  H   UNL     1     149.143 155.453 157.904  1.00  0.00     0.293 HD
ENDBRANCH   8  24
TORSDOF 5
ENDMDL
MODEL 7
REMARK VINA RESULT:    -5.596      1.131      2.773
REMARK INTER + INTRA:          -6.841
REMARK INTER:                  -6.573
REMARK INTRA:                  -0.268
REMARK UNBOUND:                -0.263
REMARK SMILES O=c1cc(-c2ccc(O)c(O)c2)oc2cc(O)cc(O)c12
REMARK SMILES IDX 4 1 3 2 2 3 1 4 21 5 19 6 18 7 16 8 15 9 14 10 13 11 5 12
REMARK SMILES IDX 6 13 7 14 8 15 12 16 10 17 9 18 11 20 20 22 17 24
REMARK H PARENT 9 19 11 21 20 23 17 25
REMARK Flexibility Score: inf
ROOT
ATOM      1  C   UNL     1     145.190 146.356 157.016  1.00  0.00     0.138 A 
ATOM      2  C   UNL     1     146.471 146.897 156.818  1.00  0.00     0.100 A 
ATOM      3  C   UNL     1     147.568 146.043 156.704  1.00  0.00     0.197 A 
ATOM      4  O   UNL     1     148.713 146.538 156.524  1.00  0.00    -0.289 OA
ATOM      5  C   UNL     1     147.374 144.649 156.785  1.00  0.00     0.107 A 
ATOM      6  C   UNL     1     148.431 143.714 156.681  1.00  0.00     0.134 A 
ATOM      7  C   UNL     1     148.155 142.340 156.767  1.00  0.00     0.093 A 
ATOM      8  C   UNL     1     146.847 141.887 156.954  1.00  0.00     0.123 A 
ATOM      9  C   UNL     1     145.798 142.809 157.058  1.00  0.00     0.094 A 
ATOM     10  C   UNL     1     146.053 144.180 156.976  1.00  0.00     0.146 A 
ATOM     11  O   UNL     1     145.040 145.035 157.079  1.00  0.00    -0.456 OA
ENDROOT
BRANCH   1  12
ATOM     12  C   UNL     1     143.987 147.217 157.143  1.00  0.00     0.021 A 
ATOM     13  C   UNL     1     143.743 147.983 158.300  1.00  0.00     0.016 A 
ATOM     14  C   UNL     1     142.597 148.777 158.395  1.00  0.00     0.051 A 
ATOM     15  C   UNL     1     141.672 148.813 157.346  1.00  0.00     0.157 A 
ATOM     16  C   UNL     1     143.045 147.250 156.099  1.00  0.00     0.062 A 
ATOM     17  C   UNL     1     141.896 148.046 156.196  1.00  0.00     0.158 A 
BRANCH  15  18
ATOM     18  O   UNL     1     140.529 149.604 157.438  1.00  0.00    -0.504 OA
ATOM     19  H   UNL     1     139.664 149.244 157.823  1.00  0.00     0.293 HD
ENDBRANCH  15  18
BRANCH  17  20
ATOM     20  O   UNL     1     140.971 148.081 155.153  1.00  0.00    -0.504 OA
ATOM     21  H   UNL     1     141.157 148.589 154.296  1.00  0.00     0.293 HD
ENDBRANCH  17  20
ENDBRANCH   1  12
BRANCH   6  22
ATOM     22  O   UNL     1     149.748 144.136 156.493  1.00  0.00    -0.507 OA
ATOM     23  H   UNL     1     150.141 144.258 155.567  1.00  0.00     0.293 HD
ENDBRANCH   6  22
BRANCH   8  24
ATOM     24  O   UNL     1     146.599 140.519 157.037  1.00  0.00    -0.508 OA
ATOM     25  H   UNL     1     146.565 139.936 156.209  1.00  0.00     0.293 HD
ENDBRANCH   8  24
TORSDOF 5
ENDMDL
MODEL 8
REMARK VINA RESULT:    -5.585      4.755      7.491
REMARK INTER + INTRA:          -6.827
REMARK INTER:                  -6.559
REMARK INTRA:                  -0.268
REMARK UNBOUND:                -0.263
REMARK SMILES O=c1cc(-c2ccc(O)c(O)c2)oc2cc(O)cc(O)c12
REMARK SMILES IDX 4 1 3 2 2 3 1 4 21 5 19 6 18 7 16 8 15 9 14 10 13 11 5 12
REMARK SMILES IDX 6 13 7 14 8 15 12 16 10 17 9 18 11 20 20 22 17 24
REMARK H PARENT 9 19 11 21 20 23 17 25
REMARK Flexibility Score: inf
ROOT
ATOM      1  C   UNL     1     149.240 145.252 157.026  1.00  0.00     0.138 A 
ATOM      2  C   UNL     1     148.701 146.534 156.832  1.00  0.00     0.100 A 
ATOM      3  C   UNL     1     149.558 147.628 156.712  1.00  0.00     0.197 A 
ATOM      4  O   UNL     1     149.065 148.775 156.537  1.00  0.00    -0.289 OA
ATOM      5  C   UNL     1     150.952 147.431 156.783  1.00  0.00     0.107 A 
ATOM      6  C   UNL     1     151.889 148.485 156.672  1.00  0.00     0.134 A 
ATOM      7  C   UNL     1     153.262 148.205 156.748  1.00  0.00     0.093 A 
ATOM      8  C   UNL     1     153.713 146.896 156.932  1.00  0.00     0.123 A 
ATOM      9  C   UNL     1     152.790 145.850 157.042  1.00  0.00     0.094 A 
ATOM     10  C   UNL     1     151.419 146.108 156.970  1.00  0.00     0.146 A 
ATOM     11  O   UNL     1     150.562 145.098 157.079  1.00  0.00    -0.456 OA
ENDROOT
BRANCH   1  12
ATOM     12  C   UNL     1     148.377 144.051 157.159  1.00  0.00     0.021 A 
ATOM     13  C   UNL     1     147.628 143.803 158.326  1.00  0.00     0.016 A 
ATOM     14  C   UNL     1     146.831 142.659 158.426  1.00  0.00     0.051 A 
ATOM     15  C   UNL     1     146.776 141.740 157.372  1.00  0.00     0.157 A 
ATOM     16  C   UNL     1     148.325 143.115 156.110  1.00  0.00     0.062 A 
ATOM     17  C   UNL     1     147.526 141.968 156.212  1.00  0.00     0.158 A 
BRANCH  15  18
ATOM     18  O   UNL     1     145.982 140.600 157.469  1.00  0.00    -0.504 OA
ATOM     19  H   UNL     1     145.618 140.135 156.646  1.00  0.00     0.293 HD
ENDBRANCH  15  18
BRANCH  17  20
ATOM     20  O   UNL     1     147.472 141.050 155.164  1.00  0.00    -0.504 OA
ATOM     21  H   UNL     1     148.245 140.935 154.520  1.00  0.00     0.293 HD
ENDBRANCH  17  20
ENDBRANCH   1  12
BRANCH   6  22
ATOM     22  O   UNL     1     151.470 149.803 156.488  1.00  0.00    -0.507 OA
ATOM     23  H   UNL     1     151.209 150.394 157.269  1.00  0.00     0.293 HD
ENDBRANCH   6  22
BRANCH   8  24
ATOM     24  O   UNL     1     155.081 146.644 157.004  1.00  0.00    -0.508 OA
ATOM     25  H   UNL     1     155.521 146.352 157.869  1.00  0.00     0.293 HD
ENDBRANCH   8  24
TORSDOF 5
ENDMDL
MODEL 9
REMARK VINA RESULT:    -5.392      2.145      7.251
REMARK INTER + INTRA:          -6.601
REMARK INTER:                  -6.284
REMARK INTRA:                  -0.317
REMARK UNBOUND:                -0.263
REMARK SMILES O=c1cc(-c2ccc(O)c(O)c2)oc2cc(O)cc(O)c12
REMARK SMILES IDX 4 1 3 2 2 3 1 4 21 5 19 6 18 7 16 8 15 9 14 10 13 11 5 12
REMARK SMILES IDX 6 13 7 14 8 15 12 16 10 17 9 18 11 20 20 22 17 24
REMARK H PARENT 9 19 11 21 20 23 17 25
REMARK Flexibility Score: inf
ROOT
ATOM      1  C   UNL     1     145.543 146.156 157.106  1.00  0.00     0.138 A 
ATOM      2  C   UNL     1     146.547 147.104 156.848  1.00  0.00     0.100 A 
ATOM      3  C   UNL     1     146.217 148.459 156.804  1.00  0.00     0.197 A 
ATOM      4  O   UNL     1     147.125 149.302 156.574  1.00  0.00    -0.289 OA
ATOM      5  C   UNL     1     144.883 148.858 157.023  1.00  0.00     0.107 A 
ATOM      6  C   UNL     1     144.464 150.209 156.995  1.00  0.00     0.134 A 
ATOM      7  C   UNL     1     143.117 150.524 157.228  1.00  0.00     0.093 A 
ATOM      8  C   UNL     1     142.185 149.517 157.488  1.00  0.00     0.123 A 
ATOM      9  C   UNL     1     142.594 148.179 157.517  1.00  0.00     0.094 A 
ATOM     10  C   UNL     1     143.931 147.845 157.287  1.00  0.00     0.146 A 
ATOM     11  O   UNL     1     144.294 146.567 157.318  1.00  0.00    -0.456 OA
ENDROOT
BRANCH   1  12
ATOM     12  C   UNL     1     145.835 144.702 157.166  1.00  0.00     0.021 A 
ATOM     13  C   UNL     1     147.075 144.179 156.749  1.00  0.00     0.016 A 
ATOM     14  C   UNL     1     147.319 142.804 156.808  1.00  0.00     0.051 A 
ATOM     15  C   UNL     1     146.330 141.928 157.273  1.00  0.00     0.157 A 
ATOM     16  C   UNL     1     144.843 143.814 157.620  1.00  0.00     0.062 A 
ATOM     17  C   UNL     1     145.089 142.435 157.678  1.00  0.00     0.158 A 
BRANCH  15  18
ATOM     18  O   UNL     1     146.571 140.558 157.333  1.00  0.00    -0.504 OA
ATOM     19  H   UNL     1     146.376 139.950 156.547  1.00  0.00     0.293 HD
ENDBRANCH  15  18
BRANCH  17  20
ATOM     20  O   UNL     1     144.105 141.561 158.137  1.00  0.00    -0.504 OA
ATOM     21  H   UNL     1     144.012 140.624 157.763  1.00  0.00     0.293 HD
ENDBRANCH  17  20
ENDBRANCH   1  12
BRANCH   6  22
ATOM     22  O   UNL     1     145.373 151.237 156.738  1.00  0.00    -0.507 OA
ATOM     23  H   UNL     1     146.105 151.477 157.396  1.00  0.00     0.293 HD
ENDBRANCH   6  22
BRANCH   8  24
ATOM     24  O   UNL     1     140.853 149.857 157.716  1.00  0.00    -0.508 OA
ATOM     25  H   UNL     1     140.558 150.294 158.581  1.00  0.00     0.293 HD
ENDBRANCH   8  24
TORSDOF 5
ENDMDL
