MODEL 1
REMARK VINA RESULT:    -2.398      0.000      0.000
REMARK INTER + INTRA:          -7.675
REMARK INTER:                  -4.500
REMARK INTRA:                  -3.174
REMARK UNBOUND:                -3.174
REMARK SMILES CCCCCCCCC=CCCCCCCCC(=O)[O-]
REMARK SMILES IDX 10 1 9 2 11 3 12 4 13 5 14 6 15 7 16 8 17 9 18 10 19 11
REMARK SMILES IDX 20 12 8 13 7 14 6 15 5 16 4 17 3 18 2 19 1 20
REMARK H PARENT
REMARK Flexibility Score: inf
ROOT
ATOM      1  C   UNL     1     -97.868  26.338 -39.398  1.00  0.00    -0.031 C 
ATOM      2  C   UNL     1     -97.692  27.503 -38.754  1.00  0.00    -0.031 C 
ENDROOT
BRANCH   1   3
ATOM      3  C   UNL     1     -99.108  25.510 -39.201  1.00  0.00     0.027 C 
BRANCH   3   4
ATOM      4  C   UNL     1     -98.755  24.040 -38.927  1.00  0.00     0.004 C 
BRANCH   4   5
ATOM      5  C   UNL     1     -97.240  23.805 -38.824  1.00  0.00     0.000 C 
BRANCH   5   6
ATOM      6  C   UNL     1     -96.718  22.835 -39.895  1.00  0.00     0.000 C 
BRANCH   6   7
ATOM      7  C   UNL     1     -95.752  23.543 -40.853  1.00  0.00     0.000 C 
BRANCH   7   8
ATOM      8  C   UNL     1     -96.302  23.545 -42.288  1.00  0.00     0.006 C 
BRANCH   8   9
ATOM      9  C   UNL     1     -97.294  24.690 -42.528  1.00  0.00     0.053 C 
BRANCH   9  10
ATOM     10  C   UNL     1     -98.699  24.189 -42.672  1.00  0.00     0.041 C 
ATOM     11  O   UNL     1     -98.928  22.953 -42.725  1.00  0.00    -0.550 OA
ATOM     12  O   UNL     1     -99.751  25.091 -42.783  1.00  0.00    -0.550 OA
ENDBRANCH   9  10
ENDBRANCH   8   9
ENDBRANCH   7   8
ENDBRANCH   6   7
ENDBRANCH   5   6
ENDBRANCH   4   5
ENDBRANCH   3   4
ENDBRANCH   1   3
BRANCH   2  13
ATOM     13  C   UNL     1     -96.450  28.329 -38.946  1.00  0.00     0.027 C 
BRANCH  13  14
ATOM     14  C   UNL     1     -95.402  27.571 -39.774  1.00  0.00     0.004 C 
BRANCH  14  15
ATOM     15  C   UNL     1     -94.153  27.210 -38.954  1.00  0.00     0.000 C 
BRANCH  15  16
ATOM     16  C   UNL     1     -94.222  25.790 -38.364  1.00  0.00     0.000 C 
BRANCH  16  17
ATOM     17  C   UNL     1     -94.231  25.786 -36.825  1.00  0.00    -0.000 C 
BRANCH  17  18
ATOM     18  C   UNL     1     -95.632  25.723 -36.183  1.00  0.00    -0.000 C 
BRANCH  18  19
ATOM     19  C   UNL     1     -96.086  27.019 -35.486  1.00  0.00    -0.003 C 
ATOM     20  C   UNL     1     -97.574  27.019 -35.140  1.00  0.00     0.004 C 
ENDBRANCH  18  19
ENDBRANCH  17  18
ENDBRANCH  16  17
ENDBRANCH  15  16
ENDBRANCH  14  15
ENDBRANCH  13  14
ENDBRANCH   2  13
TORSDOF 15
ENDMDL
MODEL 2
REMARK VINA RESULT:    -2.388      3.557      5.711
REMARK INTER + INTRA:          -7.657
REMARK INTER:                  -5.581
REMARK INTRA:                  -2.076
REMARK UNBOUND:                -3.174
REMARK SMILES CCCCCCCCC=CCCCCCCCC(=O)[O-]
REMARK SMILES IDX 10 1 9 2 11 3 12 4 13 5 14 6 15 7 16 8 17 9 18 10 19 11
REMARK SMILES IDX 20 12 8 13 7 14 6 15 5 16 4 17 3 18 2 19 1 20
REMARK H PARENT
REMARK Flexibility Score: inf
ROOT
ATOM      1  C   UNL     1     -99.204  28.012 -38.900  1.00  0.00    -0.031 C 
ATOM      2  C   UNL     1    -100.031  27.549 -39.851  1.00  0.00    -0.031 C 
ENDROOT
BRANCH   1   3
ATOM      3  C   UNL     1     -98.562  27.092 -37.899  1.00  0.00     0.027 C 
BRANCH   3   4
ATOM      4  C   UNL     1     -97.052  27.357 -37.793  1.00  0.00     0.004 C 
BRANCH   4   5
ATOM      5  C   UNL     1     -96.537  28.293 -38.898  1.00  0.00     0.000 C 
BRANCH   5   6
ATOM      6  C   UNL     1     -95.420  27.656 -39.738  1.00  0.00     0.000 C 
BRANCH   6   7
ATOM      7  C   UNL     1     -95.498  26.125 -39.684  1.00  0.00     0.000 C 
BRANCH   7   8
ATOM      8  C   UNL     1     -96.023  25.553 -41.009  1.00  0.00     0.006 C 
BRANCH   8   9
ATOM      9  C   UNL     1     -97.447  25.000 -40.879  1.00  0.00     0.053 C 
BRANCH   9  10
ATOM     10  C   UNL     1     -97.979  24.517 -42.194  1.00  0.00     0.041 C 
ATOM     11  O   UNL     1     -99.043  24.999 -42.663  1.00  0.00    -0.550 OA
ATOM     12  O   UNL     1     -97.317  23.508 -42.884  1.00  0.00    -0.550 OA
ENDBRANCH   9  10
ENDBRANCH   8   9
ENDBRANCH   7   8
ENDBRANCH   6   7
ENDBRANCH   5   6
ENDBRANCH   4   5
ENDBRANCH   3   4
ENDBRANCH   1   3
BRANCH   2  13
ATOM     13  C   UNL     1    -100.677  28.469 -40.850  1.00  0.00     0.027 C 
BRANCH  13  14
ATOM     14  C   UNL     1    -101.539  27.683 -41.850  1.00  0.00     0.004 C 
BRANCH  14  15
ATOM     15  C   UNL     1    -103.020  28.088 -41.797  1.00  0.00     0.000 C 
BRANCH  15  16
ATOM     16  C   UNL     1    -103.644  27.869 -40.407  1.00  0.00     0.000 C 
BRANCH  16  17
ATOM     17  C   UNL     1    -104.289  29.144 -39.837  1.00  0.00    -0.000 C 
BRANCH  17  18
ATOM     18  C   UNL     1    -103.496  29.825 -38.703  1.00  0.00    -0.000 C 
BRANCH  18  19
ATOM     19  C   UNL     1    -102.720  28.864 -37.785  1.00  0.00    -0.003 C 
ATOM     20  C   UNL     1    -103.359  28.711 -36.406  1.00  0.00     0.004 C 
ENDBRANCH  18  19
ENDBRANCH  17  18
ENDBRANCH  16  17
ENDBRANCH  15  16
ENDBRANCH  14  15
ENDBRANCH  13  14
ENDBRANCH   2  13
TORSDOF 15
ENDMDL
MODEL 3
REMARK VINA RESULT:    -2.330      3.650      6.018
REMARK INTER + INTRA:          -7.548
REMARK INTER:                  -5.714
REMARK INTRA:                  -1.834
REMARK UNBOUND:                -3.174
REMARK SMILES CCCCCCCCC=CCCCCCCCC(=O)[O-]
REMARK SMILES IDX 10 1 9 2 11 3 12 4 13 5 14 6 15 7 16 8 17 9 18 10 19 11
REMARK SMILES IDX 20 12 8 13 7 14 6 15 5 16 4 17 3 18 2 19 1 20
REMARK H PARENT
REMARK Flexibility Score: inf
ROOT
ATOM      1  C   UNL     1     -98.705  27.435 -38.328  1.00  0.00    -0.031 C 
ATOM      2  C   UNL     1     -99.219  28.255 -39.259  1.00  0.00    -0.031 C 
ENDROOT
BRANCH   1   3
ATOM      3  C   UNL     1     -97.273  27.548 -37.884  1.00  0.00     0.027 C 
BRANCH   3   4
ATOM      4  C   UNL     1     -96.459  28.414 -38.857  1.00  0.00     0.004 C 
BRANCH   4   5
ATOM      5  C   UNL     1     -95.252  27.667 -39.445  1.00  0.00     0.000 C 
BRANCH   5   6
ATOM      6  C   UNL     1     -95.665  26.536 -40.399  1.00  0.00     0.000 C 
BRANCH   6   7
ATOM      7  C   UNL     1     -95.311  25.165 -39.808  1.00  0.00     0.000 C 
BRANCH   7   8
ATOM      8  C   UNL     1     -96.478  24.178 -39.968  1.00  0.00     0.006 C 
BRANCH   8   9
ATOM      9  C   UNL     1     -97.618  24.758 -40.814  1.00  0.00     0.053 C 
BRANCH   9  10
ATOM     10  C   UNL     1     -97.821  23.984 -42.081  1.00  0.00     0.041 C 
ATOM     11  O   UNL     1     -96.987  23.107 -42.428  1.00  0.00    -0.550 OA
ATOM     12  O   UNL     1     -98.914  24.256 -42.895  1.00  0.00    -0.550 OA
ENDBRANCH   9  10
ENDBRANCH   8   9
ENDBRANCH   7   8
ENDBRANCH   6   7
ENDBRANCH   5   6
ENDBRANCH   4   5
ENDBRANCH   3   4
ENDBRANCH   1   3
BRANCH   2  13
ATOM     13  C   UNL     1    -100.650  28.140 -39.707  1.00  0.00     0.027 C 
BRANCH  13  14
ATOM     14  C   UNL     1    -100.917  26.780 -40.368  1.00  0.00     0.004 C 
BRANCH  14  15
ATOM     15  C   UNL     1    -100.961  26.868 -41.901  1.00  0.00     0.000 C 
BRANCH  15  16
ATOM     16  C   UNL     1    -101.517  28.214 -42.400  1.00  0.00     0.000 C 
BRANCH  16  17
ATOM     17  C   UNL     1    -103.020  28.153 -42.727  1.00  0.00    -0.000 C 
BRANCH  17  18
ATOM     18  C   UNL     1    -103.958  28.377 -41.524  1.00  0.00    -0.000 C 
BRANCH  18  19
ATOM     19  C   UNL     1    -105.043  29.447 -41.736  1.00  0.00    -0.003 C 
ATOM     20  C   UNL     1    -105.748  29.847 -40.440  1.00  0.00     0.004 C 
ENDBRANCH  18  19
ENDBRANCH  17  18
ENDBRANCH  16  17
ENDBRANCH  15  16
ENDBRANCH  14  15
ENDBRANCH  13  14
ENDBRANCH   2  13
TORSDOF 15
ENDMDL
MODEL 4
REMARK VINA RESULT:    -2.312      2.645      5.589
REMARK INTER + INTRA:          -7.514
REMARK INTER:                  -4.888
REMARK INTRA:                  -2.625
REMARK UNBOUND:                -3.174
REMARK SMILES CCCCCCCCC=CCCCCCCCC(=O)[O-]
REMARK SMILES IDX 10 1 9 2 11 3 12 4 13 5 14 6 15 7 16 8 17 9 18 10 19 11
REMARK SMILES IDX 20 12 8 13 7 14 6 15 5 16 4 17 3 18 2 19 1 20
REMARK H PARENT
REMARK Flexibility Score: inf
ROOT
ATOM      1  C   UNL     1     -99.097  26.719 -38.895  1.00  0.00    -0.031 C 
ATOM      2  C   UNL     1     -99.221  25.902 -39.953  1.00  0.00    -0.031 C 
ENDROOT
BRANCH   1   3
ATOM      3  C   UNL     1     -98.075  27.822 -38.869  1.00  0.00     0.027 C 
BRANCH   3   4
ATOM      4  C   UNL     1     -97.000  27.555 -37.804  1.00  0.00     0.004 C 
BRANCH   4   5
ATOM      5  C   UNL     1     -95.638  27.193 -38.417  1.00  0.00     0.000 C 
BRANCH   5   6
ATOM      6  C   UNL     1     -95.708  27.000 -39.939  1.00  0.00     0.000 C 
BRANCH   6   7
ATOM      7  C   UNL     1     -95.597  25.516 -40.310  1.00  0.00     0.000 C 
BRANCH   7   8
ATOM      8  C   UNL     1     -96.078  25.269 -41.748  1.00  0.00     0.006 C 
BRANCH   8   9
ATOM      9  C   UNL     1     -96.576  23.833 -41.955  1.00  0.00     0.053 C 
BRANCH   9  10
ATOM     10  C   UNL     1     -95.558  22.987 -42.658  1.00  0.00     0.041 C 
ATOM     11  O   UNL     1     -95.703  22.701 -43.875  1.00  0.00    -0.550 OA
ATOM     12  O   UNL     1     -94.468  22.485 -41.957  1.00  0.00    -0.550 OA
ENDBRANCH   9  10
ENDBRANCH   8   9
ENDBRANCH   7   8
ENDBRANCH   6   7
ENDBRANCH   5   6
ENDBRANCH   4   5
ENDBRANCH   3   4
ENDBRANCH   1   3
BRANCH   2  13
ATOM     13  C   UNL     1    -100.240  24.796 -39.979  1.00  0.00     0.027 C 
BRANCH  13  14
ATOM     14  C   UNL     1    -100.338  24.165 -41.376  1.00  0.00     0.004 C 
BRANCH  14  15
ATOM     15  C   UNL     1    -100.074  25.178 -42.499  1.00  0.00     0.000 C 
BRANCH  15  16
ATOM     16  C   UNL     1    -101.292  25.371 -43.421  1.00  0.00     0.000 C 
BRANCH  16  17
ATOM     17  C   UNL     1    -102.151  26.585 -43.027  1.00  0.00    -0.000 C 
BRANCH  17  18
ATOM     18  C   UNL     1    -101.366  27.772 -42.432  1.00  0.00    -0.000 C 
BRANCH  18  19
ATOM     19  C   UNL     1    -101.787  28.183 -41.010  1.00  0.00    -0.003 C 
ATOM     20  C   UNL     1    -102.918  27.320 -40.452  1.00  0.00     0.004 C 
ENDBRANCH  18  19
ENDBRANCH  17  18
ENDBRANCH  16  17
ENDBRANCH  15  16
ENDBRANCH  14  15
ENDBRANCH  13  14
ENDBRANCH   2  13
TORSDOF 15
ENDMDL
MODEL 5
REMARK VINA RESULT:    -2.304      3.586      6.000
REMARK INTER + INTRA:          -7.499
REMARK INTER:                  -4.902
REMARK INTRA:                  -2.598
REMARK UNBOUND:                -3.174
REMARK SMILES CCCCCCCCC=CCCCCCCCC(=O)[O-]
REMARK SMILES IDX 10 1 9 2 11 3 12 4 13 5 14 6 15 7 16 8 17 9 18 10 19 11
REMARK SMILES IDX 20 12 8 13 7 14 6 15 5 16 4 17 3 18 2 19 1 20
REMARK H PARENT
REMARK Flexibility Score: inf
ROOT
ATOM      1  C   UNL     1     -99.957  25.476 -39.754  1.00  0.00    -0.031 C 
ATOM      2  C   UNL     1     -99.358  26.674 -39.844  1.00  0.00    -0.031 C 
ENDROOT
BRANCH   1   3
ATOM      3  C   UNL     1     -99.650  24.368 -40.723  1.00  0.00     0.027 C 
BRANCH   3   4
ATOM      4  C   UNL     1     -99.304  24.928 -42.111  1.00  0.00     0.004 C 
BRANCH   4   5
ATOM      5  C   UNL     1     -97.926  24.467 -42.609  1.00  0.00     0.000 C 
BRANCH   5   6
ATOM      6  C   UNL     1     -97.172  23.628 -41.566  1.00  0.00     0.000 C 
BRANCH   6   7
ATOM      7  C   UNL     1     -95.734  24.135 -41.390  1.00  0.00     0.000 C 
BRANCH   7   8
ATOM      8  C   UNL     1     -95.625  25.073 -40.179  1.00  0.00     0.006 C 
BRANCH   8   9
ATOM      9  C   UNL     1     -95.739  26.550 -40.576  1.00  0.00     0.053 C 
BRANCH   9  10
ATOM     10  C   UNL     1     -95.233  27.458 -39.497  1.00  0.00     0.041 C 
ATOM     11  O   UNL     1     -95.855  28.516 -39.216  1.00  0.00    -0.550 OA
ATOM     12  O   UNL     1     -94.055  27.152 -38.826  1.00  0.00    -0.550 OA
ENDBRANCH   9  10
ENDBRANCH   8   9
ENDBRANCH   7   8
ENDBRANCH   6   7
ENDBRANCH   5   6
ENDBRANCH   4   5
ENDBRANCH   3   4
ENDBRANCH   1   3
BRANCH   2  13
ATOM     13  C   UNL     1     -99.668  27.784 -38.877  1.00  0.00     0.027 C 
BRANCH  13  14
ATOM     14  C   UNL     1    -100.837  27.407 -37.955  1.00  0.00     0.004 C 
BRANCH  14  15
ATOM     15  C   UNL     1    -101.721  28.612 -37.602  1.00  0.00     0.000 C 
BRANCH  15  16
ATOM     16  C   UNL     1    -102.671  29.005 -38.748  1.00  0.00     0.000 C 
BRANCH  16  17
ATOM     17  C   UNL     1    -103.238  27.786 -39.496  1.00  0.00    -0.000 C 
BRANCH  17  18
ATOM     18  C   UNL     1    -103.437  27.986 -41.012  1.00  0.00    -0.000 C 
BRANCH  18  19
ATOM     19  C   UNL     1    -102.474  27.183 -41.905  1.00  0.00    -0.003 C 
ATOM     20  C   UNL     1    -101.396  28.052 -42.551  1.00  0.00     0.004 C 
ENDBRANCH  18  19
ENDBRANCH  17  18
ENDBRANCH  16  17
ENDBRANCH  15  16
ENDBRANCH  14  15
ENDBRANCH  13  14
ENDBRANCH   2  13
TORSDOF 15
ENDMDL
MODEL 6
REMARK VINA RESULT:    -2.281      2.459      4.617
REMARK INTER + INTRA:          -7.455
REMARK INTER:                  -4.734
REMARK INTRA:                  -2.721
REMARK UNBOUND:                -3.174
REMARK SMILES CCCCCCCCC=CCCCCCCCC(=O)[O-]
REMARK SMILES IDX 10 1 9 2 11 3 12 4 13 5 14 6 15 7 16 8 17 9 18 10 19 11
REMARK SMILES IDX 20 12 8 13 7 14 6 15 5 16 4 17 3 18 2 19 1 20
REMARK H PARENT
REMARK Flexibility Score: inf
ROOT
ATOM      1  C   UNL     1     -99.990  28.060 -39.164  1.00  0.00    -0.031 C 
ATOM      2  C   UNL     1     -98.676  27.811 -39.052  1.00  0.00    -0.031 C 
ENDROOT
BRANCH   1   3
ATOM      3  C   UNL     1    -100.581  28.607 -40.434  1.00  0.00     0.027 C 
BRANCH   3   4
ATOM      4  C   UNL     1    -101.569  27.610 -41.059  1.00  0.00     0.004 C 
BRANCH   4   5
ATOM      5  C   UNL     1    -101.258  27.314 -42.534  1.00  0.00     0.000 C 
BRANCH   5   6
ATOM      6  C   UNL     1    -100.986  25.824 -42.793  1.00  0.00     0.000 C 
BRANCH   6   7
ATOM      7  C   UNL     1     -99.637  25.401 -42.199  1.00  0.00     0.000 C 
BRANCH   7   8
ATOM      8  C   UNL     1     -99.775  24.104 -41.388  1.00  0.00     0.006 C 
BRANCH   8   9
ATOM      9  C   UNL     1     -99.548  24.329 -39.888  1.00  0.00     0.053 C 
BRANCH   9  10
ATOM     10  C   UNL     1    -100.841  24.477 -39.145  1.00  0.00     0.041 C 
ATOM     11  O   UNL     1    -101.933  24.219 -39.716  1.00  0.00    -0.550 OA
ATOM     12  O   UNL     1    -100.841  24.933 -37.832  1.00  0.00    -0.550 OA
ENDBRANCH   9  10
ENDBRANCH   8   9
ENDBRANCH   7   8
ENDBRANCH   6   7
ENDBRANCH   5   6
ENDBRANCH   4   5
ENDBRANCH   3   4
ENDBRANCH   1   3
BRANCH   2  13
ATOM     13  C   UNL     1     -98.082  27.267 -37.781  1.00  0.00     0.027 C 
BRANCH  13  14
ATOM     14  C   UNL     1     -96.556  27.439 -37.764  1.00  0.00     0.004 C 
BRANCH  14  15
ATOM     15  C   UNL     1     -95.985  27.771 -39.151  1.00  0.00     0.000 C 
BRANCH  15  16
ATOM     16  C   UNL     1     -95.236  26.584 -39.782  1.00  0.00     0.000 C 
BRANCH  16  17
ATOM     17  C   UNL     1     -96.094  25.814 -40.803  1.00  0.00    -0.000 C 
BRANCH  17  18
ATOM     18  C   UNL     1     -95.854  24.291 -40.838  1.00  0.00    -0.000 C 
BRANCH  18  19
ATOM     19  C   UNL     1     -95.708  23.688 -42.246  1.00  0.00    -0.003 C 
ATOM     20  C   UNL     1     -96.629  22.491 -42.481  1.00  0.00     0.004 C 
ENDBRANCH  18  19
ENDBRANCH  17  18
ENDBRANCH  16  17
ENDBRANCH  15  16
ENDBRANCH  14  15
ENDBRANCH  13  14
ENDBRANCH   2  13
TORSDOF 15
ENDMDL
MODEL 7
REMARK VINA RESULT:    -2.270      2.313      6.027
REMARK INTER + INTRA:          -7.435
REMARK INTER:                  -5.189
REMARK INTRA:                  -2.247
REMARK UNBOUND:                -3.174
REMARK SMILES CCCCCCCCC=CCCCCCCCC(=O)[O-]
REMARK SMILES IDX 10 1 9 2 11 3 12 4 13 5 14 6 15 7 16 8 17 9 18 10 19 11
REMARK SMILES IDX 20 12 8 13 7 14 6 15 5 16 4 17 3 18 2 19 1 20
REMARK H PARENT
REMARK Flexibility Score: inf
ROOT
ATOM      1  C   UNL     1     -95.367  25.124 -40.020  1.00  0.00    -0.031 C 
ATOM      2  C   UNL     1     -96.098  25.358 -41.122  1.00  0.00    -0.031 C 
ENDROOT
BRANCH   1   3
ATOM      3  C   UNL     1     -95.149  26.187 -38.980  1.00  0.00     0.027 C 
BRANCH   3   4
ATOM      4  C   UNL     1     -95.294  27.592 -39.585  1.00  0.00     0.004 C 
BRANCH   4   5
ATOM      5  C   UNL     1     -96.446  28.391 -38.956  1.00  0.00     0.000 C 
BRANCH   5   6
ATOM      6  C   UNL     1     -97.158  27.618 -37.836  1.00  0.00     0.000 C 
BRANCH   6   7
ATOM      7  C   UNL     1     -98.522  27.099 -38.310  1.00  0.00     0.000 C 
BRANCH   7   8
ATOM      8  C   UNL     1     -99.279  28.179 -39.098  1.00  0.00     0.006 C 
BRANCH   8   9
ATOM      9  C   UNL     1    -100.795  28.103 -38.878  1.00  0.00     0.053 C 
BRANCH   9  10
ATOM     10  C   UNL     1    -101.552  28.255 -40.162  1.00  0.00     0.041 C 
ATOM     11  O   UNL     1    -100.945  28.216 -41.265  1.00  0.00    -0.550 OA
ATOM     12  O   UNL     1    -102.924  28.474 -40.139  1.00  0.00    -0.550 OA
ENDBRANCH   9  10
ENDBRANCH   8   9
ENDBRANCH   7   8
ENDBRANCH   6   7
ENDBRANCH   5   6
ENDBRANCH   4   5
ENDBRANCH   3   4
ENDBRANCH   1   3
BRANCH   2  13
ATOM     13  C   UNL     1     -96.314  24.297 -42.165  1.00  0.00     0.027 C 
BRANCH  13  14
ATOM     14  C   UNL     1     -96.365  22.899 -41.531  1.00  0.00     0.004 C 
BRANCH  14  15
ATOM     15  C   UNL     1     -97.454  22.010 -42.152  1.00  0.00     0.000 C 
BRANCH  15  16
ATOM     16  C   UNL     1     -98.169  22.689 -43.334  1.00  0.00     0.000 C 
BRANCH  16  17
ATOM     17  C   UNL     1     -99.701  22.560 -43.256  1.00  0.00    -0.000 C 
BRANCH  17  18
ATOM     18  C   UNL     1    -100.466  23.898 -43.207  1.00  0.00    -0.000 C 
BRANCH  18  19
ATOM     19  C   UNL     1     -99.754  25.026 -42.438  1.00  0.00    -0.003 C 
ATOM     20  C   UNL     1     -99.943  24.927 -40.925  1.00  0.00     0.004 C 
ENDBRANCH  18  19
ENDBRANCH  17  18
ENDBRANCH  16  17
ENDBRANCH  15  16
ENDBRANCH  14  15
ENDBRANCH  13  14
ENDBRANCH   2  13
TORSDOF 15
ENDMDL
MODEL 8
REMARK VINA RESULT:    -2.268      1.794      3.241
REMARK INTER + INTRA:          -7.432
REMARK INTER:                  -4.724
REMARK INTRA:                  -2.708
REMARK UNBOUND:                -3.174
REMARK SMILES CCCCCCCCC=CCCCCCCCC(=O)[O-]
REMARK SMILES IDX 10 1 9 2 11 3 12 4 13 5 14 6 15 7 16 8 17 9 18 10 19 11
REMARK SMILES IDX 20 12 8 13 7 14 6 15 5 16 4 17 3 18 2 19 1 20
REMARK H PARENT
REMARK Flexibility Score: inf
ROOT
ATOM      1  C   UNL     1     -96.868  28.261 -38.876  1.00  0.00    -0.031 C 
ATOM      2  C   UNL     1     -97.951  27.494 -39.077  1.00  0.00    -0.031 C 
ENDROOT
BRANCH   1   3
ATOM      3  C   UNL     1     -95.500  27.824 -39.324  1.00  0.00     0.027 C 
BRANCH   3   4
ATOM      4  C   UNL     1     -95.575  26.520 -40.133  1.00  0.00     0.004 C 
BRANCH   4   5
ATOM      5  C   UNL     1     -95.000  25.317 -39.370  1.00  0.00     0.000 C 
BRANCH   5   6
ATOM      6  C   UNL     1     -95.862  24.054 -39.522  1.00  0.00     0.000 C 
BRANCH   6   7
ATOM      7  C   UNL     1     -97.124  24.348 -40.344  1.00  0.00     0.000 C 
BRANCH   7   8
ATOM      8  C   UNL     1     -97.224  23.408 -41.555  1.00  0.00     0.006 C 
BRANCH   8   9
ATOM      9  C   UNL     1     -96.171  23.723 -42.624  1.00  0.00     0.053 C 
BRANCH   9  10
ATOM     10  C   UNL     1     -95.859  22.526 -43.469  1.00  0.00     0.041 C 
ATOM     11  O   UNL     1     -94.786  22.476 -44.125  1.00  0.00    -0.550 OA
ATOM     12  O   UNL     1     -96.772  21.481 -43.559  1.00  0.00    -0.550 OA
ENDBRANCH   9  10
ENDBRANCH   8   9
ENDBRANCH   7   8
ENDBRANCH   6   7
ENDBRANCH   5   6
ENDBRANCH   4   5
ENDBRANCH   3   4
ENDBRANCH   1   3
BRANCH   2  13
ATOM     13  C   UNL     1     -99.319  27.929 -38.625  1.00  0.00     0.027 C 
BRANCH  13  14
ATOM     14  C   UNL     1     -99.854  27.011 -37.516  1.00  0.00     0.004 C 
BRANCH  14  15
ATOM     15  C   UNL     1     -99.056  25.704 -37.396  1.00  0.00     0.000 C 
BRANCH  15  16
ATOM     16  C   UNL     1     -98.419  25.524 -36.007  1.00  0.00     0.000 C 
BRANCH  16  17
ATOM     17  C   UNL     1     -96.930  25.142 -36.080  1.00  0.00    -0.000 C 
BRANCH  17  18
ATOM     18  C   UNL     1     -95.946  26.301 -35.821  1.00  0.00    -0.000 C 
BRANCH  18  19
ATOM     19  C   UNL     1     -96.599  27.615 -35.354  1.00  0.00    -0.003 C 
ATOM     20  C   UNL     1     -96.287  27.949 -33.896  1.00  0.00     0.004 C 
ENDBRANCH  18  19
ENDBRANCH  17  18
ENDBRANCH  16  17
ENDBRANCH  15  16
ENDBRANCH  14  15
ENDBRANCH  13  14
ENDBRANCH   2  13
TORSDOF 15
ENDMDL
MODEL 9
REMARK VINA RESULT:    -2.242      2.333      5.462
REMARK INTER + INTRA:          -7.383
REMARK INTER:                  -4.106
REMARK INTRA:                  -3.277
REMARK UNBOUND:                -3.174
REMARK SMILES CCCCCCCCC=CCCCCCCCC(=O)[O-]
REMARK SMILES IDX 10 1 9 2 11 3 12 4 13 5 14 6 15 7 16 8 17 9 18 10 19 11
REMARK SMILES IDX 20 12 8 13 7 14 6 15 5 16 4 17 3 18 2 19 1 20
REMARK H PARENT
REMARK Flexibility Score: inf
ROOT
ATOM      1  C   UNL     1     -97.315  23.926 -38.702  1.00  0.00    -0.031 C 
ATOM      2  C   UNL     1     -97.284  24.523 -39.905  1.00  0.00    -0.031 C 
ENDROOT
BRANCH   1   3
ATOM      3  C   UNL     1     -96.065  23.736 -37.887  1.00  0.00     0.027 C 
BRANCH   3   4
ATOM      4  C   UNL     1     -94.813  24.086 -38.704  1.00  0.00     0.004 C 
BRANCH   4   5
ATOM      5  C   UNL     1     -93.880  25.061 -37.970  1.00  0.00     0.000 C 
BRANCH   5   6
ATOM      6  C   UNL     1     -94.476  26.472 -37.852  1.00  0.00     0.000 C 
BRANCH   6   7
ATOM      7  C   UNL     1     -94.686  27.096 -39.238  1.00  0.00     0.000 C 
BRANCH   7   8
ATOM      8  C   UNL     1     -96.013  27.868 -39.299  1.00  0.00     0.006 C 
BRANCH   8   9
ATOM      9  C   UNL     1     -96.825  27.732 -38.005  1.00  0.00     0.053 C 
BRANCH   9  10
ATOM     10  C   UNL     1     -98.297  27.658 -38.276  1.00  0.00     0.041 C 
ATOM     11  O   UNL     1     -98.816  28.390 -39.159  1.00  0.00    -0.550 OA
ATOM     12  O   UNL     1     -99.101  26.806 -37.528  1.00  0.00    -0.550 OA
ENDBRANCH   9  10
ENDBRANCH   8   9
ENDBRANCH   7   8
ENDBRANCH   6   7
ENDBRANCH   5   6
ENDBRANCH   4   5
ENDBRANCH   3   4
ENDBRANCH   1   3
BRANCH   2  13
ATOM     13  C   UNL     1     -98.532  24.709 -40.723  1.00  0.00     0.027 C 
BRANCH  13  14
ATOM     14  C   UNL     1     -98.238  24.565 -42.224  1.00  0.00     0.004 C 
BRANCH  14  15
ATOM     15  C   UNL     1     -96.733  24.534 -42.528  1.00  0.00     0.000 C 
BRANCH  15  16
ATOM     16  C   UNL     1     -96.259  23.159 -43.034  1.00  0.00     0.000 C 
BRANCH  16  17
ATOM     17  C   UNL     1     -95.213  22.513 -42.109  1.00  0.00    -0.000 C 
BRANCH  17  18
ATOM     18  C   UNL     1     -95.705  21.274 -41.334  1.00  0.00    -0.000 C 
BRANCH  18  19
ATOM     19  C   UNL     1     -97.109  20.779 -41.725  1.00  0.00    -0.003 C 
ATOM     20  C   UNL     1     -98.128  20.926 -40.596  1.00  0.00     0.004 C 
ENDBRANCH  18  19
ENDBRANCH  17  18
ENDBRANCH  16  17
ENDBRANCH  15  16
ENDBRANCH  14  15
ENDBRANCH  13  14
ENDBRANCH   2  13
TORSDOF 15
ENDMDL
