MODEL 1
REMARK VINA RESULT:    -5.472      0.000      0.000
REMARK INTER + INTRA:         -12.982
REMARK INTER:                 -10.590
REMARK INTRA:                  -2.392
REMARK UNBOUND:                -2.392
REMARK SMILES CCCCCCCCCCCCCCCCCC(=O)[O-]
REMARK SMILES IDX 10 1 11 2 12 3 13 4 14 5 15 6 16 7 17 8 18 9 19 10 20 11
REMARK SMILES IDX 9 12 8 13 7 14 6 15 5 16 4 17 3 18 2 19 1 20
REMARK H PARENT
REMARK Flexibility Score: inf
ROOT
ATOM      1  C   UNL     1      49.506  53.550  25.038  1.00  0.00     0.000 C 
ENDROOT
BRANCH   1   2
ATOM      2  C   UNL     1      49.910  52.525  23.964  1.00  0.00     0.000 C 
BRANCH   2   3
ATOM      3  C   UNL     1      49.345  52.840  22.564  1.00  0.00     0.000 C 
BRANCH   3   4
ATOM      4  C   UNL     1      49.783  51.800  21.518  1.00  0.00     0.000 C 
BRANCH   4   5
ATOM      5  C   UNL     1      51.077  51.073  21.913  1.00  0.00     0.000 C 
BRANCH   5   6
ATOM      6  C   UNL     1      52.193  51.257  20.874  1.00  0.00     0.000 C 
BRANCH   6   7
ATOM      7  C   UNL     1      52.960  52.566  21.119  1.00  0.00     0.006 C 
BRANCH   7   8
ATOM      8  C   UNL     1      53.235  52.805  22.610  1.00  0.00     0.053 C 
BRANCH   8   9
ATOM      9  C   UNL     1      52.920  54.212  23.016  1.00  0.00     0.041 C 
ATOM     10  O   UNL     1      52.682  55.086  22.141  1.00  0.00    -0.550 OA
ATOM     11  O   UNL     1      52.865  54.554  24.362  1.00  0.00    -0.550 OA
ENDBRANCH   8   9
ENDBRANCH   7   8
ENDBRANCH   6   7
ENDBRANCH   5   6
ENDBRANCH   4   5
ENDBRANCH   3   4
ENDBRANCH   2   3
ENDBRANCH   1   2
BRANCH   1  12
ATOM     12  C   UNL     1      48.857  52.904  26.269  1.00  0.00     0.000 C 
BRANCH  12  13
ATOM     13  C   UNL     1      47.390  53.328  26.404  1.00  0.00    -0.000 C 
BRANCH  13  14
ATOM     14  C   UNL     1      46.555  52.807  25.224  1.00  0.00    -0.000 C 
BRANCH  14  15
ATOM     15  C   UNL     1      46.319  51.290  25.292  1.00  0.00    -0.000 C 
BRANCH  15  16
ATOM     16  C   UNL     1      46.981  50.534  24.127  1.00  0.00    -0.000 C 
BRANCH  16  17
ATOM     17  C   UNL     1      47.675  49.235  24.575  1.00  0.00    -0.000 C 
BRANCH  17  18
ATOM     18  C   UNL     1      48.971  48.898  23.815  1.00  0.00    -0.000 C 
BRANCH  18  19
ATOM     19  C   UNL     1      49.666  47.636  24.348  1.00  0.00    -0.003 C 
ATOM     20  C   UNL     1      51.091  47.526  23.814  1.00  0.00     0.004 C 
ENDBRANCH  18  19
ENDBRANCH  17  18
ENDBRANCH  16  17
ENDBRANCH  15  16
ENDBRANCH  14  15
ENDBRANCH  13  14
ENDBRANCH  12  13
ENDBRANCH   1  12
TORSDOF 16
ENDMDL
MODEL 2
REMARK VINA RESULT:    -5.288      2.774      6.550
REMARK INTER + INTRA:         -12.625
REMARK INTER:                 -10.500
REMARK INTRA:                  -2.125
REMARK UNBOUND:                -2.392
REMARK SMILES CCCCCCCCCCCCCCCCCC(=O)[O-]
REMARK SMILES IDX 10 1 11 2 12 3 13 4 14 5 15 6 16 7 17 8 18 9 19 10 20 11
REMARK SMILES IDX 9 12 8 13 7 14 6 15 5 16 4 17 3 18 2 19 1 20
REMARK H PARENT
REMARK Flexibility Score: inf
ROOT
ATOM      1  C   UNL     1      49.828  52.429  24.055  1.00  0.00     0.000 C 
ENDROOT
BRANCH   1   2
ATOM      2  C   UNL     1      49.544  53.535  25.087  1.00  0.00     0.000 C 
BRANCH   2   3
ATOM      3  C   UNL     1      48.644  53.077  26.253  1.00  0.00     0.000 C 
BRANCH   3   4
ATOM      4  C   UNL     1      47.150  53.164  25.896  1.00  0.00     0.000 C 
BRANCH   4   5
ATOM      5  C   UNL     1      46.454  51.795  25.921  1.00  0.00     0.000 C 
BRANCH   5   6
ATOM      6  C   UNL     1      46.647  51.016  24.611  1.00  0.00     0.000 C 
BRANCH   6   7
ATOM      7  C   UNL     1      47.183  49.602  24.887  1.00  0.00     0.006 C 
BRANCH   7   8
ATOM      8  C   UNL     1      48.328  49.221  23.940  1.00  0.00     0.053 C 
BRANCH   8   9
ATOM      9  C   UNL     1      48.963  47.922  24.327  1.00  0.00     0.041 C 
ATOM     10  O   UNL     1      50.196  47.740  24.144  1.00  0.00    -0.550 OA
ATOM     11  O   UNL     1      48.200  46.918  24.911  1.00  0.00    -0.550 OA
ENDBRANCH   8   9
ENDBRANCH   7   8
ENDBRANCH   6   7
ENDBRANCH   5   6
ENDBRANCH   4   5
ENDBRANCH   3   4
ENDBRANCH   2   3
ENDBRANCH   1   2
BRANCH   1  12
ATOM     12  C   UNL     1      49.568  52.878  22.611  1.00  0.00     0.000 C 
BRANCH  12  13
ATOM     13  C   UNL     1      49.412  51.669  21.680  1.00  0.00    -0.000 C 
BRANCH  13  14
ATOM     14  C   UNL     1      50.579  51.587  20.684  1.00  0.00    -0.000 C 
BRANCH  14  15
ATOM     15  C   UNL     1      51.891  51.140  21.347  1.00  0.00    -0.000 C 
BRANCH  15  16
ATOM     16  C   UNL     1      52.988  52.216  21.275  1.00  0.00    -0.000 C 
BRANCH  16  17
ATOM     17  C   UNL     1      53.144  53.001  22.589  1.00  0.00    -0.000 C 
BRANCH  17  18
ATOM     18  C   UNL     1      52.959  54.524  22.459  1.00  0.00    -0.000 C 
BRANCH  18  19
ATOM     19  C   UNL     1      52.269  54.933  21.148  1.00  0.00    -0.003 C 
ATOM     20  C   UNL     1      52.348  56.441  20.932  1.00  0.00     0.004 C 
ENDBRANCH  18  19
ENDBRANCH  17  18
ENDBRANCH  16  17
ENDBRANCH  15  16
ENDBRANCH  14  15
ENDBRANCH  13  14
ENDBRANCH  12  13
ENDBRANCH   1  12
TORSDOF 16
ENDMDL
MODEL 3
REMARK VINA RESULT:    -5.260      2.595      4.743
REMARK INTER + INTRA:         -12.572
REMARK INTER:                 -10.360
REMARK INTRA:                  -2.212
REMARK UNBOUND:                -2.392
REMARK SMILES CCCCCCCCCCCCCCCCCC(=O)[O-]
REMARK SMILES IDX 10 1 11 2 12 3 13 4 14 5 15 6 16 7 17 8 18 9 19 10 20 11
REMARK SMILES IDX 9 12 8 13 7 14 6 15 5 16 4 17 3 18 2 19 1 20
REMARK H PARENT
REMARK Flexibility Score: inf
ROOT
ATOM      1  C   UNL     1      53.178  54.323  22.966  1.00  0.00     0.000 C 
ENDROOT
BRANCH   1   2
ATOM      2  C   UNL     1      52.457  54.696  21.659  1.00  0.00     0.000 C 
BRANCH   2   3
ATOM      3  C   UNL     1      51.846  53.486  20.923  1.00  0.00     0.000 C 
BRANCH   3   4
ATOM      4  C   UNL     1      52.752  52.246  21.002  1.00  0.00     0.000 C 
BRANCH   4   5
ATOM      5  C   UNL     1      51.961  50.948  21.224  1.00  0.00     0.000 C 
BRANCH   5   6
ATOM      6  C   UNL     1      50.443  51.160  21.112  1.00  0.00     0.000 C 
BRANCH   6   7
ATOM      7  C   UNL     1      49.681  50.138  21.969  1.00  0.00     0.006 C 
BRANCH   7   8
ATOM      8  C   UNL     1      50.600  49.031  22.503  1.00  0.00     0.053 C 
BRANCH   8   9
ATOM      9  C   UNL     1      49.993  48.320  23.674  1.00  0.00     0.041 C 
ATOM     10  O   UNL     1      50.648  47.436  24.286  1.00  0.00    -0.550 OA
ATOM     11  O   UNL     1      48.713  48.649  24.103  1.00  0.00    -0.550 OA
ENDBRANCH   8   9
ENDBRANCH   7   8
ENDBRANCH   6   7
ENDBRANCH   5   6
ENDBRANCH   4   5
ENDBRANCH   3   4
ENDBRANCH   2   3
ENDBRANCH   1   2
BRANCH   1  12
ATOM     12  C   UNL     1      52.246  54.322  24.185  1.00  0.00     0.000 C 
BRANCH  12  13
ATOM     13  C   UNL     1      51.683  52.919  24.445  1.00  0.00    -0.000 C 
BRANCH  13  14
ATOM     14  C   UNL     1      50.167  52.880  24.201  1.00  0.00    -0.000 C 
BRANCH  14  15
ATOM     15  C   UNL     1      49.384  53.733  25.211  1.00  0.00    -0.000 C 
BRANCH  15  16
ATOM     16  C   UNL     1      48.708  52.889  26.305  1.00  0.00    -0.000 C 
BRANCH  16  17
ATOM     17  C   UNL     1      47.219  53.228  26.489  1.00  0.00    -0.000 C 
BRANCH  17  18
ATOM     18  C   UNL     1      46.329  52.923  25.269  1.00  0.00    -0.000 C 
BRANCH  18  19
ATOM     19  C   UNL     1      46.300  51.429  24.911  1.00  0.00    -0.003 C 
ATOM     20  C   UNL     1      46.379  51.225  23.400  1.00  0.00     0.004 C 
ENDBRANCH  18  19
ENDBRANCH  17  18
ENDBRANCH  16  17
ENDBRANCH  15  16
ENDBRANCH  14  15
ENDBRANCH  13  14
ENDBRANCH  12  13
ENDBRANCH   1  12
TORSDOF 16
ENDMDL
MODEL 4
REMARK VINA RESULT:    -5.156      2.668      4.610
REMARK INTER + INTRA:         -12.370
REMARK INTER:                 -10.050
REMARK INTRA:                  -2.321
REMARK UNBOUND:                -2.392
REMARK SMILES CCCCCCCCCCCCCCCCCC(=O)[O-]
REMARK SMILES IDX 10 1 11 2 12 3 13 4 14 5 15 6 16 7 17 8 18 9 19 10 20 11
REMARK SMILES IDX 9 12 8 13 7 14 6 15 5 16 4 17 3 18 2 19 1 20
REMARK H PARENT
REMARK Flexibility Score: inf
ROOT
ATOM      1  C   UNL     1      52.124  54.359  24.104  1.00  0.00     0.000 C 
ENDROOT
BRANCH   1   2
ATOM      2  C   UNL     1      52.986  53.795  22.961  1.00  0.00     0.000 C 
BRANCH   2   3
ATOM      3  C   UNL     1      52.560  54.290  21.563  1.00  0.00     0.000 C 
BRANCH   3   4
ATOM      4  C   UNL     1      52.085  53.136  20.663  1.00  0.00     0.000 C 
BRANCH   4   5
ATOM      5  C   UNL     1      52.376  51.754  21.270  1.00  0.00     0.000 C 
BRANCH   5   6
ATOM      6  C   UNL     1      51.153  50.825  21.223  1.00  0.00     0.000 C 
BRANCH   6   7
ATOM      7  C   UNL     1      51.040  50.002  22.515  1.00  0.00     0.006 C 
BRANCH   7   8
ATOM      8  C   UNL     1      49.794  49.106  22.524  1.00  0.00     0.053 C 
BRANCH   8   9
ATOM      9  C   UNL     1      49.805  48.146  23.673  1.00  0.00     0.041 C 
ATOM     10  O   UNL     1      50.888  47.628  24.055  1.00  0.00    -0.550 OA
ATOM     11  O   UNL     1      48.625  47.840  24.338  1.00  0.00    -0.550 OA
ENDBRANCH   8   9
ENDBRANCH   7   8
ENDBRANCH   6   7
ENDBRANCH   5   6
ENDBRANCH   4   5
ENDBRANCH   3   4
ENDBRANCH   2   3
ENDBRANCH   1   2
BRANCH   1  12
ATOM     12  C   UNL     1      51.072  53.362  24.608  1.00  0.00     0.000 C 
BRANCH  12  13
ATOM     13  C   UNL     1      49.870  53.302  23.657  1.00  0.00    -0.000 C 
BRANCH  13  14
ATOM     14  C   UNL     1      48.892  52.194  24.075  1.00  0.00    -0.000 C 
BRANCH  14  15
ATOM     15  C   UNL     1      47.687  52.082  23.129  1.00  0.00    -0.000 C 
BRANCH  15  16
ATOM     16  C   UNL     1      46.634  51.076  23.624  1.00  0.00    -0.000 C 
BRANCH  16  17
ATOM     17  C   UNL     1      46.838  50.671  25.095  1.00  0.00    -0.000 C 
BRANCH  17  18
ATOM     18  C   UNL     1      45.880  51.348  26.092  1.00  0.00    -0.000 C 
BRANCH  18  19
ATOM     19  C   UNL     1      46.507  52.564  26.792  1.00  0.00    -0.003 C 
ATOM     20  C   UNL     1      46.227  53.849  26.018  1.00  0.00     0.004 C 
ENDBRANCH  18  19
ENDBRANCH  17  18
ENDBRANCH  16  17
ENDBRANCH  15  16
ENDBRANCH  14  15
ENDBRANCH  13  14
ENDBRANCH  12  13
ENDBRANCH   1  12
TORSDOF 16
ENDMDL
MODEL 5
REMARK VINA RESULT:    -5.091      1.396      3.738
REMARK INTER + INTRA:         -12.244
REMARK INTER:                 -10.473
REMARK INTRA:                  -1.771
REMARK UNBOUND:                -2.392
REMARK SMILES CCCCCCCCCCCCCCCCCC(=O)[O-]
REMARK SMILES IDX 10 1 11 2 12 3 13 4 14 5 15 6 16 7 17 8 18 9 19 10 20 11
REMARK SMILES IDX 9 12 8 13 7 14 6 15 5 16 4 17 3 18 2 19 1 20
REMARK H PARENT
REMARK Flexibility Score: inf
ROOT
ATOM      1  C   UNL     1      50.275  50.076  23.039  1.00  0.00     0.000 C 
ENDROOT
BRANCH   1   2
ATOM      2  C   UNL     1      50.300  49.950  21.506  1.00  0.00     0.000 C 
BRANCH   2   3
ATOM      3  C   UNL     1      50.692  51.256  20.784  1.00  0.00     0.000 C 
BRANCH   3   4
ATOM      4  C   UNL     1      52.118  51.707  21.144  1.00  0.00     0.000 C 
BRANCH   4   5
ATOM      5  C   UNL     1      52.424  53.137  20.671  1.00  0.00     0.000 C 
BRANCH   5   6
ATOM      6  C   UNL     1      51.771  54.202  21.565  1.00  0.00     0.000 C 
BRANCH   6   7
ATOM      7  C   UNL     1      52.802  54.820  22.522  1.00  0.00     0.006 C 
BRANCH   7   8
ATOM      8  C   UNL     1      52.667  54.274  23.950  1.00  0.00     0.053 C 
BRANCH   8   9
ATOM      9  C   UNL     1      53.664  53.192  24.229  1.00  0.00     0.041 C 
ATOM     10  O   UNL     1      53.556  52.482  25.264  1.00  0.00    -0.550 OA
ATOM     11  O   UNL     1      54.702  52.952  23.337  1.00  0.00    -0.550 OA
ENDBRANCH   8   9
ENDBRANCH   7   8
ENDBRANCH   6   7
ENDBRANCH   5   6
ENDBRANCH   4   5
ENDBRANCH   3   4
ENDBRANCH   2   3
ENDBRANCH   1   2
BRANCH   1  12
ATOM     12  C   UNL     1      49.951  48.751  23.743  1.00  0.00     0.000 C 
BRANCH  12  13
ATOM     13  C   UNL     1      48.472  48.691  24.146  1.00  0.00    -0.000 C 
BRANCH  13  14
ATOM     14  C   UNL     1      47.823  50.081  24.066  1.00  0.00    -0.000 C 
BRANCH  14  15
ATOM     15  C   UNL     1      46.746  50.293  25.142  1.00  0.00    -0.000 C 
BRANCH  15  16
ATOM     16  C   UNL     1      45.876  51.533  24.875  1.00  0.00    -0.000 C 
BRANCH  16  17
ATOM     17  C   UNL     1      46.656  52.853  25.012  1.00  0.00    -0.000 C 
BRANCH  17  18
ATOM     18  C   UNL     1      47.235  53.119  26.414  1.00  0.00    -0.000 C 
BRANCH  18  19
ATOM     19  C   UNL     1      48.770  53.190  26.422  1.00  0.00    -0.003 C 
ATOM     20  C   UNL     1      49.329  53.178  25.002  1.00  0.00     0.004 C 
ENDBRANCH  18  19
ENDBRANCH  17  18
ENDBRANCH  16  17
ENDBRANCH  15  16
ENDBRANCH  14  15
ENDBRANCH  13  14
ENDBRANCH  12  13
ENDBRANCH   1  12
TORSDOF 16
ENDMDL
MODEL 6
REMARK VINA RESULT:    -5.079      1.930      6.080
REMARK INTER + INTRA:         -12.221
REMARK INTER:                 -10.186
REMARK INTRA:                  -2.035
REMARK UNBOUND:                -2.392
REMARK SMILES CCCCCCCCCCCCCCCCCC(=O)[O-]
REMARK SMILES IDX 10 1 11 2 12 3 13 4 14 5 15 6 16 7 17 8 18 9 19 10 20 11
REMARK SMILES IDX 9 12 8 13 7 14 6 15 5 16 4 17 3 18 2 19 1 20
REMARK H PARENT
REMARK Flexibility Score: inf
ROOT
ATOM      1  C   UNL     1      49.864  49.800  21.896  1.00  0.00     0.000 C 
ENDROOT
BRANCH   1   2
ATOM      2  C   UNL     1      49.707  49.303  23.344  1.00  0.00     0.000 C 
BRANCH   2   3
ATOM      3  C   UNL     1      48.357  49.684  23.986  1.00  0.00     0.000 C 
BRANCH   3   4
ATOM      4  C   UNL     1      47.581  50.703  23.133  1.00  0.00     0.000 C 
BRANCH   4   5
ATOM      5  C   UNL     1      46.297  51.194  23.820  1.00  0.00     0.000 C 
BRANCH   5   6
ATOM      6  C   UNL     1      46.229  50.781  25.298  1.00  0.00     0.000 C 
BRANCH   6   7
ATOM      7  C   UNL     1      46.021  52.007  26.201  1.00  0.00     0.006 C 
BRANCH   7   8
ATOM      8  C   UNL     1      46.813  53.227  25.711  1.00  0.00     0.053 C 
BRANCH   8   9
ATOM      9  C   UNL     1      48.238  53.190  26.173  1.00  0.00     0.041 C 
ATOM     10  O   UNL     1      48.509  53.297  27.398  1.00  0.00    -0.550 OA
ATOM     11  O   UNL     1      49.265  53.013  25.254  1.00  0.00    -0.550 OA
ENDBRANCH   8   9
ENDBRANCH   7   8
ENDBRANCH   6   7
ENDBRANCH   5   6
ENDBRANCH   4   5
ENDBRANCH   3   4
ENDBRANCH   2   3
ENDBRANCH   1   2
BRANCH   1  12
ATOM     12  C   UNL     1      51.323  50.086  21.516  1.00  0.00     0.000 C 
BRANCH  12  13
ATOM     13  C   UNL     1      51.547  51.585  21.282  1.00  0.00    -0.000 C 
BRANCH  13  14
ATOM     14  C   UNL     1      50.275  52.388  21.598  1.00  0.00    -0.000 C 
BRANCH  14  15
ATOM     15  C   UNL     1      50.582  53.791  22.144  1.00  0.00    -0.000 C 
BRANCH  15  16
ATOM     16  C   UNL     1      51.837  54.413  21.507  1.00  0.00    -0.000 C 
BRANCH  16  17
ATOM     17  C   UNL     1      52.904  54.801  22.546  1.00  0.00    -0.000 C 
BRANCH  17  18
ATOM     18  C   UNL     1      52.560  54.428  23.999  1.00  0.00    -0.000 C 
BRANCH  18  19
ATOM     19  C   UNL     1      53.223  53.118  24.453  1.00  0.00    -0.003 C 
ATOM     20  C   UNL     1      54.468  52.817  23.624  1.00  0.00     0.004 C 
ENDBRANCH  18  19
ENDBRANCH  17  18
ENDBRANCH  16  17
ENDBRANCH  15  16
ENDBRANCH  14  15
ENDBRANCH  13  14
ENDBRANCH  12  13
ENDBRANCH   1  12
TORSDOF 16
ENDMDL
MODEL 7
REMARK VINA RESULT:    -5.054      2.719      5.306
REMARK INTER + INTRA:         -12.174
REMARK INTER:                 -10.198
REMARK INTRA:                  -1.976
REMARK UNBOUND:                -2.392
REMARK SMILES CCCCCCCCCCCCCCCCCC(=O)[O-]
REMARK SMILES IDX 10 1 11 2 12 3 13 4 14 5 15 6 16 7 17 8 18 9 19 10 20 11
REMARK SMILES IDX 9 12 8 13 7 14 6 15 5 16 4 17 3 18 2 19 1 20
REMARK H PARENT
REMARK Flexibility Score: inf
ROOT
ATOM      1  C   UNL     1      46.525  52.450  26.030  1.00  0.00     0.000 C 
ENDROOT
BRANCH   1   2
ATOM      2  C   UNL     1      46.059  52.795  24.605  1.00  0.00     0.000 C 
BRANCH   2   3
ATOM      3  C   UNL     1      45.927  51.565  23.682  1.00  0.00     0.000 C 
BRANCH   3   4
ATOM      4  C   UNL     1      47.282  50.880  23.438  1.00  0.00     0.000 C 
BRANCH   4   5
ATOM      5  C   UNL     1      48.219  51.719  22.554  1.00  0.00     0.000 C 
BRANCH   5   6
ATOM      6  C   UNL     1      49.248  50.857  21.808  1.00  0.00     0.000 C 
BRANCH   6   7
ATOM      7  C   UNL     1      50.353  50.375  22.761  1.00  0.00     0.006 C 
BRANCH   7   8
ATOM      8  C   UNL     1      50.744  48.914  22.502  1.00  0.00     0.053 C 
BRANCH   8   9
ATOM      9  C   UNL     1      50.445  48.040  23.681  1.00  0.00     0.041 C 
ATOM     10  O   UNL     1      51.342  47.302  24.166  1.00  0.00    -0.550 OA
ATOM     11  O   UNL     1      49.182  48.057  24.259  1.00  0.00    -0.550 OA
ENDBRANCH   8   9
ENDBRANCH   7   8
ENDBRANCH   6   7
ENDBRANCH   5   6
ENDBRANCH   4   5
ENDBRANCH   3   4
ENDBRANCH   2   3
ENDBRANCH   1   2
BRANCH   1  12
ATOM     12  C   UNL     1      47.721  53.295  26.490  1.00  0.00     0.000 C 
BRANCH  12  13
ATOM     13  C   UNL     1      49.031  52.763  25.894  1.00  0.00    -0.000 C 
BRANCH  13  14
ATOM     14  C   UNL     1      49.721  53.836  25.037  1.00  0.00    -0.000 C 
BRANCH  14  15
ATOM     15  C   UNL     1      50.998  53.318  24.358  1.00  0.00    -0.000 C 
BRANCH  15  16
ATOM     16  C   UNL     1      52.177  54.298  24.486  1.00  0.00    -0.000 C 
BRANCH  16  17
ATOM     17  C   UNL     1      53.173  54.192  23.317  1.00  0.00    -0.000 C 
BRANCH  17  18
ATOM     18  C   UNL     1      52.919  53.017  22.355  1.00  0.00    -0.000 C 
BRANCH  18  19
ATOM     19  C   UNL     1      52.153  53.435  21.090  1.00  0.00    -0.003 C 
ATOM     20  C   UNL     1      52.139  54.953  20.933  1.00  0.00     0.004 C 
ENDBRANCH  18  19
ENDBRANCH  17  18
ENDBRANCH  16  17
ENDBRANCH  15  16
ENDBRANCH  14  15
ENDBRANCH  13  14
ENDBRANCH  12  13
ENDBRANCH   1  12
TORSDOF 16
ENDMDL
MODEL 8
REMARK VINA RESULT:    -5.018      2.626      5.762
REMARK INTER + INTRA:         -12.104
REMARK INTER:                 -10.037
REMARK INTRA:                  -2.067
REMARK UNBOUND:                -2.392
REMARK SMILES CCCCCCCCCCCCCCCCCC(=O)[O-]
REMARK SMILES IDX 10 1 11 2 12 3 13 4 14 5 15 6 16 7 17 8 18 9 19 10 20 11
REMARK SMILES IDX 9 12 8 13 7 14 6 15 5 16 4 17 3 18 2 19 1 20
REMARK H PARENT
REMARK Flexibility Score: inf
ROOT
ATOM      1  C   UNL     1      48.830  53.140  25.960  1.00  0.00     0.000 C 
ENDROOT
BRANCH   1   2
ATOM      2  C   UNL     1      47.307  53.358  25.978  1.00  0.00     0.000 C 
BRANCH   2   3
ATOM      3  C   UNL     1      46.526  52.207  26.646  1.00  0.00     0.000 C 
BRANCH   3   4
ATOM      4  C   UNL     1      45.977  51.207  25.613  1.00  0.00     0.000 C 
BRANCH   4   5
ATOM      5  C   UNL     1      46.134  51.704  24.167  1.00  0.00     0.000 C 
BRANCH   5   6
ATOM      6  C   UNL     1      47.082  50.818  23.344  1.00  0.00     0.000 C 
BRANCH   6   7
ATOM      7  C   UNL     1      47.702  49.718  24.218  1.00  0.00     0.006 C 
BRANCH   7   8
ATOM      8  C   UNL     1      49.176  49.466  23.873  1.00  0.00     0.053 C 
BRANCH   8   9
ATOM      9  C   UNL     1      49.574  48.045  24.129  1.00  0.00     0.041 C 
ATOM     10  O   UNL     1      50.688  47.617  23.727  1.00  0.00    -0.550 OA
ATOM     11  O   UNL     1      48.725  47.198  24.830  1.00  0.00    -0.550 OA
ENDBRANCH   8   9
ENDBRANCH   7   8
ENDBRANCH   6   7
ENDBRANCH   5   6
ENDBRANCH   4   5
ENDBRANCH   3   4
ENDBRANCH   2   3
ENDBRANCH   1   2
BRANCH   1  12
ATOM     12  C   UNL     1      49.460  53.433  24.591  1.00  0.00     0.000 C 
BRANCH  12  13
ATOM     13  C   UNL     1      50.965  53.137  24.604  1.00  0.00    -0.000 C 
BRANCH  13  14
ATOM     14  C   UNL     1      51.782  54.438  24.562  1.00  0.00    -0.000 C 
BRANCH  14  15
ATOM     15  C   UNL     1      52.824  54.444  23.433  1.00  0.00    -0.000 C 
BRANCH  15  16
ATOM     16  C   UNL     1      53.060  53.047  22.834  1.00  0.00    -0.000 C 
BRANCH  16  17
ATOM     17  C   UNL     1      52.516  52.910  21.401  1.00  0.00    -0.000 C 
BRANCH  17  18
ATOM     18  C   UNL     1      52.396  51.463  20.889  1.00  0.00    -0.000 C 
BRANCH  18  19
ATOM     19  C   UNL     1      51.013  50.848  21.155  1.00  0.00    -0.003 C 
ATOM     20  C   UNL     1      49.970  51.932  21.414  1.00  0.00     0.004 C 
ENDBRANCH  18  19
ENDBRANCH  17  18
ENDBRANCH  16  17
ENDBRANCH  15  16
ENDBRANCH  14  15
ENDBRANCH  13  14
ENDBRANCH  12  13
ENDBRANCH   1  12
TORSDOF 16
ENDMDL
MODEL 9
REMARK VINA RESULT:    -4.923      2.288      6.212
REMARK INTER + INTRA:         -11.919
REMARK INTER:                  -9.710
REMARK INTRA:                  -2.209
REMARK UNBOUND:                -2.392
REMARK SMILES CCCCCCCCCCCCCCCCCC(=O)[O-]
REMARK SMILES IDX 10 1 11 2 12 3 13 4 14 5 15 6 16 7 17 8 18 9 19 10 20 11
REMARK SMILES IDX 9 12 8 13 7 14 6 15 5 16 4 17 3 18 2 19 1 20
REMARK H PARENT
REMARK Flexibility Score: inf
ROOT
ATOM      1  C   UNL     1      51.312  50.297  21.507  1.00  0.00     0.000 C 
ENDROOT
BRANCH   1   2
ATOM      2  C   UNL     1      50.117  49.430  21.942  1.00  0.00     0.000 C 
BRANCH   2   3
ATOM      3  C   UNL     1      50.346  48.685  23.273  1.00  0.00     0.000 C 
BRANCH   3   4
ATOM      4  C   UNL     1      49.050  48.557  24.092  1.00  0.00     0.000 C 
BRANCH   4   5
ATOM      5  C   UNL     1      48.058  49.697  23.812  1.00  0.00     0.000 C 
BRANCH   5   6
ATOM      6  C   UNL     1      46.957  49.791  24.879  1.00  0.00     0.000 C 
BRANCH   6   7
ATOM      7  C   UNL     1      46.299  51.179  24.867  1.00  0.00     0.006 C 
BRANCH   7   8
ATOM      8  C   UNL     1      46.199  51.786  26.273  1.00  0.00     0.053 C 
BRANCH   8   9
ATOM      9  C   UNL     1      46.885  53.115  26.357  1.00  0.00     0.041 C 
ATOM     10  O   UNL     1      48.065  53.193  26.788  1.00  0.00    -0.550 OA
ATOM     11  O   UNL     1      46.229  54.266  25.938  1.00  0.00    -0.550 OA
ENDBRANCH   8   9
ENDBRANCH   7   8
ENDBRANCH   6   7
ENDBRANCH   5   6
ENDBRANCH   4   5
ENDBRANCH   3   4
ENDBRANCH   2   3
ENDBRANCH   1   2
BRANCH   1  12
ATOM     12  C   UNL     1      50.896  51.698  21.040  1.00  0.00     0.000 C 
BRANCH  12  13
ATOM     13  C   UNL     1      49.495  52.056  21.552  1.00  0.00    -0.000 C 
BRANCH  13  14
ATOM     14  C   UNL     1      49.551  53.250  22.518  1.00  0.00    -0.000 C 
BRANCH  14  15
ATOM     15  C   UNL     1      49.943  52.838  23.945  1.00  0.00    -0.000 C 
BRANCH  15  16
ATOM     16  C   UNL     1      51.097  53.684  24.511  1.00  0.00    -0.000 C 
BRANCH  16  17
ATOM     17  C   UNL     1      52.413  53.497  23.735  1.00  0.00    -0.000 C 
BRANCH  17  18
ATOM     18  C   UNL     1      52.945  54.767  23.046  1.00  0.00    -0.000 C 
BRANCH  18  19
ATOM     19  C   UNL     1      52.590  54.831  21.553  1.00  0.00    -0.003 C 
ATOM     20  C   UNL     1      52.311  56.266  21.115  1.00  0.00     0.004 C 
ENDBRANCH  18  19
ENDBRANCH  17  18
ENDBRANCH  16  17
ENDBRANCH  15  16
ENDBRANCH  14  15
ENDBRANCH  13  14
ENDBRANCH  12  13
ENDBRANCH   1  12
TORSDOF 16
ENDMDL
