MODEL 1
REMARK VINA RESULT:    -5.614      0.000      0.000
REMARK INTER + INTRA:         -16.358
REMARK INTER:                 -12.834
REMARK INTRA:                  -3.523
REMARK UNBOUND:                -3.523
REMARK SMILES CCCCCCCCCCCCCCCCCCCCCCCC(=O)[O-]
REMARK SMILES IDX 13 1 14 2 15 3 16 4 17 5 18 6 19 7 20 8 21 9 22 10 23 11
REMARK SMILES IDX 24 12 25 13 26 14 12 15 11 16 10 17 9 18 8 19 7 20 6 21 5 22
REMARK SMILES IDX 4 23 3 24 2 25 1 26
REMARK H PARENT
REMARK Flexibility Score: inf
ROOT
ATOM      1  C   UNL     1      51.060  17.980  -2.144  1.00  0.00     0.000 C 
ENDROOT
BRANCH   1   2
ATOM      2  C   UNL     1      50.116  18.909  -1.359  1.00  0.00     0.000 C 
BRANCH   2   3
ATOM      3  C   UNL     1      49.829  18.403   0.065  1.00  0.00     0.000 C 
BRANCH   3   4
ATOM      4  C   UNL     1      50.201  19.431   1.146  1.00  0.00     0.000 C 
BRANCH   4   5
ATOM      5  C   UNL     1      49.312  19.327   2.397  1.00  0.00     0.000 C 
BRANCH   5   6
ATOM      6  C   UNL     1      48.302  20.483   2.495  1.00  0.00     0.000 C 
BRANCH   6   7
ATOM      7  C   UNL     1      46.867  20.041   2.171  1.00  0.00     0.000 C 
BRANCH   7   8
ATOM      8  C   UNL     1      46.507  20.380   0.717  1.00  0.00     0.000 C 
BRANCH   8   9
ATOM      9  C   UNL     1      47.157  21.687   0.235  1.00  0.00     0.000 C 
BRANCH   9  10
ATOM     10  C   UNL     1      47.567  21.631  -1.246  1.00  0.00     0.006 C 
BRANCH  10  11
ATOM     11  C   UNL     1      46.538  20.883  -2.105  1.00  0.00     0.053 C 
BRANCH  11  12
ATOM     12  C   UNL     1      45.501  21.808  -2.665  1.00  0.00     0.041 C 
ATOM     13  O   UNL     1      45.742  22.471  -3.709  1.00  0.00    -0.550 OA
ATOM     14  O   UNL     1      44.283  21.965  -2.016  1.00  0.00    -0.550 OA
ENDBRANCH  11  12
ENDBRANCH  10  11
ENDBRANCH   9  10
ENDBRANCH   8   9
ENDBRANCH   7   8
ENDBRANCH   6   7
ENDBRANCH   5   6
ENDBRANCH   4   5
ENDBRANCH   3   4
ENDBRANCH   2   3
ENDBRANCH   1   2
BRANCH   1  15
ATOM     15  C   UNL     1      52.097  17.218  -1.292  1.00  0.00     0.000 C 
BRANCH  15  16
ATOM     16  C   UNL     1      53.370  16.780  -2.038  1.00  0.00     0.000 C 
BRANCH  16  17
ATOM     17  C   UNL     1      53.625  15.266  -1.946  1.00  0.00     0.000 C 
BRANCH  17  18
ATOM     18  C   UNL     1      52.957  14.623  -0.716  1.00  0.00    -0.000 C 
BRANCH  18  19
ATOM     19  C   UNL     1      53.926  14.182   0.399  1.00  0.00    -0.000 C 
BRANCH  19  20
ATOM     20  C   UNL     1      53.650  14.792   1.789  1.00  0.00    -0.000 C 
BRANCH  20  21
ATOM     21  C   UNL     1      52.526  15.844   1.829  1.00  0.00    -0.000 C 
BRANCH  21  22
ATOM     22  C   UNL     1      53.017  17.224   2.299  1.00  0.00    -0.000 C 
BRANCH  22  23
ATOM     23  C   UNL     1      54.532  17.254   2.560  1.00  0.00    -0.000 C 
BRANCH  23  24
ATOM     24  C   UNL     1      55.319  17.923   1.419  1.00  0.00    -0.000 C 
BRANCH  24  25
ATOM     25  C   UNL     1      56.637  17.196   1.109  1.00  0.00    -0.003 C 
ATOM     26  C   UNL     1      56.613  16.480  -0.240  1.00  0.00     0.004 C 
ENDBRANCH  24  25
ENDBRANCH  23  24
ENDBRANCH  22  23
ENDBRANCH  21  22
ENDBRANCH  20  21
ENDBRANCH  19  20
ENDBRANCH  18  19
ENDBRANCH  17  18
ENDBRANCH  16  17
ENDBRANCH  15  16
ENDBRANCH   1  15
TORSDOF 22
ENDMDL
MODEL 2
REMARK VINA RESULT:    -5.605      2.137      4.244
REMARK INTER + INTRA:         -16.337
REMARK INTER:                 -13.182
REMARK INTRA:                  -3.155
REMARK UNBOUND:                -3.523
REMARK SMILES CCCCCCCCCCCCCCCCCCCCCCCC(=O)[O-]
REMARK SMILES IDX 13 1 14 2 15 3 16 4 17 5 18 6 19 7 20 8 21 9 22 10 23 11
REMARK SMILES IDX 24 12 25 13 26 14 12 15 11 16 10 17 9 18 8 19 7 20 6 21 5 22
REMARK SMILES IDX 4 23 3 24 2 25 1 26
REMARK H PARENT
REMARK Flexibility Score: inf
ROOT
ATOM      1  C   UNL     1      53.157  17.517   2.618  1.00  0.00     0.000 C 
ENDROOT
BRANCH   1   2
ATOM      2  C   UNL     1      51.862  17.168   1.862  1.00  0.00     0.000 C 
BRANCH   2   3
ATOM      3  C   UNL     1      50.947  18.386   1.652  1.00  0.00     0.000 C 
BRANCH   3   4
ATOM      4  C   UNL     1      50.074  18.262   0.392  1.00  0.00     0.000 C 
BRANCH   4   5
ATOM      5  C   UNL     1      50.426  19.306  -0.681  1.00  0.00     0.000 C 
BRANCH   5   6
ATOM      6  C   UNL     1      49.892  18.920  -2.071  1.00  0.00     0.000 C 
BRANCH   6   7
ATOM      7  C   UNL     1      48.371  19.106  -2.190  1.00  0.00     0.000 C 
BRANCH   7   8
ATOM      8  C   UNL     1      47.938  20.452  -1.590  1.00  0.00     0.000 C 
BRANCH   8   9
ATOM      9  C   UNL     1      46.475  20.447  -1.119  1.00  0.00     0.000 C 
BRANCH   9  10
ATOM     10  C   UNL     1      46.286  21.167   0.227  1.00  0.00     0.006 C 
BRANCH  10  11
ATOM     11  C   UNL     1      47.278  20.678   1.292  1.00  0.00     0.053 C 
BRANCH  11  12
ATOM     12  C   UNL     1      46.584  19.981   2.421  1.00  0.00     0.041 C 
ATOM     13  O   UNL     1      45.746  20.600   3.129  1.00  0.00    -0.550 OA
ATOM     14  O   UNL     1      46.888  18.657   2.715  1.00  0.00    -0.550 OA
ENDBRANCH  11  12
ENDBRANCH  10  11
ENDBRANCH   9  10
ENDBRANCH   8   9
ENDBRANCH   7   8
ENDBRANCH   6   7
ENDBRANCH   5   6
ENDBRANCH   4   5
ENDBRANCH   3   4
ENDBRANCH   2   3
ENDBRANCH   1   2
BRANCH   1  15
ATOM     15  C   UNL     1      54.419  16.764   2.149  1.00  0.00     0.000 C 
BRANCH  15  16
ATOM     16  C   UNL     1      55.491  17.633   1.467  1.00  0.00     0.000 C 
BRANCH  16  17
ATOM     17  C   UNL     1      56.219  16.899   0.328  1.00  0.00     0.000 C 
BRANCH  17  18
ATOM     18  C   UNL     1      55.642  17.233  -1.060  1.00  0.00    -0.000 C 
BRANCH  18  19
ATOM     19  C   UNL     1      54.255  17.904  -1.049  1.00  0.00    -0.000 C 
BRANCH  19  20
ATOM     20  C   UNL     1      53.101  17.036  -1.592  1.00  0.00    -0.000 C 
BRANCH  20  21
ATOM     21  C   UNL     1      53.449  15.554  -1.819  1.00  0.00    -0.000 C 
BRANCH  21  22
ATOM     22  C   UNL     1      53.222  14.689  -0.567  1.00  0.00    -0.000 C 
BRANCH  22  23
ATOM     23  C   UNL     1      54.138  13.454  -0.528  1.00  0.00    -0.000 C 
BRANCH  23  24
ATOM     24  C   UNL     1      55.157  13.506   0.623  1.00  0.00    -0.000 C 
BRANCH  24  25
ATOM     25  C   UNL     1      56.534  12.961   0.214  1.00  0.00    -0.003 C 
ATOM     26  C   UNL     1      57.020  11.837   1.128  1.00  0.00     0.004 C 
ENDBRANCH  24  25
ENDBRANCH  23  24
ENDBRANCH  22  23
ENDBRANCH  21  22
ENDBRANCH  20  21
ENDBRANCH  19  20
ENDBRANCH  18  19
ENDBRANCH  17  18
ENDBRANCH  16  17
ENDBRANCH  15  16
ENDBRANCH   1  15
TORSDOF 22
ENDMDL
MODEL 3
REMARK VINA RESULT:    -5.576      4.600      8.951
REMARK INTER + INTRA:         -16.271
REMARK INTER:                 -12.830
REMARK INTRA:                  -3.441
REMARK UNBOUND:                -3.523
REMARK SMILES CCCCCCCCCCCCCCCCCCCCCCCC(=O)[O-]
REMARK SMILES IDX 13 1 14 2 15 3 16 4 17 5 18 6 19 7 20 8 21 9 22 10 23 11
REMARK SMILES IDX 24 12 25 13 26 14 12 15 11 16 10 17 9 18 8 19 7 20 6 21 5 22
REMARK SMILES IDX 4 23 3 24 2 25 1 26
REMARK H PARENT
REMARK Flexibility Score: inf
ROOT
ATOM      1  C   UNL     1      53.620  15.633  -1.692  1.00  0.00     0.000 C 
ENDROOT
BRANCH   1   2
ATOM      2  C   UNL     1      52.971  14.650  -0.701  1.00  0.00     0.000 C 
BRANCH   2   3
ATOM      3  C   UNL     1      53.959  14.129   0.356  1.00  0.00     0.000 C 
BRANCH   3   4
ATOM      4  C   UNL     1      53.703  14.722   1.752  1.00  0.00     0.000 C 
BRANCH   4   5
ATOM      5  C   UNL     1      52.591  15.785   1.752  1.00  0.00     0.000 C 
BRANCH   5   6
ATOM      6  C   UNL     1      53.109  17.174   2.161  1.00  0.00     0.000 C 
BRANCH   6   7
ATOM      7  C   UNL     1      54.617  17.177   2.459  1.00  0.00     0.000 C 
BRANCH   7   8
ATOM      8  C   UNL     1      55.403  17.780   1.285  1.00  0.00     0.000 C 
BRANCH   8   9
ATOM      9  C   UNL     1      56.803  17.165   1.131  1.00  0.00     0.000 C 
BRANCH   9  10
ATOM     10  C   UNL     1      56.885  16.173  -0.042  1.00  0.00     0.006 C 
BRANCH  10  11
ATOM     11  C   UNL     1      57.631  14.886   0.338  1.00  0.00     0.053 C 
BRANCH  11  12
ATOM     12  C   UNL     1      59.052  14.905  -0.135  1.00  0.00     0.041 C 
ATOM     13  O   UNL     1      59.390  15.646  -1.096  1.00  0.00    -0.550 OA
ATOM     14  O   UNL     1      59.997  14.080   0.463  1.00  0.00    -0.550 OA
ENDBRANCH  11  12
ENDBRANCH  10  11
ENDBRANCH   9  10
ENDBRANCH   8   9
ENDBRANCH   7   8
ENDBRANCH   6   7
ENDBRANCH   5   6
ENDBRANCH   4   5
ENDBRANCH   3   4
ENDBRANCH   2   3
ENDBRANCH   1   2
BRANCH   1  15
ATOM     15  C   UNL     1      53.161  17.101  -1.563  1.00  0.00     0.000 C 
BRANCH  15  16
ATOM     16  C   UNL     1      51.731  17.391  -2.053  1.00  0.00     0.000 C 
BRANCH  16  17
ATOM     17  C   UNL     1      51.188  18.738  -1.546  1.00  0.00     0.000 C 
BRANCH  17  18
ATOM     18  C   UNL     1      50.086  18.574  -0.484  1.00  0.00    -0.000 C 
BRANCH  18  19
ATOM     19  C   UNL     1      50.358  19.284   0.857  1.00  0.00    -0.000 C 
BRANCH  19  20
ATOM     20  C   UNL     1      49.256  19.118   1.924  1.00  0.00    -0.000 C 
BRANCH  20  21
ATOM     21  C   UNL     1      48.996  20.361   2.795  1.00  0.00    -0.000 C 
BRANCH  21  22
ATOM     22  C   UNL     1      47.593  20.956   2.583  1.00  0.00    -0.000 C 
BRANCH  22  23
ATOM     23  C   UNL     1      46.794  20.212   1.501  1.00  0.00    -0.000 C 
BRANCH  23  24
ATOM     24  C   UNL     1      46.402  21.119   0.321  1.00  0.00    -0.000 C 
BRANCH  24  25
ATOM     25  C   UNL     1      47.486  21.170  -0.766  1.00  0.00    -0.003 C 
ATOM     26  C   UNL     1      47.151  20.300  -1.976  1.00  0.00     0.004 C 
ENDBRANCH  24  25
ENDBRANCH  23  24
ENDBRANCH  22  23
ENDBRANCH  21  22
ENDBRANCH  20  21
ENDBRANCH  19  20
ENDBRANCH  18  19
ENDBRANCH  17  18
ENDBRANCH  16  17
ENDBRANCH  15  16
ENDBRANCH   1  15
TORSDOF 22
ENDMDL
MODEL 4
REMARK VINA RESULT:    -5.574      1.419      3.036
REMARK INTER + INTRA:         -16.267
REMARK INTER:                 -13.250
REMARK INTRA:                  -3.016
REMARK UNBOUND:                -3.523
REMARK SMILES CCCCCCCCCCCCCCCCCCCCCCCC(=O)[O-]
REMARK SMILES IDX 13 1 14 2 15 3 16 4 17 5 18 6 19 7 20 8 21 9 22 10 23 11
REMARK SMILES IDX 24 12 25 13 26 14 12 15 11 16 10 17 9 18 8 19 7 20 6 21 5 22
REMARK SMILES IDX 4 23 3 24 2 25 1 26
REMARK H PARENT
REMARK Flexibility Score: inf
ROOT
ATOM      1  C   UNL     1      53.646  15.804  -1.702  1.00  0.00     0.000 C 
ENDROOT
BRANCH   1   2
ATOM      2  C   UNL     1      52.504  16.721  -2.178  1.00  0.00     0.000 C 
BRANCH   2   3
ATOM      3  C   UNL     1      52.176  17.838  -1.173  1.00  0.00     0.000 C 
BRANCH   3   4
ATOM      4  C   UNL     1      50.720  18.321  -1.278  1.00  0.00     0.000 C 
BRANCH   4   5
ATOM      5  C   UNL     1      50.369  19.386  -0.225  1.00  0.00     0.000 C 
BRANCH   5   6
ATOM      6  C   UNL     1      50.524  18.862   1.212  1.00  0.00     0.000 C 
BRANCH   6   7
ATOM      7  C   UNL     1      49.855  19.778   2.249  1.00  0.00     0.000 C 
BRANCH   7   8
ATOM      8  C   UNL     1      48.349  19.488   2.342  1.00  0.00     0.000 C 
BRANCH   8   9
ATOM      9  C   UNL     1      47.488  20.688   1.916  1.00  0.00     0.000 C 
BRANCH   9  10
ATOM     10  C   UNL     1      46.933  20.539   0.489  1.00  0.00     0.006 C 
BRANCH  10  11
ATOM     11  C   UNL     1      47.349  21.704  -0.420  1.00  0.00     0.053 C 
BRANCH  11  12
ATOM     12  C   UNL     1      47.272  21.335  -1.870  1.00  0.00     0.041 C 
ATOM     13  O   UNL     1      47.122  22.230  -2.744  1.00  0.00    -0.550 OA
ATOM     14  O   UNL     1      47.333  20.001  -2.254  1.00  0.00    -0.550 OA
ENDBRANCH  11  12
ENDBRANCH  10  11
ENDBRANCH   9  10
ENDBRANCH   8   9
ENDBRANCH   7   8
ENDBRANCH   6   7
ENDBRANCH   5   6
ENDBRANCH   4   5
ENDBRANCH   3   4
ENDBRANCH   2   3
ENDBRANCH   1   2
BRANCH   1  15
ATOM     15  C   UNL     1      53.208  14.587  -0.860  1.00  0.00     0.000 C 
BRANCH  15  16
ATOM     16  C   UNL     1      54.264  14.050   0.123  1.00  0.00     0.000 C 
BRANCH  16  17
ATOM     17  C   UNL     1      53.946  14.397   1.588  1.00  0.00     0.000 C 
BRANCH  17  18
ATOM     18  C   UNL     1      52.750  15.356   1.727  1.00  0.00    -0.000 C 
BRANCH  18  19
ATOM     19  C   UNL     1      53.097  16.764   2.250  1.00  0.00    -0.000 C 
BRANCH  19  20
ATOM     20  C   UNL     1      54.604  17.072   2.357  1.00  0.00    -0.000 C 
BRANCH  20  21
ATOM     21  C   UNL     1      55.169  17.971   1.241  1.00  0.00    -0.000 C 
BRANCH  21  22
ATOM     22  C   UNL     1      56.090  17.210   0.271  1.00  0.00    -0.000 C 
BRANCH  22  23
ATOM     23  C   UNL     1      57.314  16.600   0.974  1.00  0.00    -0.000 C 
BRANCH  23  24
ATOM     24  C   UNL     1      58.020  15.533   0.120  1.00  0.00    -0.000 C 
BRANCH  24  25
ATOM     25  C   UNL     1      59.549  15.584   0.264  1.00  0.00    -0.003 C 
ATOM     26  C   UNL     1      60.274  15.374  -1.064  1.00  0.00     0.004 C 
ENDBRANCH  24  25
ENDBRANCH  23  24
ENDBRANCH  22  23
ENDBRANCH  21  22
ENDBRANCH  20  21
ENDBRANCH  19  20
ENDBRANCH  18  19
ENDBRANCH  17  18
ENDBRANCH  16  17
ENDBRANCH  15  16
ENDBRANCH   1  15
TORSDOF 22
ENDMDL
MODEL 5
REMARK VINA RESULT:    -5.562      5.221     10.014
REMARK INTER + INTRA:         -16.238
REMARK INTER:                 -13.336
REMARK INTRA:                  -2.902
REMARK UNBOUND:                -3.523
REMARK SMILES CCCCCCCCCCCCCCCCCCCCCCCC(=O)[O-]
REMARK SMILES IDX 13 1 14 2 15 3 16 4 17 5 18 6 19 7 20 8 21 9 22 10 23 11
REMARK SMILES IDX 24 12 25 13 26 14 12 15 11 16 10 17 9 18 8 19 7 20 6 21 5 22
REMARK SMILES IDX 4 23 3 24 2 25 1 26
REMARK H PARENT
REMARK Flexibility Score: inf
ROOT
ATOM      1  C   UNL     1      55.830  17.108  -0.732  1.00  0.00     0.000 C 
ENDROOT
BRANCH   1   2
ATOM      2  C   UNL     1      56.218  17.274   0.749  1.00  0.00     0.000 C 
BRANCH   2   3
ATOM      3  C   UNL     1      55.126  17.974   1.576  1.00  0.00     0.000 C 
BRANCH   3   4
ATOM      4  C   UNL     1      54.434  17.024   2.568  1.00  0.00     0.000 C 
BRANCH   4   5
ATOM      5  C   UNL     1      52.953  16.783   2.227  1.00  0.00     0.000 C 
BRANCH   5   6
ATOM      6  C   UNL     1      52.742  15.497   1.410  1.00  0.00     0.000 C 
BRANCH   6   7
ATOM      7  C   UNL     1      53.887  14.489   1.593  1.00  0.00     0.000 C 
BRANCH   7   8
ATOM      8  C   UNL     1      54.306  13.889   0.242  1.00  0.00     0.000 C 
BRANCH   8   9
ATOM      9  C   UNL     1      55.804  13.549   0.184  1.00  0.00     0.000 C 
BRANCH   9  10
ATOM     10  C   UNL     1      56.060  12.056  -0.084  1.00  0.00     0.006 C 
BRANCH  10  11
ATOM     11  C   UNL     1      57.106  11.466   0.873  1.00  0.00     0.053 C 
BRANCH  11  12
ATOM     12  C   UNL     1      58.465  11.409   0.246  1.00  0.00     0.041 C 
ATOM     13  O   UNL     1      58.862  10.352  -0.311  1.00  0.00    -0.550 OA
ATOM     14  O   UNL     1      59.307  12.513   0.308  1.00  0.00    -0.550 OA
ENDBRANCH  11  12
ENDBRANCH  10  11
ENDBRANCH   9  10
ENDBRANCH   8   9
ENDBRANCH   7   8
ENDBRANCH   6   7
ENDBRANCH   5   6
ENDBRANCH   4   5
ENDBRANCH   3   4
ENDBRANCH   2   3
ENDBRANCH   1   2
BRANCH   1  15
ATOM     15  C   UNL     1      54.448  17.673  -1.121  1.00  0.00     0.000 C 
BRANCH  15  16
ATOM     16  C   UNL     1      53.562  16.732  -1.958  1.00  0.00     0.000 C 
BRANCH  16  17
ATOM     17  C   UNL     1      52.072  17.107  -1.901  1.00  0.00     0.000 C 
BRANCH  17  18
ATOM     18  C   UNL     1      51.790  18.284  -0.947  1.00  0.00    -0.000 C 
BRANCH  18  19
ATOM     19  C   UNL     1      50.707  19.270  -1.427  1.00  0.00    -0.000 C 
BRANCH  19  20
ATOM     20  C   UNL     1      49.356  18.629  -1.807  1.00  0.00    -0.000 C 
BRANCH  20  21
ATOM     21  C   UNL     1      48.196  19.620  -2.012  1.00  0.00    -0.000 C 
BRANCH  21  22
ATOM     22  C   UNL     1      48.517  21.031  -1.487  1.00  0.00    -0.000 C 
BRANCH  22  23
ATOM     23  C   UNL     1      47.327  21.996  -1.624  1.00  0.00    -0.000 C 
BRANCH  23  24
ATOM     24  C   UNL     1      46.378  21.612  -2.772  1.00  0.00    -0.000 C 
BRANCH  24  25
ATOM     25  C   UNL     1      45.352  22.713  -3.080  1.00  0.00    -0.003 C 
ATOM     26  C   UNL     1      44.456  23.035  -1.885  1.00  0.00     0.004 C 
ENDBRANCH  24  25
ENDBRANCH  23  24
ENDBRANCH  22  23
ENDBRANCH  21  22
ENDBRANCH  20  21
ENDBRANCH  19  20
ENDBRANCH  18  19
ENDBRANCH  17  18
ENDBRANCH  16  17
ENDBRANCH  15  16
ENDBRANCH   1  15
TORSDOF 22
ENDMDL
MODEL 6
REMARK VINA RESULT:    -5.558      4.339      7.346
REMARK INTER + INTRA:         -16.231
REMARK INTER:                 -12.846
REMARK INTRA:                  -3.384
REMARK UNBOUND:                -3.523
REMARK SMILES CCCCCCCCCCCCCCCCCCCCCCCC(=O)[O-]
REMARK SMILES IDX 13 1 14 2 15 3 16 4 17 5 18 6 19 7 20 8 21 9 22 10 23 11
REMARK SMILES IDX 24 12 25 13 26 14 12 15 11 16 10 17 9 18 8 19 7 20 6 21 5 22
REMARK SMILES IDX 4 23 3 24 2 25 1 26
REMARK H PARENT
REMARK Flexibility Score: inf
ROOT
ATOM      1  C   UNL     1      53.664  14.136   0.072  1.00  0.00     0.000 C 
ENDROOT
BRANCH   1   2
ATOM      2  C   UNL     1      53.738  14.685   1.509  1.00  0.00     0.000 C 
BRANCH   2   3
ATOM      3  C   UNL     1      52.619  15.693   1.820  1.00  0.00     0.000 C 
BRANCH   3   4
ATOM      4  C   UNL     1      53.159  17.036   2.342  1.00  0.00     0.000 C 
BRANCH   4   5
ATOM      5  C   UNL     1      54.693  17.055   2.459  1.00  0.00     0.000 C 
BRANCH   5   6
ATOM      6  C   UNL     1      55.352  17.917   1.369  1.00  0.00     0.000 C 
BRANCH   6   7
ATOM      7  C   UNL     1      56.174  17.082   0.374  1.00  0.00     0.000 C 
BRANCH   7   8
ATOM      8  C   UNL     1      55.508  17.075  -1.011  1.00  0.00     0.000 C 
BRANCH   8   9
ATOM      9  C   UNL     1      54.313  18.038  -1.098  1.00  0.00     0.000 C 
BRANCH   9  10
ATOM     10  C   UNL     1      53.029  17.342  -1.581  1.00  0.00     0.006 C 
BRANCH  10  11
ATOM     11  C   UNL     1      51.768  17.946  -0.948  1.00  0.00     0.053 C 
BRANCH  11  12
ATOM     12  C   UNL     1      51.035  18.835  -1.906  1.00  0.00     0.041 C 
ATOM     13  O   UNL     1      50.675  18.394  -3.029  1.00  0.00    -0.550 OA
ATOM     14  O   UNL     1      50.780  20.159  -1.572  1.00  0.00    -0.550 OA
ENDBRANCH  11  12
ENDBRANCH  10  11
ENDBRANCH   9  10
ENDBRANCH   8   9
ENDBRANCH   7   8
ENDBRANCH   6   7
ENDBRANCH   5   6
ENDBRANCH   4   5
ENDBRANCH   3   4
ENDBRANCH   2   3
ENDBRANCH   1   2
BRANCH   1  15
ATOM     15  C   UNL     1      54.842  13.233  -0.351  1.00  0.00     0.000 C 
BRANCH  15  16
ATOM     16  C   UNL     1      56.062  13.255   0.588  1.00  0.00     0.000 C 
BRANCH  16  17
ATOM     17  C   UNL     1      57.375  13.574  -0.148  1.00  0.00     0.000 C 
BRANCH  17  18
ATOM     18  C   UNL     1      58.453  14.157   0.785  1.00  0.00    -0.000 C 
BRANCH  18  19
ATOM     19  C   UNL     1      59.440  15.134   0.114  1.00  0.00    -0.000 C 
BRANCH  19  20
ATOM     20  C   UNL     1      60.777  14.510  -0.336  1.00  0.00    -0.000 C 
BRANCH  20  21
ATOM     21  C   UNL     1      61.385  13.489   0.644  1.00  0.00    -0.000 C 
BRANCH  21  22
ATOM     22  C   UNL     1      61.900  12.222  -0.059  1.00  0.00    -0.000 C 
BRANCH  22  23
ATOM     23  C   UNL     1      61.284  10.936   0.517  1.00  0.00    -0.000 C 
BRANCH  23  24
ATOM     24  C   UNL     1      60.194  10.340  -0.391  1.00  0.00    -0.000 C 
BRANCH  24  25
ATOM     25  C   UNL     1      60.424   8.850  -0.687  1.00  0.00    -0.003 C 
ATOM     26  C   UNL     1      61.904   8.494  -0.806  1.00  0.00     0.004 C 
ENDBRANCH  24  25
ENDBRANCH  23  24
ENDBRANCH  22  23
ENDBRANCH  21  22
ENDBRANCH  20  21
ENDBRANCH  19  20
ENDBRANCH  18  19
ENDBRANCH  17  18
ENDBRANCH  16  17
ENDBRANCH  15  16
ENDBRANCH   1  15
TORSDOF 22
ENDMDL
MODEL 7
REMARK VINA RESULT:    -5.554      4.490      8.977
REMARK INTER + INTRA:         -16.222
REMARK INTER:                 -13.171
REMARK INTRA:                  -3.051
REMARK UNBOUND:                -3.523
REMARK SMILES CCCCCCCCCCCCCCCCCCCCCCCC(=O)[O-]
REMARK SMILES IDX 13 1 14 2 15 3 16 4 17 5 18 6 19 7 20 8 21 9 22 10 23 11
REMARK SMILES IDX 24 12 25 13 26 14 12 15 11 16 10 17 9 18 8 19 7 20 6 21 5 22
REMARK SMILES IDX 4 23 3 24 2 25 1 26
REMARK H PARENT
REMARK Flexibility Score: inf
ROOT
ATOM      1  C   UNL     1      52.842  17.018   2.105  1.00  0.00     0.000 C 
ENDROOT
BRANCH   1   2
ATOM      2  C   UNL     1      54.306  17.212   2.538  1.00  0.00     0.000 C 
BRANCH   2   3
ATOM      3  C   UNL     1      55.135  17.997   1.507  1.00  0.00     0.000 C 
BRANCH   3   4
ATOM      4  C   UNL     1      56.030  17.087   0.649  1.00  0.00     0.000 C 
BRANCH   4   5
ATOM      5  C   UNL     1      55.667  17.132  -0.845  1.00  0.00     0.000 C 
BRANCH   5   6
ATOM      6  C   UNL     1      54.367  17.909  -1.108  1.00  0.00     0.000 C 
BRANCH   6   7
ATOM      7  C   UNL     1      53.205  16.993  -1.522  1.00  0.00     0.000 C 
BRANCH   7   8
ATOM      8  C   UNL     1      53.697  15.554  -1.743  1.00  0.00     0.000 C 
BRANCH   8   9
ATOM      9  C   UNL     1      53.173  14.579  -0.677  1.00  0.00     0.000 C 
BRANCH   9  10
ATOM     10  C   UNL     1      54.080  13.348  -0.507  1.00  0.00     0.006 C 
BRANCH  10  11
ATOM     11  C   UNL     1      55.277  13.631   0.411  1.00  0.00     0.053 C 
BRANCH  11  12
ATOM     12  C   UNL     1      56.482  12.833   0.018  1.00  0.00     0.041 C 
ATOM     13  O   UNL     1      57.615  13.381  -0.033  1.00  0.00    -0.550 OA
ATOM     14  O   UNL     1      56.349  11.494  -0.326  1.00  0.00    -0.550 OA
ENDBRANCH  11  12
ENDBRANCH  10  11
ENDBRANCH   9  10
ENDBRANCH   8   9
ENDBRANCH   7   8
ENDBRANCH   6   7
ENDBRANCH   5   6
ENDBRANCH   4   5
ENDBRANCH   3   4
ENDBRANCH   2   3
ENDBRANCH   1   2
BRANCH   1  15
ATOM     15  C   UNL     1      51.859  18.101   2.596  1.00  0.00     0.000 C 
BRANCH  15  16
ATOM     16  C   UNL     1      50.655  18.368   1.674  1.00  0.00     0.000 C 
BRANCH  16  17
ATOM     17  C   UNL     1      49.791  19.550   2.147  1.00  0.00     0.000 C 
BRANCH  17  18
ATOM     18  C   UNL     1      48.284  19.237   2.113  1.00  0.00    -0.000 C 
BRANCH  18  19
ATOM     19  C   UNL     1      47.364  20.403   2.527  1.00  0.00    -0.000 C 
BRANCH  19  20
ATOM     20  C   UNL     1      47.341  21.600   1.554  1.00  0.00    -0.000 C 
BRANCH  20  21
ATOM     21  C   UNL     1      46.452  21.415   0.310  1.00  0.00    -0.000 C 
BRANCH  21  22
ATOM     22  C   UNL     1      47.202  21.687  -1.005  1.00  0.00    -0.000 C 
BRANCH  22  23
ATOM     23  C   UNL     1      48.184  20.561  -1.369  1.00  0.00    -0.000 C 
BRANCH  23  24
ATOM     24  C   UNL     1      49.538  21.091  -1.870  1.00  0.00    -0.000 C 
BRANCH  24  25
ATOM     25  C   UNL     1      50.632  20.012  -1.860  1.00  0.00    -0.003 C 
ATOM     26  C   UNL     1      50.154  18.681  -2.436  1.00  0.00     0.004 C 
ENDBRANCH  24  25
ENDBRANCH  23  24
ENDBRANCH  22  23
ENDBRANCH  21  22
ENDBRANCH  20  21
ENDBRANCH  19  20
ENDBRANCH  18  19
ENDBRANCH  17  18
ENDBRANCH  16  17
ENDBRANCH  15  16
ENDBRANCH   1  15
TORSDOF 22
ENDMDL
MODEL 8
REMARK VINA RESULT:    -5.552      5.065      8.179
REMARK INTER + INTRA:         -16.215
REMARK INTER:                 -13.148
REMARK INTRA:                  -3.067
REMARK UNBOUND:                -3.523
REMARK SMILES CCCCCCCCCCCCCCCCCCCCCCCC(=O)[O-]
REMARK SMILES IDX 13 1 14 2 15 3 16 4 17 5 18 6 19 7 20 8 21 9 22 10 23 11
REMARK SMILES IDX 24 12 25 13 26 14 12 15 11 16 10 17 9 18 8 19 7 20 6 21 5 22
REMARK SMILES IDX 4 23 3 24 2 25 1 26
REMARK H PARENT
REMARK Flexibility Score: inf
ROOT
ATOM      1  C   UNL     1      55.328  13.412   0.499  1.00  0.00     0.000 C 
ENDROOT
BRANCH   1   2
ATOM      2  C   UNL     1      54.239  13.557  -0.580  1.00  0.00     0.000 C 
BRANCH   2   3
ATOM      3  C   UNL     1      53.427  14.855  -0.437  1.00  0.00     0.000 C 
BRANCH   3   4
ATOM      4  C   UNL     1      53.731  15.870  -1.552  1.00  0.00     0.000 C 
BRANCH   4   5
ATOM      5  C   UNL     1      54.420  17.142  -1.028  1.00  0.00     0.000 C 
BRANCH   5   6
ATOM      6  C   UNL     1      55.917  16.924  -0.750  1.00  0.00     0.000 C 
BRANCH   6   7
ATOM      7  C   UNL     1      56.255  16.992   0.748  1.00  0.00     0.000 C 
BRANCH   7   8
ATOM      8  C   UNL     1      55.198  17.809   1.508  1.00  0.00     0.000 C 
BRANCH   8   9
ATOM      9  C   UNL     1      54.325  16.938   2.427  1.00  0.00     0.000 C 
BRANCH   9  10
ATOM     10  C   UNL     1      53.004  17.627   2.811  1.00  0.00     0.006 C 
BRANCH  10  11
ATOM     11  C   UNL     1      51.922  17.445   1.738  1.00  0.00     0.053 C 
BRANCH  11  12
ATOM     12  C   UNL     1      50.823  18.454   1.879  1.00  0.00     0.041 C 
ATOM     13  O   UNL     1      50.516  19.195   0.907  1.00  0.00    -0.550 OA
ATOM     14  O   UNL     1      50.162  18.600   3.092  1.00  0.00    -0.550 OA
ENDBRANCH  11  12
ENDBRANCH  10  11
ENDBRANCH   9  10
ENDBRANCH   8   9
ENDBRANCH   7   8
ENDBRANCH   6   7
ENDBRANCH   5   6
ENDBRANCH   4   5
ENDBRANCH   3   4
ENDBRANCH   2   3
ENDBRANCH   1   2
BRANCH   1  15
ATOM     15  C   UNL     1      56.563  12.586   0.084  1.00  0.00     0.000 C 
BRANCH  15  16
ATOM     16  C   UNL     1      57.784  13.407  -0.372  1.00  0.00     0.000 C 
BRANCH  16  17
ATOM     17  C   UNL     1      58.512  14.093   0.796  1.00  0.00     0.000 C 
BRANCH  17  18
ATOM     18  C   UNL     1      59.709  14.945   0.335  1.00  0.00    -0.000 C 
BRANCH  18  19
ATOM     19  C   UNL     1      60.904  14.147  -0.223  1.00  0.00    -0.000 C 
BRANCH  19  20
ATOM     20  C   UNL     1      61.461  13.056   0.715  1.00  0.00    -0.000 C 
BRANCH  20  21
ATOM     21  C   UNL     1      61.533  11.644   0.105  1.00  0.00    -0.000 C 
BRANCH  21  22
ATOM     22  C   UNL     1      60.347  10.755   0.516  1.00  0.00    -0.000 C 
BRANCH  22  23
ATOM     23  C   UNL     1      59.754   9.976  -0.670  1.00  0.00    -0.000 C 
BRANCH  23  24
ATOM     24  C   UNL     1      60.498   8.658  -0.947  1.00  0.00    -0.000 C 
BRANCH  24  25
ATOM     25  C   UNL     1      60.843   7.896   0.341  1.00  0.00    -0.003 C 
ATOM     26  C   UNL     1      62.298   7.433   0.383  1.00  0.00     0.004 C 
ENDBRANCH  24  25
ENDBRANCH  23  24
ENDBRANCH  22  23
ENDBRANCH  21  22
ENDBRANCH  20  21
ENDBRANCH  19  20
ENDBRANCH  18  19
ENDBRANCH  17  18
ENDBRANCH  16  17
ENDBRANCH  15  16
ENDBRANCH   1  15
TORSDOF 22
ENDMDL
MODEL 9
REMARK VINA RESULT:    -5.485      4.099      7.013
REMARK INTER + INTRA:         -16.062
REMARK INTER:                 -13.029
REMARK INTRA:                  -3.033
REMARK UNBOUND:                -3.523
REMARK SMILES CCCCCCCCCCCCCCCCCCCCCCCC(=O)[O-]
REMARK SMILES IDX 13 1 14 2 15 3 16 4 17 5 18 6 19 7 20 8 21 9 22 10 23 11
REMARK SMILES IDX 24 12 25 13 26 14 12 15 11 16 10 17 9 18 8 19 7 20 6 21 5 22
REMARK SMILES IDX 4 23 3 24 2 25 1 26
REMARK H PARENT
REMARK Flexibility Score: inf
ROOT
ATOM      1  C   UNL     1      54.056  13.378  -0.370  1.00  0.00     0.000 C 
ENDROOT
BRANCH   1   2
ATOM      2  C   UNL     1      53.087  14.448  -0.904  1.00  0.00     0.000 C 
BRANCH   2   3
ATOM      3  C   UNL     1      53.790  15.518  -1.756  1.00  0.00     0.000 C 
BRANCH   3   4
ATOM      4  C   UNL     1      53.164  16.914  -1.590  1.00  0.00     0.000 C 
BRANCH   4   5
ATOM      5  C   UNL     1      54.159  17.951  -1.041  1.00  0.00     0.000 C 
BRANCH   5   6
ATOM      6  C   UNL     1      55.279  17.304  -0.209  1.00  0.00     0.000 C 
BRANCH   6   7
ATOM      7  C   UNL     1      55.499  18.015   1.136  1.00  0.00     0.000 C 
BRANCH   7   8
ATOM      8  C   UNL     1      55.025  17.133   2.302  1.00  0.00     0.000 C 
BRANCH   8   9
ATOM      9  C   UNL     1      53.584  16.631   2.118  1.00  0.00     0.000 C 
BRANCH   9  10
ATOM     10  C   UNL     1      52.539  17.634   2.634  1.00  0.00     0.006 C 
BRANCH  10  11
ATOM     11  C   UNL     1      51.433  17.901   1.604  1.00  0.00     0.053 C 
BRANCH  11  12
ATOM     12  C   UNL     1      50.245  18.570   2.224  1.00  0.00     0.041 C 
ATOM     13  O   UNL     1      50.220  19.823   2.354  1.00  0.00    -0.550 OA
ATOM     14  O   UNL     1      49.179  17.809   2.689  1.00  0.00    -0.550 OA
ENDBRANCH  11  12
ENDBRANCH  10  11
ENDBRANCH   9  10
ENDBRANCH   8   9
ENDBRANCH   7   8
ENDBRANCH   6   7
ENDBRANCH   5   6
ENDBRANCH   4   5
ENDBRANCH   3   4
ENDBRANCH   2   3
ENDBRANCH   1   2
BRANCH   1  15
ATOM     15  C   UNL     1      55.265  13.917   0.423  1.00  0.00     0.000 C 
BRANCH  15  16
ATOM     16  C   UNL     1      56.537  13.053   0.356  1.00  0.00     0.000 C 
BRANCH  16  17
ATOM     17  C   UNL     1      56.317  11.722  -0.383  1.00  0.00     0.000 C 
BRANCH  17  18
ATOM     18  C   UNL     1      57.636  11.012  -0.739  1.00  0.00    -0.000 C 
BRANCH  18  19
ATOM     19  C   UNL     1      58.582  10.754   0.450  1.00  0.00    -0.000 C 
BRANCH  19  20
ATOM     20  C   UNL     1      59.942  10.125   0.083  1.00  0.00    -0.000 C 
BRANCH  20  21
ATOM     21  C   UNL     1      61.029  11.125  -0.352  1.00  0.00    -0.000 C 
BRANCH  21  22
ATOM     22  C   UNL     1      61.558  11.976   0.815  1.00  0.00    -0.000 C 
BRANCH  22  23
ATOM     23  C   UNL     1      61.656  13.469   0.460  1.00  0.00    -0.000 C 
BRANCH  23  24
ATOM     24  C   UNL     1      60.286  14.102   0.164  1.00  0.00    -0.000 C 
BRANCH  24  25
ATOM     25  C   UNL     1      59.953  15.259   1.118  1.00  0.00    -0.003 C 
ATOM     26  C   UNL     1      58.639  15.954   0.769  1.00  0.00     0.004 C 
ENDBRANCH  24  25
ENDBRANCH  23  24
ENDBRANCH  22  23
ENDBRANCH  21  22
ENDBRANCH  20  21
ENDBRANCH  19  20
ENDBRANCH  18  19
ENDBRANCH  17  18
ENDBRANCH  16  17
ENDBRANCH  15  16
ENDBRANCH   1  15
TORSDOF 22
ENDMDL
