MODEL 1
REMARK VINA RESULT:    -4.385      0.000      0.000
REMARK INTER + INTRA:          -4.047
REMARK INTER:                  -5.794
REMARK INTRA:                   1.747
REMARK UNBOUND:                 1.747
REMARK SMILES CC[C@H](C=C[C@@H](C)[C@H]1CC[C@@H]2[C@H]3CC=C4C[C@H](O)CC[C@@]4(C)[C@@H]3CC[C@@]21C)C(C)C
REMARK SMILES IDX 6 1 7 2 5 3 4 4 3 5 2 6 1 7 28 8 29 9 30 10 8 11 9 12 26 13
REMARK SMILES IDX 10 14 11 15 25 16 27 17 12 18 24 19 23 20 13 21 21 22 14 23
REMARK SMILES IDX 15 24 20 25 22 26 16 27 19 28 17 29 18 30
REMARK H PARENT 18 31
REMARK Flexibility Score: inf
ROOT
ATOM      1  C   UNL     1     -20.866  -3.613 -31.977  1.00  0.00     0.012 C 
ATOM      2  C   UNL     1     -20.769  -3.175 -33.459  1.00  0.00     0.012 C 
ENDROOT
BRANCH   1   3
ATOM      3  C   UNL     1     -21.086  -2.364 -31.140  1.00  0.00    -0.028 C 
ATOM      4  C   UNL     1     -20.938  -1.125 -31.641  1.00  0.00    -0.027 C 
BRANCH   4   5
ATOM      5  C   UNL     1     -21.124   0.109 -30.779  1.00  0.00     0.014 C 
BRANCH   5   6
ATOM      6  C   UNL     1     -21.115  -0.323 -29.287  1.00  0.00     0.004 C 
ATOM      7  C   UNL     1     -21.060   0.839 -28.297  1.00  0.00     0.004 C 
ENDBRANCH   5   6
BRANCH   5   8
ATOM      8  C   UNL     1     -20.073   1.196 -31.183  1.00  0.00    -0.011 C 
ATOM      9  C   UNL     1     -18.624   0.822 -30.831  1.00  0.00     0.008 C 
ATOM     10  C   UNL     1     -20.419   2.596 -30.648  1.00  0.00     0.008 C 
ENDBRANCH   5   8
ENDBRANCH   4   5
ENDBRANCH   1   3
BRANCH   1  11
ATOM     11  C   UNL     1     -19.614  -4.439 -31.478  1.00  0.00     0.002 C 
ATOM     12  C   UNL     1     -18.808  -5.023 -32.670  1.00  0.00     0.005 C 
ATOM     13  C   UNL     1     -18.528  -3.698 -30.597  1.00  0.00    -0.026 C 
ATOM     14  C   UNL     1     -17.404  -4.443 -32.620  1.00  0.00     0.005 C 
ATOM     15  C   UNL     1     -17.454  -3.280 -31.632  1.00  0.00    -0.001 C 
ATOM     16  C   UNL     1     -17.947  -4.709 -29.528  1.00  0.00     0.007 C 
ATOM     17  C   UNL     1     -19.071  -2.443 -29.869  1.00  0.00     0.012 C 
ATOM     18  C   UNL     1     -16.031  -2.925 -31.076  1.00  0.00     0.000 C 
ATOM     19  C   UNL     1     -16.413  -4.733 -29.369  1.00  0.00     0.005 C 
ATOM     20  C   UNL     1     -15.793  -3.351 -29.609  1.00  0.00     0.003 C 
ATOM     21  C   UNL     1     -15.716  -1.430 -31.200  1.00  0.00     0.031 C 
ATOM     22  C   UNL     1     -14.273  -3.209 -29.214  1.00  0.00    -0.008 C 
ATOM     23  C   UNL     1     -14.354  -1.104 -30.642  1.00  0.00    -0.027 C 
ATOM     24  C   UNL     1     -13.730  -1.850 -29.697  1.00  0.00    -0.065 C 
ATOM     25  C   UNL     1     -14.143  -3.264 -27.657  1.00  0.00     0.014 C 
ATOM     26  C   UNL     1     -13.417  -4.346 -29.837  1.00  0.00     0.016 C 
ATOM     27  C   UNL     1     -12.396  -1.374 -29.156  1.00  0.00     0.063 C 
ATOM     28  C   UNL     1     -12.762  -2.836 -27.133  1.00  0.00     0.033 C 
ATOM     29  C   UNL     1     -12.388  -1.431 -27.625  1.00  0.00     0.118 C 
BRANCH  29  30
ATOM     30  O   UNL     1     -11.110  -1.087 -27.161  1.00  0.00    -0.393 OA
ATOM     31  H   UNL     1     -11.060  -1.383 -26.214  1.00  0.00     0.210 HD
ENDBRANCH  29  30
ENDBRANCH   1  11
TORSDOF 6
ENDMDL
MODEL 2
REMARK VINA RESULT:    -2.738      3.333      7.300
REMARK INTER + INTRA:          -1.872
REMARK INTER:                  -2.426
REMARK INTRA:                   0.554
REMARK UNBOUND:                 1.747
REMARK SMILES CC[C@H](C=C[C@@H](C)[C@H]1CC[C@@H]2[C@H]3CC=C4C[C@H](O)CC[C@@]4(C)[C@@H]3CC[C@@]21C)C(C)C
REMARK SMILES IDX 6 1 7 2 5 3 4 4 3 5 2 6 1 7 28 8 29 9 30 10 8 11 9 12 26 13
REMARK SMILES IDX 10 14 11 15 25 16 27 17 12 18 24 19 23 20 13 21 21 22 14 23
REMARK SMILES IDX 15 24 20 25 22 26 16 27 19 28 17 29 18 30
REMARK H PARENT 18 31
REMARK Flexibility Score: inf
ROOT
ATOM      1  C   UNL     1     -14.708  -4.765 -30.506  1.00  0.00     0.012 C 
ATOM      2  C   UNL     1     -14.159  -4.086 -29.227  1.00  0.00     0.012 C 
ENDROOT
BRANCH   1   3
ATOM      3  C   UNL     1     -13.696  -4.540 -31.618  1.00  0.00    -0.028 C 
ATOM      4  C   UNL     1     -14.058  -4.163 -32.857  1.00  0.00    -0.027 C 
BRANCH   4   5
ATOM      5  C   UNL     1     -13.036  -3.982 -33.962  1.00  0.00     0.014 C 
BRANCH   5   6
ATOM      6  C   UNL     1     -13.222  -5.121 -35.001  1.00  0.00     0.004 C 
ATOM      7  C   UNL     1     -12.183  -5.125 -36.122  1.00  0.00     0.004 C 
ENDBRANCH   5   6
BRANCH   5   8
ATOM      8  C   UNL     1     -13.123  -2.522 -34.524  1.00  0.00    -0.011 C 
ATOM      9  C   UNL     1     -14.553  -1.961 -34.578  1.00  0.00     0.008 C 
ATOM     10  C   UNL     1     -12.421  -2.357 -35.882  1.00  0.00     0.008 C 
ENDBRANCH   5   8
ENDBRANCH   4   5
ENDBRANCH   1   3
BRANCH   1  11
ATOM     11  C   UNL     1     -16.151  -4.266 -30.917  1.00  0.00     0.002 C 
ATOM     12  C   UNL     1     -17.259  -5.124 -30.250  1.00  0.00     0.005 C 
ATOM     13  C   UNL     1     -16.554  -2.773 -30.577  1.00  0.00    -0.026 C 
ATOM     14  C   UNL     1     -18.099  -4.211 -29.371  1.00  0.00     0.005 C 
ATOM     15  C   UNL     1     -17.317  -2.907 -29.236  1.00  0.00    -0.001 C 
ATOM     16  C   UNL     1     -17.485  -2.212 -31.726  1.00  0.00     0.007 C 
ATOM     17  C   UNL     1     -15.339  -1.828 -30.398  1.00  0.00     0.012 C 
ATOM     18  C   UNL     1     -18.244  -1.711 -28.824  1.00  0.00     0.000 C 
ATOM     19  C   UNL     1     -18.753  -1.459 -31.276  1.00  0.00     0.005 C 
ATOM     20  C   UNL     1     -18.529  -0.701 -29.960  1.00  0.00     0.003 C 
ATOM     21  C   UNL     1     -17.694  -0.938 -27.621  1.00  0.00     0.031 C 
ATOM     22  C   UNL     1     -19.670   0.307 -29.554  1.00  0.00    -0.008 C 
ATOM     23  C   UNL     1     -18.588   0.220 -27.252  1.00  0.00    -0.027 C 
ATOM     24  C   UNL     1     -19.421   0.836 -28.127  1.00  0.00    -0.065 C 
ATOM     25  C   UNL     1     -19.652   1.523 -30.537  1.00  0.00     0.014 C 
ATOM     26  C   UNL     1     -21.069  -0.368 -29.605  1.00  0.00     0.016 C 
ATOM     27  C   UNL     1     -20.209   2.042 -27.658  1.00  0.00     0.063 C 
ATOM     28  C   UNL     1     -20.509   2.713 -30.072  1.00  0.00     0.033 C 
ATOM     29  C   UNL     1     -20.093   3.185 -28.671  1.00  0.00     0.118 C 
BRANCH  29  30
ATOM     30  O   UNL     1     -20.917   4.245 -28.262  1.00  0.00    -0.393 OA
ATOM     31  H   UNL     1     -20.653   4.470 -27.331  1.00  0.00     0.210 HD
ENDBRANCH  29  30
ENDBRANCH   1  11
TORSDOF 6
ENDMDL
MODEL 3
REMARK VINA RESULT:    -2.194      3.072      4.805
REMARK INTER + INTRA:          -1.153
REMARK INTER:                   0.616
REMARK INTRA:                  -1.769
REMARK UNBOUND:                 1.747
REMARK SMILES CC[C@H](C=C[C@@H](C)[C@H]1CC[C@@H]2[C@H]3CC=C4C[C@H](O)CC[C@@]4(C)[C@@H]3CC[C@@]21C)C(C)C
REMARK SMILES IDX 6 1 7 2 5 3 4 4 3 5 2 6 1 7 28 8 29 9 30 10 8 11 9 12 26 13
REMARK SMILES IDX 10 14 11 15 25 16 27 17 12 18 24 19 23 20 13 21 21 22 14 23
REMARK SMILES IDX 15 24 20 25 22 26 16 27 19 28 17 29 18 30
REMARK H PARENT 18 31
REMARK Flexibility Score: inf
ROOT
ATOM      1  C   UNL     1     -16.810  -0.882 -26.571  1.00  0.00     0.012 C 
ATOM      2  C   UNL     1     -16.714  -0.952 -25.027  1.00  0.00     0.012 C 
ENDROOT
BRANCH   1   3
ATOM      3  C   UNL     1     -18.221  -0.445 -26.927  1.00  0.00    -0.028 C 
ATOM      4  C   UNL     1     -18.501   0.249 -28.045  1.00  0.00    -0.027 C 
BRANCH   4   5
ATOM      5  C   UNL     1     -19.910   0.709 -28.362  1.00  0.00     0.014 C 
BRANCH   5   6
ATOM      6  C   UNL     1     -19.890   2.244 -28.596  1.00  0.00     0.004 C 
ATOM      7  C   UNL     1     -20.850   3.028 -27.702  1.00  0.00     0.004 C 
ENDBRANCH   5   6
BRANCH   5   8
ATOM      8  C   UNL     1     -20.494  -0.153 -29.532  1.00  0.00    -0.011 C 
ATOM      9  C   UNL     1     -20.907  -1.573 -29.112  1.00  0.00     0.008 C 
ATOM     10  C   UNL     1     -19.576  -0.195 -30.765  1.00  0.00     0.008 C 
ENDBRANCH   5   8
ENDBRANCH   4   5
ENDBRANCH   1   3
BRANCH   1  11
ATOM     11  C   UNL     1     -16.416  -2.233 -27.291  1.00  0.00     0.002 C 
ATOM     12  C   UNL     1     -17.671  -2.980 -27.821  1.00  0.00     0.005 C 
ATOM     13  C   UNL     1     -15.446  -2.164 -28.540  1.00  0.00    -0.026 C 
ATOM     14  C   UNL     1     -17.544  -3.104 -29.331  1.00  0.00     0.005 C 
ATOM     15  C   UNL     1     -16.417  -2.161 -29.746  1.00  0.00    -0.001 C 
ATOM     16  C   UNL     1     -14.512  -3.441 -28.544  1.00  0.00     0.007 C 
ATOM     17  C   UNL     1     -14.566  -0.889 -28.571  1.00  0.00     0.012 C 
ATOM     18  C   UNL     1     -15.817  -2.549 -31.142  1.00  0.00     0.000 C 
ATOM     19  C   UNL     1     -14.353  -4.170 -29.893  1.00  0.00     0.005 C 
ATOM     20  C   UNL     1     -14.414  -3.198 -31.078  1.00  0.00     0.003 C 
ATOM     21  C   UNL     1     -15.750  -1.353 -32.098  1.00  0.00     0.031 C 
ATOM     22  C   UNL     1     -14.001  -3.800 -32.475  1.00  0.00    -0.008 C 
ATOM     23  C   UNL     1     -15.151  -1.739 -33.427  1.00  0.00    -0.027 C 
ATOM     24  C   UNL     1     -14.307  -2.787 -33.595  1.00  0.00    -0.065 C 
ATOM     25  C   UNL     1     -12.463  -4.081 -32.475  1.00  0.00     0.014 C 
ATOM     26  C   UNL     1     -14.760  -5.123 -32.770  1.00  0.00     0.016 C 
ATOM     27  C   UNL     1     -13.706  -3.026 -34.966  1.00  0.00     0.063 C 
ATOM     28  C   UNL     1     -11.885  -4.383 -33.867  1.00  0.00     0.033 C 
ATOM     29  C   UNL     1     -12.195  -3.251 -34.857  1.00  0.00     0.118 C 
BRANCH  29  30
ATOM     30  O   UNL     1     -11.687  -3.574 -36.125  1.00  0.00    -0.393 OA
ATOM     31  H   UNL     1     -11.053  -2.851 -36.372  1.00  0.00     0.210 HD
ENDBRANCH  29  30
ENDBRANCH   1  11
TORSDOF 6
ENDMDL
MODEL 4
REMARK VINA RESULT:    -1.461      2.601      7.042
REMARK INTER + INTRA:          -0.184
REMARK INTER:                   0.060
REMARK INTRA:                  -0.244
REMARK UNBOUND:                 1.747
REMARK SMILES CC[C@H](C=C[C@@H](C)[C@H]1CC[C@@H]2[C@H]3CC=C4C[C@H](O)CC[C@@]4(C)[C@@H]3CC[C@@]21C)C(C)C
REMARK SMILES IDX 6 1 7 2 5 3 4 4 3 5 2 6 1 7 28 8 29 9 30 10 8 11 9 12 26 13
REMARK SMILES IDX 10 14 11 15 25 16 27 17 12 18 24 19 23 20 13 21 21 22 14 23
REMARK SMILES IDX 15 24 20 25 22 26 16 27 19 28 17 29 18 30
REMARK H PARENT 18 31
REMARK Flexibility Score: inf
ROOT
ATOM      1  C   UNL     1     -13.022  -3.634 -31.916  1.00  0.00     0.012 C 
ATOM      2  C   UNL     1     -12.648  -5.102 -32.237  1.00  0.00     0.012 C 
ENDROOT
BRANCH   1   3
ATOM      3  C   UNL     1     -12.764  -3.404 -30.436  1.00  0.00    -0.028 C 
ATOM      4  C   UNL     1     -13.263  -4.211 -29.483  1.00  0.00    -0.027 C 
BRANCH   4   5
ATOM      5  C   UNL     1     -13.025  -3.943 -28.010  1.00  0.00     0.014 C 
BRANCH   5   6
ATOM      6  C   UNL     1     -13.286  -2.438 -27.732  1.00  0.00     0.004 C 
ATOM      7  C   UNL     1     -12.092  -1.529 -28.023  1.00  0.00     0.004 C 
ENDBRANCH   5   6
BRANCH   5   8
ATOM      8  C   UNL     1     -13.858  -4.952 -27.151  1.00  0.00    -0.011 C 
ATOM      9  C   UNL     1     -15.365  -4.648 -27.122  1.00  0.00     0.008 C 
ATOM     10  C   UNL     1     -13.310  -5.125 -25.724  1.00  0.00     0.008 C 
ENDBRANCH   5   8
ENDBRANCH   4   5
ENDBRANCH   1   3
BRANCH   1  11
ATOM     11  C   UNL     1     -14.504  -3.257 -32.317  1.00  0.00     0.002 C 
ATOM     12  C   UNL     1     -15.453  -4.480 -32.196  1.00  0.00     0.005 C 
ATOM     13  C   UNL     1     -15.234  -2.113 -31.502  1.00  0.00    -0.026 C 
ATOM     14  C   UNL     1     -16.526  -4.146 -31.172  1.00  0.00     0.005 C 
ATOM     15  C   UNL     1     -16.046  -2.895 -30.440  1.00  0.00    -0.001 C 
ATOM     16  C   UNL     1     -16.178  -1.300 -32.478  1.00  0.00     0.007 C 
ATOM     17  C   UNL     1     -14.260  -1.132 -30.801  1.00  0.00     0.012 C 
ATOM     18  C   UNL     1     -17.230  -2.133 -29.749  1.00  0.00     0.000 C 
ATOM     19  C   UNL     1     -17.604  -1.010 -31.969  1.00  0.00     0.005 C 
ATOM     20  C   UNL     1     -17.639  -0.815 -30.448  1.00  0.00     0.003 C 
ATOM     21  C   UNL     1     -16.942  -1.826 -28.276  1.00  0.00     0.031 C 
ATOM     22  C   UNL     1     -18.992  -0.256 -29.864  1.00  0.00    -0.008 C 
ATOM     23  C   UNL     1     -18.083  -1.077 -27.634  1.00  0.00    -0.027 C 
ATOM     24  C   UNL     1     -18.961  -0.309 -28.324  1.00  0.00    -0.065 C 
ATOM     25  C   UNL     1     -19.159   1.236 -30.301  1.00  0.00     0.014 C 
ATOM     26  C   UNL     1     -20.211  -1.075 -30.373  1.00  0.00     0.016 C 
ATOM     27  C   UNL     1     -20.016   0.462 -27.556  1.00  0.00     0.063 C 
ATOM     28  C   UNL     1     -20.276   1.982 -29.553  1.00  0.00     0.033 C 
ATOM     29  C   UNL     1     -20.070   1.917 -28.033  1.00  0.00     0.118 C 
BRANCH  29  30
ATOM     30  O   UNL     1     -21.125   2.574 -27.380  1.00  0.00    -0.393 OA
ATOM     31  H   UNL     1     -21.244   3.448 -27.837  1.00  0.00     0.210 HD
ENDBRANCH  29  30
ENDBRANCH   1  11
TORSDOF 6
ENDMDL
