MODEL 1
REMARK VINA RESULT:    69.614      0.000      0.000
REMARK INTER + INTRA:         102.133
REMARK INTER:                 100.136
REMARK INTRA:                   1.997
REMARK UNBOUND:                 1.997
REMARK SMILES O=c1cc(-c2ccc(O)c(O)c2)oc2cc(O[C@@H]3O[C@@H](CO)[C@@H](O)[C@H](O)[C@H]3O)cc(O)c12
REMARK SMILES IDX 17 1 16 2 4 3 3 4 13 5 2 6 14 7 1 8 32 9 15 10 30 11 29 12
REMARK SMILES IDX 5 13 6 14 7 15 8 16 12 17 10 18 9 19 11 21 31 23 18 25 27 26
REMARK SMILES IDX 19 27 25 28 20 29 23 30 28 31 26 33 21 35 22 36 24 38
REMARK H PARENT 9 20 11 22 31 24 28 32 26 34 22 37 24 39
REMARK Flexibility Score: inf
ROOT
ATOM      1  O   UNL     1     -38.668  27.744  -9.063  1.00  0.00    -0.462 OA
ENDROOT
BRANCH   1   2
ATOM      2  C   UNL     1     -39.760  26.944  -9.410  1.00  0.00     0.130 A 
ATOM      3  C   UNL     1     -42.078  24.392 -12.704  1.00  0.00     0.138 A 
ATOM      4  C   UNL     1     -43.136  24.104 -11.821  1.00  0.00     0.100 A 
ATOM      5  O   UNL     1     -41.058  25.131 -12.274  1.00  0.00    -0.456 OA
ATOM      6  C   UNL     1     -43.086  24.581 -10.510  1.00  0.00     0.197 A 
ATOM      7  C   UNL     1     -40.973  25.620 -11.041  1.00  0.00     0.146 A 
ATOM      8  O   UNL     1     -44.033  24.305  -9.723  1.00  0.00    -0.289 OA
ATOM      9  C   UNL     1     -41.988  25.361 -10.093  1.00  0.00     0.107 A 
ATOM     10  C   UNL     1     -39.867  26.398 -10.693  1.00  0.00     0.094 A 
ATOM     11  C   UNL     1     -41.861  25.886  -8.785  1.00  0.00     0.134 A 
ATOM     12  C   UNL     1     -40.744  26.670  -8.456  1.00  0.00     0.093 A 
BRANCH   3  13
ATOM     13  C   UNL     1     -42.060  23.914 -14.114  1.00  0.00     0.021 A 
ATOM     14  C   UNL     1     -41.153  24.488 -15.021  1.00  0.00     0.016 A 
ATOM     15  C   UNL     1     -41.106  24.062 -16.349  1.00  0.00     0.051 A 
ATOM     16  C   UNL     1     -41.960  23.057 -16.807  1.00  0.00     0.157 A 
ATOM     17  C   UNL     1     -42.906  22.884 -14.572  1.00  0.00     0.062 A 
ATOM     18  C   UNL     1     -42.872  22.458 -15.907  1.00  0.00     0.158 A 
BRANCH  16  19
ATOM     19  O   UNL     1     -41.870  22.684 -18.149  1.00  0.00    -0.504 OA
ATOM     20  H   UNL     1     -42.619  22.788 -18.817  1.00  0.00     0.293 HD
ENDBRANCH  16  19
BRANCH  18  21
ATOM     21  O   UNL     1     -43.750  21.443 -16.289  1.00  0.00    -0.504 OA
ATOM     22  H   UNL     1     -44.659  21.607 -16.697  1.00  0.00     0.293 HD
ENDBRANCH  18  21
ENDBRANCH   3  13
BRANCH  11  23
ATOM     23  O   UNL     1     -42.833  25.640  -7.816  1.00  0.00    -0.507 OA
ATOM     24  H   UNL     1     -43.628  25.036  -7.999  1.00  0.00     0.293 HD
ENDBRANCH  11  23
ENDBRANCH   1   2
BRANCH   1  25
ATOM     25  C   UNL     1     -38.508  28.300  -7.758  1.00  0.00     0.339 C 
ATOM     26  C   UNL     1     -39.903  28.458  -7.107  1.00  0.00     0.214 C 
ATOM     27  O   UNL     1     -37.605  27.493  -7.002  1.00  0.00    -0.332 OA
ATOM     28  C   UNL     1     -39.785  29.099  -5.700  1.00  0.00     0.180 C 
ATOM     29  C   UNL     1     -37.855  27.459  -5.600  1.00  0.00     0.179 C 
ATOM     30  C   UNL     1     -38.412  28.793  -5.042  1.00  0.00     0.177 C 
BRANCH  26  31
ATOM     31  O   UNL     1     -40.767  29.209  -7.925  1.00  0.00    -0.384 OA
ATOM     32  H   UNL     1     -40.927  30.079  -7.474  1.00  0.00     0.211 HD
ENDBRANCH  26  31
BRANCH  28  33
ATOM     33  O   UNL     1     -40.844  28.680  -4.875  1.00  0.00    -0.387 OA
ATOM     34  H   UNL     1     -41.689  29.018  -5.273  1.00  0.00     0.211 HD
ENDBRANCH  28  33
BRANCH  29  35
ATOM     35  C   UNL     1     -36.576  27.015  -4.877  1.00  0.00     0.191 C 
BRANCH  35  36
ATOM     36  O   UNL     1     -36.031  25.864  -5.466  1.00  0.00    -0.394 OA
ATOM     37  H   UNL     1     -36.587  25.660  -6.265  1.00  0.00     0.210 HD
ENDBRANCH  35  36
ENDBRANCH  29  35
BRANCH  30  38
ATOM     38  O   UNL     1     -37.513  29.839  -5.320  1.00  0.00    -0.387 OA
ATOM     39  H   UNL     1     -36.900  29.907  -4.542  1.00  0.00     0.211 HD
ENDBRANCH  30  38
ENDBRANCH   1  25
TORSDOF 11
ENDMDL
MODEL 2
REMARK VINA RESULT:    69.658      9.452     12.674
REMARK INTER + INTRA:         102.197
REMARK INTER:                 102.914
REMARK INTRA:                  -0.717
REMARK UNBOUND:                 1.997
REMARK SMILES O=c1cc(-c2ccc(O)c(O)c2)oc2cc(O[C@@H]3O[C@@H](CO)[C@@H](O)[C@H](O)[C@H]3O)cc(O)c12
REMARK SMILES IDX 17 1 16 2 4 3 3 4 13 5 2 6 14 7 1 8 32 9 15 10 30 11 29 12
REMARK SMILES IDX 5 13 6 14 7 15 8 16 12 17 10 18 9 19 11 21 31 23 18 25 27 26
REMARK SMILES IDX 19 27 25 28 20 29 23 30 28 31 26 33 21 35 22 36 24 38
REMARK H PARENT 9 20 11 22 31 24 28 32 26 34 22 37 24 39
REMARK Flexibility Score: inf
ROOT
ATOM      1  O   UNL     1     -38.115  23.900 -21.512  1.00  0.00    -0.462 OA
ENDROOT
BRANCH   1   2
ATOM      2  C   UNL     1     -38.117  25.286 -21.333  1.00  0.00     0.130 A 
ATOM      3  C   UNL     1     -40.434  29.443 -21.623  1.00  0.00     0.138 A 
ATOM      4  C   UNL     1     -39.307  30.168 -21.193  1.00  0.00     0.100 A 
ATOM      5  O   UNL     1     -40.352  28.119 -21.728  1.00  0.00    -0.456 OA
ATOM      6  C   UNL     1     -38.134  29.485 -20.868  1.00  0.00     0.197 A 
ATOM      7  C   UNL     1     -39.253  27.426 -21.444  1.00  0.00     0.146 A 
ATOM      8  O   UNL     1     -37.133  30.144 -20.471  1.00  0.00    -0.289 OA
ATOM      9  C   UNL     1     -38.086  28.082 -20.993  1.00  0.00     0.107 A 
ATOM     10  C   UNL     1     -39.264  26.039 -21.603  1.00  0.00     0.094 A 
ATOM     11  C   UNL     1     -36.937  27.314 -20.688  1.00  0.00     0.134 A 
ATOM     12  C   UNL     1     -36.967  25.922 -20.858  1.00  0.00     0.093 A 
BRANCH   3  13
ATOM     13  C   UNL     1     -41.720  30.102 -21.983  1.00  0.00     0.021 A 
ATOM     14  C   UNL     1     -42.152  30.077 -23.320  1.00  0.00     0.016 A 
ATOM     15  C   UNL     1     -43.354  30.681 -23.693  1.00  0.00     0.051 A 
ATOM     16  C   UNL     1     -44.153  31.324 -22.746  1.00  0.00     0.157 A 
ATOM     17  C   UNL     1     -42.539  30.732 -21.025  1.00  0.00     0.062 A 
ATOM     18  C   UNL     1     -43.742  31.349 -21.394  1.00  0.00     0.158 A 
BRANCH  16  19
ATOM     19  O   UNL     1     -45.338  31.918 -23.186  1.00  0.00    -0.504 OA
ATOM     20  H   UNL     1     -45.741  31.770 -24.098  1.00  0.00     0.293 HD
ENDBRANCH  16  19
BRANCH  18  21
ATOM     21  O   UNL     1     -44.492  31.965 -20.390  1.00  0.00    -0.504 OA
ATOM     22  H   UNL     1     -44.103  32.303 -19.522  1.00  0.00     0.293 HD
ENDBRANCH  18  21
ENDBRANCH   3  13
BRANCH  11  23
ATOM     23  O   UNL     1     -35.770  27.922 -20.224  1.00  0.00    -0.507 OA
ATOM     24  H   UNL     1     -35.614  28.091 -19.236  1.00  0.00     0.293 HD
ENDBRANCH  11  23
ENDBRANCH   1   2
BRANCH   1  25
ATOM     25  C   UNL     1     -38.585  22.995 -20.513  1.00  0.00     0.339 C 
ATOM     26  C   UNL     1     -37.385  22.533 -19.653  1.00  0.00     0.214 C 
ATOM     27  O   UNL     1     -39.630  23.614 -19.763  1.00  0.00    -0.332 OA
ATOM     28  C   UNL     1     -37.840  21.513 -18.576  1.00  0.00     0.180 C 
ATOM     29  C   UNL     1     -39.717  23.206 -18.400  1.00  0.00     0.179 C 
ATOM     30  C   UNL     1     -39.325  21.724 -18.175  1.00  0.00     0.177 C 
BRANCH  26  31
ATOM     31  O   UNL     1     -36.363  21.989 -20.452  1.00  0.00    -0.384 OA
ATOM     32  H   UNL     1     -36.790  21.573 -21.245  1.00  0.00     0.211 HD
ENDBRANCH  26  31
BRANCH  28  33
ATOM     33  O   UNL     1     -36.999  21.575 -17.450  1.00  0.00    -0.387 OA
ATOM     34  H   UNL     1     -36.063  21.647 -17.775  1.00  0.00     0.211 HD
ENDBRANCH  28  33
BRANCH  29  35
ATOM     35  C   UNL     1     -41.124  23.522 -17.875  1.00  0.00     0.191 C 
BRANCH  35  36
ATOM     36  O   UNL     1     -41.818  22.349 -17.539  1.00  0.00    -0.394 OA
ATOM     37  H   UNL     1     -41.134  21.677 -17.279  1.00  0.00     0.210 HD
ENDBRANCH  35  36
ENDBRANCH  29  35
BRANCH  30  38
ATOM     38  O   UNL     1     -40.146  20.890 -18.954  1.00  0.00    -0.387 OA
ATOM     39  H   UNL     1     -40.759  20.423 -18.329  1.00  0.00     0.211 HD
ENDBRANCH  30  38
ENDBRANCH   1  25
TORSDOF 11
ENDMDL
MODEL 3
REMARK VINA RESULT:    71.057     11.051     12.129
REMARK INTER + INTRA:         104.209
REMARK INTER:                 104.973
REMARK INTRA:                  -0.764
REMARK UNBOUND:                 1.997
REMARK SMILES O=c1cc(-c2ccc(O)c(O)c2)oc2cc(O[C@@H]3O[C@@H](CO)[C@@H](O)[C@H](O)[C@H]3O)cc(O)c12
REMARK SMILES IDX 17 1 16 2 4 3 3 4 13 5 2 6 14 7 1 8 32 9 15 10 30 11 29 12
REMARK SMILES IDX 5 13 6 14 7 15 8 16 12 17 10 18 9 19 11 21 31 23 18 25 27 26
REMARK SMILES IDX 19 27 25 28 20 29 23 30 28 31 26 33 21 35 22 36 24 38
REMARK H PARENT 9 20 11 22 31 24 28 32 26 34 22 37 24 39
REMARK Flexibility Score: inf
ROOT
ATOM      1  O   UNL     1     -35.578  29.947 -18.137  1.00  0.00    -0.462 OA
ENDROOT
BRANCH   1   2
ATOM      2  C   UNL     1     -36.417  29.372 -19.094  1.00  0.00     0.130 A 
ATOM      3  C   UNL     1     -40.490  29.501 -21.569  1.00  0.00     0.138 A 
ATOM      4  C   UNL     1     -40.209  28.280 -22.209  1.00  0.00     0.100 A 
ATOM      5  O   UNL     1     -39.613  29.994 -20.699  1.00  0.00    -0.456 OA
ATOM      6  C   UNL     1     -39.010  27.619 -21.933  1.00  0.00     0.197 A 
ATOM      7  C   UNL     1     -38.466  29.396 -20.392  1.00  0.00     0.146 A 
ATOM      8  O   UNL     1     -38.761  26.531 -22.523  1.00  0.00    -0.289 OA
ATOM      9  C   UNL     1     -38.106  28.174 -21.004  1.00  0.00     0.107 A 
ATOM     10  C   UNL     1     -37.620  29.988 -19.453  1.00  0.00     0.094 A 
ATOM     11  C   UNL     1     -36.873  27.569 -20.665  1.00  0.00     0.134 A 
ATOM     12  C   UNL     1     -36.039  28.178 -19.715  1.00  0.00     0.093 A 
BRANCH   3  13
ATOM     13  C   UNL     1     -41.746  30.263 -21.816  1.00  0.00     0.021 A 
ATOM     14  C   UNL     1     -42.090  30.608 -23.134  1.00  0.00     0.016 A 
ATOM     15  C   UNL     1     -43.261  31.318 -23.402  1.00  0.00     0.051 A 
ATOM     16  C   UNL     1     -44.117  31.702 -22.368  1.00  0.00     0.157 A 
ATOM     17  C   UNL     1     -42.622  30.632 -20.775  1.00  0.00     0.062 A 
ATOM     18  C   UNL     1     -43.794  31.353 -21.036  1.00  0.00     0.158 A 
BRANCH  16  19
ATOM     19  O   UNL     1     -45.267  32.419 -22.703  1.00  0.00    -0.504 OA
ATOM     20  H   UNL     1     -45.477  32.750 -23.631  1.00  0.00     0.293 HD
ENDBRANCH  16  19
BRANCH  18  21
ATOM     21  O   UNL     1     -44.603  31.694 -19.951  1.00  0.00    -0.504 OA
ATOM     22  H   UNL     1     -45.202  32.507 -19.927  1.00  0.00     0.293 HD
ENDBRANCH  18  21
ENDBRANCH   3  13
BRANCH  11  23
ATOM     23  O   UNL     1     -36.474  26.372 -21.258  1.00  0.00    -0.507 OA
ATOM     24  H   UNL     1     -36.253  25.551 -20.705  1.00  0.00     0.293 HD
ENDBRANCH  11  23
ENDBRANCH   1   2
BRANCH   1  25
ATOM     25  C   UNL     1     -34.229  30.321 -18.422  1.00  0.00     0.339 C 
ATOM     26  C   UNL     1     -34.066  31.838 -18.165  1.00  0.00     0.214 C 
ATOM     27  O   UNL     1     -33.337  29.506 -17.663  1.00  0.00    -0.332 OA
ATOM     28  C   UNL     1     -32.625  32.301 -18.502  1.00  0.00     0.180 C 
ATOM     29  C   UNL     1     -32.118  30.138 -17.283  1.00  0.00     0.179 C 
ATOM     30  C   UNL     1     -31.596  31.150 -18.335  1.00  0.00     0.177 C 
BRANCH  26  31
ATOM     31  O   UNL     1     -35.011  32.584 -18.892  1.00  0.00    -0.384 OA
ATOM     32  H   UNL     1     -34.644  33.498 -19.014  1.00  0.00     0.211 HD
ENDBRANCH  26  31
BRANCH  28  33
ATOM     33  O   UNL     1     -32.268  33.414 -17.721  1.00  0.00    -0.387 OA
ATOM     34  H   UNL     1     -33.103  33.892 -17.476  1.00  0.00     0.211 HD
ENDBRANCH  28  33
BRANCH  29  35
ATOM     35  C   UNL     1     -31.080  29.058 -16.951  1.00  0.00     0.191 C 
BRANCH  35  36
ATOM     36  O   UNL     1     -31.385  28.411 -15.743  1.00  0.00    -0.394 OA
ATOM     37  H   UNL     1     -30.605  27.836 -15.522  1.00  0.00     0.210 HD
ENDBRANCH  35  36
ENDBRANCH  29  35
BRANCH  30  38
ATOM     38  O   UNL     1     -31.409  30.502 -19.569  1.00  0.00    -0.387 OA
ATOM     39  H   UNL     1     -32.294  30.151 -19.848  1.00  0.00     0.211 HD
ENDBRANCH  30  38
ENDBRANCH   1  25
TORSDOF 11
ENDMDL
MODEL 4
REMARK VINA RESULT:    72.582      9.870     11.716
REMARK INTER + INTRA:         106.402
REMARK INTER:                 107.053
REMARK INTRA:                  -0.650
REMARK UNBOUND:                 1.997
REMARK SMILES O=c1cc(-c2ccc(O)c(O)c2)oc2cc(O[C@@H]3O[C@@H](CO)[C@@H](O)[C@H](O)[C@H]3O)cc(O)c12
REMARK SMILES IDX 17 1 16 2 4 3 3 4 13 5 2 6 14 7 1 8 32 9 15 10 30 11 29 12
REMARK SMILES IDX 5 13 6 14 7 15 8 16 12 17 10 18 9 19 11 21 31 23 18 25 27 26
REMARK SMILES IDX 19 27 25 28 20 29 23 30 28 31 26 33 21 35 22 36 24 38
REMARK H PARENT 9 20 11 22 31 24 28 32 26 34 22 37 24 39
REMARK Flexibility Score: inf
ROOT
ATOM      1  O   UNL     1     -34.546  29.986 -17.954  1.00  0.00    -0.462 OA
ENDROOT
BRANCH   1   2
ATOM      2  C   UNL     1     -35.434  29.401 -18.861  1.00  0.00     0.130 A 
ATOM      3  C   UNL     1     -39.653  29.481 -21.081  1.00  0.00     0.138 A 
ATOM      4  C   UNL     1     -39.395  28.265 -21.742  1.00  0.00     0.100 A 
ATOM      5  O   UNL     1     -38.731  29.984 -20.264  1.00  0.00    -0.456 OA
ATOM      6  C   UNL     1     -38.172  27.621 -21.541  1.00  0.00     0.197 A 
ATOM      7  C   UNL     1     -37.559  29.401 -20.031  1.00  0.00     0.146 A 
ATOM      8  O   UNL     1     -37.945  26.538 -22.149  1.00  0.00    -0.289 OA
ATOM      9  C   UNL     1     -37.221  28.185 -20.668  1.00  0.00     0.107 A 
ATOM     10  C   UNL     1     -36.665  30.002 -19.143  1.00  0.00     0.094 A 
ATOM     11  C   UNL     1     -35.961  27.597 -20.407  1.00  0.00     0.134 A 
ATOM     12  C   UNL     1     -35.078  28.215 -19.507  1.00  0.00     0.093 A 
BRANCH   3  13
ATOM     13  C   UNL     1     -40.932  30.226 -21.249  1.00  0.00     0.021 A 
ATOM     14  C   UNL     1     -41.228  31.283 -20.371  1.00  0.00     0.016 A 
ATOM     15  C   UNL     1     -42.415  32.005 -20.502  1.00  0.00     0.051 A 
ATOM     16  C   UNL     1     -43.335  31.693 -21.505  1.00  0.00     0.157 A 
ATOM     17  C   UNL     1     -41.850  29.927 -22.275  1.00  0.00     0.062 A 
ATOM     18  C   UNL     1     -43.048  30.642 -22.405  1.00  0.00     0.158 A 
BRANCH  16  19
ATOM     19  O   UNL     1     -44.508  32.447 -21.574  1.00  0.00    -0.504 OA
ATOM     20  H   UNL     1     -45.134  32.449 -22.364  1.00  0.00     0.293 HD
ENDBRANCH  16  19
BRANCH  18  21
ATOM     21  O   UNL     1     -43.914  30.277 -23.438  1.00  0.00    -0.504 OA
ATOM     22  H   UNL     1     -43.812  29.439 -23.992  1.00  0.00     0.293 HD
ENDBRANCH  18  21
ENDBRANCH   3  13
BRANCH  11  23
ATOM     23  O   UNL     1     -35.583  26.406 -21.028  1.00  0.00    -0.507 OA
ATOM     24  H   UNL     1     -35.921  26.156 -21.951  1.00  0.00     0.293 HD
ENDBRANCH  11  23
ENDBRANCH   1   2
BRANCH   1  25
ATOM     25  C   UNL     1     -33.393  29.303 -17.461  1.00  0.00     0.339 C 
ATOM     26  C   UNL     1     -32.128  29.952 -18.072  1.00  0.00     0.214 C 
ATOM     27  O   UNL     1     -33.411  29.305 -16.034  1.00  0.00    -0.332 OA
ATOM     28  C   UNL     1     -30.848  29.217 -17.597  1.00  0.00     0.180 C 
ATOM     29  C   UNL     1     -32.129  29.324 -15.414  1.00  0.00     0.179 C 
ATOM     30  C   UNL     1     -31.048  28.549 -16.209  1.00  0.00     0.177 C 
BRANCH  26  31
ATOM     31  O   UNL     1     -32.195  29.978 -19.477  1.00  0.00    -0.384 OA
ATOM     32  H   UNL     1     -31.331  30.334 -19.813  1.00  0.00     0.211 HD
ENDBRANCH  26  31
BRANCH  28  33
ATOM     33  O   UNL     1     -29.750  30.096 -17.580  1.00  0.00    -0.387 OA
ATOM     34  H   UNL     1     -30.048  30.960 -17.969  1.00  0.00     0.211 HD
ENDBRANCH  28  33
BRANCH  29  35
ATOM     35  C   UNL     1     -32.266  28.816 -13.972  1.00  0.00     0.191 C 
BRANCH  35  36
ATOM     36  O   UNL     1     -32.527  29.869 -13.082  1.00  0.00    -0.394 OA
ATOM     37  H   UNL     1     -33.315  29.597 -12.540  1.00  0.00     0.210 HD
ENDBRANCH  35  36
ENDBRANCH  29  35
BRANCH  30  38
ATOM     38  O   UNL     1     -31.451  27.213 -16.383  1.00  0.00    -0.387 OA
ATOM     39  H   UNL     1     -30.974  26.869 -17.182  1.00  0.00     0.211 HD
ENDBRANCH  30  38
ENDBRANCH   1  25
TORSDOF 11
ENDMDL
