MODEL 1
REMARK VINA RESULT:    -5.818      0.000      0.000
REMARK INTER + INTRA:          -6.382
REMARK INTER:                  -6.329
REMARK INTRA:                  -0.053
REMARK UNBOUND:                -0.053
REMARK SMILES COc1cc2ccc(=O)oc2cc1O
REMARK SMILES IDX 3 1 13 2 12 3 11 4 5 5 4 6 6 7 7 8 8 9 9 10 10 11 2 12 1 13
REMARK SMILES IDX 14 14
REMARK H PARENT 14 15
REMARK Flexibility Score: inf
ROOT
ATOM      1  C   UNL     1       6.776  -2.298  16.190  1.00  0.00     0.161 A 
ATOM      2  C   UNL     1       5.955  -2.063  15.070  1.00  0.00     0.161 A 
ATOM      3  C   UNL     1       4.562  -2.086  15.198  1.00  0.00     0.098 A 
ATOM      4  C   UNL     1       3.970  -2.343  16.437  1.00  0.00     0.142 A 
ATOM      5  C   UNL     1       4.782  -2.580  17.566  1.00  0.00     0.022 A 
ATOM      6  C   UNL     1       6.179  -2.557  17.441  1.00  0.00     0.062 A 
ATOM      7  C   UNL     1       4.161  -2.834  18.792  1.00  0.00     0.019 A 
ATOM      8  C   UNL     1       2.769  -2.847  18.865  1.00  0.00     0.094 A 
ATOM      9  C   UNL     1       2.028  -2.604  17.704  1.00  0.00     0.336 A 
ATOM     10  O   UNL     1       0.769  -2.610  17.748  1.00  0.00    -0.246 OA
ATOM     11  O   UNL     1       2.644  -2.364  16.549  1.00  0.00    -0.423 OA
ENDROOT
BRANCH   1  12
ATOM     12  O   UNL     1       8.170  -2.266  16.026  1.00  0.00    -0.493 OA
ATOM     13  C   UNL     1       9.060  -1.489  16.821  1.00  0.00     0.278 C 
ENDBRANCH   1  12
BRANCH   2  14
ATOM     14  O   UNL     1       6.509  -1.803  13.815  1.00  0.00    -0.504 OA
ATOM     15  H   UNL     1       7.506  -1.694  13.677  1.00  0.00     0.293 HD
ENDBRANCH   2  14
TORSDOF 2
ENDMDL
MODEL 2
REMARK VINA RESULT:    -5.712      2.089      3.612
REMARK INTER + INTRA:          -6.266
REMARK INTER:                  -6.208
REMARK INTRA:                  -0.058
REMARK UNBOUND:                -0.053
REMARK SMILES COc1cc2ccc(=O)oc2cc1O
REMARK SMILES IDX 3 1 13 2 12 3 11 4 5 5 4 6 6 7 7 8 8 9 9 10 10 11 2 12 1 13
REMARK SMILES IDX 14 14
REMARK H PARENT 14 15
REMARK Flexibility Score: inf
ROOT
ATOM      1  C   UNL     1       4.367  -2.113  15.248  1.00  0.00     0.161 A 
ATOM      2  C   UNL     1       5.775  -2.090  15.288  1.00  0.00     0.161 A 
ATOM      3  C   UNL     1       6.450  -2.331  16.489  1.00  0.00     0.098 A 
ATOM      4  C   UNL     1       5.737  -2.597  17.661  1.00  0.00     0.142 A 
ATOM      5  C   UNL     1       4.328  -2.623  17.632  1.00  0.00     0.022 A 
ATOM      6  C   UNL     1       3.647  -2.383  16.430  1.00  0.00     0.062 A 
ATOM      7  C   UNL     1       3.642  -2.893  18.820  1.00  0.00     0.019 A 
ATOM      8  C   UNL     1       4.363  -3.126  19.990  1.00  0.00     0.094 A 
ATOM      9  C   UNL     1       5.761  -3.083  19.943  1.00  0.00     0.336 A 
ATOM     10  O   UNL     1       6.432  -3.292  20.988  1.00  0.00    -0.246 OA
ATOM     11  O   UNL     1       6.389  -2.825  18.799  1.00  0.00    -0.423 OA
ENDROOT
BRANCH   1  12
ATOM     12  O   UNL     1       3.722  -1.868  14.026  1.00  0.00    -0.493 OA
ATOM     13  C   UNL     1       2.834  -0.780  13.785  1.00  0.00     0.278 C 
ENDBRANCH   1  12
BRANCH   2  14
ATOM     14  O   UNL     1       6.523  -1.827  14.140  1.00  0.00    -0.504 OA
ATOM     15  H   UNL     1       7.197  -1.072  14.095  1.00  0.00     0.293 HD
ENDBRANCH   2  14
TORSDOF 2
ENDMDL
MODEL 3
REMARK VINA RESULT:    -5.527      1.457      2.758
REMARK INTER + INTRA:          -6.065
REMARK INTER:                  -6.004
REMARK INTRA:                  -0.061
REMARK UNBOUND:                -0.053
REMARK SMILES COc1cc2ccc(=O)oc2cc1O
REMARK SMILES IDX 3 1 13 2 12 3 11 4 5 5 4 6 6 7 7 8 8 9 9 10 10 11 2 12 1 13
REMARK SMILES IDX 14 14
REMARK H PARENT 14 15
REMARK Flexibility Score: inf
ROOT
ATOM      1  C   UNL     1       6.756  -2.448  16.713  1.00  0.00     0.161 A 
ATOM      2  C   UNL     1       6.032  -2.575  17.915  1.00  0.00     0.161 A 
ATOM      3  C   UNL     1       4.639  -2.455  17.916  1.00  0.00     0.098 A 
ATOM      4  C   UNL     1       3.949  -2.207  16.726  1.00  0.00     0.142 A 
ATOM      5  C   UNL     1       4.664  -2.077  15.517  1.00  0.00     0.022 A 
ATOM      6  C   UNL     1       6.061  -2.198  15.512  1.00  0.00     0.062 A 
ATOM      7  C   UNL     1       3.946  -1.830  14.343  1.00  0.00     0.019 A 
ATOM      8  C   UNL     1       2.558  -1.718  14.399  1.00  0.00     0.094 A 
ATOM      9  C   UNL     1       1.917  -1.857  15.634  1.00  0.00     0.336 A 
ATOM     10  O   UNL     1       0.663  -1.761  15.707  1.00  0.00    -0.246 OA
ATOM     11  O   UNL     1       2.623  -2.093  16.737  1.00  0.00    -0.423 OA
ENDROOT
BRANCH   1  12
ATOM     12  O   UNL     1       8.153  -2.575  16.749  1.00  0.00    -0.493 OA
ATOM     13  C   UNL     1       9.062  -1.485  16.878  1.00  0.00     0.278 C 
ENDBRANCH   1  12
BRANCH   2  14
ATOM     14  O   UNL     1       6.685  -2.823  19.124  1.00  0.00    -0.504 OA
ATOM     15  H   UNL     1       6.524  -2.258  19.950  1.00  0.00     0.293 HD
ENDBRANCH   2  14
TORSDOF 2
ENDMDL
MODEL 4
REMARK VINA RESULT:    -5.479      2.131      2.729
REMARK INTER + INTRA:          -6.013
REMARK INTER:                  -5.969
REMARK INTRA:                  -0.044
REMARK UNBOUND:                -0.053
REMARK SMILES COc1cc2ccc(=O)oc2cc1O
REMARK SMILES IDX 3 1 13 2 12 3 11 4 5 5 4 6 6 7 7 8 8 9 9 10 10 11 2 12 1 13
REMARK SMILES IDX 14 14
REMARK H PARENT 14 15
REMARK Flexibility Score: inf
ROOT
ATOM      1  C   UNL     1       5.183  -2.229  16.136  1.00  0.00     0.161 A 
ATOM      2  C   UNL     1       5.230  -1.888  14.770  1.00  0.00     0.161 A 
ATOM      3  C   UNL     1       4.067  -1.490  14.102  1.00  0.00     0.098 A 
ATOM      4  C   UNL     1       2.847  -1.428  14.780  1.00  0.00     0.142 A 
ATOM      5  C   UNL     1       2.789  -1.768  16.148  1.00  0.00     0.022 A 
ATOM      6  C   UNL     1       3.953  -2.166  16.821  1.00  0.00     0.062 A 
ATOM      7  C   UNL     1       1.554  -1.696  16.800  1.00  0.00     0.019 A 
ATOM      8  C   UNL     1       0.426  -1.295  16.087  1.00  0.00     0.094 A 
ATOM      9  C   UNL     1       0.559  -0.973  14.732  1.00  0.00     0.336 A 
ATOM     10  O   UNL     1      -0.447  -0.606  14.070  1.00  0.00    -0.246 OA
ATOM     11  O   UNL     1       1.746  -1.049  14.136  1.00  0.00    -0.423 OA
ENDROOT
BRANCH   1  12
ATOM     12  O   UNL     1       6.369  -2.623  16.775  1.00  0.00    -0.493 OA
ATOM     13  C   UNL     1       6.550  -2.667  18.188  1.00  0.00     0.278 C 
ENDBRANCH   1  12
BRANCH   2  14
ATOM     14  O   UNL     1       6.429  -1.937  14.057  1.00  0.00    -0.504 OA
ATOM     15  H   UNL     1       6.459  -1.879  13.046  1.00  0.00     0.293 HD
ENDBRANCH   2  14
TORSDOF 2
ENDMDL
MODEL 5
REMARK VINA RESULT:    -5.419      2.413      4.963
REMARK INTER + INTRA:          -5.948
REMARK INTER:                  -5.883
REMARK INTRA:                  -0.065
REMARK UNBOUND:                -0.053
REMARK SMILES COc1cc2ccc(=O)oc2cc1O
REMARK SMILES IDX 3 1 13 2 12 3 11 4 5 5 4 6 6 7 7 8 8 9 9 10 10 11 2 12 1 13
REMARK SMILES IDX 14 14
REMARK H PARENT 14 15
REMARK Flexibility Score: inf
ROOT
ATOM      1  C   UNL     1       4.384  -3.211  20.161  1.00  0.00     0.161 A 
ATOM      2  C   UNL     1       5.784  -3.084  20.078  1.00  0.00     0.161 A 
ATOM      3  C   UNL     1       6.393  -2.773  18.857  1.00  0.00     0.098 A 
ATOM      4  C   UNL     1       5.621  -2.584  17.709  1.00  0.00     0.142 A 
ATOM      5  C   UNL     1       4.218  -2.709  17.780  1.00  0.00     0.022 A 
ATOM      6  C   UNL     1       3.604  -3.021  19.002  1.00  0.00     0.062 A 
ATOM      7  C   UNL     1       3.471  -2.515  16.614  1.00  0.00     0.019 A 
ATOM      8  C   UNL     1       4.128  -2.207  15.424  1.00  0.00     0.094 A 
ATOM      9  C   UNL     1       5.523  -2.099  15.428  1.00  0.00     0.336 A 
ATOM     10  O   UNL     1       6.136  -1.821  14.364  1.00  0.00    -0.246 OA
ATOM     11  O   UNL     1       6.209  -2.289  16.552  1.00  0.00    -0.423 OA
ENDROOT
BRANCH   1  12
ATOM     12  O   UNL     1       3.806  -3.524  21.401  1.00  0.00    -0.493 OA
ATOM     13  C   UNL     1       3.349  -4.821  21.776  1.00  0.00     0.278 C 
ENDBRANCH   1  12
BRANCH   2  14
ATOM     14  O   UNL     1       6.590  -3.265  21.202  1.00  0.00    -0.504 OA
ATOM     15  H   UNL     1       7.529  -2.888  21.261  1.00  0.00     0.293 HD
ENDBRANCH   2  14
TORSDOF 2
ENDMDL
MODEL 6
REMARK VINA RESULT:    -5.369      1.601      5.513
REMARK INTER + INTRA:          -5.893
REMARK INTER:                  -5.849
REMARK INTRA:                  -0.044
REMARK UNBOUND:                -0.053
REMARK SMILES COc1cc2ccc(=O)oc2cc1O
REMARK SMILES IDX 3 1 13 2 12 3 11 4 5 5 4 6 6 7 7 8 8 9 9 10 10 11 2 12 1 13
REMARK SMILES IDX 14 14
REMARK H PARENT 14 15
REMARK Flexibility Score: inf
ROOT
ATOM      1  C   UNL     1       3.209  -2.857  18.537  1.00  0.00     0.161 A 
ATOM      2  C   UNL     1       4.093  -3.169  19.588  1.00  0.00     0.161 A 
ATOM      3  C   UNL     1       5.475  -3.166  19.372  1.00  0.00     0.098 A 
ATOM      4  C   UNL     1       5.994  -2.854  18.113  1.00  0.00     0.142 A 
ATOM      5  C   UNL     1       5.118  -2.541  17.053  1.00  0.00     0.022 A 
ATOM      6  C   UNL     1       3.732  -2.542  17.266  1.00  0.00     0.062 A 
ATOM      7  C   UNL     1       5.667  -2.233  15.805  1.00  0.00     0.019 A 
ATOM      8  C   UNL     1       7.051  -2.246  15.643  1.00  0.00     0.094 A 
ATOM      9  C   UNL     1       7.858  -2.566  16.740  1.00  0.00     0.336 A 
ATOM     10  O   UNL     1       9.111  -2.582  16.616  1.00  0.00    -0.246 OA
ATOM     11  O   UNL     1       7.310  -2.855  17.917  1.00  0.00    -0.423 OA
ENDROOT
BRANCH   1  12
ATOM     12  O   UNL     1       1.828  -2.868  18.789  1.00  0.00    -0.493 OA
ATOM     13  C   UNL     1       0.842  -2.322  17.917  1.00  0.00     0.278 C 
ENDBRANCH   1  12
BRANCH   2  14
ATOM     14  O   UNL     1       3.613  -3.485  20.860  1.00  0.00    -0.504 OA
ATOM     15  H   UNL     1       3.073  -2.829  21.412  1.00  0.00     0.293 HD
ENDBRANCH   2  14
TORSDOF 2
ENDMDL
MODEL 7
REMARK VINA RESULT:    -5.345      2.091      3.440
REMARK INTER + INTRA:          -5.867
REMARK INTER:                  -5.813
REMARK INTRA:                  -0.054
REMARK UNBOUND:                -0.053
REMARK SMILES COc1cc2ccc(=O)oc2cc1O
REMARK SMILES IDX 3 1 13 2 12 3 11 4 5 5 4 6 6 7 7 8 8 9 9 10 10 11 2 12 1 13
REMARK SMILES IDX 14 14
REMARK H PARENT 14 15
REMARK Flexibility Score: inf
ROOT
ATOM      1  C   UNL     1       5.958  -2.700  18.197  1.00  0.00     0.161 A 
ATOM      2  C   UNL     1       6.931  -2.505  17.196  1.00  0.00     0.161 A 
ATOM      3  C   UNL     1       6.544  -2.203  15.886  1.00  0.00     0.098 A 
ATOM      4  C   UNL     1       5.191  -2.092  15.555  1.00  0.00     0.142 A 
ATOM      5  C   UNL     1       4.209  -2.285  16.549  1.00  0.00     0.022 A 
ATOM      6  C   UNL     1       4.593  -2.587  17.864  1.00  0.00     0.062 A 
ATOM      7  C   UNL     1       2.864  -2.167  16.188  1.00  0.00     0.019 A 
ATOM      8  C   UNL     1       2.533  -1.865  14.868  1.00  0.00     0.094 A 
ATOM      9  C   UNL     1       3.560  -1.687  13.936  1.00  0.00     0.336 A 
ATOM     10  O   UNL     1       3.283  -1.413  12.739  1.00  0.00    -0.246 OA
ATOM     11  O   UNL     1       4.833  -1.805  14.306  1.00  0.00    -0.423 OA
ENDROOT
BRANCH   1  12
ATOM     12  O   UNL     1       6.382  -3.001  19.501  1.00  0.00    -0.493 OA
ATOM     13  C   UNL     1       5.986  -2.282  20.666  1.00  0.00     0.278 C 
ENDBRANCH   1  12
BRANCH   2  14
ATOM     14  O   UNL     1       8.292  -2.608  17.487  1.00  0.00    -0.504 OA
ATOM     15  H   UNL     1       8.893  -3.281  17.027  1.00  0.00     0.293 HD
ENDBRANCH   2  14
TORSDOF 2
ENDMDL
MODEL 8
REMARK VINA RESULT:    -5.309      1.194      4.840
REMARK INTER + INTRA:          -5.827
REMARK INTER:                  -5.782
REMARK INTRA:                  -0.045
REMARK UNBOUND:                -0.053
REMARK SMILES COc1cc2ccc(=O)oc2cc1O
REMARK SMILES IDX 3 1 13 2 12 3 11 4 5 5 4 6 6 7 7 8 8 9 9 10 10 11 2 12 1 13
REMARK SMILES IDX 14 14
REMARK H PARENT 14 15
REMARK Flexibility Score: inf
ROOT
ATOM      1  C   UNL     1       2.283  -2.624  17.037  1.00  0.00     0.161 A 
ATOM      2  C   UNL     1       2.527  -2.368  15.674  1.00  0.00     0.161 A 
ATOM      3  C   UNL     1       3.838  -2.228  15.206  1.00  0.00     0.098 A 
ATOM      4  C   UNL     1       4.918  -2.341  16.084  1.00  0.00     0.142 A 
ATOM      5  C   UNL     1       4.686  -2.597  17.451  1.00  0.00     0.022 A 
ATOM      6  C   UNL     1       3.373  -2.738  17.924  1.00  0.00     0.062 A 
ATOM      7  C   UNL     1       5.787  -2.705  18.305  1.00  0.00     0.019 A 
ATOM      8  C   UNL     1       7.073  -2.557  17.787  1.00  0.00     0.094 A 
ATOM      9  C   UNL     1       7.227  -2.304  16.420  1.00  0.00     0.336 A 
ATOM     10  O   UNL     1       8.380  -2.168  15.932  1.00  0.00    -0.246 OA
ATOM     11  O   UNL     1       6.162  -2.206  15.629  1.00  0.00    -0.423 OA
ENDROOT
BRANCH   1  12
ATOM     12  O   UNL     1       0.955  -2.759  17.473  1.00  0.00    -0.493 OA
ATOM     13  C   UNL     1       0.500  -2.450  18.787  1.00  0.00     0.278 C 
ENDBRANCH   1  12
BRANCH   2  14
ATOM     14  O   UNL     1       1.474  -2.248  14.765  1.00  0.00    -0.504 OA
ATOM     15  H   UNL     1       0.566  -1.887  15.035  1.00  0.00     0.293 HD
ENDBRANCH   2  14
TORSDOF 2
ENDMDL
MODEL 9
REMARK VINA RESULT:    -5.199      2.373      3.604
REMARK INTER + INTRA:          -5.708
REMARK INTER:                  -5.655
REMARK INTRA:                  -0.054
REMARK UNBOUND:                -0.053
REMARK SMILES COc1cc2ccc(=O)oc2cc1O
REMARK SMILES IDX 3 1 13 2 12 3 11 4 5 5 4 6 6 7 7 8 8 9 9 10 10 11 2 12 1 13
REMARK SMILES IDX 14 14
REMARK H PARENT 14 15
REMARK Flexibility Score: inf
ROOT
ATOM      1  C   UNL     1       5.753  -2.561  18.694  1.00  0.00     0.161 A 
ATOM      2  C   UNL     1       5.628  -3.123  19.980  1.00  0.00     0.161 A 
ATOM      3  C   UNL     1       4.438  -3.751  20.363  1.00  0.00     0.098 A 
ATOM      4  C   UNL     1       3.361  -3.827  19.476  1.00  0.00     0.142 A 
ATOM      5  C   UNL     1       3.475  -3.267  18.187  1.00  0.00     0.022 A 
ATOM      6  C   UNL     1       4.666  -2.638  17.799  1.00  0.00     0.062 A 
ATOM      7  C   UNL     1       2.380  -3.359  17.322  1.00  0.00     0.019 A 
ATOM      8  C   UNL     1       1.217  -3.994  17.754  1.00  0.00     0.094 A 
ATOM      9  C   UNL     1       1.176  -4.526  19.047  1.00  0.00     0.336 A 
ATOM     10  O   UNL     1       0.136  -5.105  19.456  1.00  0.00    -0.246 OA
ATOM     11  O   UNL     1       2.232  -4.426  19.850  1.00  0.00    -0.423 OA
ENDROOT
BRANCH   1  12
ATOM     12  O   UNL     1       6.961  -1.939  18.343  1.00  0.00    -0.493 OA
ATOM     13  C   UNL     1       7.722  -2.250  17.179  1.00  0.00     0.278 C 
ENDBRANCH   1  12
BRANCH   2  14
ATOM     14  O   UNL     1       6.681  -3.068  20.894  1.00  0.00    -0.504 OA
ATOM     15  H   UNL     1       6.709  -3.652  21.721  1.00  0.00     0.293 HD
ENDBRANCH   2  14
TORSDOF 2
ENDMDL
