MODEL 1
REMARK VINA RESULT:    -4.506      0.000      0.000
REMARK INTER + INTRA:          -5.741
REMARK INTER:                  -5.559
REMARK INTRA:                  -0.182
REMARK UNBOUND:                -0.182
REMARK SMILES Oc1cc(O)c2cc(O)c(-c3cc(O)c(O)c(O)c3)[o+]c2c1
REMARK SMILES IDX 10 1 20 2 21 3 22 4 2 5 3 6 4 7 6 8 7 9 8 10 11 11 12 12
REMARK SMILES IDX 13 13 19 14 15 15 17 16 14 17 16 19 18 21 9 23 1 25 5 27
REMARK H PARENT 14 18 16 20 18 22 9 24 1 26 5 28
REMARK Flexibility Score: inf
ROOT
ATOM      1  C   UNL     1       4.312  13.472  32.372  1.00  0.00     0.402 A 
ATOM      2  O   UNL     1       4.546  12.375  33.091  1.00  0.00    -0.202 OA
ATOM      3  C   UNL     1       5.449  12.324  34.065  1.00  0.00     0.368 A 
ATOM      4  C   UNL     1       5.632  11.136  34.778  1.00  0.00     0.162 A 
ATOM      5  C   UNL     1       6.575  11.068  35.807  1.00  0.00     0.128 A 
ATOM      6  C   UNL     1       7.342  12.197  36.128  1.00  0.00     0.093 A 
ATOM      7  C   UNL     1       7.170  13.397  35.421  1.00  0.00     0.136 A 
ATOM      8  C   UNL     1       6.220  13.463  34.384  1.00  0.00     0.125 A 
ATOM      9  C   UNL     1       6.012  14.631  33.641  1.00  0.00     0.078 A 
ATOM     10  C   UNL     1       5.060  14.641  32.618  1.00  0.00     0.223 A 
ENDROOT
BRANCH   1  11
ATOM     11  C   UNL     1       3.273  13.409  31.318  1.00  0.00     0.091 A 
ATOM     12  C   UNL     1       3.588  13.629  29.966  1.00  0.00     0.068 A 
ATOM     13  C   UNL     1       2.587  13.587  28.986  1.00  0.00     0.162 A 
ATOM     14  C   UNL     1       1.936  13.182  31.680  1.00  0.00     0.068 A 
ATOM     15  C   UNL     1       1.255  13.337  29.356  1.00  0.00     0.200 A 
ATOM     16  C   UNL     1       0.932  13.137  30.704  1.00  0.00     0.162 A 
BRANCH  13  17
ATOM     17  O   UNL     1       2.910  13.800  27.646  1.00  0.00    -0.504 OA
ATOM     18  H   UNL     1       3.638  14.449  27.372  1.00  0.00     0.293 HD
ENDBRANCH  13  17
BRANCH  15  19
ATOM     19  O   UNL     1       0.241  13.286  28.398  1.00  0.00    -0.502 OA
ATOM     20  H   UNL     1      -0.077  14.112  27.907  1.00  0.00     0.293 HD
ENDBRANCH  15  19
BRANCH  16  21
ATOM     21  O   UNL     1      -0.392  12.897  31.068  1.00  0.00    -0.504 OA
ATOM     22  H   UNL     1      -0.874  13.485  31.737  1.00  0.00     0.293 HD
ENDBRANCH  16  21
ENDBRANCH   1  11
BRANCH  10  23
ATOM     23  O   UNL     1       4.883  15.785  31.840  1.00  0.00    -0.500 OA
ATOM     24  H   UNL     1       5.287  15.866  30.914  1.00  0.00     0.294 HD
ENDBRANCH  10  23
BRANCH   5  25
ATOM     25  O   UNL     1       6.744   9.875  36.507  1.00  0.00    -0.507 OA
ATOM     26  H   UNL     1       7.444   9.195  36.233  1.00  0.00     0.293 HD
ENDBRANCH   5  25
BRANCH   7  27
ATOM     27  O   UNL     1       7.940  14.514  35.748  1.00  0.00    -0.507 OA
ATOM     28  H   UNL     1       8.949  14.510  35.650  1.00  0.00     0.293 HD
ENDBRANCH   7  27
TORSDOF 7
ENDMDL
MODEL 2
REMARK VINA RESULT:    -4.252      1.130      2.615
REMARK INTER + INTRA:          -5.429
REMARK INTER:                  -5.172
REMARK INTRA:                  -0.257
REMARK UNBOUND:                -0.182
REMARK SMILES Oc1cc(O)c2cc(O)c(-c3cc(O)c(O)c(O)c3)[o+]c2c1
REMARK SMILES IDX 10 1 20 2 21 3 22 4 2 5 3 6 4 7 6 8 7 9 8 10 11 11 12 12
REMARK SMILES IDX 13 13 19 14 15 15 17 16 14 17 16 19 18 21 9 23 1 25 5 27
REMARK H PARENT 14 18 16 20 18 22 9 24 1 26 5 28
REMARK Flexibility Score: inf
ROOT
ATOM      1  C   UNL     1       3.758  12.237  32.124  1.00  0.00     0.402 A 
ATOM      2  O   UNL     1       4.555  13.131  32.708  1.00  0.00    -0.202 OA
ATOM      3  C   UNL     1       5.400  12.822  33.687  1.00  0.00     0.368 A 
ATOM      4  C   UNL     1       6.207  13.819  34.244  1.00  0.00     0.162 A 
ATOM      5  C   UNL     1       7.103  13.508  35.272  1.00  0.00     0.128 A 
ATOM      6  C   UNL     1       7.194  12.192  35.746  1.00  0.00     0.093 A 
ATOM      7  C   UNL     1       6.390  11.182  35.197  1.00  0.00     0.136 A 
ATOM      8  C   UNL     1       5.488  11.496  34.162  1.00  0.00     0.125 A 
ATOM      9  C   UNL     1       4.657  10.531  33.583  1.00  0.00     0.078 A 
ATOM     10  C   UNL     1       3.775  10.897  32.563  1.00  0.00     0.223 A 
ENDROOT
BRANCH   1  11
ATOM     11  C   UNL     1       2.865  12.699  31.037  1.00  0.00     0.091 A 
ATOM     12  C   UNL     1       3.378  13.132  29.803  1.00  0.00     0.068 A 
ATOM     13  C   UNL     1       2.519  13.587  28.794  1.00  0.00     0.162 A 
ATOM     14  C   UNL     1       1.481  12.761  31.262  1.00  0.00     0.068 A 
ATOM     15  C   UNL     1       1.132  13.624  29.020  1.00  0.00     0.200 A 
ATOM     16  C   UNL     1       0.616  13.213  30.255  1.00  0.00     0.162 A 
BRANCH  13  17
ATOM     17  O   UNL     1       3.036  14.008  27.569  1.00  0.00    -0.504 OA
ATOM     18  H   UNL     1       3.762  14.713  27.515  1.00  0.00     0.293 HD
ENDBRANCH  13  17
BRANCH  15  19
ATOM     19  O   UNL     1       0.255  14.068  28.030  1.00  0.00    -0.502 OA
ATOM     20  H   UNL     1      -0.739  13.874  28.064  1.00  0.00     0.293 HD
ENDBRANCH  15  19
BRANCH  16  21
ATOM     21  O   UNL     1      -0.759  13.259  30.479  1.00  0.00    -0.504 OA
ATOM     22  H   UNL     1      -1.276  12.441  30.777  1.00  0.00     0.293 HD
ENDBRANCH  16  21
ENDBRANCH   1  11
BRANCH  10  23
ATOM     23  O   UNL     1       2.907   9.951  32.016  1.00  0.00    -0.500 OA
ATOM     24  H   UNL     1       1.949   9.862  32.333  1.00  0.00     0.294 HD
ENDBRANCH  10  23
BRANCH   5  25
ATOM     25  O   UNL     1       7.899  14.514  35.816  1.00  0.00    -0.507 OA
ATOM     26  H   UNL     1       8.910  14.468  35.777  1.00  0.00     0.293 HD
ENDBRANCH   5  25
BRANCH   7  27
ATOM     27  O   UNL     1       6.488   9.875  35.678  1.00  0.00    -0.507 OA
ATOM     28  H   UNL     1       7.092   9.191  35.237  1.00  0.00     0.293 HD
ENDBRANCH   7  27
TORSDOF 7
ENDMDL
MODEL 3
REMARK VINA RESULT:    -2.489      1.559      7.207
REMARK INTER + INTRA:          -3.253
REMARK INTER:                  -3.204
REMARK INTRA:                  -0.049
REMARK UNBOUND:                -0.182
REMARK SMILES Oc1cc(O)c2cc(O)c(-c3cc(O)c(O)c(O)c3)[o+]c2c1
REMARK SMILES IDX 10 1 20 2 21 3 22 4 2 5 3 6 4 7 6 8 7 9 8 10 11 11 12 12
REMARK SMILES IDX 13 13 19 14 15 15 17 16 14 17 16 19 18 21 9 23 1 25 5 27
REMARK H PARENT 14 18 16 20 18 22 9 24 1 26 5 28
REMARK Flexibility Score: inf
ROOT
ATOM      1  C   UNL     1       4.091  12.848  31.800  1.00  0.00     0.402 A 
ATOM      2  O   UNL     1       4.746  13.315  30.737  1.00  0.00    -0.202 OA
ATOM      3  C   UNL     1       4.157  13.562  29.572  1.00  0.00     0.368 A 
ATOM      4  C   UNL     1       4.915  14.056  28.506  1.00  0.00     0.162 A 
ATOM      5  C   UNL     1       4.308  14.325  27.275  1.00  0.00     0.128 A 
ATOM      6  C   UNL     1       2.935  14.099  27.108  1.00  0.00     0.093 A 
ATOM      7  C   UNL     1       2.162  13.602  28.168  1.00  0.00     0.136 A 
ATOM      8  C   UNL     1       2.774  13.332  29.408  1.00  0.00     0.125 A 
ATOM      9  C   UNL     1       2.055  12.829  30.497  1.00  0.00     0.078 A 
ATOM     10  C   UNL     1       2.712  12.572  31.703  1.00  0.00     0.223 A 
ENDROOT
BRANCH   1  11
ATOM     11  C   UNL     1       4.855  12.620  33.048  1.00  0.00     0.091 A 
ATOM     12  C   UNL     1       5.687  13.614  33.589  1.00  0.00     0.068 A 
ATOM     13  C   UNL     1       6.419  13.371  34.760  1.00  0.00     0.162 A 
ATOM     14  C   UNL     1       4.791  11.365  33.676  1.00  0.00     0.068 A 
ATOM     15  C   UNL     1       6.332  12.120  35.393  1.00  0.00     0.200 A 
ATOM     16  C   UNL     1       5.520  11.118  34.847  1.00  0.00     0.162 A 
BRANCH  13  17
ATOM     17  O   UNL     1       7.238  14.366  35.293  1.00  0.00    -0.504 OA
ATOM     18  H   UNL     1       7.668  15.070  34.705  1.00  0.00     0.293 HD
ENDBRANCH  13  17
BRANCH  15  19
ATOM     19  O   UNL     1       7.047  11.855  36.561  1.00  0.00    -0.502 OA
ATOM     20  H   UNL     1       8.056  11.770  36.567  1.00  0.00     0.293 HD
ENDBRANCH  15  19
BRANCH  16  21
ATOM     21  O   UNL     1       5.442   9.875  35.474  1.00  0.00    -0.504 OA
ATOM     22  H   UNL     1       5.425   9.013  34.943  1.00  0.00     0.293 HD
ENDBRANCH  16  21
ENDBRANCH   1  11
BRANCH  10  23
ATOM     23  O   UNL     1       2.012  12.023  32.778  1.00  0.00    -0.500 OA
ATOM     24  H   UNL     1       1.056  11.703  32.682  1.00  0.00     0.294 HD
ENDBRANCH  10  23
BRANCH   5  25
ATOM     25  O   UNL     1       5.078  14.817  26.223  1.00  0.00    -0.507 OA
ATOM     26  H   UNL     1       5.713  14.219  25.706  1.00  0.00     0.293 HD
ENDBRANCH   5  25
BRANCH   7  27
ATOM     27  O   UNL     1       0.796  13.379  27.990  1.00  0.00    -0.507 OA
ATOM     28  H   UNL     1       0.450  12.746  27.279  1.00  0.00     0.293 HD
ENDBRANCH   7  27
TORSDOF 7
ENDMDL
MODEL 4
REMARK VINA RESULT:    -2.409      1.545      7.317
REMARK INTER + INTRA:          -3.154
REMARK INTER:                  -3.107
REMARK INTRA:                  -0.047
REMARK UNBOUND:                -0.182
REMARK SMILES Oc1cc(O)c2cc(O)c(-c3cc(O)c(O)c(O)c3)[o+]c2c1
REMARK SMILES IDX 10 1 20 2 21 3 22 4 2 5 3 6 4 7 6 8 7 9 8 10 11 11 12 12
REMARK SMILES IDX 13 13 19 14 15 15 17 16 14 17 16 19 18 21 9 23 1 25 5 27
REMARK H PARENT 14 18 16 20 18 22 9 24 1 26 5 28
REMARK Flexibility Score: inf
ROOT
ATOM      1  C   UNL     1       4.074  12.783  31.793  1.00  0.00     0.402 A 
ATOM      2  O   UNL     1       4.709  13.258  30.722  1.00  0.00    -0.202 OA
ATOM      3  C   UNL     1       4.096  13.525  29.573  1.00  0.00     0.368 A 
ATOM      4  C   UNL     1       4.834  14.028  28.497  1.00  0.00     0.162 A 
ATOM      5  C   UNL     1       4.202  14.317  27.284  1.00  0.00     0.128 A 
ATOM      6  C   UNL     1       2.823  14.105  27.145  1.00  0.00     0.093 A 
ATOM      7  C   UNL     1       2.071  13.601  28.216  1.00  0.00     0.136 A 
ATOM      8  C   UNL     1       2.708  13.309  29.438  1.00  0.00     0.125 A 
ATOM      9  C   UNL     1       2.009  12.797  30.536  1.00  0.00     0.078 A 
ATOM     10  C   UNL     1       2.691  12.519  31.724  1.00  0.00     0.223 A 
ENDROOT
BRANCH   1  11
ATOM     11  C   UNL     1       4.863  12.532  33.021  1.00  0.00     0.091 A 
ATOM     12  C   UNL     1       4.782  11.307  33.706  1.00  0.00     0.068 A 
ATOM     13  C   UNL     1       5.519  11.097  34.879  1.00  0.00     0.162 A 
ATOM     14  C   UNL     1       5.667  13.556  33.545  1.00  0.00     0.068 A 
ATOM     15  C   UNL     1       6.339  12.121  35.384  1.00  0.00     0.200 A 
ATOM     16  C   UNL     1       6.408  13.350  34.717  1.00  0.00     0.162 A 
BRANCH  13  17
ATOM     17  O   UNL     1       5.438   9.876  35.548  1.00  0.00    -0.504 OA
ATOM     18  H   UNL     1       4.945   9.787  36.429  1.00  0.00     0.293 HD
ENDBRANCH  13  17
BRANCH  15  19
ATOM     19  O   UNL     1       7.086  11.934  36.547  1.00  0.00    -0.502 OA
ATOM     20  H   UNL     1       6.774  11.328  37.296  1.00  0.00     0.293 HD
ENDBRANCH  15  19
BRANCH  16  21
ATOM     21  O   UNL     1       7.215  14.366  35.225  1.00  0.00    -0.504 OA
ATOM     22  H   UNL     1       7.124  15.325  34.911  1.00  0.00     0.293 HD
ENDBRANCH  16  21
ENDBRANCH   1  11
BRANCH  10  23
ATOM     23  O   UNL     1       2.010  11.961  32.806  1.00  0.00    -0.500 OA
ATOM     24  H   UNL     1       2.503  11.583  33.607  1.00  0.00     0.294 HD
ENDBRANCH  10  23
BRANCH   5  25
ATOM     25  O   UNL     1       4.952  14.817  26.222  1.00  0.00    -0.507 OA
ATOM     26  H   UNL     1       5.966  14.801  26.235  1.00  0.00     0.293 HD
ENDBRANCH   5  25
BRANCH   7  27
ATOM     27  O   UNL     1       0.699  13.391  28.066  1.00  0.00    -0.507 OA
ATOM     28  H   UNL     1       0.132  13.027  28.823  1.00  0.00     0.293 HD
ENDBRANCH   7  27
TORSDOF 7
ENDMDL
MODEL 5
REMARK VINA RESULT:    -2.315      1.556      6.933
REMARK INTER + INTRA:          -3.038
REMARK INTER:                  -3.105
REMARK INTRA:                   0.067
REMARK UNBOUND:                -0.182
REMARK SMILES Oc1cc(O)c2cc(O)c(-c3cc(O)c(O)c(O)c3)[o+]c2c1
REMARK SMILES IDX 10 1 20 2 21 3 22 4 2 5 3 6 4 7 6 8 7 9 8 10 11 11 12 12
REMARK SMILES IDX 13 13 19 14 15 15 17 16 14 17 16 19 18 21 9 23 1 25 5 27
REMARK H PARENT 14 18 16 20 18 22 9 24 1 26 5 28
REMARK Flexibility Score: inf
ROOT
ATOM      1  C   UNL     1       4.886  12.884  32.866  1.00  0.00     0.402 A 
ATOM      2  O   UNL     1       4.692  11.872  32.020  1.00  0.00    -0.202 OA
ATOM      3  C   UNL     1       3.998  11.990  30.893  1.00  0.00     0.368 A 
ATOM      4  C   UNL     1       3.845  10.881  30.056  1.00  0.00     0.162 A 
ATOM      5  C   UNL     1       3.121  10.991  28.865  1.00  0.00     0.128 A 
ATOM      6  C   UNL     1       2.546  12.218  28.507  1.00  0.00     0.093 A 
ATOM      7  C   UNL     1       2.691  13.340  29.337  1.00  0.00     0.136 A 
ATOM      8  C   UNL     1       3.421  13.228  30.536  1.00  0.00     0.125 A 
ATOM      9  C   UNL     1       3.590  14.311  31.406  1.00  0.00     0.078 A 
ATOM     10  C   UNL     1       4.318  14.144  32.587  1.00  0.00     0.223 A 
ENDROOT
BRANCH   1  11
ATOM     11  C   UNL     1       5.685  12.633  34.087  1.00  0.00     0.091 A 
ATOM     12  C   UNL     1       6.569  13.599  34.595  1.00  0.00     0.068 A 
ATOM     13  C   UNL     1       7.333  13.335  35.740  1.00  0.00     0.162 A 
ATOM     14  C   UNL     1       5.601  11.383  34.720  1.00  0.00     0.068 A 
ATOM     15  C   UNL     1       7.227  12.088  36.380  1.00  0.00     0.200 A 
ATOM     16  C   UNL     1       6.362  11.113  35.866  1.00  0.00     0.162 A 
BRANCH  13  17
ATOM     17  O   UNL     1       8.203  14.302  36.240  1.00  0.00    -0.504 OA
ATOM     18  H   UNL     1       8.143  14.624  37.200  1.00  0.00     0.293 HD
ENDBRANCH  13  17
BRANCH  15  19
ATOM     19  O   UNL     1       7.973  11.802  37.523  1.00  0.00    -0.502 OA
ATOM     20  H   UNL     1       8.438  12.526  38.058  1.00  0.00     0.293 HD
ENDBRANCH  15  19
BRANCH  16  21
ATOM     21  O   UNL     1       6.265   9.875  36.499  1.00  0.00    -0.504 OA
ATOM     22  H   UNL     1       5.467   9.633  37.073  1.00  0.00     0.293 HD
ENDBRANCH  16  21
ENDBRANCH   1  11
BRANCH  10  23
ATOM     23  O   UNL     1       4.448  15.205  33.484  1.00  0.00    -0.500 OA
ATOM     24  H   UNL     1       5.138  15.934  33.348  1.00  0.00     0.294 HD
ENDBRANCH  10  23
BRANCH   5  25
ATOM     25  O   UNL     1       2.979   9.875  28.043  1.00  0.00    -0.507 OA
ATOM     26  H   UNL     1       3.460   9.807  27.153  1.00  0.00     0.293 HD
ENDBRANCH   5  25
BRANCH   7  27
ATOM     27  O   UNL     1       2.113  14.556  28.971  1.00  0.00    -0.507 OA
ATOM     28  H   UNL     1       1.888  14.769  28.006  1.00  0.00     0.293 HD
ENDBRANCH   7  27
TORSDOF 7
ENDMDL
MODEL 6
REMARK VINA RESULT:    -2.213      1.591      7.064
REMARK INTER + INTRA:          -2.912
REMARK INTER:                  -3.046
REMARK INTRA:                   0.134
REMARK UNBOUND:                -0.182
REMARK SMILES Oc1cc(O)c2cc(O)c(-c3cc(O)c(O)c(O)c3)[o+]c2c1
REMARK SMILES IDX 10 1 20 2 21 3 22 4 2 5 3 6 4 7 6 8 7 9 8 10 11 11 12 12
REMARK SMILES IDX 13 13 19 14 15 15 17 16 14 17 16 19 18 21 9 23 1 25 5 27
REMARK H PARENT 14 18 16 20 18 22 9 24 1 26 5 28
REMARK Flexibility Score: inf
ROOT
ATOM      1  C   UNL     1       4.931  12.803  32.967  1.00  0.00     0.402 A 
ATOM      2  O   UNL     1       4.721  11.804  32.110  1.00  0.00    -0.202 OA
ATOM      3  C   UNL     1       4.020  11.943  30.989  1.00  0.00     0.368 A 
ATOM      4  C   UNL     1       3.849  10.846  30.140  1.00  0.00     0.162 A 
ATOM      5  C   UNL     1       3.117  10.979  28.955  1.00  0.00     0.128 A 
ATOM      6  C   UNL     1       2.553  12.217  28.617  1.00  0.00     0.093 A 
ATOM      7  C   UNL     1       2.715  13.326  29.460  1.00  0.00     0.136 A 
ATOM      8  C   UNL     1       3.453  13.191  30.653  1.00  0.00     0.125 A 
ATOM      9  C   UNL     1       3.640  14.261  31.535  1.00  0.00     0.078 A 
ATOM     10  C   UNL     1       4.375  14.072  32.708  1.00  0.00     0.223 A 
ENDROOT
BRANCH   1  11
ATOM     11  C   UNL     1       5.737  12.528  34.179  1.00  0.00     0.091 A 
ATOM     12  C   UNL     1       5.615  11.316  34.879  1.00  0.00     0.068 A 
ATOM     13  C   UNL     1       6.370  11.083  36.037  1.00  0.00     0.162 A 
ATOM     14  C   UNL     1       6.600  13.519  34.672  1.00  0.00     0.068 A 
ATOM     15  C   UNL     1       7.248  12.073  36.511  1.00  0.00     0.200 A 
ATOM     16  C   UNL     1       7.359  13.291  35.828  1.00  0.00     0.162 A 
BRANCH  13  17
ATOM     17  O   UNL     1       6.247   9.875  36.722  1.00  0.00    -0.504 OA
ATOM     18  H   UNL     1       5.341   9.503  36.984  1.00  0.00     0.293 HD
ENDBRANCH  13  17
BRANCH  15  19
ATOM     19  O   UNL     1       8.013  11.864  37.658  1.00  0.00    -0.502 OA
ATOM     20  H   UNL     1       8.315  10.940  37.943  1.00  0.00     0.293 HD
ENDBRANCH  15  19
BRANCH  16  21
ATOM     21  O   UNL     1       8.224  14.273  36.306  1.00  0.00    -0.504 OA
ATOM     22  H   UNL     1       8.662  14.198  37.216  1.00  0.00     0.293 HD
ENDBRANCH  16  21
ENDBRANCH   1  11
BRANCH  10  23
ATOM     23  O   UNL     1       4.523  15.120  33.617  1.00  0.00    -0.500 OA
ATOM     24  H   UNL     1       5.349  15.706  33.623  1.00  0.00     0.294 HD
ENDBRANCH  10  23
BRANCH   5  25
ATOM     25  O   UNL     1       2.957   9.875  28.121  1.00  0.00    -0.507 OA
ATOM     26  H   UNL     1       2.179   9.235  28.232  1.00  0.00     0.293 HD
ENDBRANCH   5  25
BRANCH   7  27
ATOM     27  O   UNL     1       2.147  14.553  29.115  1.00  0.00    -0.507 OA
ATOM     28  H   UNL     1       2.678  15.415  29.160  1.00  0.00     0.293 HD
ENDBRANCH   7  27
TORSDOF 7
ENDMDL
