MODEL 1
REMARK VINA RESULT:    -4.870      0.000      0.000
REMARK INTER + INTRA:         -13.703
REMARK INTER:                 -10.564
REMARK INTRA:                  -3.138
REMARK UNBOUND:                -3.138
REMARK SMILES CCCCCCCCCCCCCCCCCCCCCC(=O)[O-]
REMARK SMILES IDX 12 1 11 2 10 3 9 4 8 5 7 6 6 7 5 8 4 9 3 10 2 11 1 12 13 13
REMARK SMILES IDX 14 14 15 15 16 16 17 17 18 18 19 19 20 20 21 21 22 22 23 23
REMARK SMILES IDX 24 24
REMARK H PARENT
REMARK Flexibility Score: inf
ROOT
ATOM      1  C   UNL     1      60.338  30.013  11.091  1.00  0.00     0.000 C 
ENDROOT
BRANCH   1   2
ATOM      2  C   UNL     1      60.660  29.734   9.615  1.00  0.00     0.000 C 
BRANCH   2   3
ATOM      3  C   UNL     1      61.351  28.375   9.402  1.00  0.00     0.000 C 
BRANCH   3   4
ATOM      4  C   UNL     1      62.803  28.460   8.886  1.00  0.00    -0.000 C 
BRANCH   4   5
ATOM      5  C   UNL     1      63.765  29.273   9.775  1.00  0.00    -0.000 C 
BRANCH   5   6
ATOM      6  C   UNL     1      64.926  29.950   9.025  1.00  0.00    -0.000 C 
BRANCH   6   7
ATOM      7  C   UNL     1      65.334  31.293   9.649  1.00  0.00    -0.000 C 
BRANCH   7   8
ATOM      8  C   UNL     1      64.522  31.584  10.917  1.00  0.00    -0.000 C 
BRANCH   8   9
ATOM      9  C   UNL     1      65.173  32.705  11.737  1.00  0.00    -0.000 C 
BRANCH   9  10
ATOM     10  C   UNL     1      64.312  33.069  12.955  1.00  0.00    -0.000 C 
BRANCH  10  11
ATOM     11  C   UNL     1      65.138  33.194  14.246  1.00  0.00    -0.003 C 
ATOM     12  C   UNL     1      65.615  31.841  14.779  1.00  0.00     0.004 C 
ENDBRANCH  10  11
ENDBRANCH   9  10
ENDBRANCH   8   9
ENDBRANCH   7   8
ENDBRANCH   6   7
ENDBRANCH   5   6
ENDBRANCH   4   5
ENDBRANCH   3   4
ENDBRANCH   2   3
ENDBRANCH   1   2
BRANCH   1  13
ATOM     13  C   UNL     1      60.198  28.707  11.882  1.00  0.00     0.000 C 
BRANCH  13  14
ATOM     14  C   UNL     1      61.268  28.609  12.979  1.00  0.00     0.000 C 
BRANCH  14  15
ATOM     15  C   UNL     1      62.091  29.903  13.126  1.00  0.00     0.000 C 
BRANCH  15  16
ATOM     16  C   UNL     1      62.264  30.397  14.577  1.00  0.00     0.000 C 
BRANCH  16  17
ATOM     17  C   UNL     1      61.175  31.375  15.057  1.00  0.00     0.000 C 
BRANCH  17  18
ATOM     18  C   UNL     1      60.749  32.375  13.968  1.00  0.00     0.000 C 
BRANCH  18  19
ATOM     19  C   UNL     1      60.988  33.835  14.387  1.00  0.00     0.000 C 
BRANCH  19  20
ATOM     20  C   UNL     1      61.857  33.949  15.649  1.00  0.00     0.006 C 
BRANCH  20  21
ATOM     21  C   UNL     1      61.111  34.692  16.763  1.00  0.00     0.053 C 
BRANCH  21  22
ATOM     22  C   UNL     1      61.903  34.661  18.031  1.00  0.00     0.041 C 
ATOM     23  O   UNL     1      63.025  35.231  18.094  1.00  0.00    -0.550 OA
ATOM     24  O   UNL     1      61.424  33.960  19.132  1.00  0.00    -0.550 OA
ENDBRANCH  21  22
ENDBRANCH  20  21
ENDBRANCH  19  20
ENDBRANCH  18  19
ENDBRANCH  17  18
ENDBRANCH  16  17
ENDBRANCH  15  16
ENDBRANCH  14  15
ENDBRANCH  13  14
ENDBRANCH   1  13
TORSDOF 20
ENDMDL
MODEL 2
REMARK VINA RESULT:    -4.721      1.215      4.106
REMARK INTER + INTRA:         -13.380
REMARK INTER:                  -9.677
REMARK INTRA:                  -3.703
REMARK UNBOUND:                -3.138
REMARK SMILES CCCCCCCCCCCCCCCCCCCCCC(=O)[O-]
REMARK SMILES IDX 12 1 11 2 10 3 9 4 8 5 7 6 6 7 5 8 4 9 3 10 2 11 1 12 13 13
REMARK SMILES IDX 14 14 15 15 16 16 17 17 18 18 19 19 20 20 21 21 22 22 23 23
REMARK SMILES IDX 24 24
REMARK H PARENT
REMARK Flexibility Score: inf
ROOT
ATOM      1  C   UNL     1      64.490  31.710  14.380  1.00  0.00     0.000 C 
ENDROOT
BRANCH   1   2
ATOM      2  C   UNL     1      64.941  32.835  13.436  1.00  0.00     0.000 C 
BRANCH   2   3
ATOM      3  C   UNL     1      64.483  32.615  11.982  1.00  0.00     0.000 C 
BRANCH   3   4
ATOM      4  C   UNL     1      65.591  32.779  10.921  1.00  0.00    -0.000 C 
BRANCH   4   5
ATOM      5  C   UNL     1      65.433  31.890   9.671  1.00  0.00    -0.000 C 
BRANCH   5   6
ATOM      6  C   UNL     1      64.880  30.479   9.944  1.00  0.00    -0.000 C 
BRANCH   6   7
ATOM      7  C   UNL     1      63.632  30.158   9.107  1.00  0.00    -0.000 C 
BRANCH   7   8
ATOM      8  C   UNL     1      62.380  30.075   9.989  1.00  0.00    -0.000 C 
BRANCH   8   9
ATOM      9  C   UNL     1      61.868  28.632  10.076  1.00  0.00    -0.000 C 
BRANCH   9  10
ATOM     10  C   UNL     1      60.334  28.593  10.126  1.00  0.00    -0.000 C 
BRANCH  10  11
ATOM     11  C   UNL     1      59.778  28.986  11.505  1.00  0.00    -0.003 C 
ATOM     12  C   UNL     1      60.035  27.923  12.574  1.00  0.00     0.004 C 
ENDBRANCH  10  11
ENDBRANCH   9  10
ENDBRANCH   8   9
ENDBRANCH   7   8
ENDBRANCH   6   7
ENDBRANCH   5   6
ENDBRANCH   4   5
ENDBRANCH   3   4
ENDBRANCH   2   3
ENDBRANCH   1   2
BRANCH   1  13
ATOM     13  C   UNL     1      64.427  30.365  13.644  1.00  0.00     0.000 C 
BRANCH  13  14
ATOM     14  C   UNL     1      62.974  29.896  13.479  1.00  0.00     0.000 C 
BRANCH  14  15
ATOM     15  C   UNL     1      62.076  30.310  14.661  1.00  0.00     0.000 C 
BRANCH  15  16
ATOM     16  C   UNL     1      60.811  31.100  14.265  1.00  0.00     0.000 C 
BRANCH  16  17
ATOM     17  C   UNL     1      61.007  32.082  13.094  1.00  0.00     0.000 C 
BRANCH  17  18
ATOM     18  C   UNL     1      61.239  33.530  13.562  1.00  0.00     0.000 C 
BRANCH  18  19
ATOM     19  C   UNL     1      60.860  33.737  15.037  1.00  0.00     0.000 C 
BRANCH  19  20
ATOM     20  C   UNL     1      62.085  34.007  15.925  1.00  0.00     0.006 C 
BRANCH  20  21
ATOM     21  C   UNL     1      62.089  33.085  17.149  1.00  0.00     0.053 C 
BRANCH  21  22
ATOM     22  C   UNL     1      63.222  33.433  18.061  1.00  0.00     0.041 C 
ATOM     23  O   UNL     1      63.038  33.505  19.305  1.00  0.00    -0.550 OA
ATOM     24  O   UNL     1      64.474  33.728  17.532  1.00  0.00    -0.550 OA
ENDBRANCH  21  22
ENDBRANCH  20  21
ENDBRANCH  19  20
ENDBRANCH  18  19
ENDBRANCH  17  18
ENDBRANCH  16  17
ENDBRANCH  15  16
ENDBRANCH  14  15
ENDBRANCH  13  14
ENDBRANCH   1  13
TORSDOF 20
ENDMDL
MODEL 3
REMARK VINA RESULT:    -4.718      1.267      2.510
REMARK INTER + INTRA:         -13.372
REMARK INTER:                 -10.153
REMARK INTRA:                  -3.219
REMARK UNBOUND:                -3.138
REMARK SMILES CCCCCCCCCCCCCCCCCCCCCC(=O)[O-]
REMARK SMILES IDX 12 1 11 2 10 3 9 4 8 5 7 6 6 7 5 8 4 9 3 10 2 11 1 12 13 13
REMARK SMILES IDX 14 14 15 15 16 16 17 17 18 18 19 19 20 20 21 21 22 22 23 23
REMARK SMILES IDX 24 24
REMARK H PARENT
REMARK Flexibility Score: inf
ROOT
ATOM      1  C   UNL     1      61.397  28.818  12.732  1.00  0.00     0.000 C 
ENDROOT
BRANCH   1   2
ATOM      2  C   UNL     1      60.002  28.785  12.087  1.00  0.00     0.000 C 
BRANCH   2   3
ATOM      3  C   UNL     1      60.057  28.714  10.550  1.00  0.00     0.000 C 
BRANCH   3   4
ATOM      4  C   UNL     1      60.402  30.045   9.851  1.00  0.00    -0.000 C 
BRANCH   4   5
ATOM      5  C   UNL     1      61.626  29.993   8.915  1.00  0.00    -0.000 C 
BRANCH   5   6
ATOM      6  C   UNL     1      62.606  28.838   9.193  1.00  0.00    -0.000 C 
BRANCH   6   7
ATOM      7  C   UNL     1      63.925  29.316   9.819  1.00  0.00    -0.000 C 
BRANCH   7   8
ATOM      8  C   UNL     1      64.456  30.566   9.106  1.00  0.00    -0.000 C 
BRANCH   8   9
ATOM      9  C   UNL     1      64.899  31.628  10.120  1.00  0.00    -0.000 C 
BRANCH   9  10
ATOM     10  C   UNL     1      64.136  31.478  11.445  1.00  0.00    -0.000 C 
BRANCH  10  11
ATOM     11  C   UNL     1      64.656  32.428  12.536  1.00  0.00    -0.003 C 
ATOM     12  C   UNL     1      64.743  31.762  13.911  1.00  0.00     0.004 C 
ENDBRANCH  10  11
ENDBRANCH   9  10
ENDBRANCH   8   9
ENDBRANCH   7   8
ENDBRANCH   6   7
ENDBRANCH   5   6
ENDBRANCH   4   5
ENDBRANCH   3   4
ENDBRANCH   2   3
ENDBRANCH   1   2
BRANCH   1  13
ATOM     13  C   UNL     1      61.541  30.020  13.673  1.00  0.00     0.000 C 
BRANCH  13  14
ATOM     14  C   UNL     1      60.396  31.022  13.464  1.00  0.00     0.000 C 
BRANCH  14  15
ATOM     15  C   UNL     1      60.861  32.329  12.795  1.00  0.00     0.000 C 
BRANCH  15  16
ATOM     16  C   UNL     1      61.138  33.492  13.770  1.00  0.00     0.000 C 
BRANCH  16  17
ATOM     17  C   UNL     1      60.806  33.188  15.243  1.00  0.00     0.000 C 
BRANCH  17  18
ATOM     18  C   UNL     1      61.522  34.134  16.224  1.00  0.00     0.000 C 
BRANCH  18  19
ATOM     19  C   UNL     1      63.034  34.217  15.961  1.00  0.00     0.000 C 
BRANCH  19  20
ATOM     20  C   UNL     1      63.865  33.664  17.130  1.00  0.00     0.006 C 
BRANCH  20  21
ATOM     21  C   UNL     1      62.989  33.440  18.367  1.00  0.00     0.053 C 
BRANCH  21  22
ATOM     22  C   UNL     1      63.532  34.200  19.535  1.00  0.00     0.041 C 
ATOM     23  O   UNL     1      63.384  33.757  20.705  1.00  0.00    -0.550 OA
ATOM     24  O   UNL     1      64.158  35.425  19.336  1.00  0.00    -0.550 OA
ENDBRANCH  21  22
ENDBRANCH  20  21
ENDBRANCH  19  20
ENDBRANCH  18  19
ENDBRANCH  17  18
ENDBRANCH  16  17
ENDBRANCH  15  16
ENDBRANCH  14  15
ENDBRANCH  13  14
ENDBRANCH   1  13
TORSDOF 20
ENDMDL
MODEL 4
REMARK VINA RESULT:    -4.705      1.099      4.023
REMARK INTER + INTRA:         -13.345
REMARK INTER:                  -9.957
REMARK INTRA:                  -3.387
REMARK UNBOUND:                -3.138
REMARK SMILES CCCCCCCCCCCCCCCCCCCCCC(=O)[O-]
REMARK SMILES IDX 12 1 11 2 10 3 9 4 8 5 7 6 6 7 5 8 4 9 3 10 2 11 1 12 13 13
REMARK SMILES IDX 14 14 15 15 16 16 17 17 18 18 19 19 20 20 21 21 22 22 23 23
REMARK SMILES IDX 24 24
REMARK H PARENT
REMARK Flexibility Score: inf
ROOT
ATOM      1  C   UNL     1      62.228  28.624   9.009  1.00  0.00     0.000 C 
ENDROOT
BRANCH   1   2
ATOM      2  C   UNL     1      61.170  29.670   9.394  1.00  0.00     0.000 C 
BRANCH   2   3
ATOM      3  C   UNL     1      60.059  29.092  10.291  1.00  0.00     0.000 C 
BRANCH   3   4
ATOM      4  C   UNL     1      60.165  29.475  11.781  1.00  0.00    -0.000 C 
BRANCH   4   5
ATOM      5  C   UNL     1      60.759  28.384  12.694  1.00  0.00    -0.000 C 
BRANCH   5   6
ATOM      6  C   UNL     1      62.197  28.655  13.177  1.00  0.00    -0.000 C 
BRANCH   6   7
ATOM      7  C   UNL     1      62.442  30.134  13.511  1.00  0.00    -0.000 C 
BRANCH   7   8
ATOM      8  C   UNL     1      61.874  30.492  14.889  1.00  0.00    -0.000 C 
BRANCH   8   9
ATOM      9  C   UNL     1      60.757  31.537  14.765  1.00  0.00    -0.000 C 
BRANCH   9  10
ATOM     10  C   UNL     1      61.017  32.485  13.585  1.00  0.00    -0.000 C 
BRANCH  10  11
ATOM     11  C   UNL     1      60.977  33.966  13.998  1.00  0.00    -0.003 C 
ATOM     12  C   UNL     1      60.940  34.158  15.515  1.00  0.00     0.004 C 
ENDBRANCH  10  11
ENDBRANCH   9  10
ENDBRANCH   8   9
ENDBRANCH   7   8
ENDBRANCH   6   7
ENDBRANCH   5   6
ENDBRANCH   4   5
ENDBRANCH   3   4
ENDBRANCH   2   3
ENDBRANCH   1   2
BRANCH   1  13
ATOM     13  C   UNL     1      63.588  28.958   9.635  1.00  0.00     0.000 C 
BRANCH  13  14
ATOM     14  C   UNL     1      63.622  30.411  10.131  1.00  0.00     0.000 C 
BRANCH  14  15
ATOM     15  C   UNL     1      64.936  31.132   9.774  1.00  0.00     0.000 C 
BRANCH  15  16
ATOM     16  C   UNL     1      65.292  32.319  10.694  1.00  0.00     0.000 C 
BRANCH  16  17
ATOM     17  C   UNL     1      64.385  32.469  11.929  1.00  0.00     0.000 C 
BRANCH  17  18
ATOM     18  C   UNL     1      65.177  32.720  13.225  1.00  0.00     0.000 C 
BRANCH  18  19
ATOM     19  C   UNL     1      64.537  33.809  14.101  1.00  0.00     0.000 C 
BRANCH  19  20
ATOM     20  C   UNL     1      65.091  33.810  15.535  1.00  0.00     0.006 C 
BRANCH  20  21
ATOM     21  C   UNL     1      64.143  33.076  16.489  1.00  0.00     0.053 C 
BRANCH  21  22
ATOM     22  C   UNL     1      63.844  33.925  17.683  1.00  0.00     0.041 C 
ATOM     23  O   UNL     1      63.325  33.414  18.712  1.00  0.00    -0.550 OA
ATOM     24  O   UNL     1      64.090  35.292  17.642  1.00  0.00    -0.550 OA
ENDBRANCH  21  22
ENDBRANCH  20  21
ENDBRANCH  19  20
ENDBRANCH  18  19
ENDBRANCH  17  18
ENDBRANCH  16  17
ENDBRANCH  15  16
ENDBRANCH  14  15
ENDBRANCH  13  14
ENDBRANCH   1  13
TORSDOF 20
ENDMDL
MODEL 5
REMARK VINA RESULT:    -4.590      1.399      2.744
REMARK INTER + INTRA:         -13.095
REMARK INTER:                  -9.665
REMARK INTRA:                  -3.429
REMARK UNBOUND:                -3.138
REMARK SMILES CCCCCCCCCCCCCCCCCCCCCC(=O)[O-]
REMARK SMILES IDX 12 1 11 2 10 3 9 4 8 5 7 6 6 7 5 8 4 9 3 10 2 11 1 12 13 13
REMARK SMILES IDX 14 14 15 15 16 16 17 17 18 18 19 19 20 20 21 21 22 22 23 23
REMARK SMILES IDX 24 24
REMARK H PARENT
REMARK Flexibility Score: inf
ROOT
ATOM      1  C   UNL     1      61.340  29.916  13.750  1.00  0.00     0.000 C 
ENDROOT
BRANCH   1   2
ATOM      2  C   UNL     1      61.298  28.690  12.825  1.00  0.00     0.000 C 
BRANCH   2   3
ATOM      3  C   UNL     1      59.952  28.542  12.091  1.00  0.00     0.000 C 
BRANCH   3   4
ATOM      4  C   UNL     1      60.032  28.680  10.557  1.00  0.00    -0.000 C 
BRANCH   4   5
ATOM      5  C   UNL     1      61.235  29.492  10.036  1.00  0.00    -0.000 C 
BRANCH   5   6
ATOM      6  C   UNL     1      62.246  28.688   9.198  1.00  0.00    -0.000 C 
BRANCH   6   7
ATOM      7  C   UNL     1      63.705  29.040   9.527  1.00  0.00    -0.000 C 
BRANCH   7   8
ATOM      8  C   UNL     1      63.791  30.337  10.341  1.00  0.00    -0.000 C 
BRANCH   8   9
ATOM      9  C   UNL     1      64.530  30.103  11.665  1.00  0.00    -0.000 C 
BRANCH   9  10
ATOM     10  C   UNL     1      64.397  31.319  12.594  1.00  0.00    -0.000 C 
BRANCH  10  11
ATOM     11  C   UNL     1      64.754  32.639  11.892  1.00  0.00    -0.003 C 
ATOM     12  C   UNL     1      65.505  33.612  12.803  1.00  0.00     0.004 C 
ENDBRANCH  10  11
ENDBRANCH   9  10
ENDBRANCH   8   9
ENDBRANCH   7   8
ENDBRANCH   6   7
ENDBRANCH   5   6
ENDBRANCH   4   5
ENDBRANCH   3   4
ENDBRANCH   2   3
ENDBRANCH   1   2
BRANCH   1  13
ATOM     13  C   UNL     1      60.234  30.916  13.391  1.00  0.00     0.000 C 
BRANCH  13  14
ATOM     14  C   UNL     1      60.801  32.102  12.597  1.00  0.00     0.000 C 
BRANCH  14  15
ATOM     15  C   UNL     1      61.490  33.146  13.495  1.00  0.00     0.000 C 
BRANCH  15  16
ATOM     16  C   UNL     1      60.750  33.453  14.814  1.00  0.00     0.000 C 
BRANCH  16  17
ATOM     17  C   UNL     1      61.505  33.033  16.088  1.00  0.00     0.000 C 
BRANCH  17  18
ATOM     18  C   UNL     1      62.869  32.386  15.787  1.00  0.00     0.000 C 
BRANCH  18  19
ATOM     19  C   UNL     1      64.045  33.247  16.274  1.00  0.00     0.000 C 
BRANCH  19  20
ATOM     20  C   UNL     1      63.610  34.667  16.670  1.00  0.00     0.006 C 
BRANCH  20  21
ATOM     21  C   UNL     1      64.027  34.987  18.108  1.00  0.00     0.053 C 
BRANCH  21  22
ATOM     22  C   UNL     1      63.012  34.466  19.075  1.00  0.00     0.041 C 
ATOM     23  O   UNL     1      61.824  34.883  19.036  1.00  0.00    -0.550 OA
ATOM     24  O   UNL     1      63.390  33.553  20.053  1.00  0.00    -0.550 OA
ENDBRANCH  21  22
ENDBRANCH  20  21
ENDBRANCH  19  20
ENDBRANCH  18  19
ENDBRANCH  17  18
ENDBRANCH  16  17
ENDBRANCH  15  16
ENDBRANCH  14  15
ENDBRANCH  13  14
ENDBRANCH   1  13
TORSDOF 20
ENDMDL
MODEL 6
REMARK VINA RESULT:    -4.544      2.962      7.760
REMARK INTER + INTRA:         -12.995
REMARK INTER:                  -9.681
REMARK INTRA:                  -3.313
REMARK UNBOUND:                -3.138
REMARK SMILES CCCCCCCCCCCCCCCCCCCCCC(=O)[O-]
REMARK SMILES IDX 12 1 11 2 10 3 9 4 8 5 7 6 6 7 5 8 4 9 3 10 2 11 1 12 13 13
REMARK SMILES IDX 14 14 15 15 16 16 17 17 18 18 19 19 20 20 21 21 22 22 23 23
REMARK SMILES IDX 24 24
REMARK H PARENT
REMARK Flexibility Score: inf
ROOT
ATOM      1  C   UNL     1      64.928  34.473  15.191  1.00  0.00     0.000 C 
ENDROOT
BRANCH   1   2
ATOM      2  C   UNL     1      65.138  35.322  16.455  1.00  0.00     0.000 C 
BRANCH   2   3
ATOM      3  C   UNL     1      65.353  34.469  17.718  1.00  0.00     0.000 C 
BRANCH   3   4
ATOM      4  C   UNL     1      64.514  34.898  18.940  1.00  0.00    -0.000 C 
BRANCH   4   5
ATOM      5  C   UNL     1      63.503  33.845  19.438  1.00  0.00    -0.000 C 
BRANCH   5   6
ATOM      6  C   UNL     1      62.056  34.055  18.954  1.00  0.00    -0.000 C 
BRANCH   6   7
ATOM      7  C   UNL     1      61.789  33.414  17.584  1.00  0.00    -0.000 C 
BRANCH   7   8
ATOM      8  C   UNL     1      61.404  34.471  16.542  1.00  0.00    -0.000 C 
BRANCH   8   9
ATOM      9  C   UNL     1      61.188  33.830  15.166  1.00  0.00    -0.000 C 
BRANCH   9  10
ATOM     10  C   UNL     1      60.858  32.336  15.298  1.00  0.00    -0.000 C 
BRANCH  10  11
ATOM     11  C   UNL     1      60.496  31.690  13.951  1.00  0.00    -0.003 C 
ATOM     12  C   UNL     1      60.679  32.641  12.767  1.00  0.00     0.004 C 
ENDBRANCH  10  11
ENDBRANCH   9  10
ENDBRANCH   8   9
ENDBRANCH   7   8
ENDBRANCH   6   7
ENDBRANCH   5   6
ENDBRANCH   4   5
ENDBRANCH   3   4
ENDBRANCH   2   3
ENDBRANCH   1   2
BRANCH   1  13
ATOM     13  C   UNL     1      64.990  32.975  15.517  1.00  0.00     0.000 C 
BRANCH  13  14
ATOM     14  C   UNL     1      64.408  32.138  14.369  1.00  0.00     0.000 C 
BRANCH  14  15
ATOM     15  C   UNL     1      64.381  32.899  13.030  1.00  0.00     0.000 C 
BRANCH  15  16
ATOM     16  C   UNL     1      64.518  32.008  11.778  1.00  0.00     0.000 C 
BRANCH  16  17
ATOM     17  C   UNL     1      63.531  30.829  11.717  1.00  0.00     0.000 C 
BRANCH  17  18
ATOM     18  C   UNL     1      63.518  30.130  10.346  1.00  0.00     0.000 C 
BRANCH  18  19
ATOM     19  C   UNL     1      62.093  29.910   9.813  1.00  0.00     0.000 C 
BRANCH  19  20
ATOM     20  C   UNL     1      61.449  28.629  10.369  1.00  0.00     0.006 C 
BRANCH  20  21
ATOM     21  C   UNL     1      60.038  28.909  10.894  1.00  0.00     0.053 C 
BRANCH  21  22
ATOM     22  C   UNL     1      59.883  28.381  12.284  1.00  0.00     0.041 C 
ATOM     23  O   UNL     1      60.880  28.310  13.051  1.00  0.00    -0.550 OA
ATOM     24  O   UNL     1      58.646  27.919  12.719  1.00  0.00    -0.550 OA
ENDBRANCH  21  22
ENDBRANCH  20  21
ENDBRANCH  19  20
ENDBRANCH  18  19
ENDBRANCH  17  18
ENDBRANCH  16  17
ENDBRANCH  15  16
ENDBRANCH  14  15
ENDBRANCH  13  14
ENDBRANCH   1  13
TORSDOF 20
ENDMDL
MODEL 7
REMARK VINA RESULT:    -4.529      2.422      5.664
REMARK INTER + INTRA:         -12.963
REMARK INTER:                  -9.546
REMARK INTRA:                  -3.417
REMARK UNBOUND:                -3.138
REMARK SMILES CCCCCCCCCCCCCCCCCCCCCC(=O)[O-]
REMARK SMILES IDX 12 1 11 2 10 3 9 4 8 5 7 6 6 7 5 8 4 9 3 10 2 11 1 12 13 13
REMARK SMILES IDX 14 14 15 15 16 16 17 17 18 18 19 19 20 20 21 21 22 22 23 23
REMARK SMILES IDX 24 24
REMARK H PARENT
REMARK Flexibility Score: inf
ROOT
ATOM      1  C   UNL     1      60.459  33.148  14.531  1.00  0.00     0.000 C 
ENDROOT
BRANCH   1   2
ATOM      2  C   UNL     1      61.256  33.143  13.217  1.00  0.00     0.000 C 
BRANCH   2   3
ATOM      3  C   UNL     1      61.507  31.723  12.677  1.00  0.00     0.000 C 
BRANCH   3   4
ATOM      4  C   UNL     1      62.218  30.772  13.662  1.00  0.00    -0.000 C 
BRANCH   4   5
ATOM      5  C   UNL     1      61.674  29.329  13.684  1.00  0.00    -0.000 C 
BRANCH   5   6
ATOM      6  C   UNL     1      60.311  29.140  12.993  1.00  0.00    -0.000 C 
BRANCH   6   7
ATOM      7  C   UNL     1      60.405  28.293  11.714  1.00  0.00    -0.000 C 
BRANCH   7   8
ATOM      8  C   UNL     1      59.925  29.082  10.491  1.00  0.00    -0.000 C 
BRANCH   8   9
ATOM      9  C   UNL     1      61.114  29.637   9.696  1.00  0.00    -0.000 C 
BRANCH   9  10
ATOM     10  C   UNL     1      61.988  28.501   9.145  1.00  0.00    -0.000 C 
BRANCH  10  11
ATOM     11  C   UNL     1      63.490  28.820   9.224  1.00  0.00    -0.003 C 
ATOM     12  C   UNL     1      63.876  29.546  10.513  1.00  0.00     0.004 C 
ENDBRANCH  10  11
ENDBRANCH   9  10
ENDBRANCH   8   9
ENDBRANCH   7   8
ENDBRANCH   6   7
ENDBRANCH   5   6
ENDBRANCH   4   5
ENDBRANCH   3   4
ENDBRANCH   2   3
ENDBRANCH   1   2
BRANCH   1  13
ATOM     13  C   UNL     1      61.256  33.820  15.656  1.00  0.00     0.000 C 
BRANCH  13  14
ATOM     14  C   UNL     1      61.628  32.805  16.747  1.00  0.00     0.000 C 
BRANCH  14  15
ATOM     15  C   UNL     1      62.080  33.477  18.057  1.00  0.00     0.000 C 
BRANCH  15  16
ATOM     16  C   UNL     1      62.606  34.919  17.896  1.00  0.00     0.000 C 
BRANCH  16  17
ATOM     17  C   UNL     1      64.126  35.073  18.086  1.00  0.00     0.000 C 
BRANCH  17  18
ATOM     18  C   UNL     1      64.906  34.980  16.762  1.00  0.00     0.000 C 
BRANCH  18  19
ATOM     19  C   UNL     1      65.464  33.570  16.509  1.00  0.00     0.000 C 
BRANCH  19  20
ATOM     20  C   UNL     1      64.939  32.957  15.200  1.00  0.00     0.006 C 
BRANCH  20  21
ATOM     21  C   UNL     1      64.674  34.044  14.154  1.00  0.00     0.053 C 
BRANCH  21  22
ATOM     22  C   UNL     1      65.256  33.651  12.833  1.00  0.00     0.041 C 
ATOM     23  O   UNL     1      66.091  34.398  12.259  1.00  0.00    -0.550 OA
ATOM     24  O   UNL     1      64.837  32.480  12.211  1.00  0.00    -0.550 OA
ENDBRANCH  21  22
ENDBRANCH  20  21
ENDBRANCH  19  20
ENDBRANCH  18  19
ENDBRANCH  17  18
ENDBRANCH  16  17
ENDBRANCH  15  16
ENDBRANCH  14  15
ENDBRANCH  13  14
ENDBRANCH   1  13
TORSDOF 20
ENDMDL
MODEL 8
REMARK VINA RESULT:    -4.521      2.407      6.081
REMARK INTER + INTRA:         -12.946
REMARK INTER:                 -10.304
REMARK INTRA:                  -2.642
REMARK UNBOUND:                -3.138
REMARK SMILES CCCCCCCCCCCCCCCCCCCCCC(=O)[O-]
REMARK SMILES IDX 12 1 11 2 10 3 9 4 8 5 7 6 6 7 5 8 4 9 3 10 2 11 1 12 13 13
REMARK SMILES IDX 14 14 15 15 16 16 17 17 18 18 19 19 20 20 21 21 22 22 23 23
REMARK SMILES IDX 24 24
REMARK H PARENT
REMARK Flexibility Score: inf
ROOT
ATOM      1  C   UNL     1      60.633  29.709  12.560  1.00  0.00     0.000 C 
ENDROOT
BRANCH   1   2
ATOM      2  C   UNL     1      60.296  31.192  12.341  1.00  0.00     0.000 C 
BRANCH   2   3
ATOM      3  C   UNL     1      60.169  31.976  13.661  1.00  0.00     0.000 C 
BRANCH   3   4
ATOM      4  C   UNL     1      61.023  33.258  13.738  1.00  0.00    -0.000 C 
BRANCH   4   5
ATOM      5  C   UNL     1      60.969  33.998  15.090  1.00  0.00    -0.000 C 
BRANCH   5   6
ATOM      6  C   UNL     1      62.323  34.131  15.811  1.00  0.00    -0.000 C 
BRANCH   6   7
ATOM      7  C   UNL     1      62.565  33.009  16.832  1.00  0.00    -0.000 C 
BRANCH   7   8
ATOM      8  C   UNL     1      61.853  33.303  18.158  1.00  0.00    -0.000 C 
BRANCH   8   9
ATOM      9  C   UNL     1      62.200  34.709  18.664  1.00  0.00    -0.000 C 
BRANCH   9  10
ATOM     10  C   UNL     1      63.625  34.754  19.234  1.00  0.00    -0.000 C 
BRANCH  10  11
ATOM     11  C   UNL     1      63.739  34.047  20.595  1.00  0.00    -0.003 C 
ATOM     12  C   UNL     1      65.145  34.131  21.192  1.00  0.00     0.004 C 
ENDBRANCH  10  11
ENDBRANCH   9  10
ENDBRANCH   8   9
ENDBRANCH   7   8
ENDBRANCH   6   7
ENDBRANCH   5   6
ENDBRANCH   4   5
ENDBRANCH   3   4
ENDBRANCH   2   3
ENDBRANCH   1   2
BRANCH   1  13
ATOM     13  C   UNL     1      60.478  28.911  11.259  1.00  0.00     0.000 C 
BRANCH  13  14
ATOM     14  C   UNL     1      60.223  29.846  10.067  1.00  0.00     0.000 C 
BRANCH  14  15
ATOM     15  C   UNL     1      61.257  29.669   8.939  1.00  0.00     0.000 C 
BRANCH  15  16
ATOM     16  C   UNL     1      62.248  28.504   9.148  1.00  0.00     0.000 C 
BRANCH  16  17
ATOM     17  C   UNL     1      63.689  28.938   9.473  1.00  0.00     0.000 C 
BRANCH  17  18
ATOM     18  C   UNL     1      63.797  30.430   9.834  1.00  0.00     0.000 C 
BRANCH  18  19
ATOM     19  C   UNL     1      64.518  30.659  11.172  1.00  0.00     0.000 C 
BRANCH  19  20
ATOM     20  C   UNL     1      63.884  31.793  11.994  1.00  0.00     0.006 C 
BRANCH  20  21
ATOM     21  C   UNL     1      64.593  31.954  13.343  1.00  0.00     0.053 C 
BRANCH  21  22
ATOM     22  C   UNL     1      64.368  30.748  14.198  1.00  0.00     0.041 C 
ATOM     23  O   UNL     1      63.215  30.482  14.631  1.00  0.00    -0.550 OA
ATOM     24  O   UNL     1      65.442  29.944  14.560  1.00  0.00    -0.550 OA
ENDBRANCH  21  22
ENDBRANCH  20  21
ENDBRANCH  19  20
ENDBRANCH  18  19
ENDBRANCH  17  18
ENDBRANCH  16  17
ENDBRANCH  15  16
ENDBRANCH  14  15
ENDBRANCH  13  14
ENDBRANCH   1  13
TORSDOF 20
ENDMDL
MODEL 9
REMARK VINA RESULT:    -4.437      3.023      6.968
REMARK INTER + INTRA:         -12.764
REMARK INTER:                  -9.534
REMARK INTRA:                  -3.230
REMARK UNBOUND:                -3.138
REMARK SMILES CCCCCCCCCCCCCCCCCCCCCC(=O)[O-]
REMARK SMILES IDX 12 1 11 2 10 3 9 4 8 5 7 6 6 7 5 8 4 9 3 10 2 11 1 12 13 13
REMARK SMILES IDX 14 14 15 15 16 16 17 17 18 18 19 19 20 20 21 21 22 22 23 23
REMARK SMILES IDX 24 24
REMARK H PARENT
REMARK Flexibility Score: inf
ROOT
ATOM      1  C   UNL     1      60.793  32.918  14.751  1.00  0.00     0.000 C 
ENDROOT
BRANCH   1   2
ATOM      2  C   UNL     1      61.325  33.829  15.869  1.00  0.00     0.000 C 
BRANCH   2   3
ATOM      3  C   UNL     1      61.998  33.043  17.009  1.00  0.00     0.000 C 
BRANCH   3   4
ATOM      4  C   UNL     1      61.792  33.638  18.417  1.00  0.00    -0.000 C 
BRANCH   4   5
ATOM      5  C   UNL     1      62.985  34.449  18.963  1.00  0.00    -0.000 C 
BRANCH   5   6
ATOM      6  C   UNL     1      64.358  33.769  18.806  1.00  0.00    -0.000 C 
BRANCH   6   7
ATOM      7  C   UNL     1      65.407  34.690  18.165  1.00  0.00    -0.000 C 
BRANCH   7   8
ATOM      8  C   UNL     1      64.832  35.419  16.944  1.00  0.00    -0.000 C 
BRANCH   8   9
ATOM      9  C   UNL     1      65.617  35.062  15.675  1.00  0.00    -0.000 C 
BRANCH   9  10
ATOM     10  C   UNL     1      64.750  34.251  14.700  1.00  0.00    -0.000 C 
BRANCH  10  11
ATOM     11  C   UNL     1      65.577  33.274  13.848  1.00  0.00    -0.003 C 
ATOM     12  C   UNL     1      65.434  33.528  12.346  1.00  0.00     0.004 C 
ENDBRANCH  10  11
ENDBRANCH   9  10
ENDBRANCH   8   9
ENDBRANCH   7   8
ENDBRANCH   6   7
ENDBRANCH   5   6
ENDBRANCH   4   5
ENDBRANCH   3   4
ENDBRANCH   2   3
ENDBRANCH   1   2
BRANCH   1  13
ATOM     13  C   UNL     1      61.403  33.297  13.395  1.00  0.00     0.000 C 
BRANCH  13  14
ATOM     14  C   UNL     1      61.990  32.064  12.693  1.00  0.00     0.000 C 
BRANCH  14  15
ATOM     15  C   UNL     1      62.619  31.060  13.677  1.00  0.00     0.000 C 
BRANCH  15  16
ATOM     16  C   UNL     1      63.490  29.969  13.020  1.00  0.00     0.000 C 
BRANCH  16  17
ATOM     17  C   UNL     1      63.901  30.265  11.566  1.00  0.00     0.000 C 
BRANCH  17  18
ATOM     18  C   UNL     1      63.476  29.155  10.587  1.00  0.00     0.000 C 
BRANCH  18  19
ATOM     19  C   UNL     1      62.181  29.502   9.835  1.00  0.00     0.000 C 
BRANCH  19  20
ATOM     20  C   UNL     1      61.000  28.614  10.260  1.00  0.00     0.006 C 
BRANCH  20  21
ATOM     21  C   UNL     1      60.094  29.347  11.255  1.00  0.00     0.053 C 
BRANCH  21  22
ATOM     22  C   UNL     1      59.756  28.456  12.407  1.00  0.00     0.041 C 
ATOM     23  O   UNL     1      60.611  28.225  13.304  1.00  0.00    -0.550 OA
ATOM     24  O   UNL     1      58.512  27.838  12.466  1.00  0.00    -0.550 OA
ENDBRANCH  21  22
ENDBRANCH  20  21
ENDBRANCH  19  20
ENDBRANCH  18  19
ENDBRANCH  17  18
ENDBRANCH  16  17
ENDBRANCH  15  16
ENDBRANCH  14  15
ENDBRANCH  13  14
ENDBRANCH   1  13
TORSDOF 20
ENDMDL
