MODEL 1
REMARK VINA RESULT:    -4.409      0.000      0.000
REMARK INTER + INTRA:         -14.251
REMARK INTER:                 -11.110
REMARK INTRA:                  -3.141
REMARK UNBOUND:                -3.141
REMARK SMILES CCCCCCCCCCCCCCCCCCCCCCCCCCCC(=O)[O-]
REMARK SMILES IDX 15 1 16 2 17 3 18 4 19 5 20 6 21 7 22 8 23 9 24 10 25 11
REMARK SMILES IDX 26 12 27 13 28 14 29 15 30 16 14 17 13 18 12 19 11 20 10 21
REMARK SMILES IDX 9 22 8 23 7 24 6 25 5 26 4 27 3 28 2 29 1 30
REMARK H PARENT
REMARK Flexibility Score: inf
ROOT
ATOM      1  C   UNL     1      40.994  43.187  17.244  1.00  0.00     0.000 C 
ENDROOT
BRANCH   1   2
ATOM      2  C   UNL     1      40.176  41.889  17.375  1.00  0.00     0.000 C 
BRANCH   2   3
ATOM      3  C   UNL     1      41.048  40.622  17.323  1.00  0.00     0.000 C 
BRANCH   3   4
ATOM      4  C   UNL     1      41.731  40.428  15.960  1.00  0.00     0.000 C 
BRANCH   4   5
ATOM      5  C   UNL     1      43.223  40.786  15.976  1.00  0.00     0.000 C 
BRANCH   5   6
ATOM      6  C   UNL     1      43.779  40.850  14.548  1.00  0.00     0.000 C 
BRANCH   6   7
ATOM      7  C   UNL     1      44.997  39.929  14.380  1.00  0.00     0.000 C 
BRANCH   7   8
ATOM      8  C   UNL     1      44.722  38.754  13.428  1.00  0.00     0.000 C 
BRANCH   8   9
ATOM      9  C   UNL     1      44.374  37.453  14.171  1.00  0.00     0.000 C 
BRANCH   9  10
ATOM     10  C   UNL     1      42.999  36.888  13.756  1.00  0.00     0.000 C 
BRANCH  10  11
ATOM     11  C   UNL     1      42.042  37.951  13.182  1.00  0.00     0.000 C 
BRANCH  11  12
ATOM     12  C   UNL     1      40.605  37.894  13.735  1.00  0.00     0.006 C 
BRANCH  12  13
ATOM     13  C   UNL     1      39.613  37.136  12.836  1.00  0.00     0.053 C 
BRANCH  13  14
ATOM     14  C   UNL     1      38.840  38.066  11.952  1.00  0.00     0.041 C 
ATOM     15  O   UNL     1      39.042  39.308  12.008  1.00  0.00    -0.550 OA
ATOM     16  O   UNL     1      37.866  37.564  11.100  1.00  0.00    -0.550 OA
ENDBRANCH  13  14
ENDBRANCH  12  13
ENDBRANCH  11  12
ENDBRANCH  10  11
ENDBRANCH   9  10
ENDBRANCH   8   9
ENDBRANCH   7   8
ENDBRANCH   6   7
ENDBRANCH   5   6
ENDBRANCH   4   5
ENDBRANCH   3   4
ENDBRANCH   2   3
ENDBRANCH   1   2
BRANCH   1  17
ATOM     17  C   UNL     1      40.686  44.045  15.997  1.00  0.00     0.000 C 
BRANCH  17  18
ATOM     18  C   UNL     1      41.537  45.321  15.850  1.00  0.00     0.000 C 
BRANCH  18  19
ATOM     19  C   UNL     1      42.778  45.108  14.966  1.00  0.00     0.000 C 
BRANCH  19  20
ATOM     20  C   UNL     1      44.097  45.279  15.749  1.00  0.00     0.000 C 
BRANCH  20  21
ATOM     21  C   UNL     1      43.905  45.525  17.256  1.00  0.00     0.000 C 
BRANCH  21  22
ATOM     22  C   UNL     1      44.262  46.960  17.679  1.00  0.00    -0.000 C 
BRANCH  22  23
ATOM     23  C   UNL     1      44.846  47.028  19.101  1.00  0.00    -0.000 C 
BRANCH  23  24
ATOM     24  C   UNL     1      45.015  45.637  19.737  1.00  0.00    -0.000 C 
BRANCH  24  25
ATOM     25  C   UNL     1      44.976  45.690  21.279  1.00  0.00    -0.000 C 
BRANCH  25  26
ATOM     26  C   UNL     1      44.013  44.665  21.907  1.00  0.00    -0.000 C 
BRANCH  26  27
ATOM     27  C   UNL     1      44.090  43.250  21.306  1.00  0.00    -0.000 C 
BRANCH  27  28
ATOM     28  C   UNL     1      42.792  42.752  20.640  1.00  0.00    -0.000 C 
BRANCH  28  29
ATOM     29  C   UNL     1      42.933  41.380  19.948  1.00  0.00    -0.003 C 
ATOM     30  C   UNL     1      42.076  40.299  20.607  1.00  0.00     0.004 C 
ENDBRANCH  28  29
ENDBRANCH  27  28
ENDBRANCH  26  27
ENDBRANCH  25  26
ENDBRANCH  24  25
ENDBRANCH  23  24
ENDBRANCH  22  23
ENDBRANCH  21  22
ENDBRANCH  20  21
ENDBRANCH  19  20
ENDBRANCH  18  19
ENDBRANCH  17  18
ENDBRANCH   1  17
TORSDOF 26
ENDMDL
MODEL 2
REMARK VINA RESULT:    -4.393      2.802      7.973
REMARK INTER + INTRA:         -14.211
REMARK INTER:                 -11.863
REMARK INTRA:                  -2.349
REMARK UNBOUND:                -3.141
REMARK SMILES CCCCCCCCCCCCCCCCCCCCCCCCCCCC(=O)[O-]
REMARK SMILES IDX 15 1 16 2 17 3 18 4 19 5 20 6 21 7 22 8 23 9 24 10 25 11
REMARK SMILES IDX 26 12 27 13 28 14 29 15 30 16 14 17 13 18 12 19 11 20 10 21
REMARK SMILES IDX 9 22 8 23 7 24 6 25 5 26 4 27 3 28 2 29 1 30
REMARK H PARENT
REMARK Flexibility Score: inf
ROOT
ATOM      1  C   UNL     1      40.262  40.613  16.828  1.00  0.00     0.000 C 
ENDROOT
BRANCH   1   2
ATOM      2  C   UNL     1      40.935  41.188  18.090  1.00  0.00     0.000 C 
BRANCH   2   3
ATOM      3  C   UNL     1      41.718  40.130  18.888  1.00  0.00     0.000 C 
BRANCH   3   4
ATOM      4  C   UNL     1      42.161  40.638  20.269  1.00  0.00     0.000 C 
BRANCH   4   5
ATOM      5  C   UNL     1      41.988  42.153  20.438  1.00  0.00     0.000 C 
BRANCH   5   6
ATOM      6  C   UNL     1      43.304  42.799  20.889  1.00  0.00     0.000 C 
BRANCH   6   7
ATOM      7  C   UNL     1      43.973  43.568  19.740  1.00  0.00     0.000 C 
BRANCH   7   8
ATOM      8  C   UNL     1      42.989  43.921  18.613  1.00  0.00     0.000 C 
BRANCH   8   9
ATOM      9  C   UNL     1      43.692  44.447  17.349  1.00  0.00     0.000 C 
BRANCH   9  10
ATOM     10  C   UNL     1      44.025  45.950  17.444  1.00  0.00     0.000 C 
BRANCH  10  11
ATOM     11  C   UNL     1      44.756  46.500  16.204  1.00  0.00     0.000 C 
BRANCH  11  12
ATOM     12  C   UNL     1      43.901  47.407  15.297  1.00  0.00     0.006 C 
BRANCH  12  13
ATOM     13  C   UNL     1      42.965  46.644  14.345  1.00  0.00     0.053 C 
BRANCH  13  14
ATOM     14  C   UNL     1      41.524  46.952  14.616  1.00  0.00     0.041 C 
ATOM     15  O   UNL     1      41.037  46.749  15.759  1.00  0.00    -0.550 OA
ATOM     16  O   UNL     1      40.711  47.422  13.594  1.00  0.00    -0.550 OA
ENDBRANCH  13  14
ENDBRANCH  12  13
ENDBRANCH  11  12
ENDBRANCH  10  11
ENDBRANCH   9  10
ENDBRANCH   8   9
ENDBRANCH   7   8
ENDBRANCH   6   7
ENDBRANCH   5   6
ENDBRANCH   4   5
ENDBRANCH   3   4
ENDBRANCH   2   3
ENDBRANCH   1   2
BRANCH   1  17
ATOM     17  C   UNL     1      40.800  41.151  15.484  1.00  0.00     0.000 C 
BRANCH  17  18
ATOM     18  C   UNL     1      41.197  42.639  15.483  1.00  0.00     0.000 C 
BRANCH  18  19
ATOM     19  C   UNL     1      42.586  42.882  14.865  1.00  0.00     0.000 C 
BRANCH  19  20
ATOM     20  C   UNL     1      43.241  41.580  14.358  1.00  0.00     0.000 C 
BRANCH  20  21
ATOM     21  C   UNL     1      43.492  40.533  15.457  1.00  0.00     0.000 C 
BRANCH  21  22
ATOM     22  C   UNL     1      44.556  39.495  15.063  1.00  0.00    -0.000 C 
BRANCH  22  23
ATOM     23  C   UNL     1      44.380  38.987  13.621  1.00  0.00    -0.000 C 
BRANCH  23  24
ATOM     24  C   UNL     1      44.225  37.458  13.548  1.00  0.00    -0.000 C 
BRANCH  24  25
ATOM     25  C   UNL     1      42.917  36.971  14.208  1.00  0.00    -0.000 C 
BRANCH  25  26
ATOM     26  C   UNL     1      41.806  36.632  13.196  1.00  0.00    -0.000 C 
BRANCH  26  27
ATOM     27  C   UNL     1      40.430  37.243  13.515  1.00  0.00    -0.000 C 
BRANCH  27  28
ATOM     28  C   UNL     1      40.249  38.709  13.075  1.00  0.00    -0.000 C 
BRANCH  28  29
ATOM     29  C   UNL     1      39.078  38.924  12.093  1.00  0.00    -0.003 C 
ATOM     30  C   UNL     1      38.391  37.615  11.703  1.00  0.00     0.004 C 
ENDBRANCH  28  29
ENDBRANCH  27  28
ENDBRANCH  26  27
ENDBRANCH  25  26
ENDBRANCH  24  25
ENDBRANCH  23  24
ENDBRANCH  22  23
ENDBRANCH  21  22
ENDBRANCH  20  21
ENDBRANCH  19  20
ENDBRANCH  18  19
ENDBRANCH  17  18
ENDBRANCH   1  17
TORSDOF 26
ENDMDL
MODEL 3
REMARK VINA RESULT:    -4.359     12.089     16.118
REMARK INTER + INTRA:         -14.126
REMARK INTER:                 -11.311
REMARK INTRA:                  -2.815
REMARK UNBOUND:                -3.141
REMARK SMILES CCCCCCCCCCCCCCCCCCCCCCCCCCCC(=O)[O-]
REMARK SMILES IDX 15 1 16 2 17 3 18 4 19 5 20 6 21 7 22 8 23 9 24 10 25 11
REMARK SMILES IDX 26 12 27 13 28 14 29 15 30 16 14 17 13 18 12 19 11 20 10 21
REMARK SMILES IDX 9 22 8 23 7 24 6 25 5 26 4 27 3 28 2 29 1 30
REMARK H PARENT
REMARK Flexibility Score: inf
ROOT
ATOM      1  C   UNL     1      33.029  30.902  11.565  1.00  0.00     0.000 C 
ENDROOT
BRANCH   1   2
ATOM      2  C   UNL     1      31.821  30.022  11.937  1.00  0.00     0.000 C 
BRANCH   2   3
ATOM      3  C   UNL     1      30.853  29.802  10.760  1.00  0.00     0.000 C 
BRANCH   3   4
ATOM      4  C   UNL     1      29.454  29.361  11.218  1.00  0.00     0.000 C 
BRANCH   4   5
ATOM      5  C   UNL     1      29.269  29.425  12.740  1.00  0.00     0.000 C 
BRANCH   5   6
ATOM      6  C   UNL     1      27.958  30.138  13.095  1.00  0.00     0.000 C 
BRANCH   6   7
ATOM      7  C   UNL     1      28.207  31.600  13.495  1.00  0.00     0.000 C 
BRANCH   7   8
ATOM      8  C   UNL     1      27.194  32.567  12.863  1.00  0.00     0.000 C 
BRANCH   8   9
ATOM      9  C   UNL     1      26.828  32.187  11.417  1.00  0.00     0.000 C 
BRANCH   9  10
ATOM     10  C   UNL     1      27.889  32.657  10.399  1.00  0.00     0.000 C 
BRANCH  10  11
ATOM     11  C   UNL     1      27.460  32.473   8.931  1.00  0.00     0.000 C 
BRANCH  11  12
ATOM     12  C   UNL     1      28.528  32.863   7.890  1.00  0.00     0.006 C 
BRANCH  12  13
ATOM     13  C   UNL     1      29.963  32.896   8.443  1.00  0.00     0.053 C 
BRANCH  13  14
ATOM     14  C   UNL     1      30.788  31.760   7.920  1.00  0.00     0.041 C 
ATOM     15  O   UNL     1      30.234  30.787   7.344  1.00  0.00    -0.550 OA
ATOM     16  O   UNL     1      32.163  31.758   8.108  1.00  0.00    -0.550 OA
ENDBRANCH  13  14
ENDBRANCH  12  13
ENDBRANCH  11  12
ENDBRANCH  10  11
ENDBRANCH   9  10
ENDBRANCH   8   9
ENDBRANCH   7   8
ENDBRANCH   6   7
ENDBRANCH   5   6
ENDBRANCH   4   5
ENDBRANCH   3   4
ENDBRANCH   2   3
ENDBRANCH   1   2
BRANCH   1  17
ATOM     17  C   UNL     1      33.956  31.289  12.739  1.00  0.00     0.000 C 
BRANCH  17  18
ATOM     18  C   UNL     1      34.612  30.105  13.476  1.00  0.00     0.000 C 
BRANCH  18  19
ATOM     19  C   UNL     1      35.498  30.556  14.651  1.00  0.00     0.000 C 
BRANCH  19  20
ATOM     20  C   UNL     1      36.564  31.588  14.224  1.00  0.00     0.000 C 
BRANCH  20  21
ATOM     21  C   UNL     1      37.776  30.977  13.500  1.00  0.00     0.000 C 
BRANCH  21  22
ATOM     22  C   UNL     1      38.671  30.142  14.430  1.00  0.00    -0.000 C 
BRANCH  22  23
ATOM     23  C   UNL     1      39.090  28.803  13.800  1.00  0.00    -0.000 C 
BRANCH  23  24
ATOM     24  C   UNL     1      39.857  28.987  12.478  1.00  0.00    -0.000 C 
BRANCH  24  25
ATOM     25  C   UNL     1      41.209  28.243  12.478  1.00  0.00    -0.000 C 
BRANCH  25  26
ATOM     26  C   UNL     1      42.428  29.181  12.558  1.00  0.00    -0.000 C 
BRANCH  26  27
ATOM     27  C   UNL     1      43.082  29.278  13.948  1.00  0.00    -0.000 C 
BRANCH  27  28
ATOM     28  C   UNL     1      42.373  30.222  14.938  1.00  0.00    -0.000 C 
BRANCH  28  29
ATOM     29  C   UNL     1      41.840  29.514  16.201  1.00  0.00    -0.003 C 
ATOM     30  C   UNL     1      41.282  30.495  17.232  1.00  0.00     0.004 C 
ENDBRANCH  28  29
ENDBRANCH  27  28
ENDBRANCH  26  27
ENDBRANCH  25  26
ENDBRANCH  24  25
ENDBRANCH  23  24
ENDBRANCH  22  23
ENDBRANCH  21  22
ENDBRANCH  20  21
ENDBRANCH  19  20
ENDBRANCH  18  19
ENDBRANCH  17  18
ENDBRANCH   1  17
TORSDOF 26
ENDMDL
MODEL 4
REMARK VINA RESULT:    -4.288     12.094     17.032
REMARK INTER + INTRA:         -13.946
REMARK INTER:                 -11.404
REMARK INTRA:                  -2.542
REMARK UNBOUND:                -3.141
REMARK SMILES CCCCCCCCCCCCCCCCCCCCCCCCCCCC(=O)[O-]
REMARK SMILES IDX 15 1 16 2 17 3 18 4 19 5 20 6 21 7 22 8 23 9 24 10 25 11
REMARK SMILES IDX 26 12 27 13 28 14 29 15 30 16 14 17 13 18 12 19 11 20 10 21
REMARK SMILES IDX 9 22 8 23 7 24 6 25 5 26 4 27 3 28 2 29 1 30
REMARK H PARENT
REMARK Flexibility Score: inf
ROOT
ATOM      1  C   UNL     1      33.020  30.901  11.998  1.00  0.00     0.000 C 
ENDROOT
BRANCH   1   2
ATOM      2  C   UNL     1      34.234  30.537  12.874  1.00  0.00     0.000 C 
BRANCH   2   3
ATOM      3  C   UNL     1      34.953  31.771  13.447  1.00  0.00     0.000 C 
BRANCH   3   4
ATOM      4  C   UNL     1      36.483  31.634  13.412  1.00  0.00     0.000 C 
BRANCH   4   5
ATOM      5  C   UNL     1      37.130  31.739  14.801  1.00  0.00     0.000 C 
BRANCH   5   6
ATOM      6  C   UNL     1      38.190  30.647  14.986  1.00  0.00     0.000 C 
BRANCH   6   7
ATOM      7  C   UNL     1      38.677  30.104  13.633  1.00  0.00     0.000 C 
BRANCH   7   8
ATOM      8  C   UNL     1      39.307  28.707  13.749  1.00  0.00     0.000 C 
BRANCH   8   9
ATOM      9  C   UNL     1      40.651  28.595  13.008  1.00  0.00     0.000 C 
BRANCH   9  10
ATOM     10  C   UNL     1      41.810  29.248  13.790  1.00  0.00     0.000 C 
BRANCH  10  11
ATOM     11  C   UNL     1      41.771  28.963  15.304  1.00  0.00     0.000 C 
BRANCH  11  12
ATOM     12  C   UNL     1      41.699  30.217  16.197  1.00  0.00     0.006 C 
BRANCH  12  13
ATOM     13  C   UNL     1      42.012  29.955  17.679  1.00  0.00     0.053 C 
BRANCH  13  14
ATOM     14  C   UNL     1      43.445  30.247  18.005  1.00  0.00     0.041 C 
ATOM     15  O   UNL     1      43.836  30.244  19.202  1.00  0.00    -0.550 OA
ATOM     16  O   UNL     1      44.337  30.564  16.990  1.00  0.00    -0.550 OA
ENDBRANCH  13  14
ENDBRANCH  12  13
ENDBRANCH  11  12
ENDBRANCH  10  11
ENDBRANCH   9  10
ENDBRANCH   8   9
ENDBRANCH   7   8
ENDBRANCH   6   7
ENDBRANCH   5   6
ENDBRANCH   4   5
ENDBRANCH   3   4
ENDBRANCH   2   3
ENDBRANCH   1   2
BRANCH   1  17
ATOM     17  C   UNL     1      32.026  29.750  11.726  1.00  0.00     0.000 C 
BRANCH  17  18
ATOM     18  C   UNL     1      30.884  30.085  10.748  1.00  0.00     0.000 C 
BRANCH  18  19
ATOM     19  C   UNL     1      29.863  28.942  10.614  1.00  0.00     0.000 C 
BRANCH  19  20
ATOM     20  C   UNL     1      28.495  29.297  11.234  1.00  0.00     0.000 C 
BRANCH  20  21
ATOM     21  C   UNL     1      28.482  30.627  12.008  1.00  0.00     0.000 C 
BRANCH  21  22
ATOM     22  C   UNL     1      27.623  31.706  11.329  1.00  0.00    -0.000 C 
BRANCH  22  23
ATOM     23  C   UNL     1      27.066  31.249   9.970  1.00  0.00    -0.000 C 
BRANCH  23  24
ATOM     24  C   UNL     1      27.721  31.983   8.787  1.00  0.00    -0.000 C 
BRANCH  24  25
ATOM     25  C   UNL     1      28.717  33.067   9.250  1.00  0.00    -0.000 C 
BRANCH  25  26
ATOM     26  C   UNL     1      29.709  33.501   8.155  1.00  0.00    -0.000 C 
BRANCH  26  27
ATOM     27  C   UNL     1      31.160  33.036   8.372  1.00  0.00    -0.000 C 
BRANCH  27  28
ATOM     28  C   UNL     1      31.503  31.664   7.760  1.00  0.00    -0.000 C 
BRANCH  28  29
ATOM     29  C   UNL     1      30.681  31.319   6.500  1.00  0.00    -0.003 C 
ATOM     30  C   UNL     1      31.219  32.004   5.243  1.00  0.00     0.004 C 
ENDBRANCH  28  29
ENDBRANCH  27  28
ENDBRANCH  26  27
ENDBRANCH  25  26
ENDBRANCH  24  25
ENDBRANCH  23  24
ENDBRANCH  22  23
ENDBRANCH  21  22
ENDBRANCH  20  21
ENDBRANCH  19  20
ENDBRANCH  18  19
ENDBRANCH  17  18
ENDBRANCH   1  17
TORSDOF 26
ENDMDL
MODEL 5
REMARK VINA RESULT:    -4.233     12.082     16.481
REMARK INTER + INTRA:         -13.807
REMARK INTER:                 -10.927
REMARK INTRA:                  -2.880
REMARK UNBOUND:                -3.141
REMARK SMILES CCCCCCCCCCCCCCCCCCCCCCCCCCCC(=O)[O-]
REMARK SMILES IDX 15 1 16 2 17 3 18 4 19 5 20 6 21 7 22 8 23 9 24 10 25 11
REMARK SMILES IDX 26 12 27 13 28 14 29 15 30 16 14 17 13 18 12 19 11 20 10 21
REMARK SMILES IDX 9 22 8 23 7 24 6 25 5 26 4 27 3 28 2 29 1 30
REMARK H PARENT
REMARK Flexibility Score: inf
ROOT
ATOM      1  C   UNL     1      30.270  29.791  12.385  1.00  0.00     0.000 C 
ENDROOT
BRANCH   1   2
ATOM      2  C   UNL     1      28.997  28.944  12.200  1.00  0.00     0.000 C 
BRANCH   2   3
ATOM      3  C   UNL     1      27.712  29.698  12.587  1.00  0.00     0.000 C 
BRANCH   3   4
ATOM      4  C   UNL     1      27.996  31.093  13.165  1.00  0.00     0.000 C 
BRANCH   4   5
ATOM      5  C   UNL     1      27.312  32.222  12.382  1.00  0.00     0.000 C 
BRANCH   5   6
ATOM      6  C   UNL     1      26.933  31.750  10.974  1.00  0.00     0.000 C 
BRANCH   6   7
ATOM      7  C   UNL     1      28.092  31.951   9.985  1.00  0.00     0.000 C 
BRANCH   7   8
ATOM      8  C   UNL     1      27.921  31.128   8.699  1.00  0.00     0.000 C 
BRANCH   8   9
ATOM      9  C   UNL     1      28.926  29.967   8.594  1.00  0.00     0.000 C 
BRANCH   9  10
ATOM     10  C   UNL     1      29.476  29.793   7.163  1.00  0.00     0.000 C 
BRANCH  10  11
ATOM     11  C   UNL     1      28.928  30.827   6.160  1.00  0.00     0.000 C 
BRANCH  11  12
ATOM     12  C   UNL     1      29.988  31.770   5.558  1.00  0.00     0.006 C 
BRANCH  12  13
ATOM     13  C   UNL     1      31.219  31.989   6.454  1.00  0.00     0.053 C 
BRANCH  13  14
ATOM     14  C   UNL     1      30.923  32.921   7.588  1.00  0.00     0.041 C 
ATOM     15  O   UNL     1      29.981  33.752   7.497  1.00  0.00    -0.550 OA
ATOM     16  O   UNL     1      31.715  32.901   8.728  1.00  0.00    -0.550 OA
ENDBRANCH  13  14
ENDBRANCH  12  13
ENDBRANCH  11  12
ENDBRANCH  10  11
ENDBRANCH   9  10
ENDBRANCH   8   9
ENDBRANCH   7   8
ENDBRANCH   6   7
ENDBRANCH   5   6
ENDBRANCH   4   5
ENDBRANCH   3   4
ENDBRANCH   2   3
ENDBRANCH   1   2
BRANCH   1  17
ATOM     17  C   UNL     1      31.289  29.721  11.226  1.00  0.00     0.000 C 
BRANCH  17  18
ATOM     18  C   UNL     1      32.376  30.813  11.240  1.00  0.00     0.000 C 
BRANCH  18  19
ATOM     19  C   UNL     1      33.361  30.656  12.412  1.00  0.00     0.000 C 
BRANCH  19  20
ATOM     20  C   UNL     1      34.068  31.980  12.770  1.00  0.00     0.000 C 
BRANCH  20  21
ATOM     21  C   UNL     1      35.254  31.818  13.737  1.00  0.00     0.000 C 
BRANCH  21  22
ATOM     22  C   UNL     1      35.527  30.351  14.110  1.00  0.00    -0.000 C 
BRANCH  22  23
ATOM     23  C   UNL     1      36.621  30.208  15.181  1.00  0.00    -0.000 C 
BRANCH  23  24
ATOM     24  C   UNL     1      37.914  30.954  14.808  1.00  0.00    -0.000 C 
BRANCH  24  25
ATOM     25  C   UNL     1      38.649  30.292  13.623  1.00  0.00    -0.000 C 
BRANCH  25  26
ATOM     26  C   UNL     1      39.069  28.835  13.895  1.00  0.00    -0.000 C 
BRANCH  26  27
ATOM     27  C   UNL     1      40.462  28.668  14.526  1.00  0.00    -0.000 C 
BRANCH  27  28
ATOM     28  C   UNL     1      41.359  29.920  14.468  1.00  0.00    -0.000 C 
BRANCH  28  29
ATOM     29  C   UNL     1      42.124  30.201  15.779  1.00  0.00    -0.003 C 
ATOM     30  C   UNL     1      41.194  30.582  16.930  1.00  0.00     0.004 C 
ENDBRANCH  28  29
ENDBRANCH  27  28
ENDBRANCH  26  27
ENDBRANCH  25  26
ENDBRANCH  24  25
ENDBRANCH  23  24
ENDBRANCH  22  23
ENDBRANCH  21  22
ENDBRANCH  20  21
ENDBRANCH  19  20
ENDBRANCH  18  19
ENDBRANCH  17  18
ENDBRANCH   1  17
TORSDOF 26
ENDMDL
MODEL 6
REMARK VINA RESULT:    -4.210     12.272     15.571
REMARK INTER + INTRA:         -13.750
REMARK INTER:                 -12.049
REMARK INTRA:                  -1.702
REMARK UNBOUND:                -3.141
REMARK SMILES CCCCCCCCCCCCCCCCCCCCCCCCCCCC(=O)[O-]
REMARK SMILES IDX 15 1 16 2 17 3 18 4 19 5 20 6 21 7 22 8 23 9 24 10 25 11
REMARK SMILES IDX 26 12 27 13 28 14 29 15 30 16 14 17 13 18 12 19 11 20 10 21
REMARK SMILES IDX 9 22 8 23 7 24 6 25 5 26 4 27 3 28 2 29 1 30
REMARK H PARENT
REMARK Flexibility Score: inf
ROOT
ATOM      1  C   UNL     1      33.686  30.427  12.646  1.00  0.00     0.000 C 
ENDROOT
BRANCH   1   2
ATOM      2  C   UNL     1      32.763  31.060  11.587  1.00  0.00     0.000 C 
BRANCH   2   3
ATOM      3  C   UNL     1      31.613  30.131  11.161  1.00  0.00     0.000 C 
BRANCH   3   4
ATOM      4  C   UNL     1      31.059  30.473   9.769  1.00  0.00     0.000 C 
BRANCH   4   5
ATOM      5  C   UNL     1      32.002  31.361   8.945  1.00  0.00     0.000 C 
BRANCH   5   6
ATOM      6  C   UNL     1      31.291  32.648   8.513  1.00  0.00     0.000 C 
BRANCH   6   7
ATOM      7  C   UNL     1      30.324  32.389   7.347  1.00  0.00     0.000 C 
BRANCH   7   8
ATOM      8  C   UNL     1      28.882  32.809   7.671  1.00  0.00     0.000 C 
BRANCH   8   9
ATOM      9  C   UNL     1      28.729  33.371   9.096  1.00  0.00     0.000 C 
BRANCH   9  10
ATOM     10  C   UNL     1      27.792  32.511   9.970  1.00  0.00     0.000 C 
BRANCH  10  11
ATOM     11  C   UNL     1      26.776  33.336  10.783  1.00  0.00     0.000 C 
BRANCH  11  12
ATOM     12  C   UNL     1      25.810  32.503  11.649  1.00  0.00     0.006 C 
BRANCH  12  13
ATOM     13  C   UNL     1      26.157  32.490  13.147  1.00  0.00     0.053 C 
BRANCH  13  14
ATOM     14  C   UNL     1      26.947  31.275  13.525  1.00  0.00     0.041 C 
ATOM     15  O   UNL     1      26.393  30.325  14.138  1.00  0.00    -0.550 OA
ATOM     16  O   UNL     1      28.304  31.212  13.239  1.00  0.00    -0.550 OA
ENDBRANCH  13  14
ENDBRANCH  12  13
ENDBRANCH  11  12
ENDBRANCH  10  11
ENDBRANCH   9  10
ENDBRANCH   8   9
ENDBRANCH   7   8
ENDBRANCH   6   7
ENDBRANCH   5   6
ENDBRANCH   4   5
ENDBRANCH   3   4
ENDBRANCH   2   3
ENDBRANCH   1   2
BRANCH   1  17
ATOM     17  C   UNL     1      34.755  31.368  13.244  1.00  0.00     0.000 C 
BRANCH  17  18
ATOM     18  C   UNL     1      35.751  30.701  14.212  1.00  0.00     0.000 C 
BRANCH  18  19
ATOM     19  C   UNL     1      36.894  31.643  14.630  1.00  0.00     0.000 C 
BRANCH  19  20
ATOM     20  C   UNL     1      38.187  30.879  14.986  1.00  0.00     0.000 C 
BRANCH  20  21
ATOM     21  C   UNL     1      38.546  29.756  13.998  1.00  0.00     0.000 C 
BRANCH  21  22
ATOM     22  C   UNL     1      40.040  29.392  14.022  1.00  0.00    -0.000 C 
BRANCH  22  23
ATOM     23  C   UNL     1      40.733  29.829  15.325  1.00  0.00    -0.000 C 
BRANCH  23  24
ATOM     24  C   UNL     1      42.222  30.158  15.120  1.00  0.00    -0.000 C 
BRANCH  24  25
ATOM     25  C   UNL     1      42.992  30.235  16.455  1.00  0.00    -0.000 C 
BRANCH  25  26
ATOM     26  C   UNL     1      42.174  29.756  17.668  1.00  0.00    -0.000 C 
BRANCH  26  27
ATOM     27  C   UNL     1      42.974  28.967  18.719  1.00  0.00    -0.000 C 
BRANCH  27  28
ATOM     28  C   UNL     1      44.054  29.778  19.462  1.00  0.00    -0.000 C 
BRANCH  28  29
ATOM     29  C   UNL     1      44.906  28.937  20.435  1.00  0.00    -0.003 C 
ATOM     30  C   UNL     1      44.056  28.189  21.463  1.00  0.00     0.004 C 
ENDBRANCH  28  29
ENDBRANCH  27  28
ENDBRANCH  26  27
ENDBRANCH  25  26
ENDBRANCH  24  25
ENDBRANCH  23  24
ENDBRANCH  22  23
ENDBRANCH  21  22
ENDBRANCH  20  21
ENDBRANCH  19  20
ENDBRANCH  18  19
ENDBRANCH  17  18
ENDBRANCH   1  17
TORSDOF 26
ENDMDL
MODEL 7
REMARK VINA RESULT:    -4.201     12.353     17.880
REMARK INTER + INTRA:         -13.726
REMARK INTER:                 -10.832
REMARK INTRA:                  -2.894
REMARK UNBOUND:                -3.141
REMARK SMILES CCCCCCCCCCCCCCCCCCCCCCCCCCCC(=O)[O-]
REMARK SMILES IDX 15 1 16 2 17 3 18 4 19 5 20 6 21 7 22 8 23 9 24 10 25 11
REMARK SMILES IDX 26 12 27 13 28 14 29 15 30 16 14 17 13 18 12 19 11 20 10 21
REMARK SMILES IDX 9 22 8 23 7 24 6 25 5 26 4 27 3 28 2 29 1 30
REMARK H PARENT
REMARK Flexibility Score: inf
ROOT
ATOM      1  C   UNL     1      30.615  29.743  11.127  1.00  0.00     0.000 C 
ENDROOT
BRANCH   1   2
ATOM      2  C   UNL     1      31.976  30.461  11.066  1.00  0.00     0.000 C 
BRANCH   2   3
ATOM      3  C   UNL     1      32.846  30.205  12.310  1.00  0.00     0.000 C 
BRANCH   3   4
ATOM      4  C   UNL     1      33.945  31.264  12.492  1.00  0.00     0.000 C 
BRANCH   4   5
ATOM      5  C   UNL     1      35.073  30.808  13.429  1.00  0.00     0.000 C 
BRANCH   5   6
ATOM      6  C   UNL     1      35.602  31.989  14.252  1.00  0.00     0.000 C 
BRANCH   6   7
ATOM      7  C   UNL     1      37.085  31.805  14.604  1.00  0.00     0.000 C 
BRANCH   7   8
ATOM      8  C   UNL     1      37.522  30.332  14.578  1.00  0.00     0.000 C 
BRANCH   8   9
ATOM      9  C   UNL     1      38.775  30.096  13.717  1.00  0.00     0.000 C 
BRANCH   9  10
ATOM     10  C   UNL     1      39.335  28.666  13.873  1.00  0.00     0.000 C 
BRANCH  10  11
ATOM     11  C   UNL     1      40.764  28.621  14.448  1.00  0.00     0.000 C 
BRANCH  11  12
ATOM     12  C   UNL     1      41.294  29.971  14.971  1.00  0.00     0.006 C 
BRANCH  12  13
ATOM     13  C   UNL     1      41.273  30.105  16.503  1.00  0.00     0.053 C 
BRANCH  13  14
ATOM     14  C   UNL     1      42.554  29.634  17.121  1.00  0.00     0.041 C 
ATOM     15  O   UNL     1      42.843  28.409  17.125  1.00  0.00    -0.550 OA
ATOM     16  O   UNL     1      43.407  30.545  17.729  1.00  0.00    -0.550 OA
ENDBRANCH  13  14
ENDBRANCH  12  13
ENDBRANCH  11  12
ENDBRANCH  10  11
ENDBRANCH   9  10
ENDBRANCH   8   9
ENDBRANCH   7   8
ENDBRANCH   6   7
ENDBRANCH   5   6
ENDBRANCH   4   5
ENDBRANCH   3   4
ENDBRANCH   2   3
ENDBRANCH   1   2
BRANCH   1  17
ATOM     17  C   UNL     1      30.557  28.367  10.428  1.00  0.00     0.000 C 
BRANCH  17  18
ATOM     18  C   UNL     1      29.887  28.363   9.040  1.00  0.00     0.000 C 
BRANCH  18  19
ATOM     19  C   UNL     1      28.487  29.002   9.056  1.00  0.00     0.000 C 
BRANCH  19  20
ATOM     20  C   UNL     1      28.141  29.699   7.722  1.00  0.00     0.000 C 
BRANCH  20  21
ATOM     21  C   UNL     1      28.741  29.013   6.482  1.00  0.00     0.000 C 
BRANCH  21  22
ATOM     22  C   UNL     1      29.741  29.906   5.729  1.00  0.00    -0.000 C 
BRANCH  22  23
ATOM     23  C   UNL     1      29.116  31.235   5.270  1.00  0.00    -0.000 C 
BRANCH  23  24
ATOM     24  C   UNL     1      29.768  32.457   5.940  1.00  0.00    -0.000 C 
BRANCH  24  25
ATOM     25  C   UNL     1      30.960  32.064   6.840  1.00  0.00    -0.000 C 
BRANCH  25  26
ATOM     26  C   UNL     1      30.895  32.677   8.251  1.00  0.00    -0.000 C 
BRANCH  26  27
ATOM     27  C   UNL     1      29.624  33.492   8.547  1.00  0.00    -0.000 C 
BRANCH  27  28
ATOM     28  C   UNL     1      28.603  32.797   9.468  1.00  0.00    -0.000 C 
BRANCH  28  29
ATOM     29  C   UNL     1      27.133  33.067   9.084  1.00  0.00    -0.003 C 
ATOM     30  C   UNL     1      26.159  32.120   9.786  1.00  0.00     0.004 C 
ENDBRANCH  28  29
ENDBRANCH  27  28
ENDBRANCH  26  27
ENDBRANCH  25  26
ENDBRANCH  24  25
ENDBRANCH  23  24
ENDBRANCH  22  23
ENDBRANCH  21  22
ENDBRANCH  20  21
ENDBRANCH  19  20
ENDBRANCH  18  19
ENDBRANCH  17  18
ENDBRANCH   1  17
TORSDOF 26
ENDMDL
MODEL 8
REMARK VINA RESULT:    -4.145     11.829     15.653
REMARK INTER + INTRA:         -13.585
REMARK INTER:                 -10.890
REMARK INTRA:                  -2.694
REMARK UNBOUND:                -3.141
REMARK SMILES CCCCCCCCCCCCCCCCCCCCCCCCCCCC(=O)[O-]
REMARK SMILES IDX 15 1 16 2 17 3 18 4 19 5 20 6 21 7 22 8 23 9 24 10 25 11
REMARK SMILES IDX 26 12 27 13 28 14 29 15 30 16 14 17 13 18 12 19 11 20 10 21
REMARK SMILES IDX 9 22 8 23 7 24 6 25 5 26 4 27 3 28 2 29 1 30
REMARK H PARENT
REMARK Flexibility Score: inf
ROOT
ATOM      1  C   UNL     1      33.856  30.360  12.744  1.00  0.00     0.000 C 
ENDROOT
BRANCH   1   2
ATOM      2  C   UNL     1      32.956  31.028  11.686  1.00  0.00     0.000 C 
BRANCH   2   3
ATOM      3  C   UNL     1      31.783  30.134  11.245  1.00  0.00     0.000 C 
BRANCH   3   4
ATOM      4  C   UNL     1      31.232  30.519   9.864  1.00  0.00     0.000 C 
BRANCH   4   5
ATOM      5  C   UNL     1      32.089  31.568   9.142  1.00  0.00     0.000 C 
BRANCH   5   6
ATOM      6  C   UNL     1      31.210  32.488   8.287  1.00  0.00     0.000 C 
BRANCH   6   7
ATOM      7  C   UNL     1      30.031  31.721   7.670  1.00  0.00     0.000 C 
BRANCH   7   8
ATOM      8  C   UNL     1      28.676  32.382   7.966  1.00  0.00     0.000 C 
BRANCH   8   9
ATOM      9  C   UNL     1      28.720  33.314   9.190  1.00  0.00     0.000 C 
BRANCH   9  10
ATOM     10  C   UNL     1      27.626  32.978  10.225  1.00  0.00     0.000 C 
BRANCH  10  11
ATOM     11  C   UNL     1      27.804  31.599  10.888  1.00  0.00     0.000 C 
BRANCH  11  12
ATOM     12  C   UNL     1      27.813  31.617  12.429  1.00  0.00     0.006 C 
BRANCH  12  13
ATOM     13  C   UNL     1      28.555  30.432  13.070  1.00  0.00     0.053 C 
BRANCH  13  14
ATOM     14  C   UNL     1      28.011  29.117  12.602  1.00  0.00     0.041 C 
ATOM     15  O   UNL     1      26.936  28.669  13.081  1.00  0.00    -0.550 OA
ATOM     16  O   UNL     1      28.714  28.367  11.669  1.00  0.00    -0.550 OA
ENDBRANCH  13  14
ENDBRANCH  12  13
ENDBRANCH  11  12
ENDBRANCH  10  11
ENDBRANCH   9  10
ENDBRANCH   8   9
ENDBRANCH   7   8
ENDBRANCH   6   7
ENDBRANCH   5   6
ENDBRANCH   4   5
ENDBRANCH   3   4
ENDBRANCH   2   3
ENDBRANCH   1   2
BRANCH   1  17
ATOM     17  C   UNL     1      35.009  31.234  13.283  1.00  0.00     0.000 C 
BRANCH  17  18
ATOM     18  C   UNL     1      35.797  30.629  14.461  1.00  0.00     0.000 C 
BRANCH  18  19
ATOM     19  C   UNL     1      36.930  31.548  14.952  1.00  0.00     0.000 C 
BRANCH  19  20
ATOM     20  C   UNL     1      38.309  30.856  14.916  1.00  0.00     0.000 C 
BRANCH  20  21
ATOM     21  C   UNL     1      38.491  29.879  13.742  1.00  0.00     0.000 C 
BRANCH  21  22
ATOM     22  C   UNL     1      39.628  28.869  13.974  1.00  0.00    -0.000 C 
BRANCH  22  23
ATOM     23  C   UNL     1      40.956  29.552  14.347  1.00  0.00    -0.000 C 
BRANCH  23  24
ATOM     24  C   UNL     1      41.887  28.630  15.153  1.00  0.00    -0.000 C 
BRANCH  24  25
ATOM     25  C   UNL     1      42.602  29.378  16.298  1.00  0.00    -0.000 C 
BRANCH  25  26
ATOM     26  C   UNL     1      42.845  30.870  16.003  1.00  0.00    -0.000 C 
BRANCH  26  27
ATOM     27  C   UNL     1      44.319  31.258  15.796  1.00  0.00    -0.000 C 
BRANCH  27  28
ATOM     28  C   UNL     1      44.991  30.633  14.557  1.00  0.00    -0.000 C 
BRANCH  28  29
ATOM     29  C   UNL     1      44.352  31.060  13.220  1.00  0.00    -0.003 C 
ATOM     30  C   UNL     1      44.086  29.876  12.291  1.00  0.00     0.004 C 
ENDBRANCH  28  29
ENDBRANCH  27  28
ENDBRANCH  26  27
ENDBRANCH  25  26
ENDBRANCH  24  25
ENDBRANCH  23  24
ENDBRANCH  22  23
ENDBRANCH  21  22
ENDBRANCH  20  21
ENDBRANCH  19  20
ENDBRANCH  18  19
ENDBRANCH  17  18
ENDBRANCH   1  17
TORSDOF 26
ENDMDL
MODEL 9
REMARK VINA RESULT:    -4.142     12.171     15.799
REMARK INTER + INTRA:         -13.578
REMARK INTER:                 -11.288
REMARK INTRA:                  -2.290
REMARK UNBOUND:                -3.141
REMARK SMILES CCCCCCCCCCCCCCCCCCCCCCCCCCCC(=O)[O-]
REMARK SMILES IDX 15 1 16 2 17 3 18 4 19 5 20 6 21 7 22 8 23 9 24 10 25 11
REMARK SMILES IDX 26 12 27 13 28 14 29 15 30 16 14 17 13 18 12 19 11 20 10 21
REMARK SMILES IDX 9 22 8 23 7 24 6 25 5 26 4 27 3 28 2 29 1 30
REMARK H PARENT
REMARK Flexibility Score: inf
ROOT
ATOM      1  C   UNL     1      33.491  31.368  12.485  1.00  0.00     0.000 C 
ENDROOT
BRANCH   1   2
ATOM      2  C   UNL     1      32.806  30.706  11.274  1.00  0.00     0.000 C 
BRANCH   2   3
ATOM      3  C   UNL     1      31.427  30.114  11.613  1.00  0.00     0.000 C 
BRANCH   3   4
ATOM      4  C   UNL     1      30.701  29.557  10.378  1.00  0.00     0.000 C 
BRANCH   4   5
ATOM      5  C   UNL     1      29.325  28.961  10.705  1.00  0.00     0.000 C 
BRANCH   5   6
ATOM      6  C   UNL     1      28.748  29.597  11.975  1.00  0.00     0.000 C 
BRANCH   6   7
ATOM      7  C   UNL     1      27.219  29.718  11.896  1.00  0.00     0.000 C 
BRANCH   7   8
ATOM      8  C   UNL     1      26.735  31.172  12.009  1.00  0.00     0.000 C 
BRANCH   8   9
ATOM      9  C   UNL     1      27.608  32.156  11.211  1.00  0.00     0.000 C 
BRANCH   9  10
ATOM     10  C   UNL     1      27.031  32.453   9.811  1.00  0.00     0.000 C 
BRANCH  10  11
ATOM     11  C   UNL     1      28.063  32.314   8.675  1.00  0.00     0.000 C 
BRANCH  11  12
ATOM     12  C   UNL     1      29.439  32.942   8.969  1.00  0.00     0.006 C 
BRANCH  12  13
ATOM     13  C   UNL     1      30.234  33.337   7.713  1.00  0.00     0.053 C 
BRANCH  13  14
ATOM     14  C   UNL     1      31.070  32.203   7.204  1.00  0.00     0.041 C 
ATOM     15  O   UNL     1      31.932  31.667   7.949  1.00  0.00    -0.550 OA
ATOM     16  O   UNL     1      30.926  31.769   5.893  1.00  0.00    -0.550 OA
ENDBRANCH  13  14
ENDBRANCH  12  13
ENDBRANCH  11  12
ENDBRANCH  10  11
ENDBRANCH   9  10
ENDBRANCH   8   9
ENDBRANCH   7   8
ENDBRANCH   6   7
ENDBRANCH   5   6
ENDBRANCH   4   5
ENDBRANCH   3   4
ENDBRANCH   2   3
ENDBRANCH   1   2
BRANCH   1  17
ATOM     17  C   UNL     1      34.627  30.549  13.136  1.00  0.00     0.000 C 
BRANCH  17  18
ATOM     18  C   UNL     1      35.697  31.378  13.872  1.00  0.00     0.000 C 
BRANCH  18  19
ATOM     19  C   UNL     1      36.315  30.626  15.064  1.00  0.00     0.000 C 
BRANCH  19  20
ATOM     20  C   UNL     1      37.855  30.567  14.989  1.00  0.00     0.000 C 
BRANCH  20  21
ATOM     21  C   UNL     1      38.404  30.212  13.595  1.00  0.00     0.000 C 
BRANCH  21  22
ATOM     22  C   UNL     1      39.265  28.938  13.597  1.00  0.00    -0.000 C 
BRANCH  22  23
ATOM     23  C   UNL     1      40.566  29.105  12.793  1.00  0.00    -0.000 C 
BRANCH  23  24
ATOM     24  C   UNL     1      41.823  28.988  13.672  1.00  0.00    -0.000 C 
BRANCH  24  25
ATOM     25  C   UNL     1      41.486  29.003  15.178  1.00  0.00    -0.000 C 
BRANCH  25  26
ATOM     26  C   UNL     1      41.614  30.395  15.824  1.00  0.00    -0.000 C 
BRANCH  26  27
ATOM     27  C   UNL     1      41.502  30.411  17.359  1.00  0.00    -0.000 C 
BRANCH  27  28
ATOM     28  C   UNL     1      42.415  29.407  18.090  1.00  0.00    -0.000 C 
BRANCH  28  29
ATOM     29  C   UNL     1      43.785  29.989  18.494  1.00  0.00    -0.003 C 
ATOM     30  C   UNL     1      44.109  29.760  19.970  1.00  0.00     0.004 C 
ENDBRANCH  28  29
ENDBRANCH  27  28
ENDBRANCH  26  27
ENDBRANCH  25  26
ENDBRANCH  24  25
ENDBRANCH  23  24
ENDBRANCH  22  23
ENDBRANCH  21  22
ENDBRANCH  20  21
ENDBRANCH  19  20
ENDBRANCH  18  19
ENDBRANCH  17  18
ENDBRANCH   1  17
TORSDOF 26
ENDMDL
