MODEL 1
REMARK VINA RESULT:    -6.014      0.000      0.000
REMARK INTER + INTRA:          -7.475
REMARK INTER:                  -7.421
REMARK INTRA:                  -0.054
REMARK UNBOUND:                -0.054
REMARK SMILES Oc1cc(O)c2cc(O)c(-c3cc(O)c(O)c(O)c3)[o+]c2c1.[Cl-]
REMARK SMILES IDX 10 1 20 2 21 3 22 4 2 5 3 6 4 7 6 8 7 9 8 10 11 11 12 12
REMARK SMILES IDX 13 13 19 14 15 15 17 16 14 17 16 19 18 21 9 23 1 25 5 27
REMARK H PARENT 14 18 16 20 18 22 9 24 1 26 5 28
REMARK Flexibility Score: inf
ROOT
ATOM      1  C   UNL     1      39.081 -24.137  -4.656  1.00  0.00     0.402 A 
ATOM      2  O   UNL     1      40.113 -24.830  -5.129  1.00  0.00    -0.202 OA
ATOM      3  C   UNL     1      40.441 -24.862  -6.416  1.00  0.00     0.368 A 
ATOM      4  C   UNL     1      41.543 -25.621  -6.818  1.00  0.00     0.162 A 
ATOM      5  C   UNL     1      41.909 -25.675  -8.167  1.00  0.00     0.128 A 
ATOM      6  C   UNL     1      41.168 -24.967  -9.117  1.00  0.00     0.093 A 
ATOM      7  C   UNL     1      40.060 -24.199  -8.740  1.00  0.00     0.136 A 
ATOM      8  C   UNL     1      39.686 -24.139  -7.371  1.00  0.00     0.125 A 
ATOM      9  C   UNL     1      38.600 -23.385  -6.901  1.00  0.00     0.078 A 
ATOM     10  C   UNL     1      38.295 -23.371  -5.536  1.00  0.00     0.223 A 
ENDROOT
BRANCH   1  11
ATOM     11  C   UNL     1      38.812 -24.189  -3.200  1.00  0.00     0.091 A 
ATOM     12  C   UNL     1      39.879 -24.075  -2.296  1.00  0.00     0.068 A 
ATOM     13  C   UNL     1      39.654 -24.142  -0.914  1.00  0.00     0.162 A 
ATOM     14  C   UNL     1      37.515 -24.407  -2.703  1.00  0.00     0.068 A 
ATOM     15  C   UNL     1      38.352 -24.339  -0.424  1.00  0.00     0.200 A 
ATOM     16  C   UNL     1      37.281 -24.476  -1.326  1.00  0.00     0.162 A 
BRANCH  13  17
ATOM     17  O   UNL     1      40.721 -24.013  -0.026  1.00  0.00    -0.504 OA
ATOM     18  H   UNL     1      40.884 -24.689   0.711  1.00  0.00     0.293 HD
ENDBRANCH  13  17
BRANCH  15  19
ATOM     19  O   UNL     1      38.109 -24.404   0.948  1.00  0.00    -0.502 OA
ATOM     20  H   UNL     1      38.180 -25.270   1.468  1.00  0.00     0.293 HD
ENDBRANCH  15  19
BRANCH  16  21
ATOM     21  O   UNL     1      35.980 -24.688  -0.872  1.00  0.00    -0.504 OA
ATOM     22  H   UNL     1      35.170 -24.471  -1.439  1.00  0.00     0.293 HD
ENDBRANCH  16  21
ENDBRANCH   1  11
BRANCH  10  23
ATOM     23  O   UNL     1      37.247 -22.583  -5.061  1.00  0.00    -0.500 OA
ATOM     24  H   UNL     1      36.295 -22.930  -5.022  1.00  0.00     0.294 HD
ENDBRANCH  10  23
BRANCH   5  25
ATOM     25  O   UNL     1      43.006 -26.430  -8.575  1.00  0.00    -0.507 OA
ATOM     26  H   UNL     1      43.611 -26.892  -7.905  1.00  0.00     0.293 HD
ENDBRANCH   5  25
BRANCH   7  27
ATOM     27  O   UNL     1      39.370 -23.524  -9.750  1.00  0.00    -0.507 OA
ATOM     28  H   UNL     1      38.754 -23.967 -10.416  1.00  0.00     0.293 HD
ENDBRANCH   7  27
TORSDOF 7
ENDMDL
MODEL 2
REMARK VINA RESULT:    -5.839     15.231     17.200
REMARK INTER + INTRA:          -7.258
REMARK INTER:                  -6.883
REMARK INTRA:                  -0.376
REMARK UNBOUND:                -0.054
REMARK SMILES Oc1cc(O)c2cc(O)c(-c3cc(O)c(O)c(O)c3)[o+]c2c1.[Cl-]
REMARK SMILES IDX 10 1 20 2 21 3 22 4 2 5 3 6 4 7 6 8 7 9 8 10 11 11 12 12
REMARK SMILES IDX 13 13 19 14 15 15 17 16 14 17 16 19 18 21 9 23 1 25 5 27
REMARK H PARENT 14 18 16 20 18 22 9 24 1 26 5 28
REMARK Flexibility Score: inf
ROOT
ATOM      1  C   UNL     1      54.060 -32.686  -2.638  1.00  0.00     0.402 A 
ATOM      2  O   UNL     1      53.874 -33.848  -3.258  1.00  0.00    -0.202 OA
ATOM      3  C   UNL     1      54.302 -34.093  -4.492  1.00  0.00     0.368 A 
ATOM      4  C   UNL     1      54.055 -35.345  -5.061  1.00  0.00     0.162 A 
ATOM      5  C   UNL     1      54.492 -35.629  -6.359  1.00  0.00     0.128 A 
ATOM      6  C   UNL     1      55.177 -34.655  -7.090  1.00  0.00     0.093 A 
ATOM      7  C   UNL     1      55.437 -33.393  -6.543  1.00  0.00     0.136 A 
ATOM      8  C   UNL     1      54.998 -33.101  -5.225  1.00  0.00     0.125 A 
ATOM      9  C   UNL     1      55.225 -31.869  -4.592  1.00  0.00     0.078 A 
ATOM     10  C   UNL     1      54.766 -31.656  -3.288  1.00  0.00     0.223 A 
ENDROOT
BRANCH   1  11
ATOM     11  C   UNL     1      53.527 -32.532  -1.265  1.00  0.00     0.091 A 
ATOM     12  C   UNL     1      52.273 -31.933  -1.075  1.00  0.00     0.068 A 
ATOM     13  C   UNL     1      51.754 -31.756   0.216  1.00  0.00     0.162 A 
ATOM     14  C   UNL     1      54.276 -32.922  -0.141  1.00  0.00     0.068 A 
ATOM     15  C   UNL     1      52.500 -32.168   1.333  1.00  0.00     0.200 A 
ATOM     16  C   UNL     1      53.768 -32.748   1.150  1.00  0.00     0.162 A 
BRANCH  13  17
ATOM     17  O   UNL     1      50.500 -31.173   0.390  1.00  0.00    -0.504 OA
ATOM     18  H   UNL     1      50.227 -30.752   1.271  1.00  0.00     0.293 HD
ENDBRANCH  13  17
BRANCH  15  19
ATOM     19  O   UNL     1      51.998 -32.003   2.624  1.00  0.00    -0.502 OA
ATOM     20  H   UNL     1      51.238 -32.567   2.984  1.00  0.00     0.293 HD
ENDBRANCH  15  19
BRANCH  16  21
ATOM     21  O   UNL     1      54.539 -33.152   2.239  1.00  0.00    -0.504 OA
ATOM     22  H   UNL     1      54.864 -34.106   2.344  1.00  0.00     0.293 HD
ENDBRANCH  16  21
ENDBRANCH   1  11
BRANCH  10  23
ATOM     23  O   UNL     1      55.034 -30.450  -2.639  1.00  0.00    -0.500 OA
ATOM     24  H   UNL     1      54.584 -29.586  -2.915  1.00  0.00     0.294 HD
ENDBRANCH  10  23
BRANCH   5  25
ATOM     25  O   UNL     1      54.250 -36.875  -6.932  1.00  0.00    -0.507 OA
ATOM     26  H   UNL     1      53.950 -36.966  -7.897  1.00  0.00     0.293 HD
ENDBRANCH   5  25
BRANCH   7  27
ATOM     27  O   UNL     1      56.125 -32.474  -7.341  1.00  0.00    -0.507 OA
ATOM     28  H   UNL     1      56.696 -31.723  -6.983  1.00  0.00     0.293 HD
ENDBRANCH   7  27
TORSDOF 7
ENDMDL
MODEL 3
REMARK VINA RESULT:    -5.786     13.807     15.107
REMARK INTER + INTRA:          -7.193
REMARK INTER:                  -6.818
REMARK INTRA:                  -0.375
REMARK UNBOUND:                -0.054
REMARK SMILES Oc1cc(O)c2cc(O)c(-c3cc(O)c(O)c(O)c3)[o+]c2c1.[Cl-]
REMARK SMILES IDX 10 1 20 2 21 3 22 4 2 5 3 6 4 7 6 8 7 9 8 10 11 11 12 12
REMARK SMILES IDX 13 13 19 14 15 15 17 16 14 17 16 19 18 21 9 23 1 25 5 27
REMARK H PARENT 14 18 16 20 18 22 9 24 1 26 5 28
REMARK Flexibility Score: inf
ROOT
ATOM      1  C   UNL     1      49.325 -27.845   5.545  1.00  0.00     0.402 A 
ATOM      2  O   UNL     1      50.210 -28.835   5.610  1.00  0.00    -0.202 OA
ATOM      3  C   UNL     1      51.135 -29.048   4.680  1.00  0.00     0.368 A 
ATOM      4  C   UNL     1      52.021 -30.117   4.834  1.00  0.00     0.162 A 
ATOM      5  C   UNL     1      53.003 -30.366   3.870  1.00  0.00     0.128 A 
ATOM      6  C   UNL     1      53.097 -29.541   2.746  1.00  0.00     0.093 A 
ATOM      7  C   UNL     1      52.222 -28.463   2.568  1.00  0.00     0.136 A 
ATOM      8  C   UNL     1      51.226 -28.205   3.546  1.00  0.00     0.125 A 
ATOM      9  C   UNL     1      50.315 -27.140   3.457  1.00  0.00     0.078 A 
ATOM     10  C   UNL     1      49.363 -26.946   4.463  1.00  0.00     0.223 A 
ENDROOT
BRANCH   1  11
ATOM     11  C   UNL     1      48.336 -27.718   6.640  1.00  0.00     0.091 A 
ATOM     12  C   UNL     1      48.723 -27.135   7.856  1.00  0.00     0.068 A 
ATOM     13  C   UNL     1      47.813 -27.021   8.916  1.00  0.00     0.162 A 
ATOM     14  C   UNL     1      47.030 -28.220   6.509  1.00  0.00     0.068 A 
ATOM     15  C   UNL     1      46.502 -27.507   8.770  1.00  0.00     0.200 A 
ATOM     16  C   UNL     1      46.115 -28.113   7.561  1.00  0.00     0.162 A 
BRANCH  13  17
ATOM     17  O   UNL     1      48.206 -26.427  10.114  1.00  0.00    -0.504 OA
ATOM     18  H   UNL     1      47.729 -25.613  10.485  1.00  0.00     0.293 HD
ENDBRANCH  13  17
BRANCH  15  19
ATOM     19  O   UNL     1      45.582 -27.400   9.813  1.00  0.00    -0.502 OA
ATOM     20  H   UNL     1      44.876 -26.675   9.836  1.00  0.00     0.293 HD
ENDBRANCH  15  19
BRANCH  16  21
ATOM     21  O   UNL     1      44.827 -28.620   7.390  1.00  0.00    -0.504 OA
ATOM     22  H   UNL     1      44.006 -28.028   7.433  1.00  0.00     0.293 HD
ENDBRANCH  16  21
ENDBRANCH   1  11
BRANCH  10  23
ATOM     23  O   UNL     1      48.491 -25.859   4.401  1.00  0.00    -0.500 OA
ATOM     24  H   UNL     1      48.831 -24.906   4.361  1.00  0.00     0.294 HD
ENDBRANCH  10  23
BRANCH   5  25
ATOM     25  O   UNL     1      53.889 -31.430   4.017  1.00  0.00    -0.507 OA
ATOM     26  H   UNL     1      53.832 -32.253   3.428  1.00  0.00     0.293 HD
ENDBRANCH   5  25
BRANCH   7  27
ATOM     27  O   UNL     1      52.381 -27.688   1.415  1.00  0.00    -0.507 OA
ATOM     28  H   UNL     1      51.763 -27.718   0.618  1.00  0.00     0.293 HD
ENDBRANCH   7  27
TORSDOF 7
ENDMDL
MODEL 4
REMARK VINA RESULT:    -5.774     14.361     15.372
REMARK INTER + INTRA:          -7.179
REMARK INTER:                  -6.807
REMARK INTRA:                  -0.372
REMARK UNBOUND:                -0.054
REMARK SMILES Oc1cc(O)c2cc(O)c(-c3cc(O)c(O)c(O)c3)[o+]c2c1.[Cl-]
REMARK SMILES IDX 10 1 20 2 21 3 22 4 2 5 3 6 4 7 6 8 7 9 8 10 11 11 12 12
REMARK SMILES IDX 13 13 19 14 15 15 17 16 14 17 16 19 18 21 9 23 1 25 5 27
REMARK H PARENT 14 18 16 20 18 22 9 24 1 26 5 28
REMARK Flexibility Score: inf
ROOT
ATOM      1  C   UNL     1      52.435 -32.039  -3.596  1.00  0.00     0.402 A 
ATOM      2  O   UNL     1      52.045 -33.149  -4.218  1.00  0.00    -0.202 OA
ATOM      3  C   UNL     1      51.986 -33.261  -5.541  1.00  0.00     0.368 A 
ATOM      4  C   UNL     1      51.561 -34.468  -6.102  1.00  0.00     0.162 A 
ATOM      5  C   UNL     1      51.487 -34.613  -7.491  1.00  0.00     0.128 A 
ATOM      6  C   UNL     1      51.838 -33.545  -8.321  1.00  0.00     0.093 A 
ATOM      7  C   UNL     1      52.266 -32.325  -7.783  1.00  0.00     0.136 A 
ATOM      8  C   UNL     1      52.346 -32.175  -6.374  1.00  0.00     0.125 A 
ATOM      9  C   UNL     1      52.777 -30.994  -5.748  1.00  0.00     0.078 A 
ATOM     10  C   UNL     1      52.834 -30.922  -4.352  1.00  0.00     0.223 A 
ENDROOT
BRANCH   1  11
ATOM     11  C   UNL     1      52.450 -32.035  -2.116  1.00  0.00     0.091 A 
ATOM     12  C   UNL     1      53.500 -32.668  -1.434  1.00  0.00     0.068 A 
ATOM     13  C   UNL     1      53.527 -32.696  -0.032  1.00  0.00     0.162 A 
ATOM     14  C   UNL     1      51.403 -31.459  -1.375  1.00  0.00     0.068 A 
ATOM     15  C   UNL     1      52.488 -32.100   0.701  1.00  0.00     0.200 A 
ATOM     16  C   UNL     1      51.420 -31.485   0.023  1.00  0.00     0.162 A 
BRANCH  13  17
ATOM     17  O   UNL     1      54.584 -33.315   0.633  1.00  0.00    -0.504 OA
ATOM     18  H   UNL     1      55.219 -33.943   0.154  1.00  0.00     0.293 HD
ENDBRANCH  13  17
BRANCH  15  19
ATOM     19  O   UNL     1      52.500 -32.117   2.096  1.00  0.00    -0.502 OA
ATOM     20  H   UNL     1      51.865 -31.553   2.648  1.00  0.00     0.293 HD
ENDBRANCH  15  19
BRANCH  16  21
ATOM     21  O   UNL     1      50.366 -30.898   0.722  1.00  0.00    -0.504 OA
ATOM     22  H   UNL     1      49.962 -30.012   0.444  1.00  0.00     0.293 HD
ENDBRANCH  16  21
ENDBRANCH   1  11
BRANCH  10  23
ATOM     23  O   UNL     1      53.310 -29.767  -3.730  1.00  0.00    -0.500 OA
ATOM     24  H   UNL     1      52.682 -29.087  -3.319  1.00  0.00     0.294 HD
ENDBRANCH  10  23
BRANCH   5  25
ATOM     25  O   UNL     1      51.064 -35.813  -8.058  1.00  0.00    -0.507 OA
ATOM     26  H   UNL     1      50.800 -35.874  -9.035  1.00  0.00     0.293 HD
ENDBRANCH   5  25
BRANCH   7  27
ATOM     27  O   UNL     1      52.596 -31.306  -8.681  1.00  0.00    -0.507 OA
ATOM     28  H   UNL     1      52.326 -31.293  -9.654  1.00  0.00     0.293 HD
ENDBRANCH   7  27
TORSDOF 7
ENDMDL
MODEL 5
REMARK VINA RESULT:    -5.763      1.805      3.646
REMARK INTER + INTRA:          -7.165
REMARK INTER:                  -6.832
REMARK INTRA:                  -0.333
REMARK UNBOUND:                -0.054
REMARK SMILES Oc1cc(O)c2cc(O)c(-c3cc(O)c(O)c(O)c3)[o+]c2c1.[Cl-]
REMARK SMILES IDX 10 1 20 2 21 3 22 4 2 5 3 6 4 7 6 8 7 9 8 10 11 11 12 12
REMARK SMILES IDX 13 13 19 14 15 15 17 16 14 17 16 19 18 21 9 23 1 25 5 27
REMARK H PARENT 14 18 16 20 18 22 9 24 1 26 5 28
REMARK Flexibility Score: inf
ROOT
ATOM      1  C   UNL     1      38.676 -23.683  -4.298  1.00  0.00     0.402 A 
ATOM      2  O   UNL     1      38.377 -22.481  -4.785  1.00  0.00    -0.202 OA
ATOM      3  C   UNL     1      38.377 -22.200  -6.083  1.00  0.00     0.368 A 
ATOM      4  C   UNL     1      38.052 -20.906  -6.499  1.00  0.00     0.162 A 
ATOM      5  C   UNL     1      38.048 -20.581  -7.859  1.00  0.00     0.128 A 
ATOM      6  C   UNL     1      38.371 -21.556  -8.807  1.00  0.00     0.093 A 
ATOM      7  C   UNL     1      38.701 -22.859  -8.417  1.00  0.00     0.136 A 
ATOM      8  C   UNL     1      38.704 -23.194  -7.037  1.00  0.00     0.125 A 
ATOM      9  C   UNL     1      39.008 -24.477  -6.556  1.00  0.00     0.078 A 
ATOM     10  C   UNL     1      38.986 -24.733  -5.181  1.00  0.00     0.223 A 
ENDROOT
BRANCH   1  11
ATOM     11  C   UNL     1      38.649 -23.869  -2.829  1.00  0.00     0.091 A 
ATOM     12  C   UNL     1      37.418 -23.871  -2.156  1.00  0.00     0.068 A 
ATOM     13  C   UNL     1      37.366 -24.025  -0.763  1.00  0.00     0.162 A 
ATOM     14  C   UNL     1      39.836 -23.988  -2.085  1.00  0.00     0.068 A 
ATOM     15  C   UNL     1      38.556 -24.164  -0.028  1.00  0.00     0.200 A 
ATOM     16  C   UNL     1      39.794 -24.140  -0.695  1.00  0.00     0.162 A 
BRANCH  13  17
ATOM     17  O   UNL     1      36.136 -24.040  -0.108  1.00  0.00    -0.504 OA
ATOM     18  H   UNL     1      35.499 -24.823  -0.191  1.00  0.00     0.293 HD
ENDBRANCH  13  17
BRANCH  15  19
ATOM     19  O   UNL     1      38.523 -24.321   1.358  1.00  0.00    -0.502 OA
ATOM     20  H   UNL     1      39.069 -23.739   1.980  1.00  0.00     0.293 HD
ENDBRANCH  15  19
BRANCH  16  21
ATOM     21  O   UNL     1      40.992 -24.260   0.007  1.00  0.00    -0.504 OA
ATOM     22  H   UNL     1      41.390 -23.489   0.530  1.00  0.00     0.293 HD
ENDBRANCH  16  21
ENDBRANCH   1  11
BRANCH  10  23
ATOM     23  O   UNL     1      39.239 -26.020  -4.705  1.00  0.00    -0.500 OA
ATOM     24  H   UNL     1      38.599 -26.786  -4.876  1.00  0.00     0.294 HD
ENDBRANCH  10  23
BRANCH   5  25
ATOM     25  O   UNL     1      37.724 -19.294  -8.280  1.00  0.00    -0.507 OA
ATOM     26  H   UNL     1      38.369 -18.520  -8.164  1.00  0.00     0.293 HD
ENDBRANCH   5  25
BRANCH   7  27
ATOM     27  O   UNL     1      39.015 -23.773  -9.426  1.00  0.00    -0.507 OA
ATOM     28  H   UNL     1      39.725 -23.627 -10.128  1.00  0.00     0.293 HD
ENDBRANCH   7  27
TORSDOF 7
ENDMDL
MODEL 6
REMARK VINA RESULT:    -5.756     14.233     17.076
REMARK INTER + INTRA:          -7.157
REMARK INTER:                  -6.772
REMARK INTRA:                  -0.384
REMARK UNBOUND:                -0.054
REMARK SMILES Oc1cc(O)c2cc(O)c(-c3cc(O)c(O)c(O)c3)[o+]c2c1.[Cl-]
REMARK SMILES IDX 10 1 20 2 21 3 22 4 2 5 3 6 4 7 6 8 7 9 8 10 11 11 12 12
REMARK SMILES IDX 13 13 19 14 15 15 17 16 14 17 16 19 18 21 9 23 1 25 5 27
REMARK H PARENT 14 18 16 20 18 22 9 24 1 26 5 28
REMARK Flexibility Score: inf
ROOT
ATOM      1  C   UNL     1      50.891 -28.034   5.658  1.00  0.00     0.402 A 
ATOM      2  O   UNL     1      49.595 -28.304   5.525  1.00  0.00    -0.202 OA
ATOM      3  C   UNL     1      48.691 -28.010   6.453  1.00  0.00     0.368 A 
ATOM      4  C   UNL     1      47.351 -28.336   6.223  1.00  0.00     0.162 A 
ATOM      5  C   UNL     1      46.379 -28.041   7.184  1.00  0.00     0.128 A 
ATOM      6  C   UNL     1      46.749 -27.418   8.379  1.00  0.00     0.093 A 
ATOM      7  C   UNL     1      48.083 -27.082   8.633  1.00  0.00     0.136 A 
ATOM      8  C   UNL     1      49.074 -27.377   7.659  1.00  0.00     0.125 A 
ATOM      9  C   UNL     1      50.433 -27.064   7.822  1.00  0.00     0.078 A 
ATOM     10  C   UNL     1      51.351 -27.382   6.816  1.00  0.00     0.223 A 
ENDROOT
BRANCH   1  11
ATOM     11  C   UNL     1      51.803 -28.420   4.556  1.00  0.00     0.091 A 
ATOM     12  C   UNL     1      52.006 -27.535   3.487  1.00  0.00     0.068 A 
ATOM     13  C   UNL     1      52.848 -27.884   2.421  1.00  0.00     0.162 A 
ATOM     14  C   UNL     1      52.426 -29.680   4.529  1.00  0.00     0.068 A 
ATOM     15  C   UNL     1      53.484 -29.137   2.412  1.00  0.00     0.200 A 
ATOM     16  C   UNL     1      53.266 -30.037   3.469  1.00  0.00     0.162 A 
BRANCH  13  17
ATOM     17  O   UNL     1      53.053 -26.990   1.371  1.00  0.00    -0.504 OA
ATOM     18  H   UNL     1      53.835 -26.346   1.367  1.00  0.00     0.293 HD
ENDBRANCH  13  17
BRANCH  15  19
ATOM     19  O   UNL     1      54.328 -29.500   1.361  1.00  0.00    -0.502 OA
ATOM     20  H   UNL     1      55.065 -30.184   1.473  1.00  0.00     0.293 HD
ENDBRANCH  15  19
BRANCH  16  21
ATOM     21  O   UNL     1      53.870 -31.294   3.482  1.00  0.00    -0.504 OA
ATOM     22  H   UNL     1      54.876 -31.408   3.450  1.00  0.00     0.293 HD
ENDBRANCH  16  21
ENDBRANCH   1  11
BRANCH  10  23
ATOM     23  O   UNL     1      52.693 -27.027   6.956  1.00  0.00    -0.500 OA
ATOM     24  H   UNL     1      53.080 -26.216   6.487  1.00  0.00     0.294 HD
ENDBRANCH  10  23
BRANCH   5  25
ATOM     25  O   UNL     1      45.042 -28.363   6.962  1.00  0.00    -0.507 OA
ATOM     26  H   UNL     1      44.392 -28.490   7.730  1.00  0.00     0.293 HD
ENDBRANCH   5  25
BRANCH   7  27
ATOM     27  O   UNL     1      48.371 -26.464   9.853  1.00  0.00    -0.507 OA
ATOM     28  H   UNL     1      48.749 -26.940  10.658  1.00  0.00     0.293 HD
ENDBRANCH   7  27
TORSDOF 7
ENDMDL
MODEL 7
REMARK VINA RESULT:    -5.664     12.795     14.230
REMARK INTER + INTRA:          -7.043
REMARK INTER:                  -6.686
REMARK INTRA:                  -0.357
REMARK UNBOUND:                -0.054
REMARK SMILES Oc1cc(O)c2cc(O)c(-c3cc(O)c(O)c(O)c3)[o+]c2c1.[Cl-]
REMARK SMILES IDX 10 1 20 2 21 3 22 4 2 5 3 6 4 7 6 8 7 9 8 10 11 11 12 12
REMARK SMILES IDX 13 13 19 14 15 15 17 16 14 17 16 19 18 21 9 23 1 25 5 27
REMARK H PARENT 14 18 16 20 18 22 9 24 1 26 5 28
REMARK Flexibility Score: inf
ROOT
ATOM      1  C   UNL     1      48.975 -27.107   5.337  1.00  0.00     0.402 A 
ATOM      2  O   UNL     1      48.856 -25.997   4.613  1.00  0.00    -0.202 OA
ATOM      3  C   UNL     1      49.674 -25.691   3.611  1.00  0.00     0.368 A 
ATOM      4  C   UNL     1      49.471 -24.500   2.909  1.00  0.00     0.162 A 
ATOM      5  C   UNL     1      50.318 -24.150   1.852  1.00  0.00     0.128 A 
ATOM      6  C   UNL     1      51.372 -24.996   1.497  1.00  0.00     0.093 A 
ATOM      7  C   UNL     1      51.596 -26.195   2.185  1.00  0.00     0.136 A 
ATOM      8  C   UNL     1      50.738 -26.555   3.256  1.00  0.00     0.125 A 
ATOM      9  C   UNL     1      50.878 -27.742   3.992  1.00  0.00     0.078 A 
ATOM     10  C   UNL     1      49.990 -28.032   5.033  1.00  0.00     0.223 A 
ENDROOT
BRANCH   1  11
ATOM     11  C   UNL     1      48.006 -27.332   6.435  1.00  0.00     0.091 A 
ATOM     12  C   UNL     1      48.386 -27.060   7.757  1.00  0.00     0.068 A 
ATOM     13  C   UNL     1      47.495 -27.283   8.817  1.00  0.00     0.162 A 
ATOM     14  C   UNL     1      46.730 -27.867   6.186  1.00  0.00     0.068 A 
ATOM     15  C   UNL     1      46.214 -27.799   8.558  1.00  0.00     0.200 A 
ATOM     16  C   UNL     1      45.836 -28.096   7.237  1.00  0.00     0.162 A 
BRANCH  13  17
ATOM     17  O   UNL     1      47.880 -26.995  10.125  1.00  0.00    -0.504 OA
ATOM     18  H   UNL     1      48.058 -27.729  10.801  1.00  0.00     0.293 HD
ENDBRANCH  13  17
BRANCH  15  19
ATOM     19  O   UNL     1      45.314 -28.025   9.600  1.00  0.00    -0.502 OA
ATOM     20  H   UNL     1      44.312 -28.011   9.460  1.00  0.00     0.293 HD
ENDBRANCH  15  19
BRANCH  16  21
ATOM     21  O   UNL     1      44.578 -28.623   6.950  1.00  0.00    -0.504 OA
ATOM     22  H   UNL     1      44.201 -29.421   7.448  1.00  0.00     0.293 HD
ENDBRANCH  16  21
ENDBRANCH   1  11
BRANCH  10  23
ATOM     23  O   UNL     1      50.099 -29.235   5.731  1.00  0.00    -0.500 OA
ATOM     24  H   UNL     1      50.498 -29.275   6.662  1.00  0.00     0.294 HD
ENDBRANCH  10  23
BRANCH   5  25
ATOM     25  O   UNL     1      50.122 -22.965   1.148  1.00  0.00    -0.507 OA
ATOM     26  H   UNL     1      50.730 -22.164   1.278  1.00  0.00     0.293 HD
ENDBRANCH   5  25
BRANCH   7  27
ATOM     27  O   UNL     1      52.673 -26.984   1.770  1.00  0.00    -0.507 OA
ATOM     28  H   UNL     1      53.512 -26.623   1.341  1.00  0.00     0.293 HD
ENDBRANCH   7  27
TORSDOF 7
ENDMDL
MODEL 8
REMARK VINA RESULT:    -5.599      2.546      3.570
REMARK INTER + INTRA:          -6.963
REMARK INTER:                  -6.600
REMARK INTRA:                  -0.363
REMARK UNBOUND:                -0.054
REMARK SMILES Oc1cc(O)c2cc(O)c(-c3cc(O)c(O)c(O)c3)[o+]c2c1.[Cl-]
REMARK SMILES IDX 10 1 20 2 21 3 22 4 2 5 3 6 4 7 6 8 7 9 8 10 11 11 12 12
REMARK SMILES IDX 13 13 19 14 15 15 17 16 14 17 16 19 18 21 9 23 1 25 5 27
REMARK H PARENT 14 18 16 20 18 22 9 24 1 26 5 28
REMARK Flexibility Score: inf
ROOT
ATOM      1  C   UNL     1      38.317 -22.541  -3.434  1.00  0.00     0.402 A 
ATOM      2  O   UNL     1      38.168 -23.380  -4.456  1.00  0.00    -0.202 OA
ATOM      3  C   UNL     1      37.965 -22.978  -5.706  1.00  0.00     0.368 A 
ATOM      4  C   UNL     1      37.817 -23.936  -6.713  1.00  0.00     0.162 A 
ATOM      5  C   UNL     1      37.599 -23.541  -8.036  1.00  0.00     0.128 A 
ATOM      6  C   UNL     1      37.528 -22.182  -8.353  1.00  0.00     0.093 A 
ATOM      7  C   UNL     1      37.672 -21.203  -7.363  1.00  0.00     0.136 A 
ATOM      8  C   UNL     1      37.896 -21.599  -6.018  1.00  0.00     0.125 A 
ATOM      9  C   UNL     1      38.066 -20.688  -4.964  1.00  0.00     0.078 A 
ATOM     10  C   UNL     1      38.288 -21.153  -3.664  1.00  0.00     0.223 A 
ENDROOT
BRANCH   1  11
ATOM     11  C   UNL     1      38.529 -23.113  -2.085  1.00  0.00     0.091 A 
ATOM     12  C   UNL     1      37.448 -23.204  -1.196  1.00  0.00     0.068 A 
ATOM     13  C   UNL     1      37.626 -23.722   0.095  1.00  0.00     0.162 A 
ATOM     14  C   UNL     1      39.805 -23.515  -1.653  1.00  0.00     0.068 A 
ATOM     15  C   UNL     1      38.901 -24.141   0.512  1.00  0.00     0.200 A 
ATOM     16  C   UNL     1      39.993 -24.031  -0.366  1.00  0.00     0.162 A 
BRANCH  13  17
ATOM     17  O   UNL     1      36.540 -23.821   0.963  1.00  0.00    -0.504 OA
ATOM     18  H   UNL     1      35.675 -24.269   0.684  1.00  0.00     0.293 HD
ENDBRANCH  13  17
BRANCH  15  19
ATOM     19  O   UNL     1      39.095 -24.662   1.792  1.00  0.00    -0.502 OA
ATOM     20  H   UNL     1      39.942 -24.493   2.320  1.00  0.00     0.293 HD
ENDBRANCH  15  19
BRANCH  16  21
ATOM     21  O   UNL     1      41.273 -24.423   0.023  1.00  0.00    -0.504 OA
ATOM     22  H   UNL     1      41.442 -25.286   0.526  1.00  0.00     0.293 HD
ENDBRANCH  16  21
ENDBRANCH   1  11
BRANCH  10  23
ATOM     23  O   UNL     1      38.506 -20.249  -2.624  1.00  0.00    -0.500 OA
ATOM     24  H   UNL     1      39.402 -19.792  -2.496  1.00  0.00     0.294 HD
ENDBRANCH  10  23
BRANCH   5  25
ATOM     25  O   UNL     1      37.451 -24.490  -9.045  1.00  0.00    -0.507 OA
ATOM     26  H   UNL     1      37.945 -24.408  -9.926  1.00  0.00     0.293 HD
ENDBRANCH   5  25
BRANCH   7  27
ATOM     27  O   UNL     1      37.584 -19.866  -7.762  1.00  0.00    -0.507 OA
ATOM     28  H   UNL     1      37.967 -19.501  -8.621  1.00  0.00     0.293 HD
ENDBRANCH   7  27
TORSDOF 7
ENDMDL
MODEL 9
REMARK VINA RESULT:    -5.248     12.754     14.299
REMARK INTER + INTRA:          -6.530
REMARK INTER:                  -6.158
REMARK INTRA:                  -0.372
REMARK UNBOUND:                -0.054
REMARK SMILES Oc1cc(O)c2cc(O)c(-c3cc(O)c(O)c(O)c3)[o+]c2c1.[Cl-]
REMARK SMILES IDX 10 1 20 2 21 3 22 4 2 5 3 6 4 7 6 8 7 9 8 10 11 11 12 12
REMARK SMILES IDX 13 13 19 14 15 15 17 16 14 17 16 19 18 21 9 23 1 25 5 27
REMARK H PARENT 14 18 16 20 18 22 9 24 1 26 5 28
REMARK Flexibility Score: inf
ROOT
ATOM      1  C   UNL     1      48.951 -27.169   5.363  1.00  0.00     0.402 A 
ATOM      2  O   UNL     1      48.819 -26.064   4.636  1.00  0.00    -0.202 OA
ATOM      3  C   UNL     1      49.638 -25.745   3.638  1.00  0.00     0.368 A 
ATOM      4  C   UNL     1      49.420 -24.559   2.933  1.00  0.00     0.162 A 
ATOM      5  C   UNL     1      50.268 -24.198   1.881  1.00  0.00     0.128 A 
ATOM      6  C   UNL     1      51.338 -25.026   1.535  1.00  0.00     0.093 A 
ATOM      7  C   UNL     1      51.578 -26.219   2.227  1.00  0.00     0.136 A 
ATOM      8  C   UNL     1      50.719 -26.592   3.293  1.00  0.00     0.125 A 
ATOM      9  C   UNL     1      50.875 -27.775   4.033  1.00  0.00     0.078 A 
ATOM     10  C   UNL     1      49.985 -28.077   5.068  1.00  0.00     0.223 A 
ENDROOT
BRANCH   1  11
ATOM     11  C   UNL     1      47.980 -27.409   6.455  1.00  0.00     0.091 A 
ATOM     12  C   UNL     1      46.697 -27.884   6.146  1.00  0.00     0.068 A 
ATOM     13  C   UNL     1      45.751 -28.100   7.158  1.00  0.00     0.162 A 
ATOM     14  C   UNL     1      48.295 -27.115   7.793  1.00  0.00     0.068 A 
ATOM     15  C   UNL     1      46.081 -27.824   8.496  1.00  0.00     0.200 A 
ATOM     16  C   UNL     1      47.358 -27.325   8.810  1.00  0.00     0.162 A 
BRANCH  13  17
ATOM     17  O   UNL     1      44.485 -28.587   6.839  1.00  0.00    -0.504 OA
ATOM     18  H   UNL     1      44.344 -29.543   6.535  1.00  0.00     0.293 HD
ENDBRANCH  13  17
BRANCH  15  19
ATOM     19  O   UNL     1      45.154 -28.035   9.517  1.00  0.00    -0.502 OA
ATOM     20  H   UNL     1      44.631 -28.898   9.600  1.00  0.00     0.293 HD
ENDBRANCH  15  19
BRANCH  16  21
ATOM     21  O   UNL     1      47.711 -27.027  10.125  1.00  0.00    -0.504 OA
ATOM     22  H   UNL     1      47.133 -26.445  10.719  1.00  0.00     0.293 HD
ENDBRANCH  16  21
ENDBRANCH   1  11
BRANCH  10  23
ATOM     23  O   UNL     1      50.109 -29.276   5.770  1.00  0.00    -0.500 OA
ATOM     24  H   UNL     1      49.974 -29.322   6.774  1.00  0.00     0.294 HD
ENDBRANCH  10  23
BRANCH   5  25
ATOM     25  O   UNL     1      50.056 -23.017   1.173  1.00  0.00    -0.507 OA
ATOM     26  H   UNL     1      49.238 -22.441   1.334  1.00  0.00     0.293 HD
ENDBRANCH   5  25
BRANCH   7  27
ATOM     27  O   UNL     1      52.672 -26.990   1.821  1.00  0.00    -0.507 OA
ATOM     28  H   UNL     1      52.734 -27.470   0.936  1.00  0.00     0.293 HD
ENDBRANCH   7  27
TORSDOF 7
ENDMDL
