MODEL 1
REMARK VINA RESULT:    -4.469      0.000      0.000
REMARK INTER + INTRA:         -16.200
REMARK INTER:                 -11.261
REMARK INTRA:                  -4.938
REMARK UNBOUND:                -4.938
REMARK SMILES CCCCCCCCCCCCCCCCCCCCCCCCCCCC(=O)[O-]
REMARK SMILES IDX 15 1 16 2 17 3 18 4 19 5 20 6 21 7 22 8 23 9 24 10 25 11
REMARK SMILES IDX 26 12 27 13 28 14 29 15 30 16 14 17 13 18 12 19 11 20 10 21
REMARK SMILES IDX 9 22 8 23 7 24 6 25 5 26 4 27 3 28 2 29 1 30
REMARK H PARENT
REMARK Flexibility Score: inf
ROOT
ATOM      1  C   UNL     1      -8.589  -3.790   8.314  1.00  0.00     0.000 C 
ENDROOT
BRANCH   1   2
ATOM      2  C   UNL     1      -9.749  -2.953   8.886  1.00  0.00     0.000 C 
BRANCH   2   3
ATOM      3  C   UNL     1      -9.843  -2.918  10.424  1.00  0.00     0.000 C 
BRANCH   3   4
ATOM      4  C   UNL     1      -9.647  -1.516  11.036  1.00  0.00     0.000 C 
BRANCH   4   5
ATOM      5  C   UNL     1      -9.230  -0.456   9.998  1.00  0.00     0.000 C 
BRANCH   5   6
ATOM      6  C   UNL     1      -7.737  -0.085  10.087  1.00  0.00     0.000 C 
BRANCH   6   7
ATOM      7  C   UNL     1      -7.004  -0.018   8.735  1.00  0.00     0.000 C 
BRANCH   7   8
ATOM      8  C   UNL     1      -7.916   0.420   7.576  1.00  0.00     0.000 C 
BRANCH   8   9
ATOM      9  C   UNL     1      -8.151  -0.706   6.547  1.00  0.00     0.000 C 
BRANCH   9  10
ATOM     10  C   UNL     1      -6.957  -0.957   5.607  1.00  0.00     0.000 C 
BRANCH  10  11
ATOM     11  C   UNL     1      -5.994  -2.077   6.044  1.00  0.00     0.000 C 
BRANCH  11  12
ATOM     12  C   UNL     1      -6.219  -3.438   5.360  1.00  0.00     0.006 C 
BRANCH  12  13
ATOM     13  C   UNL     1      -7.373  -3.417   4.350  1.00  0.00     0.053 C 
BRANCH  13  14
ATOM     14  C   UNL     1      -8.357  -4.503   4.655  1.00  0.00     0.041 C 
ATOM     15  O   UNL     1      -9.525  -4.447   4.186  1.00  0.00    -0.550 OA
ATOM     16  O   UNL     1      -7.976  -5.595   5.426  1.00  0.00    -0.550 OA
ENDBRANCH  13  14
ENDBRANCH  12  13
ENDBRANCH  11  12
ENDBRANCH  10  11
ENDBRANCH   9  10
ENDBRANCH   8   9
ENDBRANCH   7   8
ENDBRANCH   6   7
ENDBRANCH   5   6
ENDBRANCH   4   5
ENDBRANCH   3   4
ENDBRANCH   2   3
ENDBRANCH   1   2
BRANCH   1  17
ATOM     17  C   UNL     1      -7.285  -3.749   9.134  1.00  0.00     0.000 C 
BRANCH  17  18
ATOM     18  C   UNL     1      -6.304  -4.869   8.757  1.00  0.00     0.000 C 
BRANCH  18  19
ATOM     19  C   UNL     1      -4.888  -4.553   9.264  1.00  0.00     0.000 C 
BRANCH  19  20
ATOM     20  C   UNL     1      -3.806  -4.814   8.203  1.00  0.00     0.000 C 
BRANCH  20  21
ATOM     21  C   UNL     1      -2.389  -5.028   8.765  1.00  0.00     0.000 C 
BRANCH  21  22
ATOM     22  C   UNL     1      -1.398  -3.902   8.392  1.00  0.00    -0.000 C 
BRANCH  22  23
ATOM     23  C   UNL     1      -2.065  -2.784   7.572  1.00  0.00    -0.000 C 
BRANCH  23  24
ATOM     24  C   UNL     1      -1.748  -1.383   8.118  1.00  0.00    -0.000 C 
BRANCH  24  25
ATOM     25  C   UNL     1      -3.010  -0.592   8.492  1.00  0.00    -0.000 C 
BRANCH  25  26
ATOM     26  C   UNL     1      -3.820  -1.330   9.563  1.00  0.00    -0.000 C 
BRANCH  26  27
ATOM     27  C   UNL     1      -3.419  -0.871  10.973  1.00  0.00    -0.000 C 
BRANCH  27  28
ATOM     28  C   UNL     1      -2.090  -1.504  11.436  1.00  0.00    -0.000 C 
BRANCH  28  29
ATOM     29  C   UNL     1      -2.234  -2.960  11.905  1.00  0.00    -0.003 C 
ATOM     30  C   UNL     1      -2.501  -3.081  13.404  1.00  0.00     0.004 C 
ENDBRANCH  28  29
ENDBRANCH  27  28
ENDBRANCH  26  27
ENDBRANCH  25  26
ENDBRANCH  24  25
ENDBRANCH  23  24
ENDBRANCH  22  23
ENDBRANCH  21  22
ENDBRANCH  20  21
ENDBRANCH  19  20
ENDBRANCH  18  19
ENDBRANCH  17  18
ENDBRANCH   1  17
TORSDOF 26
ENDMDL
MODEL 2
REMARK VINA RESULT:    -4.342      1.716      4.358
REMARK INTER + INTRA:         -15.880
REMARK INTER:                 -10.451
REMARK INTRA:                  -5.429
REMARK UNBOUND:                -4.938
REMARK SMILES CCCCCCCCCCCCCCCCCCCCCCCCCCCC(=O)[O-]
REMARK SMILES IDX 15 1 16 2 17 3 18 4 19 5 20 6 21 7 22 8 23 9 24 10 25 11
REMARK SMILES IDX 26 12 27 13 28 14 29 15 30 16 14 17 13 18 12 19 11 20 10 21
REMARK SMILES IDX 9 22 8 23 7 24 6 25 5 26 4 27 3 28 2 29 1 30
REMARK H PARENT
REMARK Flexibility Score: inf
ROOT
ATOM      1  C   UNL     1      -8.450  -0.570   7.135  1.00  0.00     0.000 C 
ENDROOT
BRANCH   1   2
ATOM      2  C   UNL     1      -7.069  -0.367   6.483  1.00  0.00     0.000 C 
BRANCH   2   3
ATOM      3  C   UNL     1      -6.085  -1.542   6.639  1.00  0.00     0.000 C 
BRANCH   3   4
ATOM      4  C   UNL     1      -4.731  -1.153   7.265  1.00  0.00     0.000 C 
BRANCH   4   5
ATOM      5  C   UNL     1      -3.527  -1.796   6.550  1.00  0.00     0.000 C 
BRANCH   5   6
ATOM      6  C   UNL     1      -3.944  -2.843   5.499  1.00  0.00     0.000 C 
BRANCH   6   7
ATOM      7  C   UNL     1      -3.319  -2.649   4.105  1.00  0.00     0.000 C 
BRANCH   7   8
ATOM      8  C   UNL     1      -4.369  -2.436   3.000  1.00  0.00     0.000 C 
BRANCH   8   9
ATOM      9  C   UNL     1      -5.139  -1.109   3.159  1.00  0.00     0.000 C 
BRANCH   9  10
ATOM     10  C   UNL     1      -6.646  -1.216   2.854  1.00  0.00     0.000 C 
BRANCH  10  11
ATOM     11  C   UNL     1      -7.206  -2.650   2.785  1.00  0.00     0.000 C 
BRANCH  11  12
ATOM     12  C   UNL     1      -8.086  -3.068   3.979  1.00  0.00     0.006 C 
BRANCH  12  13
ATOM     13  C   UNL     1      -7.428  -4.133   4.863  1.00  0.00     0.053 C 
BRANCH  13  14
ATOM     14  C   UNL     1      -8.171  -5.429   4.765  1.00  0.00     0.041 C 
ATOM     15  O   UNL     1      -7.986  -6.329   5.626  1.00  0.00    -0.550 OA
ATOM     16  O   UNL     1      -9.092  -5.630   3.744  1.00  0.00    -0.550 OA
ENDBRANCH  13  14
ENDBRANCH  12  13
ENDBRANCH  11  12
ENDBRANCH  10  11
ENDBRANCH   9  10
ENDBRANCH   8   9
ENDBRANCH   7   8
ENDBRANCH   6   7
ENDBRANCH   5   6
ENDBRANCH   4   5
ENDBRANCH   3   4
ENDBRANCH   2   3
ENDBRANCH   1   2
BRANCH   1  17
ATOM     17  C   UNL     1      -8.509  -0.279   8.647  1.00  0.00     0.000 C 
BRANCH  17  18
ATOM     18  C   UNL     1      -8.635  -1.551   9.498  1.00  0.00     0.000 C 
BRANCH  18  19
ATOM     19  C   UNL     1      -9.443  -2.629   8.760  1.00  0.00     0.000 C 
BRANCH  19  20
ATOM     20  C   UNL     1      -8.604  -3.873   8.420  1.00  0.00     0.000 C 
BRANCH  20  21
ATOM     21  C   UNL     1      -7.124  -3.786   8.834  1.00  0.00     0.000 C 
BRANCH  21  22
ATOM     22  C   UNL     1      -6.297  -5.030   8.439  1.00  0.00    -0.000 C 
BRANCH  22  23
ATOM     23  C   UNL     1      -4.784  -4.797   8.586  1.00  0.00    -0.000 C 
BRANCH  23  24
ATOM     24  C   UNL     1      -4.440  -3.876   9.768  1.00  0.00    -0.000 C 
BRANCH  24  25
ATOM     25  C   UNL     1      -2.927  -3.701   9.963  1.00  0.00    -0.000 C 
BRANCH  25  26
ATOM     26  C   UNL     1      -2.146  -4.447   8.877  1.00  0.00    -0.000 C 
BRANCH  26  27
ATOM     27  C   UNL     1      -0.887  -3.668   8.467  1.00  0.00    -0.000 C 
BRANCH  27  28
ATOM     28  C   UNL     1      -0.903  -2.217   8.992  1.00  0.00    -0.000 C 
BRANCH  28  29
ATOM     29  C   UNL     1       0.302  -1.872   9.882  1.00  0.00    -0.003 C 
ATOM     30  C   UNL     1       0.441  -2.803  11.085  1.00  0.00     0.004 C 
ENDBRANCH  28  29
ENDBRANCH  27  28
ENDBRANCH  26  27
ENDBRANCH  25  26
ENDBRANCH  24  25
ENDBRANCH  23  24
ENDBRANCH  22  23
ENDBRANCH  21  22
ENDBRANCH  20  21
ENDBRANCH  19  20
ENDBRANCH  18  19
ENDBRANCH  17  18
ENDBRANCH   1  17
TORSDOF 26
ENDMDL
MODEL 3
REMARK VINA RESULT:    -4.126      9.112     13.151
REMARK INTER + INTRA:         -15.336
REMARK INTER:                 -10.073
REMARK INTRA:                  -5.263
REMARK UNBOUND:                -4.938
REMARK SMILES CCCCCCCCCCCCCCCCCCCCCCCCCCCC(=O)[O-]
REMARK SMILES IDX 15 1 16 2 17 3 18 4 19 5 20 6 21 7 22 8 23 9 24 10 25 11
REMARK SMILES IDX 26 12 27 13 28 14 29 15 30 16 14 17 13 18 12 19 11 20 10 21
REMARK SMILES IDX 9 22 8 23 7 24 6 25 5 26 4 27 3 28 2 29 1 30
REMARK H PARENT
REMARK Flexibility Score: inf
ROOT
ATOM      1  C   UNL     1       5.374   3.610   8.125  1.00  0.00     0.000 C 
ENDROOT
BRANCH   1   2
ATOM      2  C   UNL     1       5.300   2.412   9.090  1.00  0.00     0.000 C 
BRANCH   2   3
ATOM      3  C   UNL     1       6.272   1.256   8.785  1.00  0.00     0.000 C 
BRANCH   3   4
ATOM      4  C   UNL     1       7.288   0.971   9.910  1.00  0.00     0.000 C 
BRANCH   4   5
ATOM      5  C   UNL     1       8.713   1.452   9.573  1.00  0.00     0.000 C 
BRANCH   5   6
ATOM      6  C   UNL     1       8.958   2.921   9.969  1.00  0.00     0.000 C 
BRANCH   6   7
ATOM      7  C   UNL     1       8.960   3.918   8.795  1.00  0.00     0.000 C 
BRANCH   7   8
ATOM      8  C   UNL     1       9.426   3.287   7.471  1.00  0.00     0.000 C 
BRANCH   8   9
ATOM      9  C   UNL     1       8.363   3.390   6.357  1.00  0.00     0.000 C 
BRANCH   9  10
ATOM     10  C   UNL     1       8.163   2.089   5.557  1.00  0.00     0.000 C 
BRANCH  10  11
ATOM     11  C   UNL     1       6.704   1.756   5.189  1.00  0.00     0.000 C 
BRANCH  11  12
ATOM     12  C   UNL     1       5.939   2.880   4.464  1.00  0.00     0.006 C 
BRANCH  12  13
ATOM     13  C   UNL     1       4.439   2.882   4.780  1.00  0.00     0.053 C 
BRANCH  13  14
ATOM     14  C   UNL     1       3.662   2.282   3.649  1.00  0.00     0.041 C 
ATOM     15  O   UNL     1       2.664   1.552   3.886  1.00  0.00    -0.550 OA
ATOM     16  O   UNL     1       4.019   2.557   2.334  1.00  0.00    -0.550 OA
ENDBRANCH  13  14
ENDBRANCH  12  13
ENDBRANCH  11  12
ENDBRANCH  10  11
ENDBRANCH   9  10
ENDBRANCH   8   9
ENDBRANCH   7   8
ENDBRANCH   6   7
ENDBRANCH   5   6
ENDBRANCH   4   5
ENDBRANCH   3   4
ENDBRANCH   2   3
ENDBRANCH   1   2
BRANCH   1  17
ATOM     17  C   UNL     1       5.388   4.995   8.800  1.00  0.00     0.000 C 
BRANCH  17  18
ATOM     18  C   UNL     1       3.986   5.601   8.956  1.00  0.00     0.000 C 
BRANCH  18  19
ATOM     19  C   UNL     1       3.105   5.271   7.741  1.00  0.00     0.000 C 
BRANCH  19  20
ATOM     20  C   UNL     1       1.606   5.243   8.083  1.00  0.00     0.000 C 
BRANCH  20  21
ATOM     21  C   UNL     1       0.900   3.909   7.783  1.00  0.00     0.000 C 
BRANCH  21  22
ATOM     22  C   UNL     1       1.874   2.729   7.563  1.00  0.00    -0.000 C 
BRANCH  22  23
ATOM     23  C   UNL     1       1.278   1.386   8.016  1.00  0.00    -0.000 C 
BRANCH  23  24
ATOM     24  C   UNL     1       1.965   0.829   9.273  1.00  0.00    -0.000 C 
BRANCH  24  25
ATOM     25  C   UNL     1       1.411   1.434  10.571  1.00  0.00    -0.000 C 
BRANCH  25  26
ATOM     26  C   UNL     1       2.522   2.119  11.373  1.00  0.00    -0.000 C 
BRANCH  26  27
ATOM     27  C   UNL     1       2.337   3.644  11.382  1.00  0.00    -0.000 C 
BRANCH  27  28
ATOM     28  C   UNL     1       0.855   4.051  11.513  1.00  0.00    -0.000 C 
BRANCH  28  29
ATOM     29  C   UNL     1       0.312   3.938  12.947  1.00  0.00    -0.003 C 
ATOM     30  C   UNL     1       1.120   4.751  13.957  1.00  0.00     0.004 C 
ENDBRANCH  28  29
ENDBRANCH  27  28
ENDBRANCH  26  27
ENDBRANCH  25  26
ENDBRANCH  24  25
ENDBRANCH  23  24
ENDBRANCH  22  23
ENDBRANCH  21  22
ENDBRANCH  20  21
ENDBRANCH  19  20
ENDBRANCH  18  19
ENDBRANCH  17  18
ENDBRANCH   1  17
TORSDOF 26
ENDMDL
MODEL 4
REMARK VINA RESULT:    -4.109      2.817      4.574
REMARK INTER + INTRA:         -15.294
REMARK INTER:                  -9.884
REMARK INTRA:                  -5.410
REMARK UNBOUND:                -4.938
REMARK SMILES CCCCCCCCCCCCCCCCCCCCCCCCCCCC(=O)[O-]
REMARK SMILES IDX 15 1 16 2 17 3 18 4 19 5 20 6 21 7 22 8 23 9 24 10 25 11
REMARK SMILES IDX 26 12 27 13 28 14 29 15 30 16 14 17 13 18 12 19 11 20 10 21
REMARK SMILES IDX 9 22 8 23 7 24 6 25 5 26 4 27 3 28 2 29 1 30
REMARK H PARENT
REMARK Flexibility Score: inf
ROOT
ATOM      1  C   UNL     1      -7.829  -2.319   9.396  1.00  0.00     0.000 C 
ENDROOT
BRANCH   1   2
ATOM      2  C   UNL     1      -8.947  -1.284   9.170  1.00  0.00     0.000 C 
BRANCH   2   3
ATOM      3  C   UNL     1      -8.664  -0.235   8.077  1.00  0.00     0.000 C 
BRANCH   3   4
ATOM      4  C   UNL     1      -7.381  -0.500   7.264  1.00  0.00     0.000 C 
BRANCH   4   5
ATOM      5  C   UNL     1      -7.629  -1.352   6.004  1.00  0.00     0.000 C 
BRANCH   5   6
ATOM      6  C   UNL     1      -6.488  -2.348   5.720  1.00  0.00     0.000 C 
BRANCH   6   7
ATOM      7  C   UNL     1      -5.147  -1.703   5.326  1.00  0.00     0.000 C 
BRANCH   7   8
ATOM      8  C   UNL     1      -3.930  -2.441   5.911  1.00  0.00     0.000 C 
BRANCH   8   9
ATOM      9  C   UNL     1      -3.045  -1.527   6.785  1.00  0.00     0.000 C 
BRANCH   9  10
ATOM     10  C   UNL     1      -3.827  -0.707   7.829  1.00  0.00     0.000 C 
BRANCH  10  11
ATOM     11  C   UNL     1      -3.441  -0.966   9.298  1.00  0.00     0.000 C 
BRANCH  11  12
ATOM     12  C   UNL     1      -4.339  -0.277  10.342  1.00  0.00     0.006 C 
BRANCH  12  13
ATOM     13  C   UNL     1      -5.153   0.884   9.759  1.00  0.00     0.053 C 
BRANCH  13  14
ATOM     14  C   UNL     1      -5.961   1.550  10.829  1.00  0.00     0.041 C 
ATOM     15  O   UNL     1      -5.403   1.951  11.884  1.00  0.00    -0.550 OA
ATOM     16  O   UNL     1      -7.323   1.759  10.647  1.00  0.00    -0.550 OA
ENDBRANCH  13  14
ENDBRANCH  12  13
ENDBRANCH  11  12
ENDBRANCH  10  11
ENDBRANCH   9  10
ENDBRANCH   8   9
ENDBRANCH   7   8
ENDBRANCH   6   7
ENDBRANCH   5   6
ENDBRANCH   4   5
ENDBRANCH   3   4
ENDBRANCH   2   3
ENDBRANCH   1   2
BRANCH   1  17
ATOM     17  C   UNL     1      -8.173  -3.759   8.968  1.00  0.00     0.000 C 
BRANCH  17  18
ATOM     18  C   UNL     1      -6.929  -4.630   8.740  1.00  0.00     0.000 C 
BRANCH  18  19
ATOM     19  C   UNL     1      -5.642  -3.810   8.919  1.00  0.00     0.000 C 
BRANCH  19  20
ATOM     20  C   UNL     1      -4.477  -4.645   9.475  1.00  0.00     0.000 C 
BRANCH  20  21
ATOM     21  C   UNL     1      -3.292  -4.824   8.509  1.00  0.00     0.000 C 
BRANCH  21  22
ATOM     22  C   UNL     1      -1.912  -4.712   9.195  1.00  0.00    -0.000 C 
BRANCH  22  23
ATOM     23  C   UNL     1      -0.941  -3.811   8.414  1.00  0.00    -0.000 C 
BRANCH  23  24
ATOM     24  C   UNL     1      -0.192  -2.823   9.323  1.00  0.00    -0.000 C 
BRANCH  24  25
ATOM     25  C   UNL     1      -0.574  -2.971  10.803  1.00  0.00    -0.000 C 
BRANCH  25  26
ATOM     26  C   UNL     1      -0.430  -1.635  11.540  1.00  0.00    -0.000 C 
BRANCH  26  27
ATOM     27  C   UNL     1      -1.584  -1.423  12.530  1.00  0.00    -0.000 C 
BRANCH  27  28
ATOM     28  C   UNL     1      -2.507  -2.656  12.624  1.00  0.00    -0.000 C 
BRANCH  28  29
ATOM     29  C   UNL     1      -2.418  -3.388  13.973  1.00  0.00    -0.003 C 
ATOM     30  C   UNL     1      -1.683  -2.581  15.042  1.00  0.00     0.004 C 
ENDBRANCH  28  29
ENDBRANCH  27  28
ENDBRANCH  26  27
ENDBRANCH  25  26
ENDBRANCH  24  25
ENDBRANCH  23  24
ENDBRANCH  22  23
ENDBRANCH  21  22
ENDBRANCH  20  21
ENDBRANCH  19  20
ENDBRANCH  18  19
ENDBRANCH  17  18
ENDBRANCH   1  17
TORSDOF 26
ENDMDL
MODEL 5
REMARK VINA RESULT:    -4.094      7.029     10.827
REMARK INTER + INTRA:         -15.255
REMARK INTER:                  -9.872
REMARK INTRA:                  -5.383
REMARK UNBOUND:                -4.938
REMARK SMILES CCCCCCCCCCCCCCCCCCCCCCCCCCCC(=O)[O-]
REMARK SMILES IDX 15 1 16 2 17 3 18 4 19 5 20 6 21 7 22 8 23 9 24 10 25 11
REMARK SMILES IDX 26 12 27 13 28 14 29 15 30 16 14 17 13 18 12 19 11 20 10 21
REMARK SMILES IDX 9 22 8 23 7 24 6 25 5 26 4 27 3 28 2 29 1 30
REMARK H PARENT
REMARK Flexibility Score: inf
ROOT
ATOM      1  C   UNL     1       2.563   1.873   8.039  1.00  0.00     0.000 C 
ENDROOT
BRANCH   1   2
ATOM      2  C   UNL     1       1.145   2.419   7.782  1.00  0.00     0.000 C 
BRANCH   2   3
ATOM      3  C   UNL     1       1.012   3.954   7.818  1.00  0.00     0.000 C 
BRANCH   3   4
ATOM      4  C   UNL     1       2.350   4.707   7.675  1.00  0.00     0.000 C 
BRANCH   4   5
ATOM      5  C   UNL     1       2.660   5.621   8.876  1.00  0.00     0.000 C 
BRANCH   5   6
ATOM      6  C   UNL     1       4.135   5.551   9.317  1.00  0.00     0.000 C 
BRANCH   6   7
ATOM      7  C   UNL     1       5.119   5.106   8.221  1.00  0.00     0.000 C 
BRANCH   7   8
ATOM      8  C   UNL     1       5.921   3.850   8.607  1.00  0.00     0.000 C 
BRANCH   8   9
ATOM      9  C   UNL     1       5.996   2.818   7.462  1.00  0.00     0.000 C 
BRANCH   9  10
ATOM     10  C   UNL     1       5.902   3.434   6.053  1.00  0.00     0.000 C 
BRANCH  10  11
ATOM     11  C   UNL     1       5.047   2.646   5.042  1.00  0.00     0.000 C 
BRANCH  11  12
ATOM     12  C   UNL     1       3.653   3.238   4.761  1.00  0.00     0.006 C 
BRANCH  12  13
ATOM     13  C   UNL     1       2.641   2.186   4.290  1.00  0.00     0.053 C 
BRANCH  13  14
ATOM     14  C   UNL     1       3.004   1.681   2.928  1.00  0.00     0.041 C 
ATOM     15  O   UNL     1       3.133   2.488   1.969  1.00  0.00    -0.550 OA
ATOM     16  O   UNL     1       3.235   0.325   2.725  1.00  0.00    -0.550 OA
ENDBRANCH  13  14
ENDBRANCH  12  13
ENDBRANCH  11  12
ENDBRANCH  10  11
ENDBRANCH   9  10
ENDBRANCH   8   9
ENDBRANCH   7   8
ENDBRANCH   6   7
ENDBRANCH   5   6
ENDBRANCH   4   5
ENDBRANCH   3   4
ENDBRANCH   2   3
ENDBRANCH   1   2
BRANCH   1  17
ATOM     17  C   UNL     1       2.764   1.188   9.404  1.00  0.00     0.000 C 
BRANCH  17  18
ATOM     18  C   UNL     1       3.359   2.126  10.464  1.00  0.00     0.000 C 
BRANCH  18  19
ATOM     19  C   UNL     1       2.409   2.274  11.663  1.00  0.00     0.000 C 
BRANCH  19  20
ATOM     20  C   UNL     1       1.843   3.697  11.801  1.00  0.00     0.000 C 
BRANCH  20  21
ATOM     21  C   UNL     1       0.373   3.852  11.372  1.00  0.00     0.000 C 
BRANCH  21  22
ATOM     22  C   UNL     1      -0.516   2.649  11.761  1.00  0.00    -0.000 C 
BRANCH  22  23
ATOM     23  C   UNL     1      -1.083   1.918  10.532  1.00  0.00    -0.000 C 
BRANCH  23  24
ATOM     24  C   UNL     1      -1.421   0.448  10.823  1.00  0.00    -0.000 C 
BRANCH  24  25
ATOM     25  C   UNL     1      -0.182  -0.460  10.811  1.00  0.00    -0.000 C 
BRANCH  25  26
ATOM     26  C   UNL     1      -0.010  -1.131   9.444  1.00  0.00    -0.000 C 
BRANCH  26  27
ATOM     27  C   UNL     1      -1.334  -1.737   8.956  1.00  0.00    -0.000 C 
BRANCH  27  28
ATOM     28  C   UNL     1      -1.529  -3.187   9.448  1.00  0.00    -0.000 C 
BRANCH  28  29
ATOM     29  C   UNL     1      -2.649  -3.335  10.491  1.00  0.00    -0.003 C 
ATOM     30  C   UNL     1      -3.863  -4.095   9.959  1.00  0.00     0.004 C 
ENDBRANCH  28  29
ENDBRANCH  27  28
ENDBRANCH  26  27
ENDBRANCH  25  26
ENDBRANCH  24  25
ENDBRANCH  23  24
ENDBRANCH  22  23
ENDBRANCH  21  22
ENDBRANCH  20  21
ENDBRANCH  19  20
ENDBRANCH  18  19
ENDBRANCH  17  18
ENDBRANCH   1  17
TORSDOF 26
ENDMDL
MODEL 6
REMARK VINA RESULT:    -4.082      3.399      6.722
REMARK INTER + INTRA:         -15.225
REMARK INTER:                  -9.606
REMARK INTRA:                  -5.619
REMARK UNBOUND:                -4.938
REMARK SMILES CCCCCCCCCCCCCCCCCCCCCCCCCCCC(=O)[O-]
REMARK SMILES IDX 15 1 16 2 17 3 18 4 19 5 20 6 21 7 22 8 23 9 24 10 25 11
REMARK SMILES IDX 26 12 27 13 28 14 29 15 30 16 14 17 13 18 12 19 11 20 10 21
REMARK SMILES IDX 9 22 8 23 7 24 6 25 5 26 4 27 3 28 2 29 1 30
REMARK H PARENT
REMARK Flexibility Score: inf
ROOT
ATOM      1  C   UNL     1      -7.161  -0.443   9.134  1.00  0.00     0.000 C 
ENDROOT
BRANCH   1   2
ATOM      2  C   UNL     1      -8.648  -0.765   8.892  1.00  0.00     0.000 C 
BRANCH   2   3
ATOM      3  C   UNL     1      -8.980  -2.260   8.717  1.00  0.00     0.000 C 
BRANCH   3   4
ATOM      4  C   UNL     1      -7.933  -3.215   9.325  1.00  0.00     0.000 C 
BRANCH   4   5
ATOM      5  C   UNL     1      -7.636  -4.434   8.431  1.00  0.00     0.000 C 
BRANCH   5   6
ATOM      6  C   UNL     1      -6.128  -4.686   8.243  1.00  0.00     0.000 C 
BRANCH   6   7
ATOM      7  C   UNL     1      -5.208  -3.733   9.027  1.00  0.00     0.000 C 
BRANCH   7   8
ATOM      8  C   UNL     1      -4.120  -4.471   9.829  1.00  0.00     0.000 C 
BRANCH   8   9
ATOM      9  C   UNL     1      -2.915  -4.881   8.957  1.00  0.00     0.000 C 
BRANCH   9  10
ATOM     10  C   UNL     1      -1.707  -3.931   9.068  1.00  0.00     0.000 C 
BRANCH  10  11
ATOM     11  C   UNL     1      -1.341  -3.491  10.499  1.00  0.00     0.000 C 
BRANCH  11  12
ATOM     12  C   UNL     1       0.053  -2.854  10.652  1.00  0.00     0.006 C 
BRANCH  12  13
ATOM     13  C   UNL     1       0.398  -1.890   9.510  1.00  0.00     0.053 C 
BRANCH  13  14
ATOM     14  C   UNL     1       0.875  -0.579  10.055  1.00  0.00     0.041 C 
ATOM     15  O   UNL     1       0.043   0.299  10.404  1.00  0.00    -0.550 OA
ATOM     16  O   UNL     1       2.236  -0.341  10.209  1.00  0.00    -0.550 OA
ENDBRANCH  13  14
ENDBRANCH  12  13
ENDBRANCH  11  12
ENDBRANCH  10  11
ENDBRANCH   9  10
ENDBRANCH   8   9
ENDBRANCH   7   8
ENDBRANCH   6   7
ENDBRANCH   5   6
ENDBRANCH   4   5
ENDBRANCH   3   4
ENDBRANCH   2   3
ENDBRANCH   1   2
BRANCH   1  17
ATOM     17  C   UNL     1      -6.875   0.446  10.360  1.00  0.00     0.000 C 
BRANCH  17  18
ATOM     18  C   UNL     1      -5.451   1.020  10.365  1.00  0.00     0.000 C 
BRANCH  18  19
ATOM     19  C   UNL     1      -4.502   0.132  11.186  1.00  0.00     0.000 C 
BRANCH  19  20
ATOM     20  C   UNL     1      -3.496  -0.633  10.310  1.00  0.00     0.000 C 
BRANCH  20  21
ATOM     21  C   UNL     1      -3.157   0.049   8.972  1.00  0.00     0.000 C 
BRANCH  21  22
ATOM     22  C   UNL     1      -3.355  -0.867   7.743  1.00  0.00    -0.000 C 
BRANCH  22  23
ATOM     23  C   UNL     1      -2.072  -1.010   6.907  1.00  0.00    -0.000 C 
BRANCH  23  24
ATOM     24  C   UNL     1      -2.238  -1.987   5.733  1.00  0.00    -0.000 C 
BRANCH  24  25
ATOM     25  C   UNL     1      -3.497  -2.857   5.858  1.00  0.00    -0.000 C 
BRANCH  25  26
ATOM     26  C   UNL     1      -4.353  -2.765   4.590  1.00  0.00    -0.000 C 
BRANCH  26  27
ATOM     27  C   UNL     1      -5.838  -2.997   4.908  1.00  0.00    -0.000 C 
BRANCH  27  28
ATOM     28  C   UNL     1      -6.413  -1.906   5.836  1.00  0.00    -0.000 C 
BRANCH  28  29
ATOM     29  C   UNL     1      -7.715  -1.278   5.313  1.00  0.00    -0.003 C 
ATOM     30  C   UNL     1      -8.826  -2.303   5.095  1.00  0.00     0.004 C 
ENDBRANCH  28  29
ENDBRANCH  27  28
ENDBRANCH  26  27
ENDBRANCH  25  26
ENDBRANCH  24  25
ENDBRANCH  23  24
ENDBRANCH  22  23
ENDBRANCH  21  22
ENDBRANCH  20  21
ENDBRANCH  19  20
ENDBRANCH  18  19
ENDBRANCH  17  18
ENDBRANCH   1  17
TORSDOF 26
ENDMDL
MODEL 7
REMARK VINA RESULT:    -4.079     10.573     14.337
REMARK INTER + INTRA:         -15.218
REMARK INTER:                 -10.069
REMARK INTRA:                  -5.149
REMARK UNBOUND:                -4.938
REMARK SMILES CCCCCCCCCCCCCCCCCCCCCCCCCCCC(=O)[O-]
REMARK SMILES IDX 15 1 16 2 17 3 18 4 19 5 20 6 21 7 22 8 23 9 24 10 25 11
REMARK SMILES IDX 26 12 27 13 28 14 29 15 30 16 14 17 13 18 12 19 11 20 10 21
REMARK SMILES IDX 9 22 8 23 7 24 6 25 5 26 4 27 3 28 2 29 1 30
REMARK H PARENT
REMARK Flexibility Score: inf
ROOT
ATOM      1  C   UNL     1       6.272  -0.377   9.982  1.00  0.00     0.000 C 
ENDROOT
BRANCH   1   2
ATOM      2  C   UNL     1       7.017  -0.088  11.299  1.00  0.00     0.000 C 
BRANCH   2   3
ATOM      3  C   UNL     1       8.484  -0.559  11.345  1.00  0.00     0.000 C 
BRANCH   3   4
ATOM      4  C   UNL     1       9.474   0.393  10.644  1.00  0.00     0.000 C 
BRANCH   4   5
ATOM      5  C   UNL     1       9.115   1.881  10.825  1.00  0.00     0.000 C 
BRANCH   5   6
ATOM      6  C   UNL     1       9.555   2.753   9.634  1.00  0.00     0.000 C 
BRANCH   6   7
ATOM      7  C   UNL     1       8.782   4.075   9.477  1.00  0.00     0.000 C 
BRANCH   7   8
ATOM      8  C   UNL     1       8.256   4.299   8.048  1.00  0.00     0.000 C 
BRANCH   8   9
ATOM      9  C   UNL     1       6.998   5.191   8.011  1.00  0.00     0.000 C 
BRANCH   9  10
ATOM     10  C   UNL     1       5.783   4.595   8.749  1.00  0.00     0.000 C 
BRANCH  10  11
ATOM     11  C   UNL     1       4.559   5.524   8.866  1.00  0.00     0.000 C 
BRANCH  11  12
ATOM     12  C   UNL     1       3.427   5.245   7.859  1.00  0.00     0.006 C 
BRANCH  12  13
ATOM     13  C   UNL     1       2.040   5.214   8.512  1.00  0.00     0.053 C 
BRANCH  13  14
ATOM     14  C   UNL     1       1.877   3.976   9.339  1.00  0.00     0.041 C 
ATOM     15  O   UNL     1       1.739   2.856   8.778  1.00  0.00    -0.550 OA
ATOM     16  O   UNL     1       1.911   4.053  10.726  1.00  0.00    -0.550 OA
ENDBRANCH  13  14
ENDBRANCH  12  13
ENDBRANCH  11  12
ENDBRANCH  10  11
ENDBRANCH   9  10
ENDBRANCH   8   9
ENDBRANCH   7   8
ENDBRANCH   6   7
ENDBRANCH   5   6
ENDBRANCH   4   5
ENDBRANCH   3   4
ENDBRANCH   2   3
ENDBRANCH   1   2
BRANCH   1  17
ATOM     17  C   UNL     1       5.659   0.857   9.291  1.00  0.00     0.000 C 
BRANCH  17  18
ATOM     18  C   UNL     1       6.453   1.309   8.057  1.00  0.00     0.000 C 
BRANCH  18  19
ATOM     19  C   UNL     1       7.486   0.248   7.647  1.00  0.00     0.000 C 
BRANCH  19  20
ATOM     20  C   UNL     1       8.604   0.819   6.760  1.00  0.00     0.000 C 
BRANCH  20  21
ATOM     21  C   UNL     1       8.692   0.200   5.353  1.00  0.00     0.000 C 
BRANCH  21  22
ATOM     22  C   UNL     1       9.025   1.226   4.246  1.00  0.00    -0.000 C 
BRANCH  22  23
ATOM     23  C   UNL     1       9.492   2.574   4.818  1.00  0.00    -0.000 C 
BRANCH  23  24
ATOM     24  C   UNL     1       8.587   3.742   4.393  1.00  0.00    -0.000 C 
BRANCH  24  25
ATOM     25  C   UNL     1       7.222   3.273   3.868  1.00  0.00    -0.000 C 
BRANCH  25  26
ATOM     26  C   UNL     1       6.150   3.385   4.958  1.00  0.00    -0.000 C 
BRANCH  26  27
ATOM     27  C   UNL     1       5.076   2.300   4.789  1.00  0.00    -0.000 C 
BRANCH  27  28
ATOM     28  C   UNL     1       3.911   2.472   5.787  1.00  0.00    -0.000 C 
BRANCH  28  29
ATOM     29  C   UNL     1       2.536   2.135   5.189  1.00  0.00    -0.003 C 
ATOM     30  C   UNL     1       2.619   1.612   3.756  1.00  0.00     0.004 C 
ENDBRANCH  28  29
ENDBRANCH  27  28
ENDBRANCH  26  27
ENDBRANCH  25  26
ENDBRANCH  24  25
ENDBRANCH  23  24
ENDBRANCH  22  23
ENDBRANCH  21  22
ENDBRANCH  20  21
ENDBRANCH  19  20
ENDBRANCH  18  19
ENDBRANCH  17  18
ENDBRANCH   1  17
TORSDOF 26
ENDMDL
MODEL 8
REMARK VINA RESULT:    -4.075      3.303      7.529
REMARK INTER + INTRA:         -15.208
REMARK INTER:                  -9.841
REMARK INTRA:                  -5.367
REMARK UNBOUND:                -4.938
REMARK SMILES CCCCCCCCCCCCCCCCCCCCCCCCCCCC(=O)[O-]
REMARK SMILES IDX 15 1 16 2 17 3 18 4 19 5 20 6 21 7 22 8 23 9 24 10 25 11
REMARK SMILES IDX 26 12 27 13 28 14 29 15 30 16 14 17 13 18 12 19 11 20 10 21
REMARK SMILES IDX 9 22 8 23 7 24 6 25 5 26 4 27 3 28 2 29 1 30
REMARK H PARENT
REMARK Flexibility Score: inf
ROOT
ATOM      1  C   UNL     1      -6.242   0.383   9.303  1.00  0.00     0.000 C 
ENDROOT
BRANCH   1   2
ATOM      2  C   UNL     1      -5.843  -1.057   8.928  1.00  0.00     0.000 C 
BRANCH   2   3
ATOM      3  C   UNL     1      -5.234  -1.228   7.523  1.00  0.00     0.000 C 
BRANCH   3   4
ATOM      4  C   UNL     1      -3.701  -1.068   7.476  1.00  0.00     0.000 C 
BRANCH   4   5
ATOM      5  C   UNL     1      -3.027  -2.002   6.452  1.00  0.00     0.000 C 
BRANCH   5   6
ATOM      6  C   UNL     1      -3.522  -3.458   6.554  1.00  0.00     0.000 C 
BRANCH   6   7
ATOM      7  C   UNL     1      -2.897  -4.277   7.698  1.00  0.00     0.000 C 
BRANCH   7   8
ATOM      8  C   UNL     1      -3.945  -4.860   8.663  1.00  0.00     0.000 C 
BRANCH   8   9
ATOM      9  C   UNL     1      -4.051  -4.060   9.978  1.00  0.00     0.000 C 
BRANCH   9  10
ATOM     10  C   UNL     1      -2.793  -3.237  10.316  1.00  0.00     0.000 C 
BRANCH  10  11
ATOM     11  C   UNL     1      -3.025  -2.017  11.228  1.00  0.00     0.000 C 
BRANCH  11  12
ATOM     12  C   UNL     1      -2.272  -0.738  10.816  1.00  0.00     0.006 C 
BRANCH  12  13
ATOM     13  C   UNL     1      -2.583   0.457  11.725  1.00  0.00     0.053 C 
BRANCH  13  14
ATOM     14  C   UNL     1      -1.964   1.707  11.179  1.00  0.00     0.041 C 
ATOM     15  O   UNL     1      -2.177   2.814  11.741  1.00  0.00    -0.550 OA
ATOM     16  O   UNL     1      -1.125   1.644  10.073  1.00  0.00    -0.550 OA
ENDBRANCH  13  14
ENDBRANCH  12  13
ENDBRANCH  11  12
ENDBRANCH  10  11
ENDBRANCH   9  10
ENDBRANCH   8   9
ENDBRANCH   7   8
ENDBRANCH   6   7
ENDBRANCH   5   6
ENDBRANCH   4   5
ENDBRANCH   3   4
ENDBRANCH   2   3
ENDBRANCH   1   2
BRANCH   1  17
ATOM     17  C   UNL     1      -7.746   0.600   9.559  1.00  0.00     0.000 C 
BRANCH  17  18
ATOM     18  C   UNL     1      -8.614  -0.566   9.063  1.00  0.00     0.000 C 
BRANCH  18  19
ATOM     19  C   UNL     1      -9.377  -1.218  10.227  1.00  0.00     0.000 C 
BRANCH  19  20
ATOM     20  C   UNL     1      -9.376  -2.754  10.152  1.00  0.00     0.000 C 
BRANCH  20  21
ATOM     21  C   UNL     1      -8.941  -3.334   8.794  1.00  0.00     0.000 C 
BRANCH  21  22
ATOM     22  C   UNL     1      -7.646  -4.175   8.867  1.00  0.00    -0.000 C 
BRANCH  22  23
ATOM     23  C   UNL     1      -7.447  -5.052   7.619  1.00  0.00    -0.000 C 
BRANCH  23  24
ATOM     24  C   UNL     1      -7.114  -4.229   6.366  1.00  0.00    -0.000 C 
BRANCH  24  25
ATOM     25  C   UNL     1      -8.153  -4.402   5.248  1.00  0.00    -0.000 C 
BRANCH  25  26
ATOM     26  C   UNL     1      -8.924  -3.099   5.012  1.00  0.00    -0.000 C 
BRANCH  26  27
ATOM     27  C   UNL     1      -8.056  -1.875   5.343  1.00  0.00    -0.000 C 
BRANCH  27  28
ATOM     28  C   UNL     1      -8.871  -0.565   5.342  1.00  0.00    -0.000 C 
BRANCH  28  29
ATOM     29  C   UNL     1      -8.036   0.677   5.695  1.00  0.00    -0.003 C 
ATOM     30  C   UNL     1      -8.706   1.985   5.278  1.00  0.00     0.004 C 
ENDBRANCH  28  29
ENDBRANCH  27  28
ENDBRANCH  26  27
ENDBRANCH  25  26
ENDBRANCH  24  25
ENDBRANCH  23  24
ENDBRANCH  22  23
ENDBRANCH  21  22
ENDBRANCH  20  21
ENDBRANCH  19  20
ENDBRANCH  18  19
ENDBRANCH  17  18
ENDBRANCH   1  17
TORSDOF 26
ENDMDL
MODEL 9
REMARK VINA RESULT:    -4.046      1.784      3.631
REMARK INTER + INTRA:         -15.133
REMARK INTER:                 -10.220
REMARK INTRA:                  -4.913
REMARK UNBOUND:                -4.938
REMARK SMILES CCCCCCCCCCCCCCCCCCCCCCCCCCCC(=O)[O-]
REMARK SMILES IDX 15 1 16 2 17 3 18 4 19 5 20 6 21 7 22 8 23 9 24 10 25 11
REMARK SMILES IDX 26 12 27 13 28 14 29 15 30 16 14 17 13 18 12 19 11 20 10 21
REMARK SMILES IDX 9 22 8 23 7 24 6 25 5 26 4 27 3 28 2 29 1 30
REMARK H PARENT
REMARK Flexibility Score: inf
ROOT
ATOM      1  C   UNL     1      -5.278  -4.422   8.828  1.00  0.00     0.000 C 
ENDROOT
BRANCH   1   2
ATOM      2  C   UNL     1      -5.689  -2.955   9.056  1.00  0.00     0.000 C 
BRANCH   2   3
ATOM      3  C   UNL     1      -5.329  -1.984   7.915  1.00  0.00     0.000 C 
BRANCH   3   4
ATOM      4  C   UNL     1      -5.098  -0.529   8.373  1.00  0.00     0.000 C 
BRANCH   4   5
ATOM      5  C   UNL     1      -4.819  -0.409   9.884  1.00  0.00     0.000 C 
BRANCH   5   6
ATOM      6  C   UNL     1      -5.665   0.685  10.564  1.00  0.00     0.000 C 
BRANCH   6   7
ATOM      7  C   UNL     1      -7.091   0.842  10.008  1.00  0.00     0.000 C 
BRANCH   7   8
ATOM      8  C   UNL     1      -8.068  -0.218  10.547  1.00  0.00     0.000 C 
BRANCH   8   9
ATOM      9  C   UNL     1      -8.953  -0.828   9.440  1.00  0.00     0.000 C 
BRANCH   9  10
ATOM     10  C   UNL     1      -9.320  -2.306   9.672  1.00  0.00     0.000 C 
BRANCH  10  11
ATOM     11  C   UNL     1      -9.386  -3.179   8.403  1.00  0.00     0.000 C 
BRANCH  11  12
ATOM     12  C   UNL     1      -8.796  -2.535   7.134  1.00  0.00     0.006 C 
BRANCH  12  13
ATOM     13  C   UNL     1      -8.829  -3.469   5.919  1.00  0.00     0.053 C 
BRANCH  13  14
ATOM     14  C   UNL     1      -7.622  -4.355   5.905  1.00  0.00     0.041 C 
ATOM     15  O   UNL     1      -6.562  -3.967   5.347  1.00  0.00    -0.550 OA
ATOM     16  O   UNL     1      -7.656  -5.592   6.537  1.00  0.00    -0.550 OA
ENDBRANCH  13  14
ENDBRANCH  12  13
ENDBRANCH  11  12
ENDBRANCH  10  11
ENDBRANCH   9  10
ENDBRANCH   8   9
ENDBRANCH   7   8
ENDBRANCH   6   7
ENDBRANCH   5   6
ENDBRANCH   4   5
ENDBRANCH   3   4
ENDBRANCH   2   3
ENDBRANCH   1   2
BRANCH   1  17
ATOM     17  C   UNL     1      -4.098  -4.913   9.688  1.00  0.00     0.000 C 
BRANCH  17  18
ATOM     18  C   UNL     1      -3.266  -3.765  10.277  1.00  0.00     0.000 C 
BRANCH  18  19
ATOM     19  C   UNL     1      -1.775  -3.941   9.950  1.00  0.00     0.000 C 
BRANCH  19  20
ATOM     20  C   UNL     1      -1.135  -2.660   9.388  1.00  0.00     0.000 C 
BRANCH  20  21
ATOM     21  C   UNL     1       0.169  -2.231  10.085  1.00  0.00     0.000 C 
BRANCH  21  22
ATOM     22  C   UNL     1       0.319  -0.699  10.228  1.00  0.00    -0.000 C 
BRANCH  22  23
ATOM     23  C   UNL     1      -0.108  -0.197  11.617  1.00  0.00    -0.000 C 
BRANCH  23  24
ATOM     24  C   UNL     1      -1.562   0.301  11.643  1.00  0.00    -0.000 C 
BRANCH  24  25
ATOM     25  C   UNL     1      -2.247   0.062  12.996  1.00  0.00    -0.000 C 
BRANCH  25  26
ATOM     26  C   UNL     1      -3.036  -1.252  12.985  1.00  0.00    -0.000 C 
BRANCH  26  27
ATOM     27  C   UNL     1      -2.668  -2.127  14.192  1.00  0.00    -0.000 C 
BRANCH  27  28
ATOM     28  C   UNL     1      -2.077  -3.489  13.768  1.00  0.00    -0.000 C 
BRANCH  28  29
ATOM     29  C   UNL     1      -0.559  -3.451  13.530  1.00  0.00    -0.003 C 
ATOM     30  C   UNL     1       0.184  -4.584  14.234  1.00  0.00     0.004 C 
ENDBRANCH  28  29
ENDBRANCH  27  28
ENDBRANCH  26  27
ENDBRANCH  25  26
ENDBRANCH  24  25
ENDBRANCH  23  24
ENDBRANCH  22  23
ENDBRANCH  21  22
ENDBRANCH  20  21
ENDBRANCH  19  20
ENDBRANCH  18  19
ENDBRANCH  17  18
ENDBRANCH   1  17
TORSDOF 26
ENDMDL
