MODEL 1
REMARK VINA RESULT:     4.990      0.000      0.000
REMARK INTER + INTRA:           8.072
REMARK INTER:                   8.199
REMARK INTRA:                  -0.127
REMARK UNBOUND:                -0.127
REMARK SMILES C[C@@H]1O[C@@H](OC[C@H]2O[C@H](Oc3c(-c4ccc(O)c(O)c4)oc4cc(O)cc(O)c4c3=O)[C@H](O)[C@H](O)[C@@H]2O)[C@@H](O)[C@@H](O)[C@@H]1O
REMARK SMILES IDX 7 1 36 2 34 3 32 4 9 5 8 6 6 7 5 8 4 9 1 10 2 11 42 12 3 13
REMARK SMILES IDX 40 14 38 15 43 16 41 18 39 20 37 22 35 24 10 26 11 27 12 28
REMARK SMILES IDX 30 29 21 30 29 31 31 32 22 33 27 34 23 35 26 36 24 37 13 38
REMARK SMILES IDX 20 39 14 40 18 41 15 42 16 43 19 44 17 46 28 48 25 50 33 52
REMARK H PARENT 43 17 41 19 39 21 37 23 35 25 19 45 17 47 28 49 25 51 33 53
REMARK Flexibility Score: inf
ROOT
ATOM      1  C   UNL     1     119.371 114.476 120.894  1.00  0.00     0.180 C 
ATOM      2  C   UNL     1     120.746 114.887 121.470  1.00  0.00     0.177 C 
ATOM      3  C   UNL     1     120.887 116.419 121.436  1.00  0.00     0.180 C 
ATOM      4  C   UNL     1     119.665 117.067 122.106  1.00  0.00     0.214 C 
ATOM      5  C   UNL     1     118.354 116.494 121.524  1.00  0.00     0.339 C 
ATOM      6  O   UNL     1     118.322 115.081 121.634  1.00  0.00    -0.332 OA
ENDROOT
BRANCH   1   7
ATOM      7  C   UNL     1     119.176 112.949 120.943  1.00  0.00     0.198 C 
BRANCH   7   8
ATOM      8  O   UNL     1     117.856 112.626 121.335  1.00  0.00    -0.347 OA
BRANCH   8   9
ATOM      9  C   UNL     1     117.842 111.609 122.328  1.00  0.00     0.281 C 
ATOM     10  C   UNL     1     114.235 110.888 122.347  1.00  0.00     0.041 C 
ATOM     11  C   UNL     1     115.510 111.702 122.570  1.00  0.00     0.150 C 
ATOM     12  C   UNL     1     115.571 112.249 124.016  1.00  0.00     0.174 C 
ATOM     13  O   UNL     1     116.628 110.875 122.293  1.00  0.00    -0.344 OA
ATOM     14  C   UNL     1     116.891 113.017 124.250  1.00  0.00     0.179 C 
ATOM     15  C   UNL     1     118.100 112.216 123.726  1.00  0.00     0.202 C 
BRANCH  12  16
ATOM     16  O   UNL     1     115.482 111.181 124.926  1.00  0.00    -0.388 OA
ATOM     17  H   UNL     1     114.818 110.540 124.556  1.00  0.00     0.211 HD
ENDBRANCH  12  16
BRANCH  14  18
ATOM     18  O   UNL     1     116.846 114.318 123.711  1.00  0.00    -0.387 OA
ATOM     19  H   UNL     1     115.907 114.537 123.484  1.00  0.00     0.211 HD
ENDBRANCH  14  18
BRANCH  15  20
ATOM     20  O   UNL     1     119.241 113.036 123.708  1.00  0.00    -0.385 OA
ATOM     21  H   UNL     1     119.290 113.483 124.595  1.00  0.00     0.211 HD
ENDBRANCH  15  20
ENDBRANCH   8   9
ENDBRANCH   7   8
ENDBRANCH   1   7
BRANCH   2  22
ATOM     22  O   UNL     1     121.789 114.306 120.725  1.00  0.00    -0.387 OA
ATOM     23  H   UNL     1     122.125 113.527 121.239  1.00  0.00     0.211 HD
ENDBRANCH   2  22
BRANCH   3  24
ATOM     24  O   UNL     1     121.001 116.875 120.110  1.00  0.00    -0.387 OA
ATOM     25  H   UNL     1     121.948 116.749 119.840  1.00  0.00     0.211 HD
ENDBRANCH   3  24
BRANCH   5  26
ATOM     26  O   UNL     1     118.178 116.907 120.161  1.00  0.00    -0.454 OA
BRANCH  26  27
ATOM     27  C   UNL     1     117.389 118.005 119.798  1.00  0.00     0.214 A 
ATOM     28  C   UNL     1     115.982 117.937 119.797  1.00  0.00     0.180 A 
ATOM     29  C   UNL     1     118.009 119.206 119.441  1.00  0.00     0.239 A 
ATOM     30  O   UNL     1     115.267 119.027 119.540  1.00  0.00    -0.452 OA
ATOM     31  C   UNL     1     117.221 120.338 119.154  1.00  0.00     0.111 A 
ATOM     32  O   UNL     1     119.269 119.259 119.402  1.00  0.00    -0.285 OA
ATOM     33  C   UNL     1     115.814 120.199 119.233  1.00  0.00     0.146 A 
ATOM     34  C   UNL     1     117.770 121.594 118.804  1.00  0.00     0.134 A 
ATOM     35  C   UNL     1     114.983 121.293 118.975  1.00  0.00     0.094 A 
ATOM     36  C   UNL     1     116.919 122.679 118.544  1.00  0.00     0.093 A 
ATOM     37  C   UNL     1     115.533 122.533 118.632  1.00  0.00     0.123 A 
BRANCH  28  38
ATOM     38  C   UNL     1     115.267 116.671 120.049  1.00  0.00     0.025 A 
ATOM     39  C   UNL     1     114.415 116.122 119.078  1.00  0.00     0.062 A 
ATOM     40  C   UNL     1     115.403 116.028 121.286  1.00  0.00     0.016 A 
ATOM     41  C   UNL     1     113.725 114.929 119.321  1.00  0.00     0.158 A 
ATOM     42  C   UNL     1     114.730 114.830 121.531  1.00  0.00     0.051 A 
ATOM     43  C   UNL     1     113.894 114.267 120.559  1.00  0.00     0.157 A 
BRANCH  41  44
ATOM     44  O   UNL     1     112.885 114.446 118.315  1.00  0.00    -0.504 OA
ATOM     45  H   UNL     1     112.873 113.485 118.003  1.00  0.00     0.293 HD
ENDBRANCH  41  44
BRANCH  43  46
ATOM     46  O   UNL     1     113.259 113.062 120.864  1.00  0.00    -0.504 OA
ATOM     47  H   UNL     1     113.703 112.156 120.801  1.00  0.00     0.293 HD
ENDBRANCH  43  46
ENDBRANCH  28  38
BRANCH  34  48
ATOM     48  O   UNL     1     119.153 121.773 118.713  1.00  0.00    -0.507 OA
ATOM     49  H   UNL     1     119.564 122.682 118.541  1.00  0.00     0.293 HD
ENDBRANCH  34  48
BRANCH  37  50
ATOM     50  O   UNL     1     114.710 123.626 118.375  1.00  0.00    -0.508 OA
ATOM     51  H   UNL     1     114.766 124.474 118.926  1.00  0.00     0.293 HD
ENDBRANCH  37  50
ENDBRANCH  26  27
ENDBRANCH   5  26
BRANCH   4  52
ATOM     52  O   UNL     1     119.715 118.460 121.939  1.00  0.00    -0.384 OA
ATOM     53  H   UNL     1     118.942 118.706 121.366  1.00  0.00     0.211 HD
ENDBRANCH   4  52
TORSDOF 16
ENDMDL
MODEL 2
REMARK VINA RESULT:     6.778      1.883      3.967
REMARK INTER + INTRA:          11.009
REMARK INTER:                   8.228
REMARK INTRA:                   2.781
REMARK UNBOUND:                -0.127
REMARK SMILES C[C@@H]1O[C@@H](OC[C@H]2O[C@H](Oc3c(-c4ccc(O)c(O)c4)oc4cc(O)cc(O)c4c3=O)[C@H](O)[C@H](O)[C@@H]2O)[C@@H](O)[C@@H](O)[C@@H]1O
REMARK SMILES IDX 7 1 36 2 34 3 32 4 9 5 8 6 6 7 5 8 4 9 1 10 2 11 42 12 3 13
REMARK SMILES IDX 40 14 38 15 43 16 41 18 39 20 37 22 35 24 10 26 11 27 12 28
REMARK SMILES IDX 30 29 21 30 29 31 31 32 22 33 27 34 23 35 26 36 24 37 13 38
REMARK SMILES IDX 20 39 14 40 18 41 15 42 16 43 19 44 17 46 28 48 25 50 33 52
REMARK H PARENT 43 17 41 19 39 21 37 23 35 25 19 45 17 47 28 49 25 51 33 53
REMARK Flexibility Score: inf
ROOT
ATOM      1  C   UNL     1     119.721 114.013 122.099  1.00  0.00     0.180 C 
ATOM      2  C   UNL     1     120.459 114.717 123.262  1.00  0.00     0.177 C 
ATOM      3  C   UNL     1     119.993 116.180 123.363  1.00  0.00     0.180 C 
ATOM      4  C   UNL     1     118.458 116.232 123.421  1.00  0.00     0.214 C 
ATOM      5  C   UNL     1     117.838 115.402 122.277  1.00  0.00     0.339 C 
ATOM      6  O   UNL     1     118.317 114.067 122.298  1.00  0.00    -0.332 OA
ENDROOT
BRANCH   1   7
ATOM      7  C   UNL     1     120.134 112.534 121.986  1.00  0.00     0.198 C 
BRANCH   7   8
ATOM      8  O   UNL     1     119.996 112.075 120.656  1.00  0.00    -0.347 OA
BRANCH   8   9
ATOM      9  C   UNL     1     121.262 111.867 120.044  1.00  0.00     0.281 C 
ATOM     10  C   UNL     1     122.714 115.201 120.607  1.00  0.00     0.041 C 
ATOM     11  C   UNL     1     121.764 114.160 120.013  1.00  0.00     0.150 C 
ATOM     12  C   UNL     1     121.729 114.260 118.469  1.00  0.00     0.174 C 
ATOM     13  O   UNL     1     122.188 112.872 120.429  1.00  0.00    -0.344 OA
ATOM     14  C   UNL     1     120.815 113.164 117.876  1.00  0.00     0.179 C 
ATOM     15  C   UNL     1     121.114 111.789 118.507  1.00  0.00     0.202 C 
BRANCH  12  16
ATOM     16  O   UNL     1     123.031 114.111 117.960  1.00  0.00    -0.388 OA
ATOM     17  H   UNL     1     123.279 113.155 118.073  1.00  0.00     0.211 HD
ENDBRANCH  12  16
BRANCH  14  18
ATOM     18  O   UNL     1     119.451 113.505 117.975  1.00  0.00    -0.387 OA
ATOM     19  H   UNL     1     119.079 113.095 118.797  1.00  0.00     0.211 HD
ENDBRANCH  14  18
BRANCH  15  20
ATOM     20  O   UNL     1     120.107 110.875 118.152  1.00  0.00    -0.385 OA
ATOM     21  H   UNL     1     120.553 110.123 117.678  1.00  0.00     0.211 HD
ENDBRANCH  15  20
ENDBRANCH   8   9
ENDBRANCH   7   8
ENDBRANCH   1   7
BRANCH   2  22
ATOM     22  O   UNL     1     121.851 114.684 123.056  1.00  0.00    -0.387 OA
ATOM     23  H   UNL     1     122.036 115.129 122.190  1.00  0.00     0.211 HD
ENDBRANCH   2  22
BRANCH   3  24
ATOM     24  O   UNL     1     120.452 116.922 122.260  1.00  0.00    -0.387 OA
ATOM     25  H   UNL     1     120.662 116.272 121.539  1.00  0.00     0.211 HD
ENDBRANCH   3  24
BRANCH   5  26
ATOM     26  O   UNL     1     118.091 116.017 121.005  1.00  0.00    -0.454 OA
BRANCH  26  27
ATOM     27  C   UNL     1     117.330 117.086 120.517  1.00  0.00     0.214 A 
ATOM     28  C   UNL     1     115.930 117.002 120.392  1.00  0.00     0.180 A 
ATOM     29  C   UNL     1     117.972 118.275 120.158  1.00  0.00     0.239 A 
ATOM     30  O   UNL     1     115.234 118.070 120.016  1.00  0.00    -0.452 OA
ATOM     31  C   UNL     1     117.205 119.383 119.743  1.00  0.00     0.111 A 
ATOM     32  O   UNL     1     119.230 118.340 120.231  1.00  0.00    -0.285 OA
ATOM     33  C   UNL     1     115.799 119.231 119.700  1.00  0.00     0.146 A 
ATOM     34  C   UNL     1     117.776 120.626 119.381  1.00  0.00     0.134 A 
ATOM     35  C   UNL     1     114.987 120.301 119.313  1.00  0.00     0.094 A 
ATOM     36  C   UNL     1     116.945 121.686 118.990  1.00  0.00     0.093 A 
ATOM     37  C   UNL     1     115.557 121.529 118.959  1.00  0.00     0.123 A 
BRANCH  28  38
ATOM     38  C   UNL     1     115.204 115.742 120.641  1.00  0.00     0.025 A 
ATOM     39  C   UNL     1     115.590 114.887 121.686  1.00  0.00     0.062 A 
ATOM     40  C   UNL     1     114.147 115.369 119.802  1.00  0.00     0.016 A 
ATOM     41  C   UNL     1     114.912 113.684 121.914  1.00  0.00     0.158 A 
ATOM     42  C   UNL     1     113.456 114.177 120.033  1.00  0.00     0.051 A 
ATOM     43  C   UNL     1     113.822 113.330 121.085  1.00  0.00     0.157 A 
BRANCH  41  44
ATOM     44  O   UNL     1     115.356 112.875 122.964  1.00  0.00    -0.504 OA
ATOM     45  H   UNL     1     114.924 112.000 123.223  1.00  0.00     0.293 HD
ENDBRANCH  41  44
BRANCH  43  46
ATOM     46  O   UNL     1     113.084 112.159 121.267  1.00  0.00    -0.504 OA
ATOM     47  H   UNL     1     112.074 112.121 121.259  1.00  0.00     0.293 HD
ENDBRANCH  43  46
ENDBRANCH  28  38
BRANCH  34  48
ATOM     48  O   UNL     1     119.160 120.816 119.407  1.00  0.00    -0.507 OA
ATOM     49  H   UNL     1     119.574 121.738 119.349  1.00  0.00     0.293 HD
ENDBRANCH  34  48
BRANCH  37  50
ATOM     50  O   UNL     1     114.754 122.599 118.573  1.00  0.00    -0.508 OA
ATOM     51  H   UNL     1     113.801 122.460 118.259  1.00  0.00     0.293 HD
ENDBRANCH  37  50
ENDBRANCH  26  27
ENDBRANCH   5  26
BRANCH   4  52
ATOM     52  O   UNL     1     118.025 117.566 123.357  1.00  0.00    -0.384 OA
ATOM     53  H   UNL     1     117.065 117.566 123.607  1.00  0.00     0.211 HD
ENDBRANCH   4  52
TORSDOF 16
ENDMDL
