MODEL 1
REMARK VINA RESULT:    -4.940      0.000      0.000
REMARK INTER + INTRA:          -6.785
REMARK INTER:                  -6.817
REMARK INTRA:                   0.032
REMARK UNBOUND:                 0.032
REMARK SMILES CC[C@H](CC[C@@H](C)[C@H]1CC[C@H]2[C@@H]3CC=C4C[C@H](O)CC[C@@]4(C)[C@@H]3CC[C@@]12C)C(C)C
REMARK SMILES IDX 5 1 4 2 3 3 2 4 1 5 28 6 29 7 30 8 6 9 7 10 8 11 9 12 26 13
REMARK SMILES IDX 10 14 11 15 25 16 27 17 12 18 24 19 23 20 13 21 21 22 14 23
REMARK SMILES IDX 15 24 20 25 22 26 16 27 19 28 17 29 18 30
REMARK H PARENT 18 31
REMARK Flexibility Score: inf
ROOT
ATOM      1  C   UNL     1       3.811  41.882  12.596  1.00  0.00     0.004 C 
ENDROOT
BRANCH   1   2
ATOM      2  C   UNL     1       2.983  40.664  12.109  1.00  0.00     0.004 C 
BRANCH   2   3
ATOM      3  C   UNL     1       2.158  39.856  13.170  1.00  0.00    -0.009 C 
BRANCH   3   4
ATOM      4  C   UNL     1       0.681  40.335  13.323  1.00  0.00     0.000 C 
ATOM      5  C   UNL     1       0.369  40.993  14.671  1.00  0.00     0.004 C 
ENDBRANCH   3   4
BRANCH   3   6
ATOM      6  C   UNL     1       2.265  38.299  12.926  1.00  0.00    -0.014 C 
ATOM      7  C   UNL     1       3.363  37.940  11.912  1.00  0.00     0.007 C 
ATOM      8  C   UNL     1       0.932  37.623  12.536  1.00  0.00     0.007 C 
ENDBRANCH   3   6
ENDBRANCH   2   3
ENDBRANCH   1   2
BRANCH   1   9
ATOM      9  C   UNL     1       3.125  43.282  12.528  1.00  0.00    -0.011 C 
ATOM     10  C   UNL     1       4.183  44.372  12.274  1.00  0.00     0.008 C 
BRANCH   9  11
ATOM     11  C   UNL     1       1.904  43.405  11.521  1.00  0.00    -0.002 C 
ATOM     12  C   UNL     1       0.569  43.693  12.233  1.00  0.00     0.005 C 
ATOM     13  C   UNL     1       2.002  44.469  10.353  1.00  0.00    -0.026 C 
ATOM     14  C   UNL     1      -0.240  44.640  11.367  1.00  0.00     0.005 C 
ATOM     15  C   UNL     1       0.517  44.838  10.049  1.00  0.00    -0.001 C 
ATOM     16  C   UNL     1       2.775  45.736  10.788  1.00  0.00     0.007 C 
ATOM     17  C   UNL     1       2.647  43.832   9.080  1.00  0.00     0.012 C 
ATOM     18  C   UNL     1       0.202  46.249   9.403  1.00  0.00     0.000 C 
ATOM     19  C   UNL     1       2.727  46.846   9.741  1.00  0.00     0.005 C 
ATOM     20  C   UNL     1       1.296  47.376   9.535  1.00  0.00     0.003 C 
ATOM     21  C   UNL     1      -0.350  46.143   7.970  1.00  0.00     0.031 C 
ATOM     22  C   UNL     1       1.217  48.519   8.416  1.00  0.00    -0.008 C 
ATOM     23  C   UNL     1      -0.893  47.489   7.566  1.00  0.00    -0.027 C 
ATOM     24  C   UNL     1      -0.204  48.611   7.862  1.00  0.00    -0.065 C 
ATOM     25  C   UNL     1       1.617  49.884   9.053  1.00  0.00     0.014 C 
ATOM     26  C   UNL     1       2.167  48.250   7.209  1.00  0.00     0.016 C 
ATOM     27  C   UNL     1      -0.908  49.949   7.805  1.00  0.00     0.063 C 
ATOM     28  C   UNL     1       1.337  51.125   8.165  1.00  0.00     0.033 C 
ATOM     29  C   UNL     1       0.038  51.053   7.323  1.00  0.00     0.118 C 
BRANCH  29  30
ATOM     30  O   UNL     1       0.361  50.848   5.972  1.00  0.00    -0.393 OA
ATOM     31  H   UNL     1       0.035  49.943   5.730  1.00  0.00     0.210 HD
ENDBRANCH  29  30
ENDBRANCH   9  11
ENDBRANCH   1   9
TORSDOF 7
ENDMDL
MODEL 2
REMARK VINA RESULT:    -2.488      1.467      3.149
REMARK INTER + INTRA:          -3.401
REMARK INTER:                  -4.800
REMARK INTRA:                   1.398
REMARK UNBOUND:                 0.032
REMARK SMILES CC[C@H](CC[C@@H](C)[C@H]1CC[C@H]2[C@@H]3CC=C4C[C@H](O)CC[C@@]4(C)[C@@H]3CC[C@@]12C)C(C)C
REMARK SMILES IDX 5 1 4 2 3 3 2 4 1 5 28 6 29 7 30 8 6 9 7 10 8 11 9 12 26 13
REMARK SMILES IDX 10 14 11 15 25 16 27 17 12 18 24 19 23 20 13 21 21 22 14 23
REMARK SMILES IDX 15 24 20 25 22 26 16 27 19 28 17 29 18 30
REMARK H PARENT 18 31
REMARK Flexibility Score: inf
ROOT
ATOM      1  C   UNL     1       1.676  40.418  13.433  1.00  0.00     0.004 C 
ENDROOT
BRANCH   1   2
ATOM      2  C   UNL     1       0.807  39.140  13.301  1.00  0.00     0.004 C 
BRANCH   2   3
ATOM      3  C   UNL     1       1.237  38.055  12.253  1.00  0.00    -0.009 C 
BRANCH   3   4
ATOM      4  C   UNL     1       2.775  37.795  12.206  1.00  0.00     0.000 C 
ATOM      5  C   UNL     1       3.614  38.855  12.926  1.00  0.00     0.004 C 
ENDBRANCH   3   4
BRANCH   3   6
ATOM      6  C   UNL     1       0.404  36.724  12.420  1.00  0.00    -0.014 C 
ATOM      7  C   UNL     1       0.760  35.673  11.356  1.00  0.00     0.007 C 
ATOM      8  C   UNL     1      -1.125  36.933  12.477  1.00  0.00     0.007 C 
ENDBRANCH   3   6
ENDBRANCH   2   3
ENDBRANCH   1   2
BRANCH   1   9
ATOM      9  C   UNL     1       1.367  41.592  12.452  1.00  0.00    -0.011 C 
ATOM     10  C   UNL     1       0.390  42.582  13.112  1.00  0.00     0.008 C 
BRANCH   9  11
ATOM     11  C   UNL     1       2.630  42.333  11.840  1.00  0.00    -0.002 C 
ATOM     12  C   UNL     1       3.069  41.749  10.485  1.00  0.00     0.005 C 
ATOM     13  C   UNL     1       2.544  43.900  11.621  1.00  0.00    -0.026 C 
ATOM     14  C   UNL     1       3.535  42.890   9.601  1.00  0.00     0.005 C 
ATOM     15  C   UNL     1       3.525  44.172  10.440  1.00  0.00    -0.001 C 
ATOM     16  C   UNL     1       1.118  44.350  11.227  1.00  0.00     0.007 C 
ATOM     17  C   UNL     1       3.039  44.663  12.891  1.00  0.00     0.012 C 
ATOM     18  C   UNL     1       3.294  45.454   9.540  1.00  0.00     0.000 C 
ATOM     19  C   UNL     1       1.051  45.825  10.836  1.00  0.00     0.005 C 
ATOM     20  C   UNL     1       1.863  46.115   9.559  1.00  0.00     0.003 C 
ATOM     21  C   UNL     1       4.416  46.499   9.684  1.00  0.00     0.031 C 
ATOM     22  C   UNL     1       1.834  47.662   9.149  1.00  0.00    -0.008 C 
ATOM     23  C   UNL     1       4.263  47.519   8.585  1.00  0.00    -0.027 C 
ATOM     24  C   UNL     1       3.039  47.992   8.269  1.00  0.00    -0.065 C 
ATOM     25  C   UNL     1       0.520  47.957   8.365  1.00  0.00     0.014 C 
ATOM     26  C   UNL     1       1.888  48.616  10.382  1.00  0.00     0.016 C 
ATOM     27  C   UNL     1       2.839  48.703   6.948  1.00  0.00     0.063 C 
ATOM     28  C   UNL     1       0.470  49.346   7.675  1.00  0.00     0.033 C 
ATOM     29  C   UNL     1       1.814  49.835   7.079  1.00  0.00     0.118 C 
BRANCH  29  30
ATOM     30  O   UNL     1       2.339  50.864   7.876  1.00  0.00    -0.393 OA
ATOM     31  H   UNL     1       3.149  51.204   7.415  1.00  0.00     0.210 HD
ENDBRANCH  29  30
ENDBRANCH   9  11
ENDBRANCH   1   9
TORSDOF 7
ENDMDL
