MODEL 1
REMARK VINA RESULT:    -5.914      0.000      0.000
REMARK INTER + INTRA:         -19.244
REMARK INTER:                 -14.904
REMARK INTRA:                  -4.340
REMARK UNBOUND:                -4.340
REMARK SMILES CCCCCCCCCCCCCCCCCCCCCCCCCCCC(=O)[O-]
REMARK SMILES IDX 15 1 16 2 17 3 18 4 19 5 20 6 21 7 22 8 23 9 24 10 25 11
REMARK SMILES IDX 26 12 27 13 28 14 29 15 30 16 14 17 13 18 12 19 11 20 10 21
REMARK SMILES IDX 9 22 8 23 7 24 6 25 5 26 4 27 3 28 2 29 1 30
REMARK H PARENT
REMARK Flexibility Score: inf
ROOT
ATOM      1  C   UNL     1     106.026 -81.508  24.178  1.00  0.00     0.000 C 
ENDROOT
BRANCH   1   2
ATOM      2  C   UNL     1     105.322 -82.615  23.371  1.00  0.00     0.000 C 
BRANCH   2   3
ATOM      3  C   UNL     1     103.940 -82.168  22.849  1.00  0.00     0.000 C 
BRANCH   3   4
ATOM      4  C   UNL     1     103.491 -82.882  21.563  1.00  0.00     0.000 C 
BRANCH   4   5
ATOM      5  C   UNL     1     104.662 -83.478  20.765  1.00  0.00     0.000 C 
BRANCH   5   6
ATOM      6  C   UNL     1     104.664 -83.026  19.292  1.00  0.00     0.000 C 
BRANCH   6   7
ATOM      7  C   UNL     1     105.581 -81.820  19.006  1.00  0.00     0.000 C 
BRANCH   7   8
ATOM      8  C   UNL     1     106.581 -81.549  20.145  1.00  0.00     0.000 C 
BRANCH   8   9
ATOM      9  C   UNL     1     106.389 -80.166  20.784  1.00  0.00     0.000 C 
BRANCH   9  10
ATOM     10  C   UNL     1     105.112 -79.461  20.294  1.00  0.00     0.000 C 
BRANCH  10  11
ATOM     11  C   UNL     1     105.396 -78.078  19.683  1.00  0.00     0.000 C 
BRANCH  11  12
ATOM     12  C   UNL     1     106.721 -77.472  20.177  1.00  0.00     0.006 C 
BRANCH  12  13
ATOM     13  C   UNL     1     106.510 -76.140  20.910  1.00  0.00     0.053 C 
BRANCH  13  14
ATOM     14  C   UNL     1     105.777 -75.149  20.059  1.00  0.00     0.041 C 
ATOM     15  O   UNL     1     106.330 -74.658  19.038  1.00  0.00    -0.550 OA
ATOM     16  O   UNL     1     104.497 -74.741  20.410  1.00  0.00    -0.550 OA
ENDBRANCH  13  14
ENDBRANCH  12  13
ENDBRANCH  11  12
ENDBRANCH  10  11
ENDBRANCH   9  10
ENDBRANCH   8   9
ENDBRANCH   7   8
ENDBRANCH   6   7
ENDBRANCH   5   6
ENDBRANCH   4   5
ENDBRANCH   3   4
ENDBRANCH   2   3
ENDBRANCH   1   2
BRANCH   1  17
ATOM     17  C   UNL     1     107.418 -81.932  24.674  1.00  0.00     0.000 C 
BRANCH  17  18
ATOM     18  C   UNL     1     108.035 -83.045  23.814  1.00  0.00     0.000 C 
BRANCH  18  19
ATOM     19  C   UNL     1     109.449 -82.666  23.353  1.00  0.00     0.000 C 
BRANCH  19  20
ATOM     20  C   UNL     1     110.134 -81.674  24.308  1.00  0.00     0.000 C 
BRANCH  20  21
ATOM     21  C   UNL     1     110.614 -80.399  23.590  1.00  0.00     0.000 C 
BRANCH  21  22
ATOM     22  C   UNL     1     109.703 -79.998  22.410  1.00  0.00    -0.000 C 
BRANCH  22  23
ATOM     23  C   UNL     1     109.260 -78.523  22.438  1.00  0.00    -0.000 C 
BRANCH  23  24
ATOM     24  C   UNL     1     110.194 -77.543  21.705  1.00  0.00    -0.000 C 
BRANCH  24  25
ATOM     25  C   UNL     1     110.527 -77.929  20.251  1.00  0.00    -0.000 C 
BRANCH  25  26
ATOM     26  C   UNL     1     111.995 -78.348  20.063  1.00  0.00    -0.000 C 
BRANCH  26  27
ATOM     27  C   UNL     1     112.923 -77.716  21.112  1.00  0.00    -0.000 C 
BRANCH  27  28
ATOM     28  C   UNL     1     113.864 -78.745  21.764  1.00  0.00    -0.000 C 
BRANCH  28  29
ATOM     29  C   UNL     1     115.303 -78.651  21.234  1.00  0.00    -0.003 C 
ATOM     30  C   UNL     1     115.744 -79.914  20.494  1.00  0.00     0.004 C 
ENDBRANCH  28  29
ENDBRANCH  27  28
ENDBRANCH  26  27
ENDBRANCH  25  26
ENDBRANCH  24  25
ENDBRANCH  23  24
ENDBRANCH  22  23
ENDBRANCH  21  22
ENDBRANCH  20  21
ENDBRANCH  19  20
ENDBRANCH  18  19
ENDBRANCH  17  18
ENDBRANCH   1  17
TORSDOF 26
ENDMDL
MODEL 2
REMARK VINA RESULT:    -5.871      4.264      7.968
REMARK INTER + INTRA:         -19.135
REMARK INTER:                 -15.248
REMARK INTRA:                  -3.887
REMARK UNBOUND:                -4.340
REMARK SMILES CCCCCCCCCCCCCCCCCCCCCCCCCCCC(=O)[O-]
REMARK SMILES IDX 15 1 16 2 17 3 18 4 19 5 20 6 21 7 22 8 23 9 24 10 25 11
REMARK SMILES IDX 26 12 27 13 28 14 29 15 30 16 14 17 13 18 12 19 11 20 10 21
REMARK SMILES IDX 9 22 8 23 7 24 6 25 5 26 4 27 3 28 2 29 1 30
REMARK H PARENT
REMARK Flexibility Score: inf
ROOT
ATOM      1  C   UNL     1     105.033 -83.649  23.093  1.00  0.00     0.000 C 
ENDROOT
BRANCH   1   2
ATOM      2  C   UNL     1     106.476 -83.707  23.627  1.00  0.00     0.000 C 
BRANCH   2   3
ATOM      3  C   UNL     1     106.845 -82.455  24.450  1.00  0.00     0.000 C 
BRANCH   3   4
ATOM      4  C   UNL     1     108.356 -82.179  24.536  1.00  0.00     0.000 C 
BRANCH   4   5
ATOM      5  C   UNL     1     109.137 -82.723  23.329  1.00  0.00     0.000 C 
BRANCH   5   6
ATOM      6  C   UNL     1     110.643 -82.415  23.412  1.00  0.00     0.000 C 
BRANCH   6   7
ATOM      7  C   UNL     1     111.368 -82.452  22.052  1.00  0.00     0.000 C 
BRANCH   7   8
ATOM      8  C   UNL     1     112.574 -83.411  22.048  1.00  0.00     0.000 C 
BRANCH   8   9
ATOM      9  C   UNL     1     113.442 -83.263  20.789  1.00  0.00     0.000 C 
BRANCH   9  10
ATOM     10  C   UNL     1     114.321 -82.001  20.823  1.00  0.00     0.000 C 
BRANCH  10  11
ATOM     11  C   UNL     1     115.486 -82.116  21.820  1.00  0.00     0.000 C 
BRANCH  11  12
ATOM     12  C   UNL     1     116.227 -83.459  21.713  1.00  0.00     0.006 C 
BRANCH  12  13
ATOM     13  C   UNL     1     117.595 -83.311  21.032  1.00  0.00     0.053 C 
BRANCH  13  14
ATOM     14  C   UNL     1     118.445 -82.282  21.712  1.00  0.00     0.041 C 
ATOM     15  O   UNL     1     118.920 -82.507  22.858  1.00  0.00    -0.550 OA
ATOM     16  O   UNL     1     118.687 -81.060  21.096  1.00  0.00    -0.550 OA
ENDBRANCH  13  14
ENDBRANCH  12  13
ENDBRANCH  11  12
ENDBRANCH  10  11
ENDBRANCH   9  10
ENDBRANCH   8   9
ENDBRANCH   7   8
ENDBRANCH   6   7
ENDBRANCH   5   6
ENDBRANCH   4   5
ENDBRANCH   3   4
ENDBRANCH   2   3
ENDBRANCH   1   2
BRANCH   1  17
ATOM     17  C   UNL     1     104.477 -82.216  23.042  1.00  0.00     0.000 C 
BRANCH  17  18
ATOM     18  C   UNL     1     103.239 -82.099  22.141  1.00  0.00     0.000 C 
BRANCH  18  19
ATOM     19  C   UNL     1     103.114 -83.316  21.214  1.00  0.00     0.000 C 
BRANCH  19  20
ATOM     20  C   UNL     1     103.428 -82.974  19.748  1.00  0.00     0.000 C 
BRANCH  20  21
ATOM     21  C   UNL     1     104.759 -83.584  19.271  1.00  0.00     0.000 C 
BRANCH  21  22
ATOM     22  C   UNL     1     105.906 -82.553  19.223  1.00  0.00    -0.000 C 
BRANCH  22  23
ATOM     23  C   UNL     1     105.427 -81.091  19.123  1.00  0.00    -0.000 C 
BRANCH  23  24
ATOM     24  C   UNL     1     105.793 -80.197  20.322  1.00  0.00    -0.000 C 
BRANCH  24  25
ATOM     25  C   UNL     1     107.064 -80.621  21.083  1.00  0.00    -0.000 C 
BRANCH  25  26
ATOM     26  C   UNL     1     107.586 -79.529  22.032  1.00  0.00    -0.000 C 
BRANCH  26  27
ATOM     27  C   UNL     1     108.664 -78.651  21.379  1.00  0.00    -0.000 C 
BRANCH  27  28
ATOM     28  C   UNL     1     110.019 -78.745  22.104  1.00  0.00    -0.000 C 
BRANCH  28  29
ATOM     29  C   UNL     1     111.187 -78.233  21.246  1.00  0.00    -0.003 C 
ATOM     30  C   UNL     1     111.743 -79.303  20.307  1.00  0.00     0.004 C 
ENDBRANCH  28  29
ENDBRANCH  27  28
ENDBRANCH  26  27
ENDBRANCH  25  26
ENDBRANCH  24  25
ENDBRANCH  23  24
ENDBRANCH  22  23
ENDBRANCH  21  22
ENDBRANCH  20  21
ENDBRANCH  19  20
ENDBRANCH  18  19
ENDBRANCH  17  18
ENDBRANCH   1  17
TORSDOF 26
ENDMDL
MODEL 3
REMARK VINA RESULT:    -5.862      3.918      7.429
REMARK INTER + INTRA:         -19.112
REMARK INTER:                 -14.746
REMARK INTRA:                  -4.366
REMARK UNBOUND:                -4.340
REMARK SMILES CCCCCCCCCCCCCCCCCCCCCCCCCCCC(=O)[O-]
REMARK SMILES IDX 15 1 16 2 17 3 18 4 19 5 20 6 21 7 22 8 23 9 24 10 25 11
REMARK SMILES IDX 26 12 27 13 28 14 29 15 30 16 14 17 13 18 12 19 11 20 10 21
REMARK SMILES IDX 9 22 8 23 7 24 6 25 5 26 4 27 3 28 2 29 1 30
REMARK H PARENT
REMARK Flexibility Score: inf
ROOT
ATOM      1  C   UNL     1     109.676 -81.078  23.659  1.00  0.00     0.000 C 
ENDROOT
BRANCH   1   2
ATOM      2  C   UNL     1     110.751 -80.624  22.655  1.00  0.00     0.000 C 
BRANCH   2   3
ATOM      3  C   UNL     1     110.515 -81.205  21.244  1.00  0.00     0.000 C 
BRANCH   3   4
ATOM      4  C   UNL     1     111.765 -81.833  20.604  1.00  0.00     0.000 C 
BRANCH   4   5
ATOM      5  C   UNL     1     112.601 -82.657  21.596  1.00  0.00     0.000 C 
BRANCH   5   6
ATOM      6  C   UNL     1     113.631 -83.560  20.894  1.00  0.00     0.000 C 
BRANCH   6   7
ATOM      7  C   UNL     1     114.865 -82.808  20.358  1.00  0.00     0.000 C 
BRANCH   7   8
ATOM      8  C   UNL     1     115.171 -81.524  21.153  1.00  0.00     0.000 C 
BRANCH   8   9
ATOM      9  C   UNL     1     115.213 -80.273  20.263  1.00  0.00     0.000 C 
BRANCH   9  10
ATOM     10  C   UNL     1     114.254 -79.172  20.746  1.00  0.00     0.000 C 
BRANCH  10  11
ATOM     11  C   UNL     1     114.680 -78.563  22.092  1.00  0.00     0.000 C 
BRANCH  11  12
ATOM     12  C   UNL     1     116.142 -78.086  22.090  1.00  0.00     0.006 C 
BRANCH  12  13
ATOM     13  C   UNL     1     116.355 -76.872  23.006  1.00  0.00     0.053 C 
BRANCH  13  14
ATOM     14  C   UNL     1     117.484 -77.093  23.965  1.00  0.00     0.041 C 
ATOM     15  O   UNL     1     117.275 -77.652  25.075  1.00  0.00    -0.550 OA
ATOM     16  O   UNL     1     118.763 -76.652  23.649  1.00  0.00    -0.550 OA
ENDBRANCH  13  14
ENDBRANCH  12  13
ENDBRANCH  11  12
ENDBRANCH  10  11
ENDBRANCH   9  10
ENDBRANCH   8   9
ENDBRANCH   7   8
ENDBRANCH   6   7
ENDBRANCH   5   6
ENDBRANCH   4   5
ENDBRANCH   3   4
ENDBRANCH   2   3
ENDBRANCH   1   2
BRANCH   1  17
ATOM     17  C   UNL     1     109.485 -82.604  23.673  1.00  0.00     0.000 C 
BRANCH  17  18
ATOM     18  C   UNL     1     108.004 -83.009  23.730  1.00  0.00     0.000 C 
BRANCH  18  19
ATOM     19  C   UNL     1     107.126 -81.826  24.161  1.00  0.00     0.000 C 
BRANCH  19  20
ATOM     20  C   UNL     1     105.953 -81.582  23.197  1.00  0.00     0.000 C 
BRANCH  20  21
ATOM     21  C   UNL     1     106.168 -82.247  21.825  1.00  0.00     0.000 C 
BRANCH  21  22
ATOM     22  C   UNL     1     106.686 -81.260  20.757  1.00  0.00    -0.000 C 
BRANCH  22  23
ATOM     23  C   UNL     1     106.470 -79.778  21.120  1.00  0.00    -0.000 C 
BRANCH  23  24
ATOM     24  C   UNL     1     107.755 -78.937  21.236  1.00  0.00    -0.000 C 
BRANCH  24  25
ATOM     25  C   UNL     1     107.677 -77.767  22.236  1.00  0.00    -0.000 C 
BRANCH  25  26
ATOM     26  C   UNL     1     108.970 -76.936  22.285  1.00  0.00    -0.000 C 
BRANCH  26  27
ATOM     27  C   UNL     1     109.832 -77.117  21.027  1.00  0.00    -0.000 C 
BRANCH  27  28
ATOM     28  C   UNL     1     111.339 -76.997  21.321  1.00  0.00    -0.000 C 
BRANCH  28  29
ATOM     29  C   UNL     1     111.683 -75.748  22.145  1.00  0.00    -0.003 C 
ATOM     30  C   UNL     1     113.064 -75.182  21.811  1.00  0.00     0.004 C 
ENDBRANCH  28  29
ENDBRANCH  27  28
ENDBRANCH  26  27
ENDBRANCH  25  26
ENDBRANCH  24  25
ENDBRANCH  23  24
ENDBRANCH  22  23
ENDBRANCH  21  22
ENDBRANCH  20  21
ENDBRANCH  19  20
ENDBRANCH  18  19
ENDBRANCH  17  18
ENDBRANCH   1  17
TORSDOF 26
ENDMDL
MODEL 4
REMARK VINA RESULT:    -5.854      3.233      8.791
REMARK INTER + INTRA:         -19.092
REMARK INTER:                 -15.985
REMARK INTRA:                  -3.107
REMARK UNBOUND:                -4.340
REMARK SMILES CCCCCCCCCCCCCCCCCCCCCCCCCCCC(=O)[O-]
REMARK SMILES IDX 15 1 16 2 17 3 18 4 19 5 20 6 21 7 22 8 23 9 24 10 25 11
REMARK SMILES IDX 26 12 27 13 28 14 29 15 30 16 14 17 13 18 12 19 11 20 10 21
REMARK SMILES IDX 9 22 8 23 7 24 6 25 5 26 4 27 3 28 2 29 1 30
REMARK H PARENT
REMARK Flexibility Score: inf
ROOT
ATOM      1  C   UNL     1     111.032 -82.252  22.398  1.00  0.00     0.000 C 
ENDROOT
BRANCH   1   2
ATOM      2  C   UNL     1     112.082 -83.369  22.264  1.00  0.00     0.000 C 
BRANCH   2   3
ATOM      3  C   UNL     1     113.451 -82.831  21.796  1.00  0.00     0.000 C 
BRANCH   3   4
ATOM      4  C   UNL     1     113.933 -83.412  20.455  1.00  0.00     0.000 C 
BRANCH   4   5
ATOM      5  C   UNL     1     115.423 -83.147  20.185  1.00  0.00     0.000 C 
BRANCH   5   6
ATOM      6  C   UNL     1     116.312 -83.488  21.395  1.00  0.00     0.000 C 
BRANCH   6   7
ATOM      7  C   UNL     1     117.821 -83.309  21.136  1.00  0.00     0.000 C 
BRANCH   7   8
ATOM      8  C   UNL     1     118.598 -82.904  22.403  1.00  0.00     0.000 C 
BRANCH   8   9
ATOM      9  C   UNL     1     119.144 -81.470  22.330  1.00  0.00     0.000 C 
BRANCH   9  10
ATOM     10  C   UNL     1     118.674 -80.723  21.070  1.00  0.00     0.000 C 
BRANCH  10  11
ATOM     11  C   UNL     1     118.138 -79.315  21.381  1.00  0.00     0.000 C 
BRANCH  11  12
ATOM     12  C   UNL     1     116.664 -79.325  21.818  1.00  0.00     0.006 C 
BRANCH  12  13
ATOM     13  C   UNL     1     115.719 -79.666  20.657  1.00  0.00     0.053 C 
BRANCH  13  14
ATOM     14  C   UNL     1     114.400 -78.969  20.793  1.00  0.00     0.041 C 
ATOM     15  O   UNL     1     114.329 -77.851  21.370  1.00  0.00    -0.550 OA
ATOM     16  O   UNL     1     113.243 -79.568  20.312  1.00  0.00    -0.550 OA
ENDBRANCH  13  14
ENDBRANCH  12  13
ENDBRANCH  11  12
ENDBRANCH  10  11
ENDBRANCH   9  10
ENDBRANCH   8   9
ENDBRANCH   7   8
ENDBRANCH   6   7
ENDBRANCH   5   6
ENDBRANCH   4   5
ENDBRANCH   3   4
ENDBRANCH   2   3
ENDBRANCH   1   2
BRANCH   1  17
ATOM     17  C   UNL     1     109.888 -82.626  23.356  1.00  0.00     0.000 C 
BRANCH  17  18
ATOM     18  C   UNL     1     109.720 -81.609  24.495  1.00  0.00     0.000 C 
BRANCH  18  19
ATOM     19  C   UNL     1     108.462 -81.909  25.321  1.00  0.00     0.000 C 
BRANCH  19  20
ATOM     20  C   UNL     1     107.417 -82.715  24.530  1.00  0.00     0.000 C 
BRANCH  20  21
ATOM     21  C   UNL     1     106.043 -82.021  24.490  1.00  0.00     0.000 C 
BRANCH  21  22
ATOM     22  C   UNL     1     105.598 -81.658  23.057  1.00  0.00    -0.000 C 
BRANCH  22  23
ATOM     23  C   UNL     1     106.501 -82.246  21.956  1.00  0.00    -0.000 C 
BRANCH  23  24
ATOM     24  C   UNL     1     107.257 -81.209  21.105  1.00  0.00    -0.000 C 
BRANCH  24  25
ATOM     25  C   UNL     1     107.565 -79.880  21.823  1.00  0.00    -0.000 C 
BRANCH  25  26
ATOM     26  C   UNL     1     107.242 -78.647  20.963  1.00  0.00    -0.000 C 
BRANCH  26  27
ATOM     27  C   UNL     1     105.850 -78.732  20.317  1.00  0.00    -0.000 C 
BRANCH  27  28
ATOM     28  C   UNL     1     105.405 -77.394  19.697  1.00  0.00    -0.000 C 
BRANCH  28  29
ATOM     29  C   UNL     1     106.590 -76.525  19.250  1.00  0.00    -0.003 C 
ATOM     30  C   UNL     1     106.241 -75.038  19.186  1.00  0.00     0.004 C 
ENDBRANCH  28  29
ENDBRANCH  27  28
ENDBRANCH  26  27
ENDBRANCH  25  26
ENDBRANCH  24  25
ENDBRANCH  23  24
ENDBRANCH  22  23
ENDBRANCH  21  22
ENDBRANCH  20  21
ENDBRANCH  19  20
ENDBRANCH  18  19
ENDBRANCH  17  18
ENDBRANCH   1  17
TORSDOF 26
ENDMDL
MODEL 5
REMARK VINA RESULT:    -5.844      5.428      9.099
REMARK INTER + INTRA:         -19.067
REMARK INTER:                 -14.992
REMARK INTRA:                  -4.075
REMARK UNBOUND:                -4.340
REMARK SMILES CCCCCCCCCCCCCCCCCCCCCCCCCCCC(=O)[O-]
REMARK SMILES IDX 15 1 16 2 17 3 18 4 19 5 20 6 21 7 22 8 23 9 24 10 25 11
REMARK SMILES IDX 26 12 27 13 28 14 29 15 30 16 14 17 13 18 12 19 11 20 10 21
REMARK SMILES IDX 9 22 8 23 7 24 6 25 5 26 4 27 3 28 2 29 1 30
REMARK H PARENT
REMARK Flexibility Score: inf
ROOT
ATOM      1  C   UNL     1     110.625 -79.997  23.392  1.00  0.00     0.000 C 
ENDROOT
BRANCH   1   2
ATOM      2  C   UNL     1     109.801 -81.257  23.713  1.00  0.00     0.000 C 
BRANCH   2   3
ATOM      3  C   UNL     1     110.413 -82.530  23.091  1.00  0.00     0.000 C 
BRANCH   3   4
ATOM      4  C   UNL     1     111.423 -82.258  21.963  1.00  0.00     0.000 C 
BRANCH   4   5
ATOM      5  C   UNL     1     112.540 -83.311  21.888  1.00  0.00     0.000 C 
BRANCH   5   6
ATOM      6  C   UNL     1     113.374 -83.197  20.598  1.00  0.00     0.000 C 
BRANCH   6   7
ATOM      7  C   UNL     1     114.763 -83.859  20.687  1.00  0.00     0.000 C 
BRANCH   7   8
ATOM      8  C   UNL     1     115.777 -83.011  21.479  1.00  0.00     0.000 C 
BRANCH   8   9
ATOM      9  C   UNL     1     117.233 -83.364  21.142  1.00  0.00     0.000 C 
BRANCH   9  10
ATOM     10  C   UNL     1     118.238 -82.697  22.097  1.00  0.00     0.000 C 
BRANCH  10  11
ATOM     11  C   UNL     1     118.905 -81.455  21.482  1.00  0.00     0.000 C 
BRANCH  11  12
ATOM     12  C   UNL     1     120.060 -80.915  22.342  1.00  0.00     0.006 C 
BRANCH  12  13
ATOM     13  C   UNL     1     119.693 -79.599  23.041  1.00  0.00     0.053 C 
BRANCH  13  14
ATOM     14  C   UNL     1     119.274 -79.823  24.462  1.00  0.00     0.041 C 
ATOM     15  O   UNL     1     118.639 -78.930  25.086  1.00  0.00    -0.550 OA
ATOM     16  O   UNL     1     119.612 -81.004  25.110  1.00  0.00    -0.550 OA
ENDBRANCH  13  14
ENDBRANCH  12  13
ENDBRANCH  11  12
ENDBRANCH  10  11
ENDBRANCH   9  10
ENDBRANCH   8   9
ENDBRANCH   7   8
ENDBRANCH   6   7
ENDBRANCH   5   6
ENDBRANCH   4   5
ENDBRANCH   3   4
ENDBRANCH   2   3
ENDBRANCH   1   2
BRANCH   1  17
ATOM     17  C   UNL     1     109.840 -78.974  22.553  1.00  0.00     0.000 C 
BRANCH  17  18
ATOM     18  C   UNL     1     110.755 -77.941  21.879  1.00  0.00     0.000 C 
BRANCH  18  19
ATOM     19  C   UNL     1     110.779 -78.136  20.357  1.00  0.00     0.000 C 
BRANCH  19  20
ATOM     20  C   UNL     1     111.746 -79.249  19.920  1.00  0.00     0.000 C 
BRANCH  20  21
ATOM     21  C   UNL     1     113.219 -78.799  19.954  1.00  0.00     0.000 C 
BRANCH  21  22
ATOM     22  C   UNL     1     114.077 -79.634  20.928  1.00  0.00    -0.000 C 
BRANCH  22  23
ATOM     23  C   UNL     1     115.595 -79.468  20.722  1.00  0.00    -0.000 C 
BRANCH  23  24
ATOM     24  C   UNL     1     116.366 -78.922  21.938  1.00  0.00    -0.000 C 
BRANCH  24  25
ATOM     25  C   UNL     1     115.531 -78.779  23.225  1.00  0.00    -0.000 C 
BRANCH  25  26
ATOM     26  C   UNL     1     115.688 -77.402  23.891  1.00  0.00    -0.000 C 
BRANCH  26  27
ATOM     27  C   UNL     1     115.433 -76.246  22.912  1.00  0.00    -0.000 C 
BRANCH  27  28
ATOM     28  C   UNL     1     113.973 -76.196  22.426  1.00  0.00    -0.000 C 
BRANCH  28  29
ATOM     29  C   UNL     1     113.338 -74.808  22.599  1.00  0.00    -0.003 C 
ATOM     30  C   UNL     1     113.405 -74.303  24.040  1.00  0.00     0.004 C 
ENDBRANCH  28  29
ENDBRANCH  27  28
ENDBRANCH  26  27
ENDBRANCH  25  26
ENDBRANCH  24  25
ENDBRANCH  23  24
ENDBRANCH  22  23
ENDBRANCH  21  22
ENDBRANCH  20  21
ENDBRANCH  19  20
ENDBRANCH  18  19
ENDBRANCH  17  18
ENDBRANCH   1  17
TORSDOF 26
ENDMDL
MODEL 6
REMARK VINA RESULT:    -5.834      4.053      9.200
REMARK INTER + INTRA:         -19.042
REMARK INTER:                 -15.089
REMARK INTRA:                  -3.953
REMARK UNBOUND:                -4.340
REMARK SMILES CCCCCCCCCCCCCCCCCCCCCCCCCCCC(=O)[O-]
REMARK SMILES IDX 15 1 16 2 17 3 18 4 19 5 20 6 21 7 22 8 23 9 24 10 25 11
REMARK SMILES IDX 26 12 27 13 28 14 29 15 30 16 14 17 13 18 12 19 11 20 10 21
REMARK SMILES IDX 9 22 8 23 7 24 6 25 5 26 4 27 3 28 2 29 1 30
REMARK H PARENT
REMARK Flexibility Score: inf
ROOT
ATOM      1  C   UNL     1     115.347 -83.408  20.144  1.00  0.00     0.000 C 
ENDROOT
BRANCH   1   2
ATOM      2  C   UNL     1     116.178 -83.379  21.439  1.00  0.00     0.000 C 
BRANCH   2   3
ATOM      3  C   UNL     1     117.039 -82.103  21.552  1.00  0.00     0.000 C 
BRANCH   3   4
ATOM      4  C   UNL     1     116.257 -80.849  21.978  1.00  0.00     0.000 C 
BRANCH   4   5
ATOM      5  C   UNL     1     116.355 -79.703  20.957  1.00  0.00     0.000 C 
BRANCH   5   6
ATOM      6  C   UNL     1     115.216 -79.735  19.922  1.00  0.00     0.000 C 
BRANCH   6   7
ATOM      7  C   UNL     1     113.807 -79.833  20.540  1.00  0.00     0.000 C 
BRANCH   7   8
ATOM      8  C   UNL     1     112.996 -78.534  20.380  1.00  0.00     0.000 C 
BRANCH   8   9
ATOM      9  C   UNL     1     112.948 -77.703  21.671  1.00  0.00     0.000 C 
BRANCH   9  10
ATOM     10  C   UNL     1     113.390 -78.507  22.906  1.00  0.00     0.000 C 
BRANCH  10  11
ATOM     11  C   UNL     1     114.451 -77.771  23.743  1.00  0.00     0.000 C 
BRANCH  11  12
ATOM     12  C   UNL     1     115.277 -76.777  22.911  1.00  0.00     0.006 C 
BRANCH  12  13
ATOM     13  C   UNL     1     116.210 -75.927  23.785  1.00  0.00     0.053 C 
BRANCH  13  14
ATOM     14  C   UNL     1     117.576 -76.532  23.889  1.00  0.00     0.041 C 
ATOM     15  O   UNL     1     117.970 -77.364  23.028  1.00  0.00    -0.550 OA
ATOM     16  O   UNL     1     118.404 -76.202  24.955  1.00  0.00    -0.550 OA
ENDBRANCH  13  14
ENDBRANCH  12  13
ENDBRANCH  11  12
ENDBRANCH  10  11
ENDBRANCH   9  10
ENDBRANCH   8   9
ENDBRANCH   7   8
ENDBRANCH   6   7
ENDBRANCH   5   6
ENDBRANCH   4   5
ENDBRANCH   3   4
ENDBRANCH   2   3
ENDBRANCH   1   2
BRANCH   1  17
ATOM     17  C   UNL     1     113.971 -84.067  20.338  1.00  0.00     0.000 C 
BRANCH  17  18
ATOM     18  C   UNL     1     112.881 -83.052  20.714  1.00  0.00     0.000 C 
BRANCH  18  19
ATOM     19  C   UNL     1     112.572 -83.108  22.217  1.00  0.00     0.000 C 
BRANCH  19  20
ATOM     20  C   UNL     1     111.074 -82.932  22.517  1.00  0.00     0.000 C 
BRANCH  20  21
ATOM     21  C   UNL     1     110.582 -81.497  22.250  1.00  0.00     0.000 C 
BRANCH  21  22
ATOM     22  C   UNL     1     110.290 -80.715  23.548  1.00  0.00    -0.000 C 
BRANCH  22  23
ATOM     23  C   UNL     1     109.834 -81.603  24.722  1.00  0.00    -0.000 C 
BRANCH  23  24
ATOM     24  C   UNL     1     108.313 -81.828  24.823  1.00  0.00    -0.000 C 
BRANCH  24  25
ATOM     25  C   UNL     1     107.800 -83.108  24.136  1.00  0.00    -0.000 C 
BRANCH  25  26
ATOM     26  C   UNL     1     106.266 -83.153  24.024  1.00  0.00    -0.000 C 
BRANCH  26  27
ATOM     27  C   UNL     1     105.663 -81.780  23.691  1.00  0.00    -0.000 C 
BRANCH  27  28
ATOM     28  C   UNL     1     104.932 -81.769  22.336  1.00  0.00    -0.000 C 
BRANCH  28  29
ATOM     29  C   UNL     1     105.580 -80.816  21.321  1.00  0.00    -0.003 C 
ATOM     30  C   UNL     1     106.924 -80.267  21.800  1.00  0.00     0.004 C 
ENDBRANCH  28  29
ENDBRANCH  27  28
ENDBRANCH  26  27
ENDBRANCH  25  26
ENDBRANCH  24  25
ENDBRANCH  23  24
ENDBRANCH  22  23
ENDBRANCH  21  22
ENDBRANCH  20  21
ENDBRANCH  19  20
ENDBRANCH  18  19
ENDBRANCH  17  18
ENDBRANCH   1  17
TORSDOF 26
ENDMDL
MODEL 7
REMARK VINA RESULT:    -5.796      4.267      7.607
REMARK INTER + INTRA:         -18.944
REMARK INTER:                 -15.230
REMARK INTRA:                  -3.715
REMARK UNBOUND:                -4.340
REMARK SMILES CCCCCCCCCCCCCCCCCCCCCCCCCCCC(=O)[O-]
REMARK SMILES IDX 15 1 16 2 17 3 18 4 19 5 20 6 21 7 22 8 23 9 24 10 25 11
REMARK SMILES IDX 26 12 27 13 28 14 29 15 30 16 14 17 13 18 12 19 11 20 10 21
REMARK SMILES IDX 9 22 8 23 7 24 6 25 5 26 4 27 3 28 2 29 1 30
REMARK H PARENT
REMARK Flexibility Score: inf
ROOT
ATOM      1  C   UNL     1     106.125 -80.304  20.962  1.00  0.00     0.000 C 
ENDROOT
BRANCH   1   2
ATOM      2  C   UNL     1     107.614 -80.209  21.343  1.00  0.00     0.000 C 
BRANCH   2   3
ATOM      3  C   UNL     1     107.995 -78.807  21.865  1.00  0.00     0.000 C 
BRANCH   3   4
ATOM      4  C   UNL     1     109.466 -78.672  22.293  1.00  0.00     0.000 C 
BRANCH   4   5
ATOM      5  C   UNL     1     110.215 -77.567  21.530  1.00  0.00     0.000 C 
BRANCH   5   6
ATOM      6  C   UNL     1     110.335 -77.867  20.024  1.00  0.00     0.000 C 
BRANCH   6   7
ATOM      7  C   UNL     1     111.668 -78.528  19.619  1.00  0.00     0.000 C 
BRANCH   7   8
ATOM      8  C   UNL     1     112.793 -78.273  20.639  1.00  0.00     0.000 C 
BRANCH   8   9
ATOM      9  C   UNL     1     114.032 -79.144  20.383  1.00  0.00     0.000 C 
BRANCH   9  10
ATOM     10  C   UNL     1     114.999 -79.162  21.579  1.00  0.00     0.000 C 
BRANCH  10  11
ATOM     11  C   UNL     1     115.300 -77.754  22.120  1.00  0.00     0.000 C 
BRANCH  11  12
ATOM     12  C   UNL     1     116.754 -77.600  22.594  1.00  0.00     0.006 C 
BRANCH  12  13
ATOM     13  C   UNL     1     117.295 -78.890  23.227  1.00  0.00     0.053 C 
BRANCH  13  14
ATOM     14  C   UNL     1     118.741 -78.761  23.599  1.00  0.00     0.041 C 
ATOM     15  O   UNL     1     119.511 -78.034  22.914  1.00  0.00    -0.550 OA
ATOM     16  O   UNL     1     119.247 -79.468  24.682  1.00  0.00    -0.550 OA
ENDBRANCH  13  14
ENDBRANCH  12  13
ENDBRANCH  11  12
ENDBRANCH  10  11
ENDBRANCH   9  10
ENDBRANCH   8   9
ENDBRANCH   7   8
ENDBRANCH   6   7
ENDBRANCH   5   6
ENDBRANCH   4   5
ENDBRANCH   3   4
ENDBRANCH   2   3
ENDBRANCH   1   2
BRANCH   1  17
ATOM     17  C   UNL     1     105.545 -81.711  21.187  1.00  0.00     0.000 C 
BRANCH  17  18
ATOM     18  C   UNL     1     104.819 -81.838  22.535  1.00  0.00     0.000 C 
BRANCH  18  19
ATOM     19  C   UNL     1     105.792 -82.256  23.647  1.00  0.00     0.000 C 
BRANCH  19  20
ATOM     20  C   UNL     1     106.538 -83.560  23.318  1.00  0.00     0.000 C 
BRANCH  20  21
ATOM     21  C   UNL     1     108.067 -83.405  23.409  1.00  0.00     0.000 C 
BRANCH  21  22
ATOM     22  C   UNL     1     108.495 -82.200  24.274  1.00  0.00    -0.000 C 
BRANCH  22  23
ATOM     23  C   UNL     1     109.989 -81.844  24.151  1.00  0.00    -0.000 C 
BRANCH  23  24
ATOM     24  C   UNL     1     110.734 -82.532  22.992  1.00  0.00    -0.000 C 
BRANCH  24  25
ATOM     25  C   UNL     1     111.450 -81.574  22.021  1.00  0.00    -0.000 C 
BRANCH  25  26
ATOM     26  C   UNL     1     112.131 -82.305  20.852  1.00  0.00    -0.000 C 
BRANCH  26  27
ATOM     27  C   UNL     1     113.225 -83.275  21.325  1.00  0.00    -0.000 C 
BRANCH  27  28
ATOM     28  C   UNL     1     114.266 -83.570  20.230  1.00  0.00    -0.000 C 
BRANCH  28  29
ATOM     29  C   UNL     1     115.698 -83.654  20.781  1.00  0.00    -0.003 C 
ATOM     30  C   UNL     1     115.971 -82.622  21.875  1.00  0.00     0.004 C 
ENDBRANCH  28  29
ENDBRANCH  27  28
ENDBRANCH  26  27
ENDBRANCH  25  26
ENDBRANCH  24  25
ENDBRANCH  23  24
ENDBRANCH  22  23
ENDBRANCH  21  22
ENDBRANCH  20  21
ENDBRANCH  19  20
ENDBRANCH  18  19
ENDBRANCH  17  18
ENDBRANCH   1  17
TORSDOF 26
ENDMDL
MODEL 8
REMARK VINA RESULT:    -5.791      2.243      5.147
REMARK INTER + INTRA:         -18.933
REMARK INTER:                 -14.786
REMARK INTRA:                  -4.148
REMARK UNBOUND:                -4.340
REMARK SMILES CCCCCCCCCCCCCCCCCCCCCCCCCCCC(=O)[O-]
REMARK SMILES IDX 15 1 16 2 17 3 18 4 19 5 20 6 21 7 22 8 23 9 24 10 25 11
REMARK SMILES IDX 26 12 27 13 28 14 29 15 30 16 14 17 13 18 12 19 11 20 10 21
REMARK SMILES IDX 9 22 8 23 7 24 6 25 5 26 4 27 3 28 2 29 1 30
REMARK H PARENT
REMARK Flexibility Score: inf
ROOT
ATOM      1  C   UNL     1     110.749 -81.409  21.391  1.00  0.00     0.000 C 
ENDROOT
BRANCH   1   2
ATOM      2  C   UNL     1     110.910 -80.830  22.808  1.00  0.00     0.000 C 
BRANCH   2   3
ATOM      3  C   UNL     1     109.972 -81.511  23.827  1.00  0.00     0.000 C 
BRANCH   3   4
ATOM      4  C   UNL     1     109.411 -82.866  23.361  1.00  0.00     0.000 C 
BRANCH   4   5
ATOM      5  C   UNL     1     107.986 -83.134  23.871  1.00  0.00     0.000 C 
BRANCH   5   6
ATOM      6  C   UNL     1     107.404 -81.943  24.655  1.00  0.00     0.000 C 
BRANCH   6   7
ATOM      7  C   UNL     1     105.968 -81.561  24.244  1.00  0.00     0.000 C 
BRANCH   7   8
ATOM      8  C   UNL     1     105.517 -82.254  22.945  1.00  0.00     0.000 C 
BRANCH   8   9
ATOM      9  C   UNL     1     105.348 -81.270  21.777  1.00  0.00     0.000 C 
BRANCH   9  10
ATOM     10  C   UNL     1     106.684 -80.922  21.100  1.00  0.00     0.000 C 
BRANCH  10  11
ATOM     11  C   UNL     1     106.966 -79.410  21.087  1.00  0.00     0.000 C 
BRANCH  11  12
ATOM     12  C   UNL     1     107.837 -78.959  22.271  1.00  0.00     0.006 C 
BRANCH  12  13
ATOM     13  C   UNL     1     108.421 -77.555  22.058  1.00  0.00     0.053 C 
BRANCH  13  14
ATOM     14  C   UNL     1     109.010 -77.402  20.689  1.00  0.00     0.041 C 
ATOM     15  O   UNL     1     108.429 -76.694  19.822  1.00  0.00    -0.550 OA
ATOM     16  O   UNL     1     110.184 -78.066  20.358  1.00  0.00    -0.550 OA
ENDBRANCH  13  14
ENDBRANCH  12  13
ENDBRANCH  11  12
ENDBRANCH  10  11
ENDBRANCH   9  10
ENDBRANCH   8   9
ENDBRANCH   7   8
ENDBRANCH   6   7
ENDBRANCH   5   6
ENDBRANCH   4   5
ENDBRANCH   3   4
ENDBRANCH   2   3
ENDBRANCH   1   2
BRANCH   1  17
ATOM     17  C   UNL     1     112.098 -81.742  20.731  1.00  0.00     0.000 C 
BRANCH  17  18
ATOM     18  C   UNL     1     112.849 -82.863  21.465  1.00  0.00     0.000 C 
BRANCH  18  19
ATOM     19  C   UNL     1     113.656 -83.721  20.481  1.00  0.00     0.000 C 
BRANCH  19  20
ATOM     20  C   UNL     1     115.145 -83.340  20.450  1.00  0.00     0.000 C 
BRANCH  20  21
ATOM     21  C   UNL     1     115.532 -82.376  21.587  1.00  0.00     0.000 C 
BRANCH  21  22
ATOM     22  C   UNL     1     117.026 -82.465  21.965  1.00  0.00    -0.000 C 
BRANCH  22  23
ATOM     23  C   UNL     1     117.773 -81.121  21.875  1.00  0.00    -0.000 C 
BRANCH  23  24
ATOM     24  C   UNL     1     117.148 -80.085  20.922  1.00  0.00    -0.000 C 
BRANCH  24  25
ATOM     25  C   UNL     1     116.513 -78.865  21.616  1.00  0.00    -0.000 C 
BRANCH  25  26
ATOM     26  C   UNL     1     115.064 -78.609  21.169  1.00  0.00    -0.000 C 
BRANCH  26  27
ATOM     27  C   UNL     1     114.042 -78.991  22.251  1.00  0.00    -0.000 C 
BRANCH  27  28
ATOM     28  C   UNL     1     112.979 -77.899  22.470  1.00  0.00    -0.000 C 
BRANCH  28  29
ATOM     29  C   UNL     1     113.266 -76.622  21.665  1.00  0.00    -0.003 C 
ATOM     30  C   UNL     1     112.193 -75.550  21.854  1.00  0.00     0.004 C 
ENDBRANCH  28  29
ENDBRANCH  27  28
ENDBRANCH  26  27
ENDBRANCH  25  26
ENDBRANCH  24  25
ENDBRANCH  23  24
ENDBRANCH  22  23
ENDBRANCH  21  22
ENDBRANCH  20  21
ENDBRANCH  19  20
ENDBRANCH  18  19
ENDBRANCH  17  18
ENDBRANCH   1  17
TORSDOF 26
ENDMDL
MODEL 9
REMARK VINA RESULT:    -5.788      2.910      8.410
REMARK INTER + INTRA:         -18.925
REMARK INTER:                 -15.487
REMARK INTRA:                  -3.438
REMARK UNBOUND:                -4.340
REMARK SMILES CCCCCCCCCCCCCCCCCCCCCCCCCCCC(=O)[O-]
REMARK SMILES IDX 15 1 16 2 17 3 18 4 19 5 20 6 21 7 22 8 23 9 24 10 25 11
REMARK SMILES IDX 26 12 27 13 28 14 29 15 30 16 14 17 13 18 12 19 11 20 10 21
REMARK SMILES IDX 9 22 8 23 7 24 6 25 5 26 4 27 3 28 2 29 1 30
REMARK H PARENT
REMARK Flexibility Score: inf
ROOT
ATOM      1  C   UNL     1     112.029 -82.172  20.849  1.00  0.00     0.000 C 
ENDROOT
BRANCH   1   2
ATOM      2  C   UNL     1     112.807 -83.363  21.438  1.00  0.00     0.000 C 
BRANCH   2   3
ATOM      3  C   UNL     1     114.015 -83.762  20.564  1.00  0.00     0.000 C 
BRANCH   3   4
ATOM      4  C   UNL     1     115.160 -82.734  20.563  1.00  0.00     0.000 C 
BRANCH   4   5
ATOM      5  C   UNL     1     115.968 -82.734  21.871  1.00  0.00     0.000 C 
BRANCH   5   6
ATOM      6  C   UNL     1     117.459 -83.049  21.643  1.00  0.00     0.000 C 
BRANCH   6   7
ATOM      7  C   UNL     1     118.417 -81.957  22.158  1.00  0.00     0.000 C 
BRANCH   7   8
ATOM      8  C   UNL     1     118.904 -81.017  21.039  1.00  0.00     0.000 C 
BRANCH   8   9
ATOM      9  C   UNL     1     118.552 -79.547  21.307  1.00  0.00     0.000 C 
BRANCH   9  10
ATOM     10  C   UNL     1     117.034 -79.305  21.371  1.00  0.00     0.000 C 
BRANCH  10  11
ATOM     11  C   UNL     1     116.658 -78.138  22.299  1.00  0.00     0.000 C 
BRANCH  11  12
ATOM     12  C   UNL     1     115.184 -77.722  22.161  1.00  0.00     0.006 C 
BRANCH  12  13
ATOM     13  C   UNL     1     114.336 -78.813  21.493  1.00  0.00     0.053 C 
BRANCH  13  14
ATOM     14  C   UNL     1     113.215 -78.229  20.688  1.00  0.00     0.041 C 
ATOM     15  O   UNL     1     112.559 -77.248  21.131  1.00  0.00    -0.550 OA
ATOM     16  O   UNL     1     112.872 -78.788  19.464  1.00  0.00    -0.550 OA
ENDBRANCH  13  14
ENDBRANCH  12  13
ENDBRANCH  11  12
ENDBRANCH  10  11
ENDBRANCH   9  10
ENDBRANCH   8   9
ENDBRANCH   7   8
ENDBRANCH   6   7
ENDBRANCH   5   6
ENDBRANCH   4   5
ENDBRANCH   3   4
ENDBRANCH   2   3
ENDBRANCH   1   2
BRANCH   1  17
ATOM     17  C   UNL     1     111.214 -81.414  21.910  1.00  0.00     0.000 C 
BRANCH  17  18
ATOM     18  C   UNL     1     110.707 -82.336  23.029  1.00  0.00     0.000 C 
BRANCH  18  19
ATOM     19  C   UNL     1     109.956 -81.537  24.104  1.00  0.00     0.000 C 
BRANCH  19  20
ATOM     20  C   UNL     1     108.657 -82.228  24.550  1.00  0.00     0.000 C 
BRANCH  20  21
ATOM     21  C   UNL     1     108.179 -83.294  23.547  1.00  0.00     0.000 C 
BRANCH  21  22
ATOM     22  C   UNL     1     106.701 -83.689  23.754  1.00  0.00    -0.000 C 
BRANCH  22  23
ATOM     23  C   UNL     1     105.733 -83.024  22.756  1.00  0.00    -0.000 C 
BRANCH  23  24
ATOM     24  C   UNL     1     105.747 -81.484  22.755  1.00  0.00    -0.000 C 
BRANCH  24  25
ATOM     25  C   UNL     1     106.134 -80.839  21.411  1.00  0.00    -0.000 C 
BRANCH  25  26
ATOM     26  C   UNL     1     107.627 -80.480  21.328  1.00  0.00    -0.000 C 
BRANCH  26  27
ATOM     27  C   UNL     1     107.935 -79.109  21.950  1.00  0.00    -0.000 C 
BRANCH  27  28
ATOM     28  C   UNL     1     109.214 -78.474  21.375  1.00  0.00    -0.000 C 
BRANCH  28  29
ATOM     29  C   UNL     1     108.924 -77.239  20.509  1.00  0.00    -0.003 C 
ATOM     30  C   UNL     1     107.463 -76.795  20.583  1.00  0.00     0.004 C 
ENDBRANCH  28  29
ENDBRANCH  27  28
ENDBRANCH  26  27
ENDBRANCH  25  26
ENDBRANCH  24  25
ENDBRANCH  23  24
ENDBRANCH  22  23
ENDBRANCH  21  22
ENDBRANCH  20  21
ENDBRANCH  19  20
ENDBRANCH  18  19
ENDBRANCH  17  18
ENDBRANCH   1  17
TORSDOF 26
ENDMDL
