MODEL 1
REMARK VINA RESULT:     5.804      0.000      0.000
REMARK INTER + INTRA:          12.798
REMARK INTER:                  13.268
REMARK INTRA:                  -0.469
REMARK UNBOUND:                -0.469
REMARK SMILES CCCCCCCCCCCCCCCCCCCCCCCC(=O)[O-]
REMARK SMILES IDX 13 1 14 2 15 3 16 4 17 5 18 6 19 7 20 8 21 9 22 10 23 11
REMARK SMILES IDX 24 12 25 13 26 14 12 15 11 16 10 17 9 18 8 19 7 20 6 21 5 22
REMARK SMILES IDX 4 23 3 24 2 25 1 26
REMARK H PARENT
REMARK Flexibility Score: inf
ROOT
ATOM      1  C   UNL     1     -28.479  -2.622 -28.363  1.00  0.00     0.000 C 
ENDROOT
BRANCH   1   2
ATOM      2  C   UNL     1     -27.053  -2.356 -27.850  1.00  0.00     0.000 C 
BRANCH   2   3
ATOM      3  C   UNL     1     -26.466  -3.560 -27.093  1.00  0.00     0.000 C 
BRANCH   3   4
ATOM      4  C   UNL     1     -24.927  -3.630 -27.205  1.00  0.00     0.000 C 
BRANCH   4   5
ATOM      5  C   UNL     1     -24.181  -2.871 -26.094  1.00  0.00     0.000 C 
BRANCH   5   6
ATOM      6  C   UNL     1     -23.073  -1.951 -26.631  1.00  0.00     0.000 C 
BRANCH   6   7
ATOM      7  C   UNL     1     -23.638  -0.748 -27.404  1.00  0.00     0.000 C 
BRANCH   7   8
ATOM      8  C   UNL     1     -22.538   0.247 -27.802  1.00  0.00     0.000 C 
BRANCH   8   9
ATOM      9  C   UNL     1     -22.354   1.328 -26.726  1.00  0.00     0.000 C 
BRANCH   9  10
ATOM     10  C   UNL     1     -21.966   2.693 -27.316  1.00  0.00     0.006 C 
BRANCH  10  11
ATOM     11  C   UNL     1     -20.542   3.123 -26.933  1.00  0.00     0.053 C 
BRANCH  11  12
ATOM     12  C   UNL     1     -20.177   4.413 -27.600  1.00  0.00     0.041 C 
ATOM     13  O   UNL     1     -18.993   4.838 -27.550  1.00  0.00    -0.550 OA
ATOM     14  O   UNL     1     -21.132   5.124 -28.316  1.00  0.00    -0.550 OA
ENDBRANCH  11  12
ENDBRANCH  10  11
ENDBRANCH   9  10
ENDBRANCH   8   9
ENDBRANCH   7   8
ENDBRANCH   6   7
ENDBRANCH   5   6
ENDBRANCH   4   5
ENDBRANCH   3   4
ENDBRANCH   2   3
ENDBRANCH   1   2
BRANCH   1  15
ATOM     15  C   UNL     1     -29.567  -2.433 -27.283  1.00  0.00     0.000 C 
BRANCH  15  16
ATOM     16  C   UNL     1     -30.998  -2.721 -27.780  1.00  0.00     0.000 C 
BRANCH  16  17
ATOM     17  C   UNL     1     -31.843  -1.473 -28.106  1.00  0.00     0.000 C 
BRANCH  17  18
ATOM     18  C   UNL     1     -32.095  -0.537 -26.907  1.00  0.00    -0.000 C 
BRANCH  18  19
ATOM     19  C   UNL     1     -32.047   0.950 -27.299  1.00  0.00    -0.000 C 
BRANCH  19  20
ATOM     20  C   UNL     1     -30.982   1.733 -26.516  1.00  0.00    -0.000 C 
BRANCH  20  21
ATOM     21  C   UNL     1     -31.485   2.214 -25.143  1.00  0.00    -0.000 C 
BRANCH  21  22
ATOM     22  C   UNL     1     -31.155   1.224 -24.016  1.00  0.00    -0.000 C 
BRANCH  22  23
ATOM     23  C   UNL     1     -30.707  -0.151 -24.544  1.00  0.00    -0.000 C 
BRANCH  23  24
ATOM     24  C   UNL     1     -30.951  -1.276 -23.516  1.00  0.00    -0.000 C 
BRANCH  24  25
ATOM     25  C   UNL     1     -30.459  -0.930 -22.100  1.00  0.00    -0.003 C 
ATOM     26  C   UNL     1     -28.948  -1.068 -21.943  1.00  0.00     0.004 C 
ENDBRANCH  24  25
ENDBRANCH  23  24
ENDBRANCH  22  23
ENDBRANCH  21  22
ENDBRANCH  20  21
ENDBRANCH  19  20
ENDBRANCH  18  19
ENDBRANCH  17  18
ENDBRANCH  16  17
ENDBRANCH  15  16
ENDBRANCH   1  15
TORSDOF 22
ENDMDL
MODEL 2
REMARK VINA RESULT:     5.898      1.220      2.468
REMARK INTER + INTRA:          13.013
REMARK INTER:                  13.523
REMARK INTRA:                  -0.510
REMARK UNBOUND:                -0.469
REMARK SMILES CCCCCCCCCCCCCCCCCCCCCCCC(=O)[O-]
REMARK SMILES IDX 13 1 14 2 15 3 16 4 17 5 18 6 19 7 20 8 21 9 22 10 23 11
REMARK SMILES IDX 24 12 25 13 26 14 12 15 11 16 10 17 9 18 8 19 7 20 6 21 5 22
REMARK SMILES IDX 4 23 3 24 2 25 1 26
REMARK H PARENT
REMARK Flexibility Score: inf
ROOT
ATOM      1  C   UNL     1     -30.981  -1.571 -27.073  1.00  0.00     0.000 C 
ENDROOT
BRANCH   1   2
ATOM      2  C   UNL     1     -30.502  -2.861 -27.761  1.00  0.00     0.000 C 
BRANCH   2   3
ATOM      3  C   UNL     1     -29.300  -2.619 -28.691  1.00  0.00     0.000 C 
BRANCH   3   4
ATOM      4  C   UNL     1     -27.995  -2.356 -27.909  1.00  0.00     0.000 C 
BRANCH   4   5
ATOM      5  C   UNL     1     -26.734  -2.934 -28.576  1.00  0.00     0.000 C 
BRANCH   5   6
ATOM      6  C   UNL     1     -25.437  -2.554 -27.846  1.00  0.00     0.000 C 
BRANCH   6   7
ATOM      7  C   UNL     1     -24.863  -1.214 -28.337  1.00  0.00     0.000 C 
BRANCH   7   8
ATOM      8  C   UNL     1     -23.692  -0.737 -27.466  1.00  0.00     0.000 C 
BRANCH   8   9
ATOM      9  C   UNL     1     -22.741   0.168 -28.264  1.00  0.00     0.000 C 
BRANCH   9  10
ATOM     10  C   UNL     1     -22.038   1.214 -27.383  1.00  0.00     0.006 C 
BRANCH  10  11
ATOM     11  C   UNL     1     -22.005   2.608 -28.026  1.00  0.00     0.053 C 
BRANCH  11  12
ATOM     12  C   UNL     1     -21.093   3.523 -27.269  1.00  0.00     0.041 C 
ATOM     13  O   UNL     1     -19.859   3.280 -27.210  1.00  0.00    -0.550 OA
ATOM     14  O   UNL     1     -21.597   4.670 -26.668  1.00  0.00    -0.550 OA
ENDBRANCH  11  12
ENDBRANCH  10  11
ENDBRANCH   9  10
ENDBRANCH   8   9
ENDBRANCH   7   8
ENDBRANCH   6   7
ENDBRANCH   5   6
ENDBRANCH   4   5
ENDBRANCH   3   4
ENDBRANCH   2   3
ENDBRANCH   1   2
BRANCH   1  15
ATOM     15  C   UNL     1     -31.852  -0.676 -27.982  1.00  0.00     0.000 C 
BRANCH  15  16
ATOM     16  C   UNL     1     -32.124   0.727 -27.402  1.00  0.00     0.000 C 
BRANCH  16  17
ATOM     17  C   UNL     1     -31.997   1.889 -28.408  1.00  0.00     0.000 C 
BRANCH  17  18
ATOM     18  C   UNL     1     -31.974   3.292 -27.768  1.00  0.00    -0.000 C 
BRANCH  18  19
ATOM     19  C   UNL     1     -30.553   3.744 -27.389  1.00  0.00    -0.000 C 
BRANCH  19  20
ATOM     20  C   UNL     1     -30.250   3.554 -25.895  1.00  0.00    -0.000 C 
BRANCH  20  21
ATOM     21  C   UNL     1     -31.522   3.392 -25.044  1.00  0.00    -0.000 C 
BRANCH  21  22
ATOM     22  C   UNL     1     -31.479   2.140 -24.154  1.00  0.00    -0.000 C 
BRANCH  22  23
ATOM     23  C   UNL     1     -30.924   0.907 -24.889  1.00  0.00    -0.000 C 
BRANCH  23  24
ATOM     24  C   UNL     1     -30.987  -0.366 -24.019  1.00  0.00    -0.000 C 
BRANCH  24  25
ATOM     25  C   UNL     1     -30.181  -0.257 -22.714  1.00  0.00    -0.003 C 
ATOM     26  C   UNL     1     -30.441  -1.414 -21.754  1.00  0.00     0.004 C 
ENDBRANCH  24  25
ENDBRANCH  23  24
ENDBRANCH  22  23
ENDBRANCH  21  22
ENDBRANCH  20  21
ENDBRANCH  19  20
ENDBRANCH  18  19
ENDBRANCH  17  18
ENDBRANCH  16  17
ENDBRANCH  15  16
ENDBRANCH   1  15
TORSDOF 22
ENDMDL
MODEL 3
REMARK VINA RESULT:     5.979      1.559      2.902
REMARK INTER + INTRA:          13.200
REMARK INTER:                  14.791
REMARK INTRA:                  -1.591
REMARK UNBOUND:                -0.469
REMARK SMILES CCCCCCCCCCCCCCCCCCCCCCCC(=O)[O-]
REMARK SMILES IDX 13 1 14 2 15 3 16 4 17 5 18 6 19 7 20 8 21 9 22 10 23 11
REMARK SMILES IDX 24 12 25 13 26 14 12 15 11 16 10 17 9 18 8 19 7 20 6 21 5 22
REMARK SMILES IDX 4 23 3 24 2 25 1 26
REMARK H PARENT
REMARK Flexibility Score: inf
ROOT
ATOM      1  C   UNL     1     -27.077  -2.451 -28.088  1.00  0.00     0.000 C 
ENDROOT
BRANCH   1   2
ATOM      2  C   UNL     1     -26.786  -3.599 -27.107  1.00  0.00     0.000 C 
BRANCH   2   3
ATOM      3  C   UNL     1     -25.742  -3.215 -26.043  1.00  0.00     0.000 C 
BRANCH   3   4
ATOM      4  C   UNL     1     -24.355  -3.828 -26.332  1.00  0.00     0.000 C 
BRANCH   4   5
ATOM      5  C   UNL     1     -23.348  -2.841 -26.949  1.00  0.00     0.000 C 
BRANCH   5   6
ATOM      6  C   UNL     1     -23.462  -1.422 -26.370  1.00  0.00     0.000 C 
BRANCH   6   7
ATOM      7  C   UNL     1     -23.644  -0.358 -27.465  1.00  0.00     0.000 C 
BRANCH   7   8
ATOM      8  C   UNL     1     -22.299   0.191 -27.962  1.00  0.00     0.000 C 
BRANCH   8   9
ATOM      9  C   UNL     1     -22.384   1.701 -28.232  1.00  0.00     0.000 C 
BRANCH   9  10
ATOM     10  C   UNL     1     -21.927   2.546 -27.033  1.00  0.00     0.006 C 
BRANCH  10  11
ATOM     11  C   UNL     1     -20.402   2.720 -26.974  1.00  0.00     0.053 C 
BRANCH  11  12
ATOM     12  C   UNL     1     -20.019   4.149 -27.204  1.00  0.00     0.041 C 
ATOM     13  O   UNL     1     -18.807   4.467 -27.328  1.00  0.00    -0.550 OA
ATOM     14  O   UNL     1     -21.001   5.124 -27.328  1.00  0.00    -0.550 OA
ENDBRANCH  11  12
ENDBRANCH  10  11
ENDBRANCH   9  10
ENDBRANCH   8   9
ENDBRANCH   7   8
ENDBRANCH   6   7
ENDBRANCH   5   6
ENDBRANCH   4   5
ENDBRANCH   3   4
ENDBRANCH   2   3
ENDBRANCH   1   2
BRANCH   1  15
ATOM     15  C   UNL     1     -28.561  -2.358 -28.505  1.00  0.00     0.000 C 
BRANCH  15  16
ATOM     16  C   UNL     1     -29.523  -2.075 -27.333  1.00  0.00     0.000 C 
BRANCH  16  17
ATOM     17  C   UNL     1     -30.896  -2.771 -27.427  1.00  0.00     0.000 C 
BRANCH  17  18
ATOM     18  C   UNL     1     -32.103  -1.845 -27.178  1.00  0.00    -0.000 C 
BRANCH  18  19
ATOM     19  C   UNL     1     -32.093  -0.605 -28.090  1.00  0.00    -0.000 C 
BRANCH  19  20
ATOM     20  C   UNL     1     -31.680   0.673 -27.345  1.00  0.00    -0.000 C 
BRANCH  20  21
ATOM     21  C   UNL     1     -31.715   0.511 -25.815  1.00  0.00    -0.000 C 
BRANCH  21  22
ATOM     22  C   UNL     1     -31.095   1.710 -25.081  1.00  0.00    -0.000 C 
BRANCH  22  23
ATOM     23  C   UNL     1     -30.601   2.805 -26.043  1.00  0.00    -0.000 C 
BRANCH  23  24
ATOM     24  C   UNL     1     -31.600   3.977 -26.151  1.00  0.00    -0.000 C 
BRANCH  24  25
ATOM     25  C   UNL     1     -32.025   4.290 -27.596  1.00  0.00    -0.003 C 
ATOM     26  C   UNL     1     -30.851   4.672 -28.493  1.00  0.00     0.004 C 
ENDBRANCH  24  25
ENDBRANCH  23  24
ENDBRANCH  22  23
ENDBRANCH  21  22
ENDBRANCH  20  21
ENDBRANCH  19  20
ENDBRANCH  18  19
ENDBRANCH  17  18
ENDBRANCH  16  17
ENDBRANCH  15  16
ENDBRANCH   1  15
TORSDOF 22
ENDMDL
MODEL 4
REMARK VINA RESULT:     5.981      3.193      8.987
REMARK INTER + INTRA:          13.203
REMARK INTER:                  14.131
REMARK INTRA:                  -0.928
REMARK UNBOUND:                -0.469
REMARK SMILES CCCCCCCCCCCCCCCCCCCCCCCC(=O)[O-]
REMARK SMILES IDX 13 1 14 2 15 3 16 4 17 5 18 6 19 7 20 8 21 9 22 10 23 11
REMARK SMILES IDX 24 12 25 13 26 14 12 15 11 16 10 17 9 18 8 19 7 20 6 21 5 22
REMARK SMILES IDX 4 23 3 24 2 25 1 26
REMARK H PARENT
REMARK Flexibility Score: inf
ROOT
ATOM      1  C   UNL     1     -26.983  -2.685 -28.538  1.00  0.00     0.000 C 
ENDROOT
BRANCH   1   2
ATOM      2  C   UNL     1     -28.521  -2.658 -28.523  1.00  0.00     0.000 C 
BRANCH   2   3
ATOM      3  C   UNL     1     -29.087  -2.174 -27.176  1.00  0.00     0.000 C 
BRANCH   3   4
ATOM      4  C   UNL     1     -30.631  -2.154 -27.162  1.00  0.00     0.000 C 
BRANCH   4   5
ATOM      5  C   UNL     1     -31.238  -1.307 -26.030  1.00  0.00     0.000 C 
BRANCH   5   6
ATOM      6  C   UNL     1     -31.473   0.157 -26.431  1.00  0.00     0.000 C 
BRANCH   6   7
ATOM      7  C   UNL     1     -30.807   1.142 -25.456  1.00  0.00     0.000 C 
BRANCH   7   8
ATOM      8  C   UNL     1     -31.816   2.139 -24.868  1.00  0.00     0.000 C 
BRANCH   8   9
ATOM      9  C   UNL     1     -31.353   3.588 -25.083  1.00  0.00     0.000 C 
BRANCH   9  10
ATOM     10  C   UNL     1     -32.124   4.298 -26.207  1.00  0.00     0.006 C 
BRANCH  10  11
ATOM     11  C   UNL     1     -32.119   3.507 -27.523  1.00  0.00     0.053 C 
BRANCH  11  12
ATOM     12  C   UNL     1     -31.059   4.018 -28.449  1.00  0.00     0.041 C 
ATOM     13  O   UNL     1     -31.207   5.125 -29.031  1.00  0.00    -0.550 OA
ATOM     14  O   UNL     1     -29.886   3.297 -28.633  1.00  0.00    -0.550 OA
ENDBRANCH  11  12
ENDBRANCH  10  11
ENDBRANCH   9  10
ENDBRANCH   8   9
ENDBRANCH   7   8
ENDBRANCH   6   7
ENDBRANCH   5   6
ENDBRANCH   4   5
ENDBRANCH   3   4
ENDBRANCH   2   3
ENDBRANCH   1   2
BRANCH   1  15
ATOM     15  C   UNL     1     -26.349  -2.443 -27.150  1.00  0.00     0.000 C 
BRANCH  15  16
ATOM     16  C   UNL     1     -25.326  -3.519 -26.734  1.00  0.00     0.000 C 
BRANCH  16  17
ATOM     17  C   UNL     1     -23.918  -2.991 -26.394  1.00  0.00     0.000 C 
BRANCH  17  18
ATOM     18  C   UNL     1     -23.737  -1.473 -26.591  1.00  0.00    -0.000 C 
BRANCH  18  19
ATOM     19  C   UNL     1     -23.627  -1.080 -28.075  1.00  0.00    -0.000 C 
BRANCH  19  20
ATOM     20  C   UNL     1     -22.796   0.194 -28.289  1.00  0.00    -0.000 C 
BRANCH  20  21
ATOM     21  C   UNL     1     -21.956   0.573 -27.057  1.00  0.00    -0.000 C 
BRANCH  21  22
ATOM     22  C   UNL     1     -22.278   1.982 -26.536  1.00  0.00    -0.000 C 
BRANCH  22  23
ATOM     23  C   UNL     1     -21.915   3.087 -27.544  1.00  0.00    -0.000 C 
BRANCH  23  24
ATOM     24  C   UNL     1     -21.287   4.318 -26.856  1.00  0.00    -0.000 C 
BRANCH  24  25
ATOM     25  C   UNL     1     -19.805   4.528 -27.210  1.00  0.00    -0.003 C 
ATOM     26  C   UNL     1     -19.602   5.107 -28.606  1.00  0.00     0.004 C 
ENDBRANCH  24  25
ENDBRANCH  23  24
ENDBRANCH  22  23
ENDBRANCH  21  22
ENDBRANCH  20  21
ENDBRANCH  19  20
ENDBRANCH  18  19
ENDBRANCH  17  18
ENDBRANCH  16  17
ENDBRANCH  15  16
ENDBRANCH   1  15
TORSDOF 22
ENDMDL
MODEL 5
REMARK VINA RESULT:     6.103      1.693      2.922
REMARK INTER + INTRA:          13.483
REMARK INTER:                  14.987
REMARK INTRA:                  -1.505
REMARK UNBOUND:                -0.469
REMARK SMILES CCCCCCCCCCCCCCCCCCCCCCCC(=O)[O-]
REMARK SMILES IDX 13 1 14 2 15 3 16 4 17 5 18 6 19 7 20 8 21 9 22 10 23 11
REMARK SMILES IDX 24 12 25 13 26 14 12 15 11 16 10 17 9 18 8 19 7 20 6 21 5 22
REMARK SMILES IDX 4 23 3 24 2 25 1 26
REMARK H PARENT
REMARK Flexibility Score: inf
ROOT
ATOM      1  C   UNL     1     -26.799  -2.565 -28.048  1.00  0.00     0.000 C 
ENDROOT
BRANCH   1   2
ATOM      2  C   UNL     1     -26.589  -3.486 -26.834  1.00  0.00     0.000 C 
BRANCH   2   3
ATOM      3  C   UNL     1     -25.414  -3.034 -25.948  1.00  0.00     0.000 C 
BRANCH   3   4
ATOM      4  C   UNL     1     -24.073  -3.660 -26.387  1.00  0.00     0.000 C 
BRANCH   4   5
ATOM      5  C   UNL     1     -23.090  -2.659 -27.021  1.00  0.00     0.000 C 
BRANCH   5   6
ATOM      6  C   UNL     1     -23.582  -1.205 -26.953  1.00  0.00     0.000 C 
BRANCH   6   7
ATOM      7  C   UNL     1     -23.281  -0.427 -28.245  1.00  0.00     0.000 C 
BRANCH   7   8
ATOM      8  C   UNL     1     -22.402   0.804 -27.982  1.00  0.00     0.000 C 
BRANCH   8   9
ATOM      9  C   UNL     1     -22.112   0.968 -26.482  1.00  0.00     0.000 C 
BRANCH   9  10
ATOM     10  C   UNL     1     -20.945   1.929 -26.204  1.00  0.00     0.006 C 
BRANCH  10  11
ATOM     11  C   UNL     1     -21.376   3.402 -26.195  1.00  0.00     0.053 C 
BRANCH  11  12
ATOM     12  C   UNL     1     -20.842   4.122 -27.395  1.00  0.00     0.041 C 
ATOM     13  O   UNL     1     -21.632   4.585 -28.259  1.00  0.00    -0.550 OA
ATOM     14  O   UNL     1     -19.474   4.322 -27.538  1.00  0.00    -0.550 OA
ENDBRANCH  11  12
ENDBRANCH  10  11
ENDBRANCH   9  10
ENDBRANCH   8   9
ENDBRANCH   7   8
ENDBRANCH   6   7
ENDBRANCH   5   6
ENDBRANCH   4   5
ENDBRANCH   3   4
ENDBRANCH   2   3
ENDBRANCH   1   2
BRANCH   1  15
ATOM     15  C   UNL     1     -28.017  -2.956 -28.914  1.00  0.00     0.000 C 
BRANCH  15  16
ATOM     16  C   UNL     1     -29.374  -2.758 -28.210  1.00  0.00     0.000 C 
BRANCH  16  17
ATOM     17  C   UNL     1     -30.612  -3.129 -29.051  1.00  0.00     0.000 C 
BRANCH  17  18
ATOM     18  C   UNL     1     -31.961  -2.738 -28.416  1.00  0.00    -0.000 C 
BRANCH  18  19
ATOM     19  C   UNL     1     -31.900  -2.700 -26.879  1.00  0.00    -0.000 C 
BRANCH  19  20
ATOM     20  C   UNL     1     -31.817  -1.269 -26.327  1.00  0.00    -0.000 C 
BRANCH  20  21
ATOM     21  C   UNL     1     -32.125  -0.199 -27.390  1.00  0.00    -0.000 C 
BRANCH  21  22
ATOM     22  C   UNL     1     -31.423   1.137 -27.100  1.00  0.00    -0.000 C 
BRANCH  22  23
ATOM     23  C   UNL     1     -31.274   1.416 -25.594  1.00  0.00    -0.000 C 
BRANCH  23  24
ATOM     24  C   UNL     1     -30.971   2.902 -25.306  1.00  0.00    -0.000 C 
BRANCH  24  25
ATOM     25  C   UNL     1     -31.404   3.847 -26.439  1.00  0.00    -0.003 C 
ATOM     26  C   UNL     1     -30.233   4.586 -27.079  1.00  0.00     0.004 C 
ENDBRANCH  24  25
ENDBRANCH  23  24
ENDBRANCH  22  23
ENDBRANCH  21  22
ENDBRANCH  20  21
ENDBRANCH  19  20
ENDBRANCH  18  19
ENDBRANCH  17  18
ENDBRANCH  16  17
ENDBRANCH  15  16
ENDBRANCH   1  15
TORSDOF 22
ENDMDL
MODEL 6
REMARK VINA RESULT:     6.351      3.692      8.945
REMARK INTER + INTRA:          14.050
REMARK INTER:                  14.191
REMARK INTRA:                  -0.142
REMARK UNBOUND:                -0.469
REMARK SMILES CCCCCCCCCCCCCCCCCCCCCCCC(=O)[O-]
REMARK SMILES IDX 13 1 14 2 15 3 16 4 17 5 18 6 19 7 20 8 21 9 22 10 23 11
REMARK SMILES IDX 24 12 25 13 26 14 12 15 11 16 10 17 9 18 8 19 7 20 6 21 5 22
REMARK SMILES IDX 4 23 3 24 2 25 1 26
REMARK H PARENT
REMARK Flexibility Score: inf
ROOT
ATOM      1  C   UNL     1     -30.078  -3.066 -28.582  1.00  0.00     0.000 C 
ENDROOT
BRANCH   1   2
ATOM      2  C   UNL     1     -31.117  -2.041 -29.070  1.00  0.00     0.000 C 
BRANCH   2   3
ATOM      3  C   UNL     1     -32.125  -1.657 -27.972  1.00  0.00     0.000 C 
BRANCH   3   4
ATOM      4  C   UNL     1     -32.064  -0.155 -27.619  1.00  0.00     0.000 C 
BRANCH   4   5
ATOM      5  C   UNL     1     -32.122   0.780 -28.839  1.00  0.00     0.000 C 
BRANCH   5   6
ATOM      6  C   UNL     1     -31.269   2.047 -28.669  1.00  0.00     0.000 C 
BRANCH   6   7
ATOM      7  C   UNL     1     -32.121   3.283 -28.334  1.00  0.00     0.000 C 
BRANCH   7   8
ATOM      8  C   UNL     1     -31.765   3.871 -26.962  1.00  0.00     0.000 C 
BRANCH   8   9
ATOM      9  C   UNL     1     -30.822   2.937 -26.186  1.00  0.00     0.000 C 
BRANCH   9  10
ATOM     10  C   UNL     1     -31.526   2.210 -25.029  1.00  0.00     0.006 C 
BRANCH  10  11
ATOM     11  C   UNL     1     -30.541   1.541 -24.060  1.00  0.00     0.053 C 
BRANCH  11  12
ATOM     12  C   UNL     1     -30.740   0.057 -24.037  1.00  0.00     0.041 C 
ATOM     13  O   UNL     1     -31.062  -0.555 -25.089  1.00  0.00    -0.550 OA
ATOM     14  O   UNL     1     -30.527  -0.658 -22.865  1.00  0.00    -0.550 OA
ENDBRANCH  11  12
ENDBRANCH  10  11
ENDBRANCH   9  10
ENDBRANCH   8   9
ENDBRANCH   7   8
ENDBRANCH   6   7
ENDBRANCH   5   6
ENDBRANCH   4   5
ENDBRANCH   3   4
ENDBRANCH   2   3
ENDBRANCH   1   2
BRANCH   1  15
ATOM     15  C   UNL     1     -28.928  -2.435 -27.766  1.00  0.00     0.000 C 
BRANCH  15  16
ATOM     16  C   UNL     1     -27.537  -2.610 -28.409  1.00  0.00     0.000 C 
BRANCH  16  17
ATOM     17  C   UNL     1     -26.343  -2.406 -27.455  1.00  0.00     0.000 C 
BRANCH  17  18
ATOM     18  C   UNL     1     -25.798  -3.702 -26.823  1.00  0.00    -0.000 C 
BRANCH  18  19
ATOM     19  C   UNL     1     -24.277  -3.654 -26.598  1.00  0.00    -0.000 C 
BRANCH  19  20
ATOM     20  C   UNL     1     -23.790  -2.273 -26.133  1.00  0.00    -0.000 C 
BRANCH  20  21
ATOM     21  C   UNL     1     -23.692  -1.257 -27.285  1.00  0.00    -0.000 C 
BRANCH  21  22
ATOM     22  C   UNL     1     -22.338  -0.531 -27.315  1.00  0.00    -0.000 C 
BRANCH  22  23
ATOM     23  C   UNL     1     -22.470   0.960 -27.672  1.00  0.00    -0.000 C 
BRANCH  23  24
ATOM     24  C   UNL     1     -21.259   1.784 -27.186  1.00  0.00    -0.000 C 
BRANCH  24  25
ATOM     25  C   UNL     1     -21.626   3.209 -26.740  1.00  0.00    -0.003 C 
ATOM     26  C   UNL     1     -21.607   4.216 -27.886  1.00  0.00     0.004 C 
ENDBRANCH  24  25
ENDBRANCH  23  24
ENDBRANCH  22  23
ENDBRANCH  21  22
ENDBRANCH  20  21
ENDBRANCH  19  20
ENDBRANCH  18  19
ENDBRANCH  17  18
ENDBRANCH  16  17
ENDBRANCH  15  16
ENDBRANCH   1  15
TORSDOF 22
ENDMDL
MODEL 7
REMARK VINA RESULT:     7.216      3.559      9.287
REMARK INTER + INTRA:          16.027
REMARK INTER:                  17.298
REMARK INTRA:                  -1.270
REMARK UNBOUND:                -0.469
REMARK SMILES CCCCCCCCCCCCCCCCCCCCCCCC(=O)[O-]
REMARK SMILES IDX 13 1 14 2 15 3 16 4 17 5 18 6 19 7 20 8 21 9 22 10 23 11
REMARK SMILES IDX 24 12 25 13 26 14 12 15 11 16 10 17 9 18 8 19 7 20 6 21 5 22
REMARK SMILES IDX 4 23 3 24 2 25 1 26
REMARK H PARENT
REMARK Flexibility Score: inf
ROOT
ATOM      1  C   UNL     1     -27.169  -2.377 -28.494  1.00  0.00     0.000 C 
ENDROOT
BRANCH   1   2
ATOM      2  C   UNL     1     -28.481  -3.091 -28.860  1.00  0.00     0.000 C 
BRANCH   2   3
ATOM      3  C   UNL     1     -29.501  -3.076 -27.708  1.00  0.00     0.000 C 
BRANCH   3   4
ATOM      4  C   UNL     1     -30.929  -2.744 -28.192  1.00  0.00     0.000 C 
BRANCH   4   5
ATOM      5  C   UNL     1     -31.845  -2.166 -27.099  1.00  0.00     0.000 C 
BRANCH   5   6
ATOM      6  C   UNL     1     -31.167  -1.072 -26.259  1.00  0.00     0.000 C 
BRANCH   6   7
ATOM      7  C   UNL     1     -31.783   0.315 -26.502  1.00  0.00     0.000 C 
BRANCH   7   8
ATOM      8  C   UNL     1     -31.052   1.414 -25.716  1.00  0.00     0.000 C 
BRANCH   8   9
ATOM      9  C   UNL     1     -31.498   1.433 -24.246  1.00  0.00     0.000 C 
BRANCH   9  10
ATOM     10  C   UNL     1     -30.454   0.819 -23.300  1.00  0.00     0.006 C 
BRANCH  10  11
ATOM     11  C   UNL     1     -30.784  -0.628 -22.907  1.00  0.00     0.053 C 
BRANCH  11  12
ATOM     12  C   UNL     1     -29.692  -1.216 -22.069  1.00  0.00     0.041 C 
ATOM     13  O   UNL     1     -28.541  -1.381 -22.553  1.00  0.00    -0.550 OA
ATOM     14  O   UNL     1     -29.930  -1.540 -20.739  1.00  0.00    -0.550 OA
ENDBRANCH  11  12
ENDBRANCH  10  11
ENDBRANCH   9  10
ENDBRANCH   8   9
ENDBRANCH   7   8
ENDBRANCH   6   7
ENDBRANCH   5   6
ENDBRANCH   4   5
ENDBRANCH   3   4
ENDBRANCH   2   3
ENDBRANCH   1   2
BRANCH   1  15
ATOM     15  C   UNL     1     -26.653  -2.725 -27.079  1.00  0.00     0.000 C 
BRANCH  15  16
ATOM     16  C   UNL     1     -25.626  -3.875 -27.054  1.00  0.00     0.000 C 
BRANCH  16  17
ATOM     17  C   UNL     1     -24.264  -3.525 -26.421  1.00  0.00     0.000 C 
BRANCH  17  18
ATOM     18  C   UNL     1     -24.025  -2.018 -26.206  1.00  0.00    -0.000 C 
BRANCH  18  19
ATOM     19  C   UNL     1     -23.039  -1.425 -27.228  1.00  0.00    -0.000 C 
BRANCH  19  20
ATOM     20  C   UNL     1     -23.032   0.111 -27.221  1.00  0.00    -0.000 C 
BRANCH  20  21
ATOM     21  C   UNL     1     -21.666   0.703 -27.610  1.00  0.00    -0.000 C 
BRANCH  21  22
ATOM     22  C   UNL     1     -21.340   1.989 -26.835  1.00  0.00    -0.000 C 
BRANCH  22  23
ATOM     23  C   UNL     1     -22.008   3.235 -27.442  1.00  0.00    -0.000 C 
BRANCH  23  24
ATOM     24  C   UNL     1     -21.300   4.540 -27.019  1.00  0.00    -0.000 C 
BRANCH  24  25
ATOM     25  C   UNL     1     -20.259   5.031 -28.040  1.00  0.00    -0.003 C 
ATOM     26  C   UNL     1     -18.822   4.834 -27.569  1.00  0.00     0.004 C 
ENDBRANCH  24  25
ENDBRANCH  23  24
ENDBRANCH  22  23
ENDBRANCH  21  22
ENDBRANCH  20  21
ENDBRANCH  19  20
ENDBRANCH  18  19
ENDBRANCH  17  18
ENDBRANCH  16  17
ENDBRANCH  15  16
ENDBRANCH   1  15
TORSDOF 22
ENDMDL
