MODEL 1
REMARK VINA RESULT:    -5.230      0.000      0.000
REMARK INTER + INTRA:          -6.145
REMARK INTER:                  -5.994
REMARK INTRA:                  -0.151
REMARK UNBOUND:                -0.151
REMARK SMILES O=C([O-])C=Cc1ccc(O)cc1
REMARK SMILES IDX 6 1 7 2 12 3 8 4 11 5 9 6 5 7 4 8 2 9 1 10 3 11 10 12
REMARK H PARENT 10 13
REMARK Flexibility Score: inf
ROOT
ATOM      1  C   UNL     1     -24.503  61.304  30.293  1.00  0.00    -0.025 A 
ATOM      2  C   UNL     1     -25.285  62.114  31.142  1.00  0.00     0.012 A 
ATOM      3  C   UNL     1     -24.836  59.946  30.157  1.00  0.00     0.012 A 
ATOM      4  C   UNL     1     -26.359  61.565  31.851  1.00  0.00     0.047 A 
ATOM      5  C   UNL     1     -25.910  59.401  30.868  1.00  0.00     0.047 A 
ATOM      6  C   UNL     1     -26.673  60.210  31.719  1.00  0.00     0.115 A 
ENDROOT
BRANCH   1   7
ATOM      7  C   UNL     1     -23.361  61.838  29.509  1.00  0.00     0.010 C 
ATOM      8  C   UNL     1     -22.574  61.083  28.730  1.00  0.00     0.025 C 
BRANCH   8   9
ATOM      9  C   UNL     1     -21.458  61.651  27.957  1.00  0.00     0.064 C 
ATOM     10  O   UNL     1     -21.643  62.157  26.817  1.00  0.00    -0.545 OA
ATOM     11  O   UNL     1     -20.177  61.634  28.494  1.00  0.00    -0.545 OA
ENDBRANCH   8   9
ENDBRANCH   1   7
BRANCH   6  12
ATOM     12  O   UNL     1     -27.744  59.678  32.433  1.00  0.00    -0.508 OA
ATOM     13  H   UNL     1     -28.673  60.077  32.369  1.00  0.00     0.293 HD
ENDBRANCH   6  12
TORSDOF 3
ENDMDL
MODEL 2
REMARK VINA RESULT:    -5.104      4.608      7.090
REMARK INTER + INTRA:          -6.001
REMARK INTER:                  -5.853
REMARK INTRA:                  -0.148
REMARK UNBOUND:                -0.151
REMARK SMILES O=C([O-])C=Cc1ccc(O)cc1
REMARK SMILES IDX 6 1 7 2 12 3 8 4 11 5 9 6 5 7 4 8 2 9 1 10 3 11 10 12
REMARK H PARENT 10 13
REMARK Flexibility Score: inf
ROOT
ATOM      1  C   UNL     1     -23.280  61.086  34.309  1.00  0.00    -0.025 A 
ATOM      2  C   UNL     1     -22.280  61.437  33.379  1.00  0.00     0.012 A 
ATOM      3  C   UNL     1     -23.007  61.222  35.680  1.00  0.00     0.012 A 
ATOM      4  C   UNL     1     -21.032  61.889  33.819  1.00  0.00     0.047 A 
ATOM      5  C   UNL     1     -21.757  61.673  36.117  1.00  0.00     0.047 A 
ATOM      6  C   UNL     1     -20.766  62.006  35.186  1.00  0.00     0.115 A 
ENDROOT
BRANCH   1   7
ATOM      7  C   UNL     1     -24.625  60.613  33.895  1.00  0.00     0.010 C 
ATOM      8  C   UNL     1     -25.755  60.915  34.549  1.00  0.00     0.025 C 
BRANCH   8   9
ATOM      9  C   UNL     1     -27.073  60.437  34.101  1.00  0.00     0.064 C 
ATOM     10  O   UNL     1     -28.030  60.304  34.910  1.00  0.00    -0.545 OA
ATOM     11  O   UNL     1     -27.268  60.129  32.761  1.00  0.00    -0.545 OA
ENDBRANCH   8   9
ENDBRANCH   1   7
BRANCH   6  12
ATOM     12  O   UNL     1     -19.517  62.457  35.609  1.00  0.00    -0.508 OA
ATOM     13  H   UNL     1     -19.237  62.406  36.581  1.00  0.00     0.293 HD
ENDBRANCH   6  12
TORSDOF 3
ENDMDL
MODEL 3
REMARK VINA RESULT:    -5.084     18.783     20.159
REMARK INTER + INTRA:          -5.978
REMARK INTER:                  -5.838
REMARK INTRA:                  -0.139
REMARK UNBOUND:                -0.151
REMARK SMILES O=C([O-])C=Cc1ccc(O)cc1
REMARK SMILES IDX 6 1 7 2 12 3 8 4 11 5 9 6 5 7 4 8 2 9 1 10 3 11 10 12
REMARK H PARENT 10 13
REMARK Flexibility Score: inf
ROOT
ATOM      1  C   UNL     1     -13.990  45.239  24.028  1.00  0.00    -0.025 A 
ATOM      2  C   UNL     1     -13.370  46.469  24.329  1.00  0.00     0.012 A 
ATOM      3  C   UNL     1     -15.058  44.805  24.831  1.00  0.00     0.012 A 
ATOM      4  C   UNL     1     -13.798  47.228  25.424  1.00  0.00     0.047 A 
ATOM      5  C   UNL     1     -15.482  45.565  25.925  1.00  0.00     0.047 A 
ATOM      6  C   UNL     1     -14.851  46.778  26.225  1.00  0.00     0.115 A 
ENDROOT
BRANCH   1   7
ATOM      7  C   UNL     1     -13.583  44.402  22.872  1.00  0.00     0.010 C 
ATOM      8  C   UNL     1     -12.447  44.583  22.183  1.00  0.00     0.025 C 
BRANCH   8   9
ATOM      9  C   UNL     1     -12.071  43.724  21.049  1.00  0.00     0.064 C 
ATOM     10  O   UNL     1     -12.933  43.315  20.225  1.00  0.00    -0.545 OA
ATOM     11  O   UNL     1     -10.742  43.358  20.881  1.00  0.00    -0.545 OA
ENDBRANCH   8   9
ENDBRANCH   1   7
BRANCH   6  12
ATOM     12  O   UNL     1     -15.265  47.545  27.312  1.00  0.00    -0.508 OA
ATOM     13  H   UNL     1     -14.603  47.907  27.988  1.00  0.00     0.293 HD
ENDBRANCH   6  12
TORSDOF 3
ENDMDL
MODEL 4
REMARK VINA RESULT:    -5.059     18.860     20.232
REMARK INTER + INTRA:          -5.949
REMARK INTER:                  -5.797
REMARK INTRA:                  -0.152
REMARK UNBOUND:                -0.151
REMARK SMILES O=C([O-])C=Cc1ccc(O)cc1
REMARK SMILES IDX 6 1 7 2 12 3 8 4 11 5 9 6 5 7 4 8 2 9 1 10 3 11 10 12
REMARK H PARENT 10 13
REMARK Flexibility Score: inf
ROOT
ATOM      1  C   UNL     1     -14.185  45.045  24.024  1.00  0.00    -0.025 A 
ATOM      2  C   UNL     1     -15.265  44.696  24.859  1.00  0.00     0.012 A 
ATOM      3  C   UNL     1     -13.440  46.197  24.327  1.00  0.00     0.012 A 
ATOM      4  C   UNL     1     -15.601  45.498  25.955  1.00  0.00     0.047 A 
ATOM      5  C   UNL     1     -13.779  46.997  25.422  1.00  0.00     0.047 A 
ATOM      6  C   UNL     1     -14.863  46.650  26.238  1.00  0.00     0.115 A 
ENDROOT
BRANCH   1   7
ATOM      7  C   UNL     1     -13.779  44.222  22.857  1.00  0.00     0.010 C 
ATOM      8  C   UNL     1     -12.676  44.452  22.130  1.00  0.00     0.025 C 
BRANCH   8   9
ATOM      9  C   UNL     1     -12.300  43.606  20.986  1.00  0.00     0.064 C 
ATOM     10  O   UNL     1     -13.142  43.284  20.106  1.00  0.00    -0.545 OA
ATOM     11  O   UNL     1     -10.991  43.157  20.871  1.00  0.00    -0.545 OA
ENDBRANCH   8   9
ENDBRANCH   1   7
BRANCH   6  12
ATOM     12  O   UNL     1     -15.210  47.440  27.332  1.00  0.00    -0.508 OA
ATOM     13  H   UNL     1     -16.174  47.685  27.524  1.00  0.00     0.293 HD
ENDBRANCH   6  12
TORSDOF 3
ENDMDL
MODEL 5
REMARK VINA RESULT:    -5.044     18.558     20.331
REMARK INTER + INTRA:          -5.932
REMARK INTER:                  -5.780
REMARK INTRA:                  -0.153
REMARK UNBOUND:                -0.151
REMARK SMILES O=C([O-])C=Cc1ccc(O)cc1
REMARK SMILES IDX 6 1 7 2 12 3 8 4 11 5 9 6 5 7 4 8 2 9 1 10 3 11 10 12
REMARK H PARENT 10 13
REMARK Flexibility Score: inf
ROOT
ATOM      1  C   UNL     1     -14.166  45.146  24.446  1.00  0.00    -0.025 A 
ATOM      2  C   UNL     1     -12.974  45.766  24.021  1.00  0.00     0.012 A 
ATOM      3  C   UNL     1     -14.735  44.146  23.641  1.00  0.00     0.012 A 
ATOM      4  C   UNL     1     -12.384  45.404  22.805  1.00  0.00     0.047 A 
ATOM      5  C   UNL     1     -14.143  43.787  22.426  1.00  0.00     0.047 A 
ATOM      6  C   UNL     1     -12.966  44.418  22.004  1.00  0.00     0.115 A 
ENDROOT
BRANCH   1   7
ATOM      7  C   UNL     1     -14.826  45.484  25.733  1.00  0.00     0.010 C 
ATOM      8  C   UNL     1     -15.851  44.791  26.250  1.00  0.00     0.025 C 
BRANCH   8   9
ATOM      9  C   UNL     1     -16.472  45.149  27.535  1.00  0.00     0.064 C 
ATOM     10  O   UNL     1     -17.232  44.347  28.139  1.00  0.00    -0.545 OA
ATOM     11  O   UNL     1     -16.213  46.393  28.095  1.00  0.00    -0.545 OA
ENDBRANCH   8   9
ENDBRANCH   1   7
BRANCH   6  12
ATOM     12  O   UNL     1     -12.367  44.069  20.796  1.00  0.00    -0.508 OA
ATOM     13  H   UNL     1     -12.674  43.262  20.266  1.00  0.00     0.293 HD
ENDBRANCH   6  12
TORSDOF 3
ENDMDL
MODEL 6
REMARK VINA RESULT:    -5.040      1.967      6.109
REMARK INTER + INTRA:          -5.927
REMARK INTER:                  -5.791
REMARK INTRA:                  -0.136
REMARK UNBOUND:                -0.151
REMARK SMILES O=C([O-])C=Cc1ccc(O)cc1
REMARK SMILES IDX 6 1 7 2 12 3 8 4 11 5 9 6 5 7 4 8 2 9 1 10 3 11 10 12
REMARK H PARENT 10 13
REMARK Flexibility Score: inf
ROOT
ATOM      1  C   UNL     1     -25.759  61.663  31.090  1.00  0.00    -0.025 A 
ATOM      2  C   UNL     1     -25.875  60.446  30.389  1.00  0.00     0.012 A 
ATOM      3  C   UNL     1     -24.829  62.616  30.643  1.00  0.00     0.012 A 
ATOM      4  C   UNL     1     -25.058  60.185  29.283  1.00  0.00     0.047 A 
ATOM      5  C   UNL     1     -24.013  62.352  29.538  1.00  0.00     0.047 A 
ATOM      6  C   UNL     1     -24.125  61.134  28.856  1.00  0.00     0.115 A 
ENDROOT
BRANCH   1   7
ATOM      7  C   UNL     1     -26.609  61.994  32.261  1.00  0.00     0.010 C 
ATOM      8  C   UNL     1     -26.798  61.171  33.301  1.00  0.00     0.025 C 
BRANCH   8   9
ATOM      9  C   UNL     1     -27.639  61.539  34.452  1.00  0.00     0.064 C 
ATOM     10  O   UNL     1     -28.124  60.661  35.214  1.00  0.00    -0.545 OA
ATOM     11  O   UNL     1     -27.900  62.879  34.705  1.00  0.00    -0.545 OA
ENDBRANCH   8   9
ENDBRANCH   1   7
BRANCH   6  12
ATOM     12  O   UNL     1     -23.319  60.860  27.754  1.00  0.00    -0.508 OA
ATOM     13  H   UNL     1     -23.705  60.784  26.821  1.00  0.00     0.293 HD
ENDBRANCH   6  12
TORSDOF 3
ENDMDL
MODEL 7
REMARK VINA RESULT:    -5.014      4.066      6.083
REMARK INTER + INTRA:          -5.898
REMARK INTER:                  -5.760
REMARK INTRA:                  -0.137
REMARK UNBOUND:                -0.151
REMARK SMILES O=C([O-])C=Cc1ccc(O)cc1
REMARK SMILES IDX 6 1 7 2 12 3 8 4 11 5 9 6 5 7 4 8 2 9 1 10 3 11 10 12
REMARK H PARENT 10 13
REMARK Flexibility Score: inf
ROOT
ATOM      1  C   UNL     1     -22.919  61.255  33.328  1.00  0.00    -0.025 A 
ATOM      2  C   UNL     1     -23.009  61.263  34.734  1.00  0.00     0.012 A 
ATOM      3  C   UNL     1     -21.721  61.669  32.723  1.00  0.00     0.012 A 
ATOM      4  C   UNL     1     -21.929  61.700  35.510  1.00  0.00     0.047 A 
ATOM      5  C   UNL     1     -20.644  62.105  33.501  1.00  0.00     0.047 A 
ATOM      6  C   UNL     1     -20.747  62.123  34.897  1.00  0.00     0.115 A 
ENDROOT
BRANCH   1   7
ATOM      7  C   UNL     1     -24.030  60.790  32.459  1.00  0.00     0.010 C 
ATOM      8  C   UNL     1     -25.326  61.007  32.727  1.00  0.00     0.025 C 
BRANCH   8   9
ATOM      9  C   UNL     1     -26.400  60.542  31.835  1.00  0.00     0.064 C 
ATOM     10  O   UNL     1     -26.141  59.945  30.756  1.00  0.00    -0.545 OA
ATOM     11  O   UNL     1     -27.725  60.761  32.190  1.00  0.00    -0.545 OA
ENDBRANCH   8   9
ENDBRANCH   1   7
BRANCH   6  12
ATOM     12  O   UNL     1     -19.681  62.556  35.682  1.00  0.00    -0.508 OA
ATOM     13  H   UNL     1     -19.437  63.537  35.751  1.00  0.00     0.293 HD
ENDBRANCH   6  12
TORSDOF 3
ENDMDL
MODEL 8
REMARK VINA RESULT:    -4.952      1.356      5.796
REMARK INTER + INTRA:          -5.826
REMARK INTER:                  -5.690
REMARK INTRA:                  -0.136
REMARK UNBOUND:                -0.151
REMARK SMILES O=C([O-])C=Cc1ccc(O)cc1
REMARK SMILES IDX 6 1 7 2 12 3 8 4 11 5 9 6 5 7 4 8 2 9 1 10 3 11 10 12
REMARK H PARENT 10 13
REMARK Flexibility Score: inf
ROOT
ATOM      1  C   UNL     1     -24.173  61.916  30.450  1.00  0.00    -0.025 A 
ATOM      2  C   UNL     1     -22.954  61.912  31.158  1.00  0.00     0.012 A 
ATOM      3  C   UNL     1     -24.147  61.762  29.054  1.00  0.00     0.012 A 
ATOM      4  C   UNL     1     -21.740  61.780  30.476  1.00  0.00     0.047 A 
ATOM      5  C   UNL     1     -22.931  61.632  28.375  1.00  0.00     0.047 A 
ATOM      6  C   UNL     1     -21.725  61.642  29.085  1.00  0.00     0.115 A 
ENDROOT
BRANCH   1   7
ATOM      7  C   UNL     1     -25.489  62.041  31.127  1.00  0.00     0.010 C 
ATOM      8  C   UNL     1     -25.895  61.240  32.122  1.00  0.00     0.025 C 
BRANCH   8   9
ATOM      9  C   UNL     1     -27.202  61.402  32.777  1.00  0.00     0.064 C 
ATOM     10  O   UNL     1     -28.122  60.554  32.621  1.00  0.00    -0.545 OA
ATOM     11  O   UNL     1     -27.428  62.508  33.586  1.00  0.00    -0.545 OA
ENDBRANCH   8   9
ENDBRANCH   1   7
BRANCH   6  12
ATOM     12  O   UNL     1     -20.508  61.512  28.419  1.00  0.00    -0.508 OA
ATOM     13  H   UNL     1     -19.863  62.290  28.337  1.00  0.00     0.293 HD
ENDBRANCH   6  12
TORSDOF 3
ENDMDL
MODEL 9
REMARK VINA RESULT:    -4.914      2.672      3.596
REMARK INTER + INTRA:          -5.783
REMARK INTER:                  -5.648
REMARK INTRA:                  -0.135
REMARK UNBOUND:                -0.151
REMARK SMILES O=C([O-])C=Cc1ccc(O)cc1
REMARK SMILES IDX 6 1 7 2 12 3 8 4 11 5 9 6 5 7 4 8 2 9 1 10 3 11 10 12
REMARK H PARENT 10 13
REMARK Flexibility Score: inf
ROOT
ATOM      1  C   UNL     1     -26.387  61.271  32.522  1.00  0.00    -0.025 A 
ATOM      2  C   UNL     1     -27.587  62.007  32.595  1.00  0.00     0.012 A 
ATOM      3  C   UNL     1     -25.750  60.895  33.717  1.00  0.00     0.012 A 
ATOM      4  C   UNL     1     -28.118  62.374  33.836  1.00  0.00     0.047 A 
ATOM      5  C   UNL     1     -26.282  61.265  34.955  1.00  0.00     0.047 A 
ATOM      6  C   UNL     1     -27.468  62.008  35.017  1.00  0.00     0.115 A 
ENDROOT
BRANCH   1   7
ATOM      7  C   UNL     1     -25.788  60.846  31.232  1.00  0.00     0.010 C 
ATOM      8  C   UNL     1     -25.146  61.676  30.398  1.00  0.00     0.025 C 
BRANCH   8   9
ATOM      9  C   UNL     1     -24.553  61.215  29.133  1.00  0.00     0.064 C 
ATOM     10  O   UNL     1     -24.952  60.160  28.571  1.00  0.00    -0.545 OA
ATOM     11  O   UNL     1     -23.538  61.957  28.544  1.00  0.00    -0.545 OA
ENDBRANCH   8   9
ENDBRANCH   1   7
BRANCH   6  12
ATOM     12  O   UNL     1     -28.008  62.382  36.246  1.00  0.00    -0.508 OA
ATOM     13  H   UNL     1     -27.438  62.435  37.081  1.00  0.00     0.293 HD
ENDBRANCH   6  12
TORSDOF 3
ENDMDL
