MODEL 1
REMARK VINA RESULT:    -5.242      0.000      0.000
REMARK INTER + INTRA:          -9.218
REMARK INTER:                  -7.234
REMARK INTRA:                  -1.984
REMARK UNBOUND:                -1.984
REMARK SMILES CC[C@@H](CC[C@H](C)[C@H]1CC[C@H]2[C@H]3CC=C4C[C@@H](O)CC[C@]4(C)[C@H]3CC[C@]12C)C(C)C
REMARK SMILES IDX 5 1 4 2 3 3 2 4 1 5 28 6 29 7 30 8 6 9 7 10 8 11 9 12 26 13
REMARK SMILES IDX 10 14 11 15 25 16 27 17 12 18 24 19 23 20 13 21 21 22 14 23
REMARK SMILES IDX 15 24 20 25 22 26 16 27 19 28 17 29 18 30
REMARK H PARENT 18 31
REMARK Flexibility Score: inf
ROOT
ATOM      1  C   UNL     1      16.769   0.974  20.367  1.00  0.00     0.004 C 
ENDROOT
BRANCH   1   2
ATOM      2  C   UNL     1      16.020   0.422  21.597  1.00  0.00     0.004 C 
BRANCH   2   3
ATOM      3  C   UNL     1      16.601  -0.932  22.089  1.00  0.00    -0.009 C 
BRANCH   3   4
ATOM      4  C   UNL     1      15.653  -2.124  21.745  1.00  0.00     0.000 C 
ATOM      5  C   UNL     1      15.714  -2.502  20.265  1.00  0.00     0.004 C 
ENDBRANCH   3   4
BRANCH   3   6
ATOM      6  C   UNL     1      16.978  -0.858  23.603  1.00  0.00    -0.014 C 
ATOM      7  C   UNL     1      18.137  -1.789  24.001  1.00  0.00     0.007 C 
ATOM      8  C   UNL     1      17.262   0.583  24.055  1.00  0.00     0.007 C 
ENDBRANCH   3   6
ENDBRANCH   2   3
ENDBRANCH   1   2
BRANCH   1   9
ATOM      9  C   UNL     1      18.305   1.105  20.550  1.00  0.00    -0.011 C 
ATOM     10  C   UNL     1      18.723   2.583  20.691  1.00  0.00     0.008 C 
BRANCH   9  11
ATOM     11  C   UNL     1      19.112   0.265  19.491  1.00  0.00    -0.002 C 
ATOM     12  C   UNL     1      19.950   1.050  18.440  1.00  0.00     0.005 C 
ATOM     13  C   UNL     1      20.106  -0.798  20.040  1.00  0.00    -0.026 C 
ATOM     14  C   UNL     1      21.093   0.111  18.001  1.00  0.00     0.005 C 
ATOM     15  C   UNL     1      20.795  -1.198  18.722  1.00  0.00    -0.001 C 
ATOM     16  C   UNL     1      19.449  -2.065  20.620  1.00  0.00     0.007 C 
ATOM     17  C   UNL     1      21.049  -0.160  21.104  1.00  0.00     0.012 C 
ATOM     18  C   UNL     1      21.877  -2.301  18.808  1.00  0.00     0.000 C 
ATOM     19  C   UNL     1      20.484  -3.200  20.813  1.00  0.00     0.005 C 
ATOM     20  C   UNL     1      21.284  -3.562  19.516  1.00  0.00     0.003 C 
ATOM     21  C   UNL     1      23.251  -1.832  19.339  1.00  0.00     0.031 C 
ATOM     22  C   UNL     1      22.366  -4.694  19.719  1.00  0.00    -0.008 C 
ATOM     23  C   UNL     1      24.008  -2.838  20.161  1.00  0.00    -0.027 C 
ATOM     24  C   UNL     1      23.659  -4.134  20.299  1.00  0.00    -0.065 C 
ATOM     25  C   UNL     1      22.752  -5.350  18.356  1.00  0.00     0.014 C 
ATOM     26  C   UNL     1      21.787  -5.799  20.652  1.00  0.00     0.016 C 
ATOM     27  C   UNL     1      24.768  -5.132  20.550  1.00  0.00     0.063 C 
ATOM     28  C   UNL     1      23.931  -6.352  18.464  1.00  0.00     0.033 C 
ATOM     29  C   UNL     1      25.157  -5.764  19.203  1.00  0.00     0.118 C 
BRANCH  29  30
ATOM     30  O   UNL     1      26.108  -6.772  19.428  1.00  0.00    -0.393 OA
ATOM     31  H   UNL     1      25.637  -7.639  19.317  1.00  0.00     0.210 HD
ENDBRANCH  29  30
ENDBRANCH   9  11
ENDBRANCH   1   9
TORSDOF 7
ENDMDL
MODEL 2
REMARK VINA RESULT:    -4.992      1.959      3.458
REMARK INTER + INTRA:          -8.873
REMARK INTER:                  -7.240
REMARK INTRA:                  -1.632
REMARK UNBOUND:                -1.984
REMARK SMILES CC[C@@H](CC[C@H](C)[C@H]1CC[C@H]2[C@H]3CC=C4C[C@@H](O)CC[C@]4(C)[C@H]3CC[C@]12C)C(C)C
REMARK SMILES IDX 5 1 4 2 3 3 2 4 1 5 28 6 29 7 30 8 6 9 7 10 8 11 9 12 26 13
REMARK SMILES IDX 10 14 11 15 25 16 27 17 12 18 24 19 23 20 13 21 21 22 14 23
REMARK SMILES IDX 15 24 20 25 22 26 16 27 19 28 17 29 18 30
REMARK H PARENT 18 31
REMARK Flexibility Score: inf
ROOT
ATOM      1  C   UNL     1      19.911   0.078  21.517  1.00  0.00     0.004 C 
ENDROOT
BRANCH   1   2
ATOM      2  C   UNL     1      18.687  -0.860  21.453  1.00  0.00     0.004 C 
BRANCH   2   3
ATOM      3  C   UNL     1      17.741  -0.521  20.270  1.00  0.00    -0.009 C 
BRANCH   3   4
ATOM      4  C   UNL     1      17.842   0.983  19.865  1.00  0.00     0.000 C 
ATOM      5  C   UNL     1      18.344   1.163  18.432  1.00  0.00     0.004 C 
ENDBRANCH   3   4
BRANCH   3   6
ATOM      6  C   UNL     1      16.280  -0.982  20.577  1.00  0.00    -0.014 C 
ATOM      7  C   UNL     1      15.918  -2.348  19.966  1.00  0.00     0.007 C 
ATOM      8  C   UNL     1      15.977  -0.966  22.084  1.00  0.00     0.007 C 
ENDBRANCH   3   6
ENDBRANCH   2   3
ENDBRANCH   1   2
BRANCH   1   9
ATOM      9  C   UNL     1      21.166  -0.444  20.768  1.00  0.00    -0.011 C 
ATOM     10  C   UNL     1      21.776   0.655  19.874  1.00  0.00     0.008 C 
BRANCH   9  11
ATOM     11  C   UNL     1      20.917  -1.832  20.069  1.00  0.00    -0.002 C 
ATOM     12  C   UNL     1      20.927  -1.865  18.514  1.00  0.00     0.005 C 
ATOM     13  C   UNL     1      21.857  -3.005  20.471  1.00  0.00    -0.026 C 
ATOM     14  C   UNL     1      21.326  -3.300  18.108  1.00  0.00     0.005 C 
ATOM     15  C   UNL     1      21.410  -4.049  19.431  1.00  0.00    -0.001 C 
ATOM     16  C   UNL     1      21.591  -3.601  21.867  1.00  0.00     0.007 C 
ATOM     17  C   UNL     1      23.349  -2.567  20.361  1.00  0.00     0.012 C 
ATOM     18  C   UNL     1      22.095  -5.435  19.497  1.00  0.00     0.000 C 
ATOM     19  C   UNL     1      22.310  -4.961  22.046  1.00  0.00     0.005 C 
ATOM     20  C   UNL     1      21.963  -6.017  20.942  1.00  0.00     0.003 C 
ATOM     21  C   UNL     1      23.516  -5.495  18.889  1.00  0.00     0.031 C 
ATOM     22  C   UNL     1      22.723  -7.392  21.102  1.00  0.00    -0.008 C 
ATOM     23  C   UNL     1      24.476  -6.431  19.570  1.00  0.00    -0.027 C 
ATOM     24  C   UNL     1      24.131  -7.323  20.523  1.00  0.00    -0.065 C 
ATOM     25  C   UNL     1      21.991  -8.530  20.323  1.00  0.00     0.014 C 
ATOM     26  C   UNL     1      22.776  -7.780  22.609  1.00  0.00     0.016 C 
ATOM     27  C   UNL     1      24.962  -8.583  20.630  1.00  0.00     0.063 C 
ATOM     28  C   UNL     1      22.774  -9.867  20.300  1.00  0.00     0.033 C 
ATOM     29  C   UNL     1      24.245  -9.697  19.848  1.00  0.00     0.118 C 
BRANCH  29  30
ATOM     30  O   UNL     1      24.943 -10.903  20.026  1.00  0.00    -0.393 OA
ATOM     31  H   UNL     1      24.341 -11.508  20.534  1.00  0.00     0.210 HD
ENDBRANCH  29  30
ENDBRANCH   9  11
ENDBRANCH   1   9
TORSDOF 7
ENDMDL
MODEL 3
REMARK VINA RESULT:    -4.804      2.270      3.509
REMARK INTER + INTRA:          -8.613
REMARK INTER:                  -6.773
REMARK INTRA:                  -1.840
REMARK UNBOUND:                -1.984
REMARK SMILES CC[C@@H](CC[C@H](C)[C@H]1CC[C@H]2[C@H]3CC=C4C[C@@H](O)CC[C@]4(C)[C@H]3CC[C@]12C)C(C)C
REMARK SMILES IDX 5 1 4 2 3 3 2 4 1 5 28 6 29 7 30 8 6 9 7 10 8 11 9 12 26 13
REMARK SMILES IDX 10 14 11 15 25 16 27 17 12 18 24 19 23 20 13 21 21 22 14 23
REMARK SMILES IDX 15 24 20 25 22 26 16 27 19 28 17 29 18 30
REMARK H PARENT 18 31
REMARK Flexibility Score: inf
ROOT
ATOM      1  C   UNL     1      18.763   0.618  20.205  1.00  0.00     0.004 C 
ENDROOT
BRANCH   1   2
ATOM      2  C   UNL     1      17.596  -0.288  19.760  1.00  0.00     0.004 C 
BRANCH   2   3
ATOM      3  C   UNL     1      16.344  -0.131  20.665  1.00  0.00    -0.009 C 
BRANCH   3   4
ATOM      4  C   UNL     1      16.585   0.908  21.806  1.00  0.00     0.000 C 
ATOM      5  C   UNL     1      15.621   2.091  21.722  1.00  0.00     0.004 C 
ENDBRANCH   3   4
BRANCH   3   6
ATOM      6  C   UNL     1      15.857  -1.521  21.186  1.00  0.00    -0.014 C 
ATOM      7  C   UNL     1      16.368  -2.710  20.355  1.00  0.00     0.007 C 
ATOM      8  C   UNL     1      16.183  -1.722  22.675  1.00  0.00     0.007 C 
ENDBRANCH   3   6
ENDBRANCH   2   3
ENDBRANCH   1   2
BRANCH   1   9
ATOM      9  C   UNL     1      20.159   0.175  19.692  1.00  0.00    -0.011 C 
ATOM     10  C   UNL     1      20.635   1.073  18.531  1.00  0.00     0.008 C 
BRANCH   9  11
ATOM     11  C   UNL     1      20.242  -1.376  19.433  1.00  0.00    -0.002 C 
ATOM     12  C   UNL     1      21.051  -1.854  18.193  1.00  0.00     0.005 C 
ATOM     13  C   UNL     1      20.784  -2.259  20.593  1.00  0.00    -0.026 C 
ATOM     14  C   UNL     1      21.534  -3.285  18.511  1.00  0.00     0.005 C 
ATOM     15  C   UNL     1      20.890  -3.605  19.853  1.00  0.00    -0.001 C 
ATOM     16  C   UNL     1      19.810  -2.455  21.771  1.00  0.00     0.007 C 
ATOM     17  C   UNL     1      22.138  -1.692  21.119  1.00  0.00     0.012 C 
ATOM     18  C   UNL     1      21.377  -4.818  20.680  1.00  0.00     0.000 C 
ATOM     19  C   UNL     1      20.270  -3.606  22.698  1.00  0.00     0.005 C 
ATOM     20  C   UNL     1      20.493  -4.970  21.960  1.00  0.00     0.003 C 
ATOM     21  C   UNL     1      22.903  -4.876  20.923  1.00  0.00     0.031 C 
ATOM     22  C   UNL     1      20.997  -6.137  22.897  1.00  0.00    -0.008 C 
ATOM     23  C   UNL     1      23.331  -5.451  22.245  1.00  0.00    -0.027 C 
ATOM     24  C   UNL     1      22.503  -6.066  23.116  1.00  0.00    -0.065 C 
ATOM     25  C   UNL     1      20.719  -7.532  22.253  1.00  0.00     0.014 C 
ATOM     26  C   UNL     1      20.247  -6.064  24.260  1.00  0.00     0.016 C 
ATOM     27  C   UNL     1      23.100  -7.130  24.011  1.00  0.00     0.063 C 
ATOM     28  C   UNL     1      21.339  -8.712  23.043  1.00  0.00     0.033 C 
ATOM     29  C   UNL     1      22.839  -8.502  23.365  1.00  0.00     0.118 C 
BRANCH  29  30
ATOM     30  O   UNL     1      23.288  -9.510  24.233  1.00  0.00    -0.393 OA
ATOM     31  H   UNL     1      24.179  -9.796  23.901  1.00  0.00     0.210 HD
ENDBRANCH  29  30
ENDBRANCH   9  11
ENDBRANCH   1   9
TORSDOF 7
ENDMDL
MODEL 4
REMARK VINA RESULT:    -4.691      4.194      7.629
REMARK INTER + INTRA:          -8.457
REMARK INTER:                  -6.776
REMARK INTRA:                  -1.681
REMARK UNBOUND:                -1.984
REMARK SMILES CC[C@@H](CC[C@H](C)[C@H]1CC[C@H]2[C@H]3CC=C4C[C@@H](O)CC[C@]4(C)[C@H]3CC[C@]12C)C(C)C
REMARK SMILES IDX 5 1 4 2 3 3 2 4 1 5 28 6 29 7 30 8 6 9 7 10 8 11 9 12 26 13
REMARK SMILES IDX 10 14 11 15 25 16 27 17 12 18 24 19 23 20 13 21 21 22 14 23
REMARK SMILES IDX 15 24 20 25 22 26 16 27 19 28 17 29 18 30
REMARK H PARENT 18 31
REMARK Flexibility Score: inf
ROOT
ATOM      1  C   UNL     1      23.174  -3.986  18.474  1.00  0.00     0.004 C 
ENDROOT
BRANCH   1   2
ATOM      2  C   UNL     1      21.648  -4.200  18.398  1.00  0.00     0.004 C 
BRANCH   2   3
ATOM      3  C   UNL     1      20.849  -2.947  18.851  1.00  0.00    -0.009 C 
BRANCH   3   4
ATOM      4  C   UNL     1      21.697  -1.644  18.716  1.00  0.00     0.000 C 
ATOM      5  C   UNL     1      20.950  -0.544  17.963  1.00  0.00     0.004 C 
ENDBRANCH   3   4
BRANCH   3   6
ATOM      6  C   UNL     1      20.256  -3.154  20.282  1.00  0.00    -0.014 C 
ATOM      7  C   UNL     1      21.191  -2.693  21.415  1.00  0.00     0.007 C 
ATOM      8  C   UNL     1      18.870  -2.507  20.429  1.00  0.00     0.007 C 
ENDBRANCH   3   6
ENDBRANCH   2   3
ENDBRANCH   1   2
BRANCH   1   9
ATOM      9  C   UNL     1      23.947  -5.100  19.228  1.00  0.00    -0.011 C 
ATOM     10  C   UNL     1      25.432  -5.123  18.815  1.00  0.00     0.008 C 
BRANCH   9  11
ATOM     11  C   UNL     1      23.204  -6.487  19.181  1.00  0.00    -0.002 C 
ATOM     12  C   UNL     1      23.896  -7.646  18.406  1.00  0.00     0.005 C 
ATOM     13  C   UNL     1      22.817  -7.130  20.543  1.00  0.00    -0.026 C 
ATOM     14  C   UNL     1      23.379  -8.960  19.030  1.00  0.00     0.005 C 
ATOM     15  C   UNL     1      22.336  -8.505  20.042  1.00  0.00    -0.001 C 
ATOM     16  C   UNL     1      21.631  -6.461  21.264  1.00  0.00     0.007 C 
ATOM     17  C   UNL     1      24.053  -7.175  21.492  1.00  0.00     0.012 C 
ATOM     18  C   UNL     1      21.809  -9.490  21.111  1.00  0.00     0.000 C 
ATOM     19  C   UNL     1      21.090  -7.353  22.409  1.00  0.00     0.005 C 
ATOM     20  C   UNL     1      20.691  -8.799  21.957  1.00  0.00     0.003 C 
ATOM     21  C   UNL     1      22.902 -10.215  21.931  1.00  0.00     0.031 C 
ATOM     22  C   UNL     1      20.174  -9.722  23.129  1.00  0.00    -0.008 C 
ATOM     23  C   UNL     1      22.556 -10.501  23.366  1.00  0.00    -0.027 C 
ATOM     24  C   UNL     1      21.330 -10.339  23.907  1.00  0.00    -0.065 C 
ATOM     25  C   UNL     1      19.340 -10.919  22.572  1.00  0.00     0.014 C 
ATOM     26  C   UNL     1      19.265  -8.888  24.080  1.00  0.00     0.016 C 
ATOM     27  C   UNL     1      20.954 -11.236  25.066  1.00  0.00     0.063 C 
ATOM     28  C   UNL     1      18.945 -11.955  23.656  1.00  0.00     0.033 C 
ATOM     29  C   UNL     1      20.148 -12.423  24.511  1.00  0.00     0.118 C 
BRANCH  29  30
ATOM     30  O   UNL     1      19.696 -13.210  25.582  1.00  0.00    -0.393 OA
ATOM     31  H   UNL     1      18.820 -13.589  25.308  1.00  0.00     0.210 HD
ENDBRANCH  29  30
ENDBRANCH   9  11
ENDBRANCH   1   9
TORSDOF 7
ENDMDL
MODEL 5
REMARK VINA RESULT:    -4.664      6.735      9.849
REMARK INTER + INTRA:          -8.420
REMARK INTER:                  -6.781
REMARK INTRA:                  -1.640
REMARK UNBOUND:                -1.984
REMARK SMILES CC[C@@H](CC[C@H](C)[C@H]1CC[C@H]2[C@H]3CC=C4C[C@@H](O)CC[C@]4(C)[C@H]3CC[C@]12C)C(C)C
REMARK SMILES IDX 5 1 4 2 3 3 2 4 1 5 28 6 29 7 30 8 6 9 7 10 8 11 9 12 26 13
REMARK SMILES IDX 10 14 11 15 25 16 27 17 12 18 24 19 23 20 13 21 21 22 14 23
REMARK SMILES IDX 15 24 20 25 22 26 16 27 19 28 17 29 18 30
REMARK H PARENT 18 31
REMARK Flexibility Score: inf
ROOT
ATOM      1  C   UNL     1      19.539 -12.279  25.967  1.00  0.00     0.004 C 
ENDROOT
BRANCH   1   2
ATOM      2  C   UNL     1      18.866 -13.024  24.796  1.00  0.00     0.004 C 
BRANCH   2   3
ATOM      3  C   UNL     1      17.451 -13.549  25.162  1.00  0.00    -0.009 C 
BRANCH   3   4
ATOM      4  C   UNL     1      16.742 -12.621  26.197  1.00  0.00     0.000 C 
ATOM      5  C   UNL     1      16.075 -11.418  25.532  1.00  0.00     0.004 C 
ENDBRANCH   3   4
BRANCH   3   6
ATOM      6  C   UNL     1      17.512 -15.045  25.611  1.00  0.00    -0.014 C 
ATOM      7  C   UNL     1      18.812 -15.763  25.206  1.00  0.00     0.007 C 
ATOM      8  C   UNL     1      17.255 -15.202  27.119  1.00  0.00     0.007 C 
ENDBRANCH   3   6
ENDBRANCH   2   3
ENDBRANCH   1   2
BRANCH   1   9
ATOM      9  C   UNL     1      19.939 -10.812  25.657  1.00  0.00    -0.011 C 
ATOM     10  C   UNL     1      19.281  -9.835  26.652  1.00  0.00     0.008 C 
BRANCH   9  11
ATOM     11  C   UNL     1      19.771 -10.451  24.134  1.00  0.00    -0.002 C 
ATOM     12  C   UNL     1      18.687  -9.399  23.761  1.00  0.00     0.005 C 
ATOM     13  C   UNL     1      21.040  -9.961  23.379  1.00  0.00    -0.026 C 
ATOM     14  C   UNL     1      19.142  -8.753  22.435  1.00  0.00     0.005 C 
ATOM     15  C   UNL     1      20.390  -9.536  22.049  1.00  0.00    -0.001 C 
ATOM     16  C   UNL     1      22.071 -11.061  23.058  1.00  0.00     0.007 C 
ATOM     17  C   UNL     1      21.730  -8.807  24.168  1.00  0.00     0.012 C 
ATOM     18  C   UNL     1      21.337  -8.998  20.951  1.00  0.00     0.000 C 
ATOM     19  C   UNL     1      23.110 -10.574  22.019  1.00  0.00     0.005 C 
ATOM     20  C   UNL     1      22.480 -10.032  20.691  1.00  0.00     0.003 C 
ATOM     21  C   UNL     1      21.803  -7.536  21.145  1.00  0.00     0.031 C 
ATOM     22  C   UNL     1      23.536  -9.501  19.644  1.00  0.00    -0.008 C 
ATOM     23  C   UNL     1      23.199  -7.231  20.680  1.00  0.00    -0.027 C 
ATOM     24  C   UNL     1      23.970  -8.075  19.961  1.00  0.00    -0.065 C 
ATOM     25  C   UNL     1      22.927  -9.458  18.207  1.00  0.00     0.014 C 
ATOM     26  C   UNL     1      24.770 -10.451  19.629  1.00  0.00     0.016 C 
ATOM     27  C   UNL     1      24.993  -7.463  19.030  1.00  0.00     0.063 C 
ATOM     28  C   UNL     1      23.856  -8.789  17.161  1.00  0.00     0.033 C 
ATOM     29  C   UNL     1      24.383  -7.407  17.618  1.00  0.00     0.118 C 
BRANCH  29  30
ATOM     30  O   UNL     1      25.355  -6.944  16.718  1.00  0.00    -0.393 OA
ATOM     31  H   UNL     1      26.228  -6.995  17.189  1.00  0.00     0.210 HD
ENDBRANCH  29  30
ENDBRANCH   9  11
ENDBRANCH   1   9
TORSDOF 7
ENDMDL
MODEL 6
REMARK VINA RESULT:    -4.563      3.064      8.459
REMARK INTER + INTRA:          -8.280
REMARK INTER:                  -6.742
REMARK INTRA:                  -1.538
REMARK UNBOUND:                -1.984
REMARK SMILES CC[C@@H](CC[C@H](C)[C@H]1CC[C@H]2[C@H]3CC=C4C[C@@H](O)CC[C@]4(C)[C@H]3CC[C@]12C)C(C)C
REMARK SMILES IDX 5 1 4 2 3 3 2 4 1 5 28 6 29 7 30 8 6 9 7 10 8 11 9 12 26 13
REMARK SMILES IDX 10 14 11 15 25 16 27 17 12 18 24 19 23 20 13 21 21 22 14 23
REMARK SMILES IDX 15 24 20 25 22 26 16 27 19 28 17 29 18 30
REMARK H PARENT 18 31
REMARK Flexibility Score: inf
ROOT
ATOM      1  C   UNL     1      24.447  -5.749  17.844  1.00  0.00     0.004 C 
ENDROOT
BRANCH   1   2
ATOM      2  C   UNL     1      23.462  -6.915  17.615  1.00  0.00     0.004 C 
BRANCH   2   3
ATOM      3  C   UNL     1      24.062  -8.288  18.025  1.00  0.00    -0.009 C 
BRANCH   3   4
ATOM      4  C   UNL     1      23.788  -9.381  16.945  1.00  0.00     0.000 C 
ATOM      5  C   UNL     1      25.049 -10.169  16.589  1.00  0.00     0.004 C 
ENDBRANCH   3   4
BRANCH   3   6
ATOM      6  C   UNL     1      23.584  -8.698  19.455  1.00  0.00    -0.014 C 
ATOM      7  C   UNL     1      22.342  -9.607  19.459  1.00  0.00     0.007 C 
ATOM      8  C   UNL     1      24.718  -9.330  20.280  1.00  0.00     0.007 C 
ENDBRANCH   3   6
ENDBRANCH   2   3
ENDBRANCH   1   2
BRANCH   1   9
ATOM      9  C   UNL     1      24.265  -5.005  19.194  1.00  0.00    -0.011 C 
ATOM     10  C   UNL     1      25.235  -5.549  20.263  1.00  0.00     0.008 C 
BRANCH   9  11
ATOM     11  C   UNL     1      22.756  -4.907  19.629  1.00  0.00    -0.002 C 
ATOM     12  C   UNL     1      22.307  -5.748  20.860  1.00  0.00     0.005 C 
ATOM     13  C   UNL     1      22.196  -3.486  19.927  1.00  0.00    -0.026 C 
ATOM     14  C   UNL     1      21.087  -5.021  21.466  1.00  0.00     0.005 C 
ATOM     15  C   UNL     1      20.820  -3.875  20.499  1.00  0.00    -0.001 C 
ATOM     16  C   UNL     1      21.948  -2.611  18.683  1.00  0.00     0.007 C 
ATOM     17  C   UNL     1      23.130  -2.733  20.922  1.00  0.00     0.012 C 
ATOM     18  C   UNL     1      19.883  -2.715  20.909  1.00  0.00     0.000 C 
ATOM     19  C   UNL     1      21.079  -1.377  19.025  1.00  0.00     0.005 C 
ATOM     20  C   UNL     1      19.713  -1.728  19.709  1.00  0.00     0.003 C 
ATOM     21  C   UNL     1      20.216  -2.051  22.266  1.00  0.00     0.031 C 
ATOM     22  C   UNL     1      18.840  -0.469  20.093  1.00  0.00    -0.008 C 
ATOM     23  C   UNL     1      19.949  -0.574  22.351  1.00  0.00    -0.027 C 
ATOM     24  C   UNL     1      19.289   0.141  21.415  1.00  0.00    -0.065 C 
ATOM     25  C   UNL     1      17.342  -0.864  20.285  1.00  0.00     0.014 C 
ATOM     26  C   UNL     1      18.929   0.587  18.951  1.00  0.00     0.016 C 
ATOM     27  C   UNL     1      18.530   1.365  21.879  1.00  0.00     0.063 C 
ATOM     28  C   UNL     1      16.462   0.292  20.825  1.00  0.00     0.033 C 
ATOM     29  C   UNL     1      17.058   0.967  22.084  1.00  0.00     0.118 C 
BRANCH  29  30
ATOM     30  O   UNL     1      16.316   2.113  22.409  1.00  0.00    -0.393 OA
ATOM     31  H   UNL     1      15.809   2.366  21.593  1.00  0.00     0.210 HD
ENDBRANCH  29  30
ENDBRANCH   9  11
ENDBRANCH   1   9
TORSDOF 7
ENDMDL
MODEL 7
REMARK VINA RESULT:    -4.485      3.548      5.729
REMARK INTER + INTRA:          -8.173
REMARK INTER:                  -6.774
REMARK INTRA:                  -1.399
REMARK UNBOUND:                -1.984
REMARK SMILES CC[C@@H](CC[C@H](C)[C@H]1CC[C@H]2[C@H]3CC=C4C[C@@H](O)CC[C@]4(C)[C@H]3CC[C@]12C)C(C)C
REMARK SMILES IDX 5 1 4 2 3 3 2 4 1 5 28 6 29 7 30 8 6 9 7 10 8 11 9 12 26 13
REMARK SMILES IDX 10 14 11 15 25 16 27 17 12 18 24 19 23 20 13 21 21 22 14 23
REMARK SMILES IDX 15 24 20 25 22 26 16 27 19 28 17 29 18 30
REMARK H PARENT 18 31
REMARK Flexibility Score: inf
ROOT
ATOM      1  C   UNL     1      20.369  -1.457  21.835  1.00  0.00     0.004 C 
ENDROOT
BRANCH   1   2
ATOM      2  C   UNL     1      19.515  -1.450  20.550  1.00  0.00     0.004 C 
BRANCH   2   3
ATOM      3  C   UNL     1      18.832  -0.078  20.299  1.00  0.00    -0.009 C 
BRANCH   3   4
ATOM      4  C   UNL     1      17.284  -0.224  20.155  1.00  0.00     0.000 C 
ATOM      5  C   UNL     1      16.820  -1.668  20.342  1.00  0.00     0.004 C 
ENDBRANCH   3   4
BRANCH   3   6
ATOM      6  C   UNL     1      19.498   0.663  19.096  1.00  0.00    -0.014 C 
ATOM      7  C   UNL     1      20.507  -0.199  18.317  1.00  0.00     0.007 C 
ATOM      8  C   UNL     1      18.454   1.267  18.144  1.00  0.00     0.007 C 
ENDBRANCH   3   6
ENDBRANCH   2   3
ENDBRANCH   1   2
BRANCH   1   9
ATOM      9  C   UNL     1      21.756  -2.138  21.686  1.00  0.00    -0.011 C 
ATOM     10  C   UNL     1      22.791  -1.166  21.084  1.00  0.00     0.008 C 
BRANCH   9  11
ATOM     11  C   UNL     1      21.663  -3.550  20.996  1.00  0.00    -0.002 C 
ATOM     12  C   UNL     1      22.816  -3.954  20.032  1.00  0.00     0.005 C 
ATOM     13  C   UNL     1      21.509  -4.785  21.929  1.00  0.00    -0.026 C 
ATOM     14  C   UNL     1      22.862  -5.497  20.027  1.00  0.00     0.005 C 
ATOM     15  C   UNL     1      21.673  -5.907  20.886  1.00  0.00    -0.001 C 
ATOM     16  C   UNL     1      20.116  -4.948  22.567  1.00  0.00     0.007 C 
ATOM     17  C   UNL     1      22.599  -4.763  23.043  1.00  0.00     0.012 C 
ATOM     18  C   UNL     1      21.550  -7.360  21.401  1.00  0.00     0.000 C 
ATOM     19  C   UNL     1      19.937  -6.359  23.180  1.00  0.00     0.005 C 
ATOM     20  C   UNL     1      20.202  -7.530  22.174  1.00  0.00     0.003 C 
ATOM     21  C   UNL     1      22.801  -7.907  22.128  1.00  0.00     0.031 C 
ATOM     22  C   UNL     1      20.057  -8.970  22.807  1.00  0.00    -0.008 C 
ATOM     23  C   UNL     1      22.531  -8.858  23.261  1.00  0.00    -0.027 C 
ATOM     24  C   UNL     1      21.322  -9.386  23.547  1.00  0.00    -0.065 C 
ATOM     25  C   UNL     1      19.830 -10.048  21.700  1.00  0.00     0.014 C 
ATOM     26  C   UNL     1      18.835  -8.988  23.772  1.00  0.00     0.016 C 
ATOM     27  C   UNL     1      21.295 -10.747  24.207  1.00  0.00     0.063 C 
ATOM     28  C   UNL     1      19.847 -11.501  22.239  1.00  0.00     0.033 C 
ATOM     29  C   UNL     1      21.088 -11.807  23.112  1.00  0.00     0.118 C 
BRANCH  29  30
ATOM     30  O   UNL     1      20.950 -13.067  23.715  1.00  0.00    -0.393 OA
ATOM     31  H   UNL     1      20.303 -12.958  24.460  1.00  0.00     0.210 HD
ENDBRANCH  29  30
ENDBRANCH   9  11
ENDBRANCH   1   9
TORSDOF 7
ENDMDL
MODEL 8
REMARK VINA RESULT:    -4.483      5.812      9.777
REMARK INTER + INTRA:          -8.170
REMARK INTER:                  -6.509
REMARK INTRA:                  -1.661
REMARK UNBOUND:                -1.984
REMARK SMILES CC[C@@H](CC[C@H](C)[C@H]1CC[C@H]2[C@H]3CC=C4C[C@@H](O)CC[C@]4(C)[C@H]3CC[C@]12C)C(C)C
REMARK SMILES IDX 5 1 4 2 3 3 2 4 1 5 28 6 29 7 30 8 6 9 7 10 8 11 9 12 26 13
REMARK SMILES IDX 10 14 11 15 25 16 27 17 12 18 24 19 23 20 13 21 21 22 14 23
REMARK SMILES IDX 15 24 20 25 22 26 16 27 19 28 17 29 18 30
REMARK H PARENT 18 31
REMARK Flexibility Score: inf
ROOT
ATOM      1  C   UNL     1      24.349  -6.444  21.115  1.00  0.00     0.004 C 
ENDROOT
BRANCH   1   2
ATOM      2  C   UNL     1      23.058  -5.604  21.020  1.00  0.00     0.004 C 
BRANCH   2   3
ATOM      3  C   UNL     1      22.689  -5.246  19.555  1.00  0.00    -0.009 C 
BRANCH   3   4
ATOM      4  C   UNL     1      23.942  -5.271  18.624  1.00  0.00     0.000 C 
ATOM      5  C   UNL     1      23.828  -6.333  17.531  1.00  0.00     0.004 C 
ENDBRANCH   3   4
BRANCH   3   6
ATOM      6  C   UNL     1      21.900  -3.899  19.494  1.00  0.00    -0.014 C 
ATOM      7  C   UNL     1      21.238  -3.628  18.130  1.00  0.00     0.007 C 
ATOM      8  C   UNL     1      20.867  -3.786  20.627  1.00  0.00     0.007 C 
ENDBRANCH   3   6
ENDBRANCH   2   3
ENDBRANCH   1   2
BRANCH   1   9
ATOM      9  C   UNL     1      24.119  -7.978  21.174  1.00  0.00    -0.011 C 
ATOM     10  C   UNL     1      25.007  -8.712  20.148  1.00  0.00     0.008 C 
BRANCH   9  11
ATOM     11  C   UNL     1      22.592  -8.360  21.153  1.00  0.00    -0.002 C 
ATOM     12  C   UNL     1      22.092  -9.250  19.979  1.00  0.00     0.005 C 
ATOM     13  C   UNL     1      22.020  -9.059  22.419  1.00  0.00    -0.026 C 
ATOM     14  C   UNL     1      20.847 -10.000  20.498  1.00  0.00     0.005 C 
ATOM     15  C   UNL     1      20.621  -9.426  21.890  1.00  0.00    -0.001 C 
ATOM     16  C   UNL     1      21.826  -8.138  23.639  1.00  0.00     0.007 C 
ATOM     17  C   UNL     1      22.910 -10.276  22.815  1.00  0.00     0.012 C 
ATOM     18  C   UNL     1      19.667 -10.136  22.879  1.00  0.00     0.000 C 
ATOM     19  C   UNL     1      20.942  -8.809  24.718  1.00  0.00     0.005 C 
ATOM     20  C   UNL     1      19.548  -9.294  24.190  1.00  0.00     0.003 C 
ATOM     21  C   UNL     1      19.941 -11.644  23.086  1.00  0.00     0.031 C 
ATOM     22  C   UNL     1      18.659 -10.012  25.280  1.00  0.00    -0.008 C 
ATOM     23  C   UNL     1      19.670 -12.170  24.468  1.00  0.00    -0.027 C 
ATOM     24  C   UNL     1      19.050 -11.475  25.446  1.00  0.00    -0.065 C 
ATOM     25  C   UNL     1      17.154 -10.011  24.864  1.00  0.00     0.014 C 
ATOM     26  C   UNL     1      18.797  -9.258  26.636  1.00  0.00     0.016 C 
ATOM     27  C   UNL     1      18.272 -12.264  26.476  1.00  0.00     0.063 C 
ATOM     28  C   UNL     1      16.251 -10.846  25.808  1.00  0.00     0.033 C 
ATOM     29  C   UNL     1      16.793 -12.275  26.053  1.00  0.00     0.118 C 
BRANCH  29  30
ATOM     30  O   UNL     1      16.036 -12.908  27.053  1.00  0.00    -0.393 OA
ATOM     31  H   UNL     1      16.169 -13.885  26.935  1.00  0.00     0.210 HD
ENDBRANCH  29  30
ENDBRANCH   9  11
ENDBRANCH   1   9
TORSDOF 7
ENDMDL
MODEL 9
REMARK VINA RESULT:    -4.409      4.056      8.261
REMARK INTER + INTRA:          -8.068
REMARK INTER:                  -5.823
REMARK INTRA:                  -2.246
REMARK UNBOUND:                -1.984
REMARK SMILES CC[C@@H](CC[C@H](C)[C@H]1CC[C@H]2[C@H]3CC=C4C[C@@H](O)CC[C@]4(C)[C@H]3CC[C@]12C)C(C)C
REMARK SMILES IDX 5 1 4 2 3 3 2 4 1 5 28 6 29 7 30 8 6 9 7 10 8 11 9 12 26 13
REMARK SMILES IDX 10 14 11 15 25 16 27 17 12 18 24 19 23 20 13 21 21 22 14 23
REMARK SMILES IDX 15 24 20 25 22 26 16 27 19 28 17 29 18 30
REMARK H PARENT 18 31
REMARK Flexibility Score: inf
ROOT
ATOM      1  C   UNL     1      22.297  -9.766  24.904  1.00  0.00     0.004 C 
ENDROOT
BRANCH   1   2
ATOM      2  C   UNL     1      20.827 -10.226  24.996  1.00  0.00     0.004 C 
BRANCH   2   3
ATOM      3  C   UNL     1      20.063 -10.041  23.656  1.00  0.00    -0.009 C 
BRANCH   3   4
ATOM      4  C   UNL     1      18.806  -9.132  23.831  1.00  0.00     0.000 C 
ATOM      5  C   UNL     1      18.391  -8.464  22.521  1.00  0.00     0.004 C 
ENDBRANCH   3   4
BRANCH   3   6
ATOM      6  C   UNL     1      19.740 -11.425  23.006  1.00  0.00    -0.014 C 
ATOM      7  C   UNL     1      20.216 -11.552  21.548  1.00  0.00     0.007 C 
ATOM      8  C   UNL     1      20.269 -12.595  23.852  1.00  0.00     0.007 C 
ENDBRANCH   3   6
ENDBRANCH   2   3
ENDBRANCH   1   2
BRANCH   1   9
ATOM      9  C   UNL     1      22.872  -9.721  23.464  1.00  0.00    -0.011 C 
ATOM     10  C   UNL     1      23.780 -10.937  23.189  1.00  0.00     0.008 C 
BRANCH   9  11
ATOM     11  C   UNL     1      23.485  -8.316  23.104  1.00  0.00    -0.002 C 
ATOM     12  C   UNL     1      24.920  -8.293  22.501  1.00  0.00     0.005 C 
ATOM     13  C   UNL     1      22.664  -7.410  22.142  1.00  0.00    -0.026 C 
ATOM     14  C   UNL     1      25.021  -7.002  21.660  1.00  0.00     0.005 C 
ATOM     15  C   UNL     1      23.697  -6.292  21.910  1.00  0.00    -0.001 C 
ATOM     16  C   UNL     1      21.414  -6.762  22.769  1.00  0.00     0.007 C 
ATOM     17  C   UNL     1      22.259  -8.204  20.863  1.00  0.00     0.012 C 
ATOM     18  C   UNL     1      23.261  -5.118  21.002  1.00  0.00     0.000 C 
ATOM     19  C   UNL     1      20.863  -5.622  21.879  1.00  0.00     0.005 C 
ATOM     20  C   UNL     1      21.918  -4.517  21.531  1.00  0.00     0.003 C 
ATOM     21  C   UNL     1      23.298  -5.414  19.484  1.00  0.00     0.031 C 
ATOM     22  C   UNL     1      21.369  -3.371  20.592  1.00  0.00    -0.008 C 
ATOM     23  C   UNL     1      22.232  -4.742  18.664  1.00  0.00    -0.027 C 
ATOM     24  C   UNL     1      21.396  -3.789  19.127  1.00  0.00    -0.065 C 
ATOM     25  C   UNL     1      22.256  -2.091  20.693  1.00  0.00     0.014 C 
ATOM     26  C   UNL     1      19.919  -3.003  21.024  1.00  0.00     0.016 C 
ATOM     27  C   UNL     1      20.879  -2.773  18.132  1.00  0.00     0.063 C 
ATOM     28  C   UNL     1      21.871  -0.989  19.674  1.00  0.00     0.033 C 
ATOM     29  C   UNL     1      21.766  -1.519  18.223  1.00  0.00     0.118 C 
BRANCH  29  30
ATOM     30  O   UNL     1      21.237  -0.523  17.387  1.00  0.00    -0.393 OA
ATOM     31  H   UNL     1      21.060  -0.951  16.508  1.00  0.00     0.210 HD
ENDBRANCH  29  30
ENDBRANCH   9  11
ENDBRANCH   1   9
TORSDOF 7
ENDMDL
