MODEL 1
REMARK VINA RESULT:    -3.304      0.000      0.000
REMARK INTER + INTRA:          -7.137
REMARK INTER:                  -5.621
REMARK INTRA:                  -1.516
REMARK UNBOUND:                -1.516
REMARK SMILES CCCCCCCCCCCCCC(=O)[O-]
REMARK SMILES IDX 8 1 9 2 10 3 11 4 12 5 13 6 14 7 15 8 16 9 7 10 6 11 5 12
REMARK SMILES IDX 4 13 3 14 2 15 1 16
REMARK H PARENT
REMARK Flexibility Score: inf
ROOT
ATOM      1  C   UNL     1      33.356  10.964  22.542  1.00  0.00     0.000 C 
ENDROOT
BRANCH   1   2
ATOM      2  C   UNL     1      32.072  10.743  23.361  1.00  0.00     0.000 C 
BRANCH   2   3
ATOM      3  C   UNL     1      31.288   9.500  22.905  1.00  0.00     0.000 C 
BRANCH   3   4
ATOM      4  C   UNL     1      32.041   8.684  21.842  1.00  0.00     0.000 C 
BRANCH   4   5
ATOM      5  C   UNL     1      31.309   7.384  21.468  1.00  0.00     0.006 C 
BRANCH   5   6
ATOM      6  C   UNL     1      32.046   6.579  20.389  1.00  0.00     0.053 C 
BRANCH   6   7
ATOM      7  C   UNL     1      32.816   5.457  21.012  1.00  0.00     0.041 C 
ATOM      8  O   UNL     1      32.393   4.903  22.061  1.00  0.00    -0.550 OA
ATOM      9  O   UNL     1      34.027   5.055  20.462  1.00  0.00    -0.550 OA
ENDBRANCH   6   7
ENDBRANCH   5   6
ENDBRANCH   4   5
ENDBRANCH   3   4
ENDBRANCH   2   3
ENDBRANCH   1   2
BRANCH   1  10
ATOM     10  C   UNL     1      34.561  11.340  23.421  1.00  0.00     0.000 C 
BRANCH  10  11
ATOM     11  C   UNL     1      35.655  12.085  22.637  1.00  0.00    -0.000 C 
BRANCH  11  12
ATOM     12  C   UNL     1      37.008  11.354  22.674  1.00  0.00    -0.000 C 
BRANCH  12  13
ATOM     13  C   UNL     1      36.871   9.881  23.098  1.00  0.00    -0.000 C 
BRANCH  13  14
ATOM     14  C   UNL     1      37.102   8.900  21.935  1.00  0.00    -0.000 C 
BRANCH  14  15
ATOM     15  C   UNL     1      35.823   8.272  21.353  1.00  0.00    -0.003 C 
ATOM     16  C   UNL     1      35.344   8.964  20.077  1.00  0.00     0.004 C 
ENDBRANCH  14  15
ENDBRANCH  13  14
ENDBRANCH  12  13
ENDBRANCH  11  12
ENDBRANCH  10  11
ENDBRANCH   1  10
TORSDOF 12
ENDMDL
MODEL 2
REMARK VINA RESULT:    -3.303      1.206      2.027
REMARK INTER + INTRA:          -7.136
REMARK INTER:                  -5.997
REMARK INTRA:                  -1.139
REMARK UNBOUND:                -1.516
REMARK SMILES CCCCCCCCCCCCCC(=O)[O-]
REMARK SMILES IDX 8 1 9 2 10 3 11 4 12 5 13 6 14 7 15 8 16 9 7 10 6 11 5 12
REMARK SMILES IDX 4 13 3 14 2 15 1 16
REMARK H PARENT
REMARK Flexibility Score: inf
ROOT
ATOM      1  C   UNL     1      32.023  10.324  23.330  1.00  0.00     0.000 C 
ENDROOT
BRANCH   1   2
ATOM      2  C   UNL     1      31.163   9.235  22.666  1.00  0.00     0.000 C 
BRANCH   2   3
ATOM      3  C   UNL     1      31.966   8.367  21.682  1.00  0.00     0.000 C 
BRANCH   3   4
ATOM      4  C   UNL     1      31.359   6.965  21.499  1.00  0.00     0.000 C 
BRANCH   4   5
ATOM      5  C   UNL     1      32.405   5.921  21.075  1.00  0.00     0.006 C 
BRANCH   5   6
ATOM      6  C   UNL     1      32.482   4.733  22.044  1.00  0.00     0.053 C 
BRANCH   6   7
ATOM      7  C   UNL     1      33.000   3.519  21.339  1.00  0.00     0.041 C 
ATOM      8  O   UNL     1      32.295   2.478  21.268  1.00  0.00    -0.550 OA
ATOM      9  O   UNL     1      34.280   3.520  20.801  1.00  0.00    -0.550 OA
ENDBRANCH   6   7
ENDBRANCH   5   6
ENDBRANCH   4   5
ENDBRANCH   3   4
ENDBRANCH   2   3
ENDBRANCH   1   2
BRANCH   1  10
ATOM     10  C   UNL     1      32.354  11.483  22.375  1.00  0.00     0.000 C 
BRANCH  10  11
ATOM     11  C   UNL     1      33.779  12.026  22.575  1.00  0.00    -0.000 C 
BRANCH  11  12
ATOM     12  C   UNL     1      34.676  11.053  23.361  1.00  0.00    -0.000 C 
BRANCH  12  13
ATOM     13  C   UNL     1      35.840  10.510  22.515  1.00  0.00    -0.000 C 
BRANCH  13  14
ATOM     14  C   UNL     1      35.366   9.690  21.302  1.00  0.00    -0.000 C 
BRANCH  14  15
ATOM     15  C   UNL     1      35.796   8.211  21.311  1.00  0.00    -0.003 C 
ATOM     16  C   UNL     1      36.970   7.935  22.250  1.00  0.00     0.004 C 
ENDBRANCH  14  15
ENDBRANCH  13  14
ENDBRANCH  12  13
ENDBRANCH  11  12
ENDBRANCH  10  11
ENDBRANCH   1  10
TORSDOF 12
ENDMDL
MODEL 3
REMARK VINA RESULT:    -3.250      1.298      2.065
REMARK INTER + INTRA:          -7.046
REMARK INTER:                  -5.293
REMARK INTRA:                  -1.753
REMARK UNBOUND:                -1.516
REMARK SMILES CCCCCCCCCCCCCC(=O)[O-]
REMARK SMILES IDX 8 1 9 2 10 3 11 4 12 5 13 6 14 7 15 8 16 9 7 10 6 11 5 12
REMARK SMILES IDX 4 13 3 14 2 15 1 16
REMARK H PARENT
REMARK Flexibility Score: inf
ROOT
ATOM      1  C   UNL     1      32.084  10.371  23.359  1.00  0.00     0.000 C 
ENDROOT
BRANCH   1   2
ATOM      2  C   UNL     1      31.190   9.305  22.702  1.00  0.00     0.000 C 
BRANCH   2   3
ATOM      3  C   UNL     1      31.959   8.425  21.702  1.00  0.00     0.000 C 
BRANCH   3   4
ATOM      4  C   UNL     1      31.309   7.045  21.506  1.00  0.00     0.000 C 
BRANCH   4   5
ATOM      5  C   UNL     1      32.299   5.997  20.972  1.00  0.00     0.006 C 
BRANCH   5   6
ATOM      6  C   UNL     1      33.140   6.520  19.800  1.00  0.00     0.053 C 
BRANCH   6   7
ATOM      7  C   UNL     1      34.555   6.049  19.923  1.00  0.00     0.041 C 
ATOM      8  O   UNL     1      35.177   5.638  18.909  1.00  0.00    -0.550 OA
ATOM      9  O   UNL     1      35.171   6.019  21.168  1.00  0.00    -0.550 OA
ENDBRANCH   6   7
ENDBRANCH   5   6
ENDBRANCH   4   5
ENDBRANCH   3   4
ENDBRANCH   2   3
ENDBRANCH   1   2
BRANCH   1  10
ATOM     10  C   UNL     1      32.336  11.580  22.444  1.00  0.00     0.000 C 
BRANCH  10  11
ATOM     11  C   UNL     1      33.775  12.115  22.550  1.00  0.00    -0.000 C 
BRANCH  11  12
ATOM     12  C   UNL     1      34.652  11.260  23.481  1.00  0.00    -0.000 C 
BRANCH  12  13
ATOM     13  C   UNL     1      35.858  10.642  22.752  1.00  0.00    -0.000 C 
BRANCH  13  14
ATOM     14  C   UNL     1      35.467   9.469  21.837  1.00  0.00    -0.000 C 
BRANCH  14  15
ATOM     15  C   UNL     1      35.718   9.704  20.336  1.00  0.00    -0.003 C 
ATOM     16  C   UNL     1      34.441  10.014  19.557  1.00  0.00     0.004 C 
ENDBRANCH  14  15
ENDBRANCH  13  14
ENDBRANCH  12  13
ENDBRANCH  11  12
ENDBRANCH  10  11
ENDBRANCH   1  10
TORSDOF 12
ENDMDL
MODEL 4
REMARK VINA RESULT:    -3.197      1.159      3.623
REMARK INTER + INTRA:          -6.955
REMARK INTER:                  -5.508
REMARK INTRA:                  -1.447
REMARK UNBOUND:                -1.516
REMARK SMILES CCCCCCCCCCCCCC(=O)[O-]
REMARK SMILES IDX 8 1 9 2 10 3 11 4 12 5 13 6 14 7 15 8 16 9 7 10 6 11 5 12
REMARK SMILES IDX 4 13 3 14 2 15 1 16
REMARK H PARENT
REMARK Flexibility Score: inf
ROOT
ATOM      1  C   UNL     1      35.936  10.322  22.719  1.00  0.00     0.000 C 
ENDROOT
BRANCH   1   2
ATOM      2  C   UNL     1      35.696   9.891  21.261  1.00  0.00     0.000 C 
BRANCH   2   3
ATOM      3  C   UNL     1      35.621   8.363  21.103  1.00  0.00     0.000 C 
BRANCH   3   4
ATOM      4  C   UNL     1      34.635   7.930  20.005  1.00  0.00     0.000 C 
BRANCH   4   5
ATOM      5  C   UNL     1      34.611   6.406  19.801  1.00  0.00     0.006 C 
BRANCH   5   6
ATOM      6  C   UNL     1      34.480   5.635  21.122  1.00  0.00     0.053 C 
BRANCH   6   7
ATOM      7  C   UNL     1      33.315   4.697  21.063  1.00  0.00     0.041 C 
ATOM      8  O   UNL     1      33.029   3.979  22.057  1.00  0.00    -0.550 OA
ATOM      9  O   UNL     1      32.574   4.582  19.894  1.00  0.00    -0.550 OA
ENDBRANCH   6   7
ENDBRANCH   5   6
ENDBRANCH   4   5
ENDBRANCH   3   4
ENDBRANCH   2   3
ENDBRANCH   1   2
BRANCH   1  10
ATOM     10  C   UNL     1      34.863  11.297  23.233  1.00  0.00     0.000 C 
BRANCH  10  11
ATOM     11  C   UNL     1      33.958  11.828  22.108  1.00  0.00    -0.000 C 
BRANCH  11  12
ATOM     12  C   UNL     1      32.462  11.683  22.438  1.00  0.00    -0.000 C 
BRANCH  12  13
ATOM     13  C   UNL     1      32.191  10.575  23.470  1.00  0.00    -0.000 C 
BRANCH  13  14
ATOM     14  C   UNL     1      31.214   9.503  22.954  1.00  0.00    -0.000 C 
BRANCH  14  15
ATOM     15  C   UNL     1      31.778   8.590  21.849  1.00  0.00    -0.003 C 
ATOM     16  C   UNL     1      30.940   7.331  21.628  1.00  0.00     0.004 C 
ENDBRANCH  14  15
ENDBRANCH  13  14
ENDBRANCH  12  13
ENDBRANCH  11  12
ENDBRANCH  10  11
ENDBRANCH   1  10
TORSDOF 12
ENDMDL
MODEL 5
REMARK VINA RESULT:    -3.173      1.481      2.061
REMARK INTER + INTRA:          -6.915
REMARK INTER:                  -5.656
REMARK INTRA:                  -1.259
REMARK UNBOUND:                -1.516
REMARK SMILES CCCCCCCCCCCCCC(=O)[O-]
REMARK SMILES IDX 8 1 9 2 10 3 11 4 12 5 13 6 14 7 15 8 16 9 7 10 6 11 5 12
REMARK SMILES IDX 4 13 3 14 2 15 1 16
REMARK H PARENT
REMARK Flexibility Score: inf
ROOT
ATOM      1  C   UNL     1      32.530  11.594  22.125  1.00  0.00     0.000 C 
ENDROOT
BRANCH   1   2
ATOM      2  C   UNL     1      32.008  10.811  23.343  1.00  0.00     0.000 C 
BRANCH   2   3
ATOM      3  C   UNL     1      31.267   9.524  22.943  1.00  0.00     0.000 C 
BRANCH   3   4
ATOM      4  C   UNL     1      31.965   8.771  21.798  1.00  0.00     0.000 C 
BRANCH   4   5
ATOM      5  C   UNL     1      31.318   7.406  21.508  1.00  0.00     0.006 C 
BRANCH   5   6
ATOM      6  C   UNL     1      32.295   6.413  20.864  1.00  0.00     0.053 C 
BRANCH   6   7
ATOM      7  C   UNL     1      32.655   6.860  19.482  1.00  0.00     0.041 C 
ATOM      8  O   UNL     1      33.860   7.052  19.171  1.00  0.00    -0.550 OA
ATOM      9  O   UNL     1      31.656   7.111  18.550  1.00  0.00    -0.550 OA
ENDBRANCH   6   7
ENDBRANCH   5   6
ENDBRANCH   4   5
ENDBRANCH   3   4
ENDBRANCH   2   3
ENDBRANCH   1   2
BRANCH   1  10
ATOM     10  C   UNL     1      33.967  12.106  22.323  1.00  0.00     0.000 C 
BRANCH  10  11
ATOM     11  C   UNL     1      34.737  11.312  23.392  1.00  0.00    -0.000 C 
BRANCH  11  12
ATOM     12  C   UNL     1      35.930  10.538  22.805  1.00  0.00    -0.000 C 
BRANCH  12  13
ATOM     13  C   UNL     1      35.547   9.721  21.559  1.00  0.00    -0.000 C 
BRANCH  13  14
ATOM     14  C   UNL     1      36.075   8.276  21.605  1.00  0.00    -0.000 C 
BRANCH  14  15
ATOM     15  C   UNL     1      37.267   8.051  22.552  1.00  0.00    -0.003 C 
ATOM     16  C   UNL     1      37.542   6.573  22.827  1.00  0.00     0.004 C 
ENDBRANCH  14  15
ENDBRANCH  13  14
ENDBRANCH  12  13
ENDBRANCH  11  12
ENDBRANCH  10  11
ENDBRANCH   1  10
TORSDOF 12
ENDMDL
MODEL 6
REMARK VINA RESULT:    -3.165      2.383      5.442
REMARK INTER + INTRA:          -6.900
REMARK INTER:                  -5.750
REMARK INTRA:                  -1.150
REMARK UNBOUND:                -1.516
REMARK SMILES CCCCCCCCCCCCCC(=O)[O-]
REMARK SMILES IDX 8 1 9 2 10 3 11 4 12 5 13 6 14 7 15 8 16 9 7 10 6 11 5 12
REMARK SMILES IDX 4 13 3 14 2 15 1 16
REMARK H PARENT
REMARK Flexibility Score: inf
ROOT
ATOM      1  C   UNL     1      31.858   8.543  21.769  1.00  0.00     0.000 C 
ENDROOT
BRANCH   1   2
ATOM      2  C   UNL     1      31.187   9.387  22.866  1.00  0.00     0.000 C 
BRANCH   2   3
ATOM      3  C   UNL     1      32.056  10.578  23.308  1.00  0.00     0.000 C 
BRANCH   3   4
ATOM      4  C   UNL     1      32.514  11.447  22.125  1.00  0.00     0.000 C 
BRANCH   4   5
ATOM      5  C   UNL     1      33.943  11.984  22.306  1.00  0.00     0.006 C 
BRANCH   5   6
ATOM      6  C   UNL     1      34.718  11.244  23.405  1.00  0.00     0.053 C 
BRANCH   6   7
ATOM      7  C   UNL     1      35.785  10.385  22.801  1.00  0.00     0.041 C 
ATOM      8  O   UNL     1      35.474   9.406  22.073  1.00  0.00    -0.550 OA
ATOM      9  O   UNL     1      37.122  10.637  23.081  1.00  0.00    -0.550 OA
ENDBRANCH   6   7
ENDBRANCH   5   6
ENDBRANCH   4   5
ENDBRANCH   3   4
ENDBRANCH   2   3
ENDBRANCH   1   2
BRANCH   1  10
ATOM     10  C   UNL     1      31.020   7.316  21.371  1.00  0.00     0.000 C 
BRANCH  10  11
ATOM     11  C   UNL     1      31.315   6.838  19.938  1.00  0.00    -0.000 C 
BRANCH  11  12
ATOM     12  C   UNL     1      31.839   5.392  19.896  1.00  0.00    -0.000 C 
BRANCH  12  13
ATOM     13  C   UNL     1      31.862   4.732  21.286  1.00  0.00    -0.000 C 
BRANCH  13  14
ATOM     14  C   UNL     1      33.289   4.467  21.798  1.00  0.00    -0.000 C 
BRANCH  14  15
ATOM     15  C   UNL     1      34.404   4.705  20.764  1.00  0.00    -0.003 C 
ATOM     16  C   UNL     1      35.376   5.810  21.175  1.00  0.00     0.004 C 
ENDBRANCH  14  15
ENDBRANCH  13  14
ENDBRANCH  12  13
ENDBRANCH  11  12
ENDBRANCH  10  11
ENDBRANCH   1  10
TORSDOF 12
ENDMDL
MODEL 7
REMARK VINA RESULT:    -3.155      1.713      2.425
REMARK INTER + INTRA:          -6.885
REMARK INTER:                  -5.145
REMARK INTRA:                  -1.740
REMARK UNBOUND:                -1.516
REMARK SMILES CCCCCCCCCCCCCC(=O)[O-]
REMARK SMILES IDX 8 1 9 2 10 3 11 4 12 5 13 6 14 7 15 8 16 9 7 10 6 11 5 12
REMARK SMILES IDX 4 13 3 14 2 15 1 16
REMARK H PARENT
REMARK Flexibility Score: inf
ROOT
ATOM      1  C   UNL     1      34.210  12.062  22.553  1.00  0.00     0.000 C 
ENDROOT
BRANCH   1   2
ATOM      2  C   UNL     1      32.699  11.795  22.436  1.00  0.00     0.000 C 
BRANCH   2   3
ATOM      3  C   UNL     1      32.202  10.759  23.458  1.00  0.00     0.000 C 
BRANCH   3   4
ATOM      4  C   UNL     1      31.442   9.595  22.800  1.00  0.00     0.000 C 
BRANCH   4   5
ATOM      5  C   UNL     1      32.244   8.934  21.666  1.00  0.00     0.006 C 
BRANCH   5   6
ATOM      6  C   UNL     1      31.798   7.492  21.390  1.00  0.00     0.053 C 
BRANCH   6   7
ATOM      7  C   UNL     1      31.816   7.214  19.919  1.00  0.00     0.041 C 
ATOM      8  O   UNL     1      32.649   7.795  19.175  1.00  0.00    -0.550 OA
ATOM      9  O   UNL     1      30.882   6.350  19.363  1.00  0.00    -0.550 OA
ENDBRANCH   6   7
ENDBRANCH   5   6
ENDBRANCH   4   5
ENDBRANCH   3   4
ENDBRANCH   2   3
ENDBRANCH   1   2
BRANCH   1  10
ATOM     10  C   UNL     1      34.926  11.032  23.441  1.00  0.00     0.000 C 
BRANCH  10  11
ATOM     11  C   UNL     1      36.299  10.619  22.880  1.00  0.00    -0.000 C 
BRANCH  11  12
ATOM     12  C   UNL     1      36.249   9.276  22.132  1.00  0.00    -0.000 C 
BRANCH  12  13
ATOM     13  C   UNL     1      35.676   9.413  20.711  1.00  0.00    -0.000 C 
BRANCH  13  14
ATOM     14  C   UNL     1      36.411  10.473  19.870  1.00  0.00    -0.000 C 
BRANCH  14  15
ATOM     15  C   UNL     1      35.500  11.520  19.204  1.00  0.00    -0.003 C 
ATOM     16  C   UNL     1      34.081  11.008  18.958  1.00  0.00     0.004 C 
ENDBRANCH  14  15
ENDBRANCH  13  14
ENDBRANCH  12  13
ENDBRANCH  11  12
ENDBRANCH  10  11
ENDBRANCH   1  10
TORSDOF 12
ENDMDL
MODEL 8
REMARK VINA RESULT:    -3.131      1.974      3.743
REMARK INTER + INTRA:          -6.844
REMARK INTER:                  -5.304
REMARK INTRA:                  -1.540
REMARK UNBOUND:                -1.516
REMARK SMILES CCCCCCCCCCCCCC(=O)[O-]
REMARK SMILES IDX 8 1 9 2 10 3 11 4 12 5 13 6 14 7 15 8 16 9 7 10 6 11 5 12
REMARK SMILES IDX 4 13 3 14 2 15 1 16
REMARK H PARENT
REMARK Flexibility Score: inf
ROOT
ATOM      1  C   UNL     1      32.042   8.739  21.775  1.00  0.00     0.000 C 
ENDROOT
BRANCH   1   2
ATOM      2  C   UNL     1      31.320   7.440  21.377  1.00  0.00     0.000 C 
BRANCH   2   3
ATOM      3  C   UNL     1      32.297   6.310  21.011  1.00  0.00     0.000 C 
BRANCH   3   4
ATOM      4  C   UNL     1      33.681   6.836  20.594  1.00  0.00     0.000 C 
BRANCH   4   5
ATOM      5  C   UNL     1      34.817   5.868  20.963  1.00  0.00     0.006 C 
BRANCH   5   6
ATOM      6  C   UNL     1      36.170   6.294  20.378  1.00  0.00     0.053 C 
BRANCH   6   7
ATOM      7  C   UNL     1      37.101   6.715  21.472  1.00  0.00     0.041 C 
ATOM      8  O   UNL     1      36.955   6.262  22.638  1.00  0.00    -0.550 OA
ATOM      9  O   UNL     1      38.100   7.645  21.215  1.00  0.00    -0.550 OA
ENDBRANCH   6   7
ENDBRANCH   5   6
ENDBRANCH   4   5
ENDBRANCH   3   4
ENDBRANCH   2   3
ENDBRANCH   1   2
BRANCH   1  10
ATOM     10  C   UNL     1      31.307   9.511  22.883  1.00  0.00     0.000 C 
BRANCH  10  11
ATOM     11  C   UNL     1      32.147  10.664  23.459  1.00  0.00    -0.000 C 
BRANCH  11  12
ATOM     12  C   UNL     1      32.508  11.717  22.397  1.00  0.00    -0.000 C 
BRANCH  12  13
ATOM     13  C   UNL     1      34.017  12.017  22.353  1.00  0.00    -0.000 C 
BRANCH  13  14
ATOM     14  C   UNL     1      34.848  11.024  23.184  1.00  0.00    -0.000 C 
BRANCH  14  15
ATOM     15  C   UNL     1      35.637   9.989  22.361  1.00  0.00    -0.003 C 
ATOM     16  C   UNL     1      35.418  10.130  20.855  1.00  0.00     0.004 C 
ENDBRANCH  14  15
ENDBRANCH  13  14
ENDBRANCH  12  13
ENDBRANCH  11  12
ENDBRANCH  10  11
ENDBRANCH   1  10
TORSDOF 12
ENDMDL
MODEL 9
REMARK VINA RESULT:    -3.044      2.278      4.950
REMARK INTER + INTRA:          -6.695
REMARK INTER:                  -5.379
REMARK INTRA:                  -1.316
REMARK UNBOUND:                -1.516
REMARK SMILES CCCCCCCCCCCCCC(=O)[O-]
REMARK SMILES IDX 8 1 9 2 10 3 11 4 12 5 13 6 14 7 15 8 16 9 7 10 6 11 5 12
REMARK SMILES IDX 4 13 3 14 2 15 1 16
REMARK H PARENT
REMARK Flexibility Score: inf
ROOT
ATOM      1  C   UNL     1      33.221  11.104  22.562  1.00  0.00     0.000 C 
ENDROOT
BRANCH   1   2
ATOM      2  C   UNL     1      34.499  11.315  23.393  1.00  0.00     0.000 C 
BRANCH   2   3
ATOM      3  C   UNL     1      35.702  10.537  22.832  1.00  0.00     0.000 C 
BRANCH   3   4
ATOM      4  C   UNL     1      35.473  10.051  21.391  1.00  0.00     0.000 C 
BRANCH   4   5
ATOM      5  C   UNL     1      35.635   8.528  21.249  1.00  0.00     0.006 C 
BRANCH   5   6
ATOM      6  C   UNL     1      36.874   7.995  21.982  1.00  0.00     0.053 C 
BRANCH   6   7
ATOM      7  C   UNL     1      38.113   8.303  21.201  1.00  0.00     0.041 C 
ATOM      8  O   UNL     1      38.246   7.871  20.026  1.00  0.00    -0.550 OA
ATOM      9  O   UNL     1      39.143   9.027  21.788  1.00  0.00    -0.550 OA
ENDBRANCH   6   7
ENDBRANCH   5   6
ENDBRANCH   4   5
ENDBRANCH   3   4
ENDBRANCH   2   3
ENDBRANCH   1   2
BRANCH   1  10
ATOM     10  C   UNL     1      32.016  10.694  23.425  1.00  0.00     0.000 C 
BRANCH  10  11
ATOM     11  C   UNL     1      31.282   9.460  22.869  1.00  0.00    -0.000 C 
BRANCH  11  12
ATOM     12  C   UNL     1      32.052   8.786  21.720  1.00  0.00    -0.000 C 
BRANCH  12  13
ATOM     13  C   UNL     1      31.560   7.356  21.440  1.00  0.00    -0.000 C 
BRANCH  13  14
ATOM     14  C   UNL     1      32.443   6.607  20.426  1.00  0.00    -0.000 C 
BRANCH  14  15
ATOM     15  C   UNL     1      33.329   5.502  21.028  1.00  0.00    -0.003 C 
ATOM     16  C   UNL     1      32.562   4.560  21.956  1.00  0.00     0.004 C 
ENDBRANCH  14  15
ENDBRANCH  13  14
ENDBRANCH  12  13
ENDBRANCH  11  12
ENDBRANCH  10  11
ENDBRANCH   1  10
TORSDOF 12
ENDMDL
