MODEL 1
REMARK VINA RESULT:    -1.848      0.000      0.000
REMARK INTER + INTRA:          -1.024
REMARK INTER:                  -2.010
REMARK INTRA:                   0.986
REMARK UNBOUND:                 0.986
REMARK SMILES C[C@H]1[C@H](C)CC[C@]2(C(=O)[O-])CC[C@@]3(C)C(=CC[C@@H]4[C@]5(C)CC[C@@H](O)C(C)(C)[C@@H]5CC[C@]43C)[C@H]12
REMARK SMILES IDX 7 1 6 2 11 3 33 4 5 5 12 6 15 7 2 8 3 9 13 10 16 11 1 12
REMARK SMILES IDX 4 13 14 14 31 15 17 16 18 17 30 18 32 19 19 20 29 21 28 22
REMARK SMILES IDX 21 23 20 24 25 25 22 26 23 27 26 28 27 29 8 30 9 31 10 32
REMARK SMILES IDX 24 33
REMARK H PARENT 24 34
REMARK Flexibility Score: inf
ROOT
ATOM      1  C   UNL     1      -5.712  16.942  -7.050  1.00  0.00     0.017 C 
ATOM      2  C   UNL     1      -5.464  15.944  -5.894  1.00  0.00     0.014 C 
ATOM      3  C   UNL     1      -5.978  18.370  -6.500  1.00  0.00     0.014 C 
ATOM      4  C   UNL     1      -6.939  16.507  -7.902  1.00  0.00     0.030 C 
ATOM      5  C   UNL     1      -6.691  15.731  -5.014  1.00  0.00     0.004 C 
ATOM      6  C   UNL     1      -5.982  19.409  -7.623  1.00  0.00     0.013 C 
ATOM      7  C   UNL     1      -7.258  17.561  -8.974  1.00  0.00    -0.063 C 
ATOM      8  C   UNL     1      -8.208  16.158  -7.030  1.00  0.00    -0.003 C 
ATOM      9  C   UNL     1      -7.874  15.208  -5.836  1.00  0.00    -0.011 C 
ATOM     10  C   UNL     1      -6.883  19.070  -8.879  1.00  0.00    -0.006 C 
ATOM     11  C   UNL     1      -7.970  17.176 -10.057  1.00  0.00    -0.027 C 
ATOM     12  C   UNL     1      -9.334  15.512  -7.880  1.00  0.00     0.008 C 
ATOM     13  C   UNL     1      -9.072  15.019  -4.875  1.00  0.00     0.008 C 
ATOM     14  C   UNL     1      -5.933  19.315 -10.119  1.00  0.00     0.017 C 
ATOM     15  C   UNL     1      -8.242  19.992  -8.985  1.00  0.00    -0.020 C 
ATOM     16  C   UNL     1      -8.872  18.172 -10.733  1.00  0.00     0.032 C 
ATOM     17  C   UNL     1      -9.415  19.165  -9.657  1.00  0.00     0.006 C 
ATOM     18  C   UNL     1      -8.832  20.385  -7.597  1.00  0.00     0.008 C 
ATOM     19  C   UNL     1      -7.923  21.333  -9.715  1.00  0.00     0.012 C 
ATOM     20  C   UNL     1     -10.784  19.916  -9.994  1.00  0.00    -0.025 C 
ATOM     21  C   UNL     1     -10.222  21.077  -7.625  1.00  0.00     0.005 C 
ATOM     22  C   UNL     1     -11.112  21.077  -8.937  1.00  0.00     0.003 C 
ATOM     23  C   UNL     1     -10.855  20.325 -11.532  1.00  0.00     0.010 C 
ATOM     24  C   UNL     1     -11.918  18.842  -9.809  1.00  0.00     0.012 C 
ATOM     25  C   UNL     1     -11.590  22.478  -9.536  1.00  0.00    -0.006 C 
ATOM     26  C   UNL     1     -11.138  21.780 -11.947  1.00  0.00     0.033 C 
ATOM     27  C   UNL     1     -10.850  22.820 -10.866  1.00  0.00     0.120 C 
ATOM     28  C   UNL     1     -11.348  23.659  -8.576  1.00  0.00     0.014 C 
ATOM     29  C   UNL     1     -13.125  22.431  -9.780  1.00  0.00     0.014 C 
ENDROOT
BRANCH   1  30
ATOM     30  C   UNL     1      -4.427  16.911  -7.876  1.00  0.00     0.048 C 
ATOM     31  O   UNL     1      -3.828  15.827  -8.120  1.00  0.00    -0.550 OA
ATOM     32  O   UNL     1      -3.832  18.098  -8.265  1.00  0.00    -0.550 OA
ENDBRANCH   1  30
BRANCH  27  33
ATOM     33  O   UNL     1     -11.138  24.123 -11.338  1.00  0.00    -0.393 OA
ATOM     34  H   UNL     1     -10.757  24.262 -12.238  1.00  0.00     0.210 HD
ENDBRANCH  27  33
TORSDOF 2
ENDMDL
MODEL 2
REMARK VINA RESULT:     0.594      1.515      7.372
REMARK INTER + INTRA:           1.632
REMARK INTER:                   1.345
REMARK INTRA:                   0.287
REMARK UNBOUND:                 0.986
REMARK SMILES C[C@H]1[C@H](C)CC[C@]2(C(=O)[O-])CC[C@@]3(C)C(=CC[C@@H]4[C@]5(C)CC[C@@H](O)C(C)(C)[C@@H]5CC[C@]43C)[C@H]12
REMARK SMILES IDX 7 1 6 2 11 3 33 4 5 5 12 6 15 7 2 8 3 9 13 10 16 11 1 12
REMARK SMILES IDX 4 13 14 14 31 15 17 16 18 17 30 18 32 19 19 20 29 21 28 22
REMARK SMILES IDX 21 23 20 24 25 25 22 26 23 27 26 28 27 29 8 30 9 31 10 32
REMARK SMILES IDX 24 33
REMARK H PARENT 24 34
REMARK Flexibility Score: inf
ROOT
ATOM      1  C   UNL     1     -11.763  20.804  -9.733  1.00  0.00     0.017 C 
ATOM      2  C   UNL     1     -13.024  21.565  -9.263  1.00  0.00     0.014 C 
ATOM      3  C   UNL     1     -11.819  19.315  -9.293  1.00  0.00     0.014 C 
ATOM      4  C   UNL     1     -10.476  21.444  -9.137  1.00  0.00     0.030 C 
ATOM      5  C   UNL     1     -13.125  21.678  -7.746  1.00  0.00     0.004 C 
ATOM      6  C   UNL     1     -10.710  18.495  -9.953  1.00  0.00     0.013 C 
ATOM      7  C   UNL     1      -9.235  20.615  -9.505  1.00  0.00    -0.063 C 
ATOM      8  C   UNL     1     -10.571  21.693  -7.580  1.00  0.00    -0.003 C 
ATOM      9  C   UNL     1     -11.903  22.396  -7.165  1.00  0.00    -0.011 C 
ATOM     10  C   UNL     1      -9.249  19.097  -9.853  1.00  0.00    -0.006 C 
ATOM     11  C   UNL     1      -8.027  21.222  -9.468  1.00  0.00    -0.027 C 
ATOM     12  C   UNL     1      -9.378  22.535  -7.056  1.00  0.00     0.008 C 
ATOM     13  C   UNL     1     -12.081  22.469  -5.630  1.00  0.00     0.008 C 
ATOM     14  C   UNL     1      -8.697  19.031 -11.334  1.00  0.00     0.017 C 
ATOM     15  C   UNL     1      -8.266  18.276  -8.819  1.00  0.00    -0.020 C 
ATOM     16  C   UNL     1      -6.808  20.408  -9.130  1.00  0.00     0.032 C 
ATOM     17  C   UNL     1      -7.226  19.267  -8.149  1.00  0.00     0.006 C 
ATOM     18  C   UNL     1      -9.021  17.671  -7.598  1.00  0.00     0.008 C 
ATOM     19  C   UNL     1      -7.600  17.074  -9.556  1.00  0.00     0.012 C 
ATOM     20  C   UNL     1      -6.077  18.656  -7.222  1.00  0.00    -0.025 C 
ATOM     21  C   UNL     1      -8.126  17.065  -6.483  1.00  0.00     0.005 C 
ATOM     22  C   UNL     1      -6.565  17.343  -6.442  1.00  0.00     0.003 C 
ATOM     23  C   UNL     1      -4.700  18.533  -8.014  1.00  0.00     0.010 C 
ATOM     24  C   UNL     1      -5.808  19.735  -6.109  1.00  0.00     0.012 C 
ATOM     25  C   UNL     1      -5.567  16.096  -6.441  1.00  0.00    -0.006 C 
ATOM     26  C   UNL     1      -3.949  17.191  -8.081  1.00  0.00     0.033 C 
ATOM     27  C   UNL     1      -4.811  15.962  -7.799  1.00  0.00     0.120 C 
ATOM     28  C   UNL     1      -6.279  14.752  -6.194  1.00  0.00     0.014 C 
ATOM     29  C   UNL     1      -4.547  16.261  -5.280  1.00  0.00     0.014 C 
ENDROOT
BRANCH   1  30
ATOM     30  C   UNL     1     -11.781  20.918 -11.256  1.00  0.00     0.048 C 
ATOM     31  O   UNL     1     -11.996  19.913 -11.989  1.00  0.00    -0.550 OA
ATOM     32  O   UNL     1     -11.434  22.114 -11.859  1.00  0.00    -0.550 OA
ENDBRANCH   1  30
BRANCH  27  33
ATOM     33  O   UNL     1      -4.037  14.780  -7.884  1.00  0.00    -0.393 OA
ATOM     34  H   UNL     1      -3.708  14.512  -6.993  1.00  0.00     0.210 HD
ENDBRANCH  27  33
TORSDOF 2
ENDMDL
MODEL 3
REMARK VINA RESULT:     0.917      1.532      7.641
REMARK INTER + INTRA:           1.984
REMARK INTER:                   2.065
REMARK INTRA:                  -0.081
REMARK UNBOUND:                 0.986
REMARK SMILES C[C@H]1[C@H](C)CC[C@]2(C(=O)[O-])CC[C@@]3(C)C(=CC[C@@H]4[C@]5(C)CC[C@@H](O)C(C)(C)[C@@H]5CC[C@]43C)[C@H]12
REMARK SMILES IDX 7 1 6 2 11 3 33 4 5 5 12 6 15 7 2 8 3 9 13 10 16 11 1 12
REMARK SMILES IDX 4 13 14 14 31 15 17 16 18 17 30 18 32 19 19 20 29 21 28 22
REMARK SMILES IDX 21 23 20 24 25 25 22 26 23 27 26 28 27 29 8 30 9 31 10 32
REMARK SMILES IDX 24 33
REMARK H PARENT 24 34
REMARK Flexibility Score: inf
ROOT
ATOM      1  C   UNL     1     -11.703  22.822 -10.113  1.00  0.00     0.017 C 
ATOM      2  C   UNL     1     -12.940  23.610  -9.623  1.00  0.00     0.014 C 
ATOM      3  C   UNL     1     -11.878  21.300  -9.855  1.00  0.00     0.014 C 
ATOM      4  C   UNL     1     -10.416  23.299  -9.378  1.00  0.00     0.030 C 
ATOM      5  C   UNL     1     -13.125  23.555  -8.110  1.00  0.00     0.004 C 
ATOM      6  C   UNL     1     -10.784  20.486 -10.548  1.00  0.00     0.013 C 
ATOM      7  C   UNL     1      -9.209  22.434  -9.775  1.00  0.00    -0.063 C 
ATOM      8  C   UNL     1     -10.590  23.374  -7.810  1.00  0.00    -0.003 C 
ATOM      9  C   UNL     1     -11.897  24.116  -7.385  1.00  0.00    -0.011 C 
ATOM     10  C   UNL     1      -9.297  20.971 -10.301  1.00  0.00    -0.006 C 
ATOM     11  C   UNL     1      -7.971  22.948  -9.603  1.00  0.00    -0.027 C 
ATOM     12  C   UNL     1      -9.380  24.066  -7.127  1.00  0.00     0.008 C 
ATOM     13  C   UNL     1     -12.163  24.025  -5.864  1.00  0.00     0.008 C 
ATOM     14  C   UNL     1      -8.662  21.036 -11.748  1.00  0.00     0.017 C 
ATOM     15  C   UNL     1      -8.432  19.971  -9.321  1.00  0.00    -0.020 C 
ATOM     16  C   UNL     1      -6.828  22.019  -9.300  1.00  0.00     0.032 C 
ATOM     17  C   UNL     1      -7.375  20.804  -8.484  1.00  0.00     0.006 C 
ATOM     18  C   UNL     1      -9.295  19.284  -8.221  1.00  0.00     0.008 C 
ATOM     19  C   UNL     1      -7.799  18.818 -10.158  1.00  0.00     0.012 C 
ATOM     20  C   UNL     1      -6.324  20.013  -7.576  1.00  0.00    -0.025 C 
ATOM     21  C   UNL     1      -8.509  18.494  -7.140  1.00  0.00     0.005 C 
ATOM     22  C   UNL     1      -6.940  18.657  -6.984  1.00  0.00     0.003 C 
ATOM     23  C   UNL     1      -4.913  19.887  -8.303  1.00  0.00     0.010 C 
ATOM     24  C   UNL     1      -6.056  20.936  -6.331  1.00  0.00     0.012 C 
ATOM     25  C   UNL     1      -6.023  17.352  -7.077  1.00  0.00    -0.006 C 
ATOM     26  C   UNL     1      -4.244  18.513  -8.488  1.00  0.00     0.033 C 
ATOM     27  C   UNL     1      -5.196  17.322  -8.400  1.00  0.00     0.120 C 
ATOM     28  C   UNL     1      -6.832  16.041  -7.028  1.00  0.00     0.014 C 
ATOM     29  C   UNL     1      -5.067  17.312  -5.852  1.00  0.00     0.014 C 
ENDROOT
BRANCH   1  30
ATOM     30  C   UNL     1     -11.621  23.111 -11.611  1.00  0.00     0.048 C 
ATOM     31  O   UNL     1     -10.819  23.970 -12.072  1.00  0.00    -0.550 OA
ATOM     32  O   UNL     1     -12.524  22.518 -12.474  1.00  0.00    -0.550 OA
ENDBRANCH   1  30
BRANCH  27  33
ATOM     33  O   UNL     1      -4.494  16.107  -8.583  1.00  0.00    -0.393 OA
ATOM     34  H   UNL     1      -3.700  16.244  -9.152  1.00  0.00     0.210 HD
ENDBRANCH  27  33
TORSDOF 2
ENDMDL
