MODEL 1
REMARK VINA RESULT:     9.189      0.000      0.000
REMARK INTER + INTRA:          10.670
REMARK INTER:                  10.801
REMARK INTRA:                  -0.131
REMARK UNBOUND:                -0.131
REMARK SMILES O=C([O-])C=Cc1ccc(O)c(O)c1
REMARK SMILES IDX 6 1 13 2 7 3 11 4 8 5 9 6 5 7 4 8 2 9 1 10 3 11 12 12 10 14
REMARK H PARENT 12 13 10 15
REMARK Flexibility Score: inf
ROOT
ATOM      1  C   UNL     1      48.941  44.351  -7.753  1.00  0.00    -0.022 A 
ATOM      2  C   UNL     1      49.219  43.759  -6.509  1.00  0.00     0.058 A 
ATOM      3  C   UNL     1      47.952  43.775  -8.574  1.00  0.00     0.012 A 
ATOM      4  C   UNL     1      48.542  42.601  -6.099  1.00  0.00     0.157 A 
ATOM      5  C   UNL     1      47.278  42.621  -8.165  1.00  0.00     0.051 A 
ATOM      6  C   UNL     1      47.569  42.028  -6.934  1.00  0.00     0.157 A 
ENDROOT
BRANCH   1   7
ATOM      7  C   UNL     1      49.677  45.582  -8.134  1.00  0.00     0.010 C 
ATOM      8  C   UNL     1      50.997  45.745  -7.957  1.00  0.00     0.025 C 
BRANCH   8   9
ATOM      9  C   UNL     1      51.692  46.987  -8.336  1.00  0.00     0.064 C 
ATOM     10  O   UNL     1      51.051  48.011  -8.694  1.00  0.00    -0.545 OA
ATOM     11  O   UNL     1      53.080  47.030  -8.299  1.00  0.00    -0.545 OA
ENDBRANCH   8   9
ENDBRANCH   1   7
BRANCH   4  12
ATOM     12  O   UNL     1      48.835  42.018  -4.866  1.00  0.00    -0.504 OA
ATOM     13  H   UNL     1      48.366  41.177  -4.552  1.00  0.00     0.293 HD
ENDBRANCH   4  12
BRANCH   6  14
ATOM     14  O   UNL     1      46.880  40.876  -6.556  1.00  0.00    -0.504 OA
ATOM     15  H   UNL     1      46.154  40.470  -7.135  1.00  0.00     0.293 HD
ENDBRANCH   6  14
TORSDOF 4
ENDMDL
MODEL 2
REMARK VINA RESULT:     9.631      0.999      1.975
REMARK INTER + INTRA:          11.190
REMARK INTER:                  11.321
REMARK INTRA:                  -0.131
REMARK UNBOUND:                -0.131
REMARK SMILES O=C([O-])C=Cc1ccc(O)c(O)c1
REMARK SMILES IDX 6 1 13 2 7 3 11 4 8 5 9 6 5 7 4 8 2 9 1 10 3 11 12 12 10 14
REMARK H PARENT 12 13 10 15
REMARK Flexibility Score: inf
ROOT
ATOM      1  C   UNL     1      48.910  44.520  -7.802  1.00  0.00    -0.022 A 
ATOM      2  C   UNL     1      48.312  43.826  -8.868  1.00  0.00     0.058 A 
ATOM      3  C   UNL     1      48.839  43.969  -6.508  1.00  0.00     0.012 A 
ATOM      4  C   UNL     1      47.635  42.618  -8.647  1.00  0.00     0.157 A 
ATOM      5  C   UNL     1      48.164  42.765  -6.288  1.00  0.00     0.051 A 
ATOM      6  C   UNL     1      47.558  42.087  -7.349  1.00  0.00     0.157 A 
ENDROOT
BRANCH   1   7
ATOM      7  C   UNL     1      49.624  45.788  -8.093  1.00  0.00     0.010 C 
ATOM      8  C   UNL     1      50.948  45.947  -7.951  1.00  0.00     0.025 C 
BRANCH   8   9
ATOM      9  C   UNL     1      51.621  47.225  -8.237  1.00  0.00     0.064 C 
ATOM     10  O   UNL     1      50.962  48.280  -8.434  1.00  0.00    -0.545 OA
ATOM     11  O   UNL     1      53.008  47.267  -8.293  1.00  0.00    -0.545 OA
ENDBRANCH   8   9
ENDBRANCH   1   7
BRANCH   4  12
ATOM     12  O   UNL     1      47.037  41.945  -9.712  1.00  0.00    -0.504 OA
ATOM     13  H   UNL     1      46.038  41.990  -9.876  1.00  0.00     0.293 HD
ENDBRANCH   4  12
BRANCH   6  14
ATOM     14  O   UNL     1      46.892  40.889  -7.096  1.00  0.00    -0.504 OA
ATOM     15  H   UNL     1      47.309  40.148  -6.545  1.00  0.00     0.293 HD
ENDBRANCH   6  14
TORSDOF 4
ENDMDL
MODEL 3
REMARK VINA RESULT:    11.687      1.216      5.796
REMARK INTER + INTRA:          13.606
REMARK INTER:                  13.736
REMARK INTRA:                  -0.130
REMARK UNBOUND:                -0.131
REMARK SMILES O=C([O-])C=Cc1ccc(O)c(O)c1
REMARK SMILES IDX 6 1 13 2 7 3 11 4 8 5 9 6 5 7 4 8 2 9 1 10 3 11 12 12 10 14
REMARK H PARENT 12 13 10 15
REMARK Flexibility Score: inf
ROOT
ATOM      1  C   UNL     1      49.046  44.961  -7.831  1.00  0.00    -0.022 A 
ATOM      2  C   UNL     1      50.378  44.636  -8.139  1.00  0.00     0.058 A 
ATOM      3  C   UNL     1      48.699  46.316  -7.669  1.00  0.00     0.012 A 
ATOM      4  C   UNL     1      51.352  45.638  -8.259  1.00  0.00     0.157 A 
ATOM      5  C   UNL     1      49.669  47.316  -7.788  1.00  0.00     0.051 A 
ATOM      6  C   UNL     1      50.996  46.984  -8.078  1.00  0.00     0.157 A 
ENDROOT
BRANCH   1   7
ATOM      7  C   UNL     1      48.053  43.864  -7.728  1.00  0.00     0.010 C 
ATOM      8  C   UNL     1      48.363  42.611  -7.363  1.00  0.00     0.025 C 
BRANCH   8   9
ATOM      9  C   UNL     1      47.352  41.543  -7.283  1.00  0.00     0.064 C 
ATOM     10  O   UNL     1      46.876  41.177  -6.176  1.00  0.00    -0.545 OA
ATOM     11  O   UNL     1      46.917  40.927  -8.450  1.00  0.00    -0.545 OA
ENDBRANCH   8   9
ENDBRANCH   1   7
BRANCH   4  12
ATOM     12  O   UNL     1      52.673  45.300  -8.554  1.00  0.00    -0.504 OA
ATOM     13  H   UNL     1      53.175  45.739  -9.317  1.00  0.00     0.293 HD
ENDBRANCH   4  12
BRANCH   6  14
ATOM     14  O   UNL     1      51.940  48.003  -8.189  1.00  0.00    -0.504 OA
ATOM     15  H   UNL     1      52.918  47.812  -8.378  1.00  0.00     0.293 HD
ENDBRANCH   6  14
TORSDOF 4
ENDMDL
