MODEL 1
REMARK VINA RESULT:    -3.749      0.000      0.000
REMARK INTER + INTRA:          -8.035
REMARK INTER:                  -6.379
REMARK INTRA:                  -1.656
REMARK UNBOUND:                -1.656
REMARK SMILES CCCCCCCCCCCCCC(=O)[O-]
REMARK SMILES IDX 8 1 9 2 10 3 11 4 12 5 13 6 14 7 15 8 16 9 7 10 6 11 5 12
REMARK SMILES IDX 4 13 3 14 2 15 1 16
REMARK H PARENT
REMARK Flexibility Score: inf
ROOT
ATOM      1  C   UNL     1      12.891 -14.332 -43.661  1.00  0.00     0.000 C 
ENDROOT
BRANCH   1   2
ATOM      2  C   UNL     1      11.695 -14.926 -44.428  1.00  0.00     0.000 C 
BRANCH   2   3
ATOM      3  C   UNL     1      11.886 -14.886 -45.954  1.00  0.00     0.000 C 
BRANCH   3   4
ATOM      4  C   UNL     1      10.705 -14.225 -46.689  1.00  0.00     0.000 C 
BRANCH   4   5
ATOM      5  C   UNL     1      10.430 -12.757 -46.306  1.00  0.00     0.006 C 
BRANCH   5   6
ATOM      6  C   UNL     1       9.221 -12.553 -45.379  1.00  0.00     0.053 C 
BRANCH   6   7
ATOM      7  C   UNL     1       8.256 -11.548 -45.927  1.00  0.00     0.041 C 
ATOM      8  O   UNL     1       7.523 -11.844 -46.907  1.00  0.00    -0.550 OA
ATOM      9  O   UNL     1       8.190 -10.273 -45.378  1.00  0.00    -0.550 OA
ENDBRANCH   6   7
ENDBRANCH   5   6
ENDBRANCH   4   5
ENDBRANCH   3   4
ENDBRANCH   2   3
ENDBRANCH   1   2
BRANCH   1  10
ATOM     10  C   UNL     1      13.632 -13.186 -44.378  1.00  0.00     0.000 C 
BRANCH  10  11
ATOM     11  C   UNL     1      13.268 -11.770 -43.897  1.00  0.00    -0.000 C 
BRANCH  11  12
ATOM     12  C   UNL     1      12.027 -11.750 -42.990  1.00  0.00    -0.000 C 
BRANCH  12  13
ATOM     13  C   UNL     1      11.211 -10.466 -43.206  1.00  0.00    -0.000 C 
BRANCH  13  14
ATOM     14  C   UNL     1      11.612  -9.710 -44.486  1.00  0.00    -0.000 C 
BRANCH  14  15
ATOM     15  C   UNL     1      11.206  -8.226 -44.513  1.00  0.00    -0.003 C 
ATOM     16  C   UNL     1      10.063  -7.901 -43.552  1.00  0.00     0.004 C 
ENDBRANCH  14  15
ENDBRANCH  13  14
ENDBRANCH  12  13
ENDBRANCH  11  12
ENDBRANCH  10  11
ENDBRANCH   1  10
TORSDOF 12
ENDMDL
MODEL 2
REMARK VINA RESULT:    -3.685     11.611     13.432
REMARK INTER + INTRA:          -7.926
REMARK INTER:                  -6.697
REMARK INTRA:                  -1.229
REMARK UNBOUND:                -1.656
REMARK SMILES CCCCCCCCCCCCCC(=O)[O-]
REMARK SMILES IDX 8 1 9 2 10 3 11 4 12 5 13 6 14 7 15 8 16 9 7 10 6 11 5 12
REMARK SMILES IDX 4 13 3 14 2 15 1 16
REMARK H PARENT
REMARK Flexibility Score: inf
ROOT
ATOM      1  C   UNL     1       6.779 -21.141 -36.754  1.00  0.00     0.000 C 
ENDROOT
BRANCH   1   2
ATOM      2  C   UNL     1       7.298 -19.808 -36.185  1.00  0.00     0.000 C 
BRANCH   2   3
ATOM      3  C   UNL     1       6.789 -18.586 -36.969  1.00  0.00     0.000 C 
BRANCH   3   4
ATOM      4  C   UNL     1       5.553 -17.933 -36.322  1.00  0.00     0.000 C 
BRANCH   4   5
ATOM      5  C   UNL     1       5.715 -17.538 -34.841  1.00  0.00     0.006 C 
BRANCH   5   6
ATOM      6  C   UNL     1       5.064 -16.200 -34.459  1.00  0.00     0.053 C 
BRANCH   6   7
ATOM      7  C   UNL     1       4.898 -16.057 -32.978  1.00  0.00     0.041 C 
ATOM      8  O   UNL     1       4.826 -14.913 -32.457  1.00  0.00    -0.550 OA
ATOM      9  O   UNL     1       4.857 -17.186 -32.169  1.00  0.00    -0.550 OA
ENDBRANCH   6   7
ENDBRANCH   5   6
ENDBRANCH   4   5
ENDBRANCH   3   4
ENDBRANCH   2   3
ENDBRANCH   1   2
BRANCH   1  10
ATOM     10  C   UNL     1       7.500 -22.404 -36.241  1.00  0.00     0.000 C 
BRANCH  10  11
ATOM     11  C   UNL     1       8.200 -22.249 -34.878  1.00  0.00    -0.000 C 
BRANCH  11  12
ATOM     12  C   UNL     1       9.732 -22.229 -34.993  1.00  0.00    -0.000 C 
BRANCH  12  13
ATOM     13  C   UNL     1      10.201 -23.050 -36.203  1.00  0.00    -0.000 C 
BRANCH  13  14
ATOM     14  C   UNL     1      11.088 -22.243 -37.167  1.00  0.00    -0.000 C 
BRANCH  14  15
ATOM     15  C   UNL     1      10.933 -20.716 -37.063  1.00  0.00    -0.003 C 
ATOM     16  C   UNL     1      10.345 -20.087 -38.326  1.00  0.00     0.004 C 
ENDBRANCH  14  15
ENDBRANCH  13  14
ENDBRANCH  12  13
ENDBRANCH  11  12
ENDBRANCH  10  11
ENDBRANCH   1  10
TORSDOF 12
ENDMDL
MODEL 3
REMARK VINA RESULT:    -3.659     10.973     12.795
REMARK INTER + INTRA:          -7.882
REMARK INTER:                  -6.359
REMARK INTRA:                  -1.523
REMARK UNBOUND:                -1.656
REMARK SMILES CCCCCCCCCCCCCC(=O)[O-]
REMARK SMILES IDX 8 1 9 2 10 3 11 4 12 5 13 6 14 7 15 8 16 9 7 10 6 11 5 12
REMARK SMILES IDX 4 13 3 14 2 15 1 16
REMARK H PARENT
REMARK Flexibility Score: inf
ROOT
ATOM      1  C   UNL     1       9.664 -22.589 -34.884  1.00  0.00     0.000 C 
ENDROOT
BRANCH   1   2
ATOM      2  C   UNL     1       8.390 -21.725 -34.851  1.00  0.00     0.000 C 
BRANCH   2   3
ATOM      3  C   UNL     1       7.392 -22.090 -35.962  1.00  0.00     0.000 C 
BRANCH   3   4
ATOM      4  C   UNL     1       6.963 -20.875 -36.806  1.00  0.00     0.000 C 
BRANCH   4   5
ATOM      5  C   UNL     1       7.049 -19.513 -36.089  1.00  0.00     0.006 C 
BRANCH   5   6
ATOM      6  C   UNL     1       5.980 -18.495 -36.518  1.00  0.00     0.053 C 
BRANCH   6   7
ATOM      7  C   UNL     1       5.885 -17.344 -35.566  1.00  0.00     0.041 C 
ATOM      8  O   UNL     1       6.221 -16.187 -35.935  1.00  0.00    -0.550 OA
ATOM      9  O   UNL     1       5.460 -17.553 -34.260  1.00  0.00    -0.550 OA
ENDBRANCH   6   7
ENDBRANCH   5   6
ENDBRANCH   4   5
ENDBRANCH   3   4
ENDBRANCH   2   3
ENDBRANCH   1   2
BRANCH   1  10
ATOM     10  C   UNL     1       9.585 -23.850 -35.769  1.00  0.00     0.000 C 
BRANCH  10  11
ATOM     11  C   UNL     1      10.632 -23.926 -36.895  1.00  0.00    -0.000 C 
BRANCH  11  12
ATOM     12  C   UNL     1      10.740 -22.620 -37.697  1.00  0.00    -0.000 C 
BRANCH  12  13
ATOM     13  C   UNL     1      12.143 -22.010 -37.567  1.00  0.00    -0.000 C 
BRANCH  13  14
ATOM     14  C   UNL     1      12.136 -20.472 -37.620  1.00  0.00    -0.000 C 
BRANCH  14  15
ATOM     15  C   UNL     1      10.951 -19.807 -36.899  1.00  0.00    -0.003 C 
ATOM     16  C   UNL     1      10.194 -18.816 -37.782  1.00  0.00     0.004 C 
ENDBRANCH  14  15
ENDBRANCH  13  14
ENDBRANCH  12  13
ENDBRANCH  11  12
ENDBRANCH  10  11
ENDBRANCH   1  10
TORSDOF 12
ENDMDL
MODEL 4
REMARK VINA RESULT:    -3.656     10.731     12.661
REMARK INTER + INTRA:          -7.877
REMARK INTER:                  -5.846
REMARK INTRA:                  -2.032
REMARK UNBOUND:                -1.656
REMARK SMILES CCCCCCCCCCCCCC(=O)[O-]
REMARK SMILES IDX 8 1 9 2 10 3 11 4 12 5 13 6 14 7 15 8 16 9 7 10 6 11 5 12
REMARK SMILES IDX 4 13 3 14 2 15 1 16
REMARK H PARENT
REMARK Flexibility Score: inf
ROOT
ATOM      1  C   UNL     1      10.487 -24.298 -36.787  1.00  0.00     0.000 C 
ENDROOT
BRANCH   1   2
ATOM      2  C   UNL     1      10.003 -23.843 -38.176  1.00  0.00     0.000 C 
BRANCH   2   3
ATOM      3  C   UNL     1      10.488 -22.430 -38.544  1.00  0.00     0.000 C 
BRANCH   3   4
ATOM      4  C   UNL     1      11.763 -22.017 -37.784  1.00  0.00     0.000 C 
BRANCH   4   5
ATOM      5  C   UNL     1      11.696 -20.646 -37.082  1.00  0.00     0.006 C 
BRANCH   5   6
ATOM      6  C   UNL     1      10.460 -19.804 -37.438  1.00  0.00     0.053 C 
BRANCH   6   7
ATOM      7  C   UNL     1      10.818 -18.587 -38.233  1.00  0.00     0.041 C 
ATOM      8  O   UNL     1       9.933 -17.740 -38.526  1.00  0.00    -0.550 OA
ATOM      9  O   UNL     1      12.120 -18.405 -38.681  1.00  0.00    -0.550 OA
ENDBRANCH   6   7
ENDBRANCH   5   6
ENDBRANCH   4   5
ENDBRANCH   3   4
ENDBRANCH   2   3
ENDBRANCH   1   2
BRANCH   1  10
ATOM     10  C   UNL     1       9.475 -24.107 -35.639  1.00  0.00     0.000 C 
BRANCH  10  11
ATOM     11  C   UNL     1       9.717 -22.872 -34.753  1.00  0.00    -0.000 C 
BRANCH  11  12
ATOM     12  C   UNL     1       8.624 -21.803 -34.910  1.00  0.00    -0.000 C 
BRANCH  12  13
ATOM     13  C   UNL     1       7.523 -22.281 -35.867  1.00  0.00    -0.000 C 
BRANCH  13  14
ATOM     14  C   UNL     1       7.013 -21.167 -36.798  1.00  0.00    -0.000 C 
BRANCH  14  15
ATOM     15  C   UNL     1       6.968 -19.765 -36.165  1.00  0.00    -0.003 C 
ATOM     16  C   UNL     1       6.694 -18.658 -37.182  1.00  0.00     0.004 C 
ENDBRANCH  14  15
ENDBRANCH  13  14
ENDBRANCH  12  13
ENDBRANCH  11  12
ENDBRANCH  10  11
ENDBRANCH   1  10
TORSDOF 12
ENDMDL
MODEL 5
REMARK VINA RESULT:    -3.646     11.049     13.333
REMARK INTER + INTRA:          -7.860
REMARK INTER:                  -5.968
REMARK INTRA:                  -1.893
REMARK UNBOUND:                -1.656
REMARK SMILES CCCCCCCCCCCCCC(=O)[O-]
REMARK SMILES IDX 8 1 9 2 10 3 11 4 12 5 13 6 14 7 15 8 16 9 7 10 6 11 5 12
REMARK SMILES IDX 4 13 3 14 2 15 1 16
REMARK H PARENT
REMARK Flexibility Score: inf
ROOT
ATOM      1  C   UNL     1      10.586 -22.433 -38.654  1.00  0.00     0.000 C 
ENDROOT
BRANCH   1   2
ATOM      2  C   UNL     1      10.683 -20.942 -39.027  1.00  0.00     0.000 C 
BRANCH   2   3
ATOM      3  C   UNL     1      10.330 -20.010 -37.856  1.00  0.00     0.000 C 
BRANCH   3   4
ATOM      4  C   UNL     1      11.466 -19.030 -37.507  1.00  0.00     0.000 C 
BRANCH   4   5
ATOM      5  C   UNL     1      12.856 -19.412 -38.053  1.00  0.00     0.006 C 
BRANCH   5   6
ATOM      6  C   UNL     1      13.746 -20.176 -37.060  1.00  0.00     0.053 C 
BRANCH   6   7
ATOM      7  C   UNL     1      14.446 -21.331 -37.706  1.00  0.00     0.041 C 
ATOM      8  O   UNL     1      15.327 -21.971 -37.074  1.00  0.00    -0.550 OA
ATOM      9  O   UNL     1      14.150 -21.680 -39.018  1.00  0.00    -0.550 OA
ENDBRANCH   6   7
ENDBRANCH   5   6
ENDBRANCH   4   5
ENDBRANCH   3   4
ENDBRANCH   2   3
ENDBRANCH   1   2
BRANCH   1  10
ATOM     10  C   UNL     1      11.086 -22.794 -37.241  1.00  0.00     0.000 C 
BRANCH  10  11
ATOM     11  C   UNL     1      10.465 -24.065 -36.633  1.00  0.00    -0.000 C 
BRANCH  11  12
ATOM     12  C   UNL     1       9.791 -23.809 -35.275  1.00  0.00    -0.000 C 
BRANCH  12  13
ATOM     13  C   UNL     1       9.621 -22.303 -35.024  1.00  0.00    -0.000 C 
BRANCH  13  14
ATOM     14  C   UNL     1       8.148 -21.883 -34.878  1.00  0.00    -0.000 C 
BRANCH  14  15
ATOM     15  C   UNL     1       7.520 -21.278 -36.147  1.00  0.00    -0.003 C 
ATOM     16  C   UNL     1       7.075 -22.336 -37.156  1.00  0.00     0.004 C 
ENDBRANCH  14  15
ENDBRANCH  13  14
ENDBRANCH  12  13
ENDBRANCH  11  12
ENDBRANCH  10  11
ENDBRANCH   1  10
TORSDOF 12
ENDMDL
MODEL 6
REMARK VINA RESULT:    -3.594     11.034     13.167
REMARK INTER + INTRA:          -7.772
REMARK INTER:                  -6.087
REMARK INTRA:                  -1.686
REMARK UNBOUND:                -1.656
REMARK SMILES CCCCCCCCCCCCCC(=O)[O-]
REMARK SMILES IDX 8 1 9 2 10 3 11 4 12 5 13 6 14 7 15 8 16 9 7 10 6 11 5 12
REMARK SMILES IDX 4 13 3 14 2 15 1 16
REMARK H PARENT
REMARK Flexibility Score: inf
ROOT
ATOM      1  C   UNL     1       9.146 -24.124 -37.053  1.00  0.00     0.000 C 
ENDROOT
BRANCH   1   2
ATOM      2  C   UNL     1      10.004 -23.118 -37.842  1.00  0.00     0.000 C 
BRANCH   2   3
ATOM      3  C   UNL     1      11.454 -23.594 -38.035  1.00  0.00     0.000 C 
BRANCH   3   4
ATOM      4  C   UNL     1      12.477 -22.445 -37.954  1.00  0.00     0.000 C 
BRANCH   4   5
ATOM      5  C   UNL     1      11.984 -21.173 -37.235  1.00  0.00     0.006 C 
BRANCH   5   6
ATOM      6  C   UNL     1      13.021 -20.042 -37.152  1.00  0.00     0.053 C 
BRANCH   6   7
ATOM      7  C   UNL     1      13.182 -19.329 -38.458  1.00  0.00     0.041 C 
ATOM      8  O   UNL     1      12.354 -18.444 -38.802  1.00  0.00    -0.550 OA
ATOM      9  O   UNL     1      14.225 -19.665 -39.312  1.00  0.00    -0.550 OA
ENDBRANCH   6   7
ENDBRANCH   5   6
ENDBRANCH   4   5
ENDBRANCH   3   4
ENDBRANCH   2   3
ENDBRANCH   1   2
BRANCH   1  10
ATOM     10  C   UNL     1       9.409 -24.168 -35.534  1.00  0.00     0.000 C 
BRANCH  10  11
ATOM     11  C   UNL     1       9.622 -22.797 -34.868  1.00  0.00    -0.000 C 
BRANCH  11  12
ATOM     12  C   UNL     1       8.321 -21.991 -34.734  1.00  0.00    -0.000 C 
BRANCH  12  13
ATOM     13  C   UNL     1       8.435 -20.641 -35.458  1.00  0.00    -0.000 C 
BRANCH  13  14
ATOM     14  C   UNL     1       7.313 -20.416 -36.487  1.00  0.00    -0.000 C 
BRANCH  14  15
ATOM     15  C   UNL     1       6.400 -21.632 -36.722  1.00  0.00    -0.003 C 
ATOM     16  C   UNL     1       6.218 -21.965 -38.203  1.00  0.00     0.004 C 
ENDBRANCH  14  15
ENDBRANCH  13  14
ENDBRANCH  12  13
ENDBRANCH  11  12
ENDBRANCH  10  11
ENDBRANCH   1  10
TORSDOF 12
ENDMDL
MODEL 7
REMARK VINA RESULT:    -3.580     11.595     13.477
REMARK INTER + INTRA:          -7.747
REMARK INTER:                  -6.478
REMARK INTRA:                  -1.269
REMARK UNBOUND:                -1.656
REMARK SMILES CCCCCCCCCCCCCC(=O)[O-]
REMARK SMILES IDX 8 1 9 2 10 3 11 4 12 5 13 6 14 7 15 8 16 9 7 10 6 11 5 12
REMARK SMILES IDX 4 13 3 14 2 15 1 16
REMARK H PARENT
REMARK Flexibility Score: inf
ROOT
ATOM      1  C   UNL     1       5.503 -19.875 -38.161  1.00  0.00     0.000 C 
ENDROOT
BRANCH   1   2
ATOM      2  C   UNL     1       4.831 -18.659 -37.497  1.00  0.00     0.000 C 
BRANCH   2   3
ATOM      3  C   UNL     1       5.841 -17.711 -36.827  1.00  0.00     0.000 C 
BRANCH   3   4
ATOM      4  C   UNL     1       6.040 -18.009 -35.329  1.00  0.00     0.000 C 
BRANCH   4   5
ATOM      5  C   UNL     1       5.318 -17.048 -34.364  1.00  0.00     0.006 C 
BRANCH   5   6
ATOM      6  C   UNL     1       5.141 -15.618 -34.899  1.00  0.00     0.053 C 
BRANCH   6   7
ATOM      7  C   UNL     1       3.697 -15.237 -35.020  1.00  0.00     0.041 C 
ATOM      8  O   UNL     1       2.959 -15.814 -35.861  1.00  0.00    -0.550 OA
ATOM      9  O   UNL     1       3.176 -14.221 -34.229  1.00  0.00    -0.550 OA
ENDBRANCH   6   7
ENDBRANCH   5   6
ENDBRANCH   4   5
ENDBRANCH   3   4
ENDBRANCH   2   3
ENDBRANCH   1   2
BRANCH   1  10
ATOM     10  C   UNL     1       5.304 -21.219 -37.433  1.00  0.00     0.000 C 
BRANCH  10  11
ATOM     11  C   UNL     1       6.553 -21.766 -36.717  1.00  0.00    -0.000 C 
BRANCH  11  12
ATOM     12  C   UNL     1       7.778 -20.852 -36.874  1.00  0.00    -0.000 C 
BRANCH  12  13
ATOM     13  C   UNL     1       8.626 -20.847 -35.594  1.00  0.00    -0.000 C 
BRANCH  13  14
ATOM     14  C   UNL     1       8.458 -22.130 -34.759  1.00  0.00    -0.000 C 
BRANCH  14  15
ATOM     15  C   UNL     1       9.630 -23.122 -34.856  1.00  0.00    -0.003 C 
ATOM     16  C   UNL     1       9.436 -24.170 -35.951  1.00  0.00     0.004 C 
ENDBRANCH  14  15
ENDBRANCH  13  14
ENDBRANCH  12  13
ENDBRANCH  11  12
ENDBRANCH  10  11
ENDBRANCH   1  10
TORSDOF 12
ENDMDL
MODEL 8
REMARK VINA RESULT:    -3.565      3.568      4.786
REMARK INTER + INTRA:          -7.722
REMARK INTER:                  -6.424
REMARK INTRA:                  -1.298
REMARK UNBOUND:                -1.656
REMARK SMILES CCCCCCCCCCCCCC(=O)[O-]
REMARK SMILES IDX 8 1 9 2 10 3 11 4 12 5 13 6 14 7 15 8 16 9 7 10 6 11 5 12
REMARK SMILES IDX 4 13 3 14 2 15 1 16
REMARK H PARENT
REMARK Flexibility Score: inf
ROOT
ATOM      1  C   UNL     1      11.526 -14.412 -44.998  1.00  0.00     0.000 C 
ENDROOT
BRANCH   1   2
ATOM      2  C   UNL     1      11.924 -13.972 -46.419  1.00  0.00     0.000 C 
BRANCH   2   3
ATOM      3  C   UNL     1      13.441 -13.773 -46.580  1.00  0.00     0.000 C 
BRANCH   3   4
ATOM      4  C   UNL     1      14.253 -14.412 -45.438  1.00  0.00     0.000 C 
BRANCH   4   5
ATOM      5  C   UNL     1      15.587 -13.714 -45.108  1.00  0.00     0.006 C 
BRANCH   5   6
ATOM      6  C   UNL     1      15.460 -12.221 -44.765  1.00  0.00     0.053 C 
BRANCH   6   7
ATOM      7  C   UNL     1      16.463 -11.792 -43.739  1.00  0.00     0.041 C 
ATOM      8  O   UNL     1      17.681 -11.699 -44.045  1.00  0.00    -0.550 OA
ATOM      9  O   UNL     1      16.059 -11.530 -42.436  1.00  0.00    -0.550 OA
ENDBRANCH   6   7
ENDBRANCH   5   6
ENDBRANCH   4   5
ENDBRANCH   3   4
ENDBRANCH   2   3
ENDBRANCH   1   2
BRANCH   1  10
ATOM     10  C   UNL     1      10.992 -13.290 -44.085  1.00  0.00     0.000 C 
BRANCH  10  11
ATOM     11  C   UNL     1      12.049 -12.614 -43.193  1.00  0.00    -0.000 C 
BRANCH  11  12
ATOM     12  C   UNL     1      11.808 -11.106 -43.021  1.00  0.00    -0.000 C 
BRANCH  12  13
ATOM     13  C   UNL     1      12.275 -10.332 -44.262  1.00  0.00    -0.000 C 
BRANCH  13  14
ATOM     14  C   UNL     1      11.664  -8.923 -44.355  1.00  0.00    -0.000 C 
BRANCH  14  15
ATOM     15  C   UNL     1      10.840  -8.494 -43.128  1.00  0.00    -0.003 C 
ATOM     16  C   UNL     1       9.703  -7.535 -43.477  1.00  0.00     0.004 C 
ENDBRANCH  14  15
ENDBRANCH  13  14
ENDBRANCH  12  13
ENDBRANCH  11  12
ENDBRANCH  10  11
ENDBRANCH   1  10
TORSDOF 12
ENDMDL
MODEL 9
REMARK VINA RESULT:    -3.548     11.695     12.990
REMARK INTER + INTRA:          -7.694
REMARK INTER:                  -6.486
REMARK INTRA:                  -1.208
REMARK UNBOUND:                -1.656
REMARK SMILES CCCCCCCCCCCCCC(=O)[O-]
REMARK SMILES IDX 8 1 9 2 10 3 11 4 12 5 13 6 14 7 15 8 16 9 7 10 6 11 5 12
REMARK SMILES IDX 4 13 3 14 2 15 1 16
REMARK H PARENT
REMARK Flexibility Score: inf
ROOT
ATOM      1  C   UNL     1       7.271 -22.323 -36.830  1.00  0.00     0.000 C 
ENDROOT
BRANCH   1   2
ATOM      2  C   UNL     1       7.826 -22.381 -35.395  1.00  0.00     0.000 C 
BRANCH   2   3
ATOM      3  C   UNL     1       9.362 -22.301 -35.346  1.00  0.00     0.000 C 
BRANCH   3   4
ATOM      4  C   UNL     1       9.883 -20.857 -35.226  1.00  0.00     0.000 C 
BRANCH   4   5
ATOM      5  C   UNL     1      10.404 -20.234 -36.536  1.00  0.00     0.006 C 
BRANCH   5   6
ATOM      6  C   UNL     1      11.100 -21.224 -37.484  1.00  0.00     0.053 C 
BRANCH   6   7
ATOM      7  C   UNL     1      12.591 -21.111 -37.419  1.00  0.00     0.041 C 
ATOM      8  O   UNL     1      13.315 -22.090 -37.743  1.00  0.00    -0.550 OA
ATOM      9  O   UNL     1      13.182 -19.938 -36.967  1.00  0.00    -0.550 OA
ENDBRANCH   6   7
ENDBRANCH   5   6
ENDBRANCH   4   5
ENDBRANCH   3   4
ENDBRANCH   2   3
ENDBRANCH   1   2
BRANCH   1  10
ATOM     10  C   UNL     1       5.949 -21.546 -36.996  1.00  0.00     0.000 C 
BRANCH  10  11
ATOM     11  C   UNL     1       6.062 -20.221 -37.771  1.00  0.00    -0.000 C 
BRANCH  11  12
ATOM     12  C   UNL     1       7.008 -19.215 -37.097  1.00  0.00    -0.000 C 
BRANCH  12  13
ATOM     13  C   UNL     1       6.393 -18.670 -35.799  1.00  0.00    -0.000 C 
BRANCH  13  14
ATOM     14  C   UNL     1       5.857 -17.235 -35.946  1.00  0.00    -0.000 C 
BRANCH  14  15
ATOM     15  C   UNL     1       4.693 -16.881 -35.004  1.00  0.00    -0.003 C 
ATOM     16  C   UNL     1       5.161 -16.353 -33.648  1.00  0.00     0.004 C 
ENDBRANCH  14  15
ENDBRANCH  13  14
ENDBRANCH  12  13
ENDBRANCH  11  12
ENDBRANCH  10  11
ENDBRANCH   1  10
TORSDOF 12
ENDMDL
