MODEL 1
REMARK VINA RESULT:    -5.113      0.000      0.000
REMARK INTER + INTRA:          -5.412
REMARK INTER:                  -5.412
REMARK INTRA:                   0.000
REMARK UNBOUND:                 0.000
REMARK SMILES O=c1ccc2cc(O)c(O)cc2o1
REMARK SMILES IDX 4 1 3 2 2 3 1 4 13 5 12 6 11 7 9 8 7 9 6 10 5 11 8 12 10 14
REMARK H PARENT 8 13 10 15
REMARK Flexibility Score: inf
ROOT
ATOM      1  C   UNL     1      18.093 -22.114 -38.130  1.00  0.00     0.019 A 
ATOM      2  C   UNL     1      18.576 -22.835 -37.037  1.00  0.00     0.094 A 
ATOM      3  C   UNL     1      17.691 -23.185 -36.012  1.00  0.00     0.336 A 
ATOM      4  O   UNL     1      18.108 -23.836 -35.018  1.00  0.00    -0.246 OA
ATOM      5  O   UNL     1      16.410 -22.834 -36.079  1.00  0.00    -0.423 OA
ATOM      6  C   UNL     1      15.908 -22.146 -37.103  1.00  0.00     0.142 A 
ATOM      7  C   UNL     1      14.552 -21.805 -37.118  1.00  0.00     0.098 A 
ATOM      8  C   UNL     1      14.018 -21.081 -38.194  1.00  0.00     0.161 A 
ATOM      9  C   UNL     1      14.848 -20.696 -39.262  1.00  0.00     0.158 A 
ATOM     10  C   UNL     1      16.207 -21.035 -39.249  1.00  0.00     0.062 A 
ATOM     11  C   UNL     1      16.742 -21.759 -38.174  1.00  0.00     0.022 A 
ENDROOT
BRANCH   9  12
ATOM     12  O   UNL     1      14.343 -19.974 -40.343  1.00  0.00    -0.504 OA
ATOM     13  H   UNL     1      13.518 -19.393 -40.264  1.00  0.00     0.293 HD
ENDBRANCH   9  12
BRANCH   8  14
ATOM     14  O   UNL     1      12.665 -20.743 -38.206  1.00  0.00    -0.504 OA
ATOM     15  H   UNL     1      12.035 -21.097 -38.916  1.00  0.00     0.293 HD
ENDBRANCH   8  14
TORSDOF 2
ENDMDL
MODEL 2
REMARK VINA RESULT:    -5.015      1.028      2.233
REMARK INTER + INTRA:          -5.308
REMARK INTER:                  -5.308
REMARK INTRA:                   0.000
REMARK UNBOUND:                 0.000
REMARK SMILES O=c1ccc2cc(O)c(O)cc2o1
REMARK SMILES IDX 4 1 3 2 2 3 1 4 13 5 12 6 11 7 9 8 7 9 6 10 5 11 8 12 10 14
REMARK H PARENT 8 13 10 15
REMARK Flexibility Score: inf
ROOT
ATOM      1  C   UNL     1      15.898 -22.877 -35.894  1.00  0.00     0.019 A 
ATOM      2  C   UNL     1      17.250 -23.182 -35.729  1.00  0.00     0.094 A 
ATOM      3  C   UNL     1      18.165 -22.747 -36.694  1.00  0.00     0.336 A 
ATOM      4  O   UNL     1      19.389 -23.012 -36.562  1.00  0.00    -0.246 OA
ATOM      5  O   UNL     1      17.751 -22.053 -37.750  1.00  0.00    -0.423 OA
ATOM      6  C   UNL     1      16.472 -21.741 -37.946  1.00  0.00     0.142 A 
ATOM      7  C   UNL     1      16.096 -21.010 -39.077  1.00  0.00     0.098 A 
ATOM      8  C   UNL     1      14.749 -20.677 -39.288  1.00  0.00     0.161 A 
ATOM      9  C   UNL     1      13.773 -21.080 -38.359  1.00  0.00     0.158 A 
ATOM     10  C   UNL     1      14.147 -21.814 -37.226  1.00  0.00     0.062 A 
ATOM     11  C   UNL     1      15.492 -22.147 -37.015  1.00  0.00     0.022 A 
ENDROOT
BRANCH   9  12
ATOM     12  O   UNL     1      12.428 -20.764 -38.546  1.00  0.00    -0.504 OA
ATOM     13  H   UNL     1      12.131 -19.869 -38.915  1.00  0.00     0.293 HD
ENDBRANCH   9  12
BRANCH   8  14
ATOM     14  O   UNL     1      14.379 -19.947 -40.417  1.00  0.00    -0.504 OA
ATOM     15  H   UNL     1      13.993 -19.013 -40.343  1.00  0.00     0.293 HD
ENDBRANCH   8  14
TORSDOF 2
ENDMDL
MODEL 3
REMARK VINA RESULT:    -4.961      2.652      4.044
REMARK INTER + INTRA:          -5.251
REMARK INTER:                  -5.251
REMARK INTRA:                   0.000
REMARK UNBOUND:                 0.000
REMARK SMILES O=c1ccc2cc(O)c(O)cc2o1
REMARK SMILES IDX 4 1 3 2 2 3 1 4 13 5 12 6 11 7 9 8 7 9 6 10 5 11 8 12 10 14
REMARK H PARENT 8 13 10 15
REMARK Flexibility Score: inf
ROOT
ATOM      1  C   UNL     1      14.086 -24.195 -36.438  1.00  0.00     0.019 A 
ATOM      2  C   UNL     1      12.920 -24.376 -35.694  1.00  0.00     0.094 A 
ATOM      3  C   UNL     1      11.847 -23.499 -35.890  1.00  0.00     0.336 A 
ATOM      4  O   UNL     1      10.787 -23.646 -35.228  1.00  0.00    -0.246 OA
ATOM      5  O   UNL     1      11.941 -22.508 -36.772  1.00  0.00    -0.423 OA
ATOM      6  C   UNL     1      13.035 -22.299 -37.502  1.00  0.00     0.142 A 
ATOM      7  C   UNL     1      13.075 -21.240 -38.414  1.00  0.00     0.098 A 
ATOM      8  C   UNL     1      14.225 -21.015 -39.186  1.00  0.00     0.161 A 
ATOM      9  C   UNL     1      15.342 -21.858 -39.043  1.00  0.00     0.158 A 
ATOM     10  C   UNL     1      15.304 -22.919 -38.130  1.00  0.00     0.062 A 
ATOM     11  C   UNL     1      14.156 -23.144 -37.358  1.00  0.00     0.022 A 
ENDROOT
BRANCH   9  12
ATOM     12  O   UNL     1      16.497 -21.656 -39.797  1.00  0.00    -0.504 OA
ATOM     13  H   UNL     1      17.220 -21.008 -39.511  1.00  0.00     0.293 HD
ENDBRANCH   9  12
BRANCH   8  14
ATOM     14  O   UNL     1      14.260 -19.958 -40.094  1.00  0.00    -0.504 OA
ATOM     15  H   UNL     1      15.046 -19.320 -40.137  1.00  0.00     0.293 HD
ENDBRANCH   8  14
TORSDOF 2
ENDMDL
MODEL 4
REMARK VINA RESULT:    -4.822      2.150      2.776
REMARK INTER + INTRA:          -5.104
REMARK INTER:                  -5.104
REMARK INTRA:                   0.000
REMARK UNBOUND:                 0.000
REMARK SMILES O=c1ccc2cc(O)c(O)cc2o1
REMARK SMILES IDX 4 1 3 2 2 3 1 4 13 5 12 6 11 7 9 8 7 9 6 10 5 11 8 12 10 14
REMARK H PARENT 8 13 10 15
REMARK Flexibility Score: inf
ROOT
ATOM      1  C   UNL     1      16.521 -19.847 -35.658  1.00  0.00     0.019 A 
ATOM      2  C   UNL     1      17.868 -19.969 -35.316  1.00  0.00     0.094 A 
ATOM      3  C   UNL     1      18.755 -20.525 -36.245  1.00  0.00     0.336 A 
ATOM      4  O   UNL     1      19.974 -20.643 -35.955  1.00  0.00    -0.246 OA
ATOM      5  O   UNL     1      18.318 -20.931 -37.434  1.00  0.00    -0.423 OA
ATOM      6  C   UNL     1      17.041 -20.834 -37.800  1.00  0.00     0.142 A 
ATOM      7  C   UNL     1      16.641 -21.278 -39.063  1.00  0.00     0.098 A 
ATOM      8  C   UNL     1      15.297 -21.177 -39.454  1.00  0.00     0.161 A 
ATOM      9  C   UNL     1      14.349 -20.628 -38.573  1.00  0.00     0.158 A 
ATOM     10  C   UNL     1      14.748 -20.183 -37.307  1.00  0.00     0.062 A 
ATOM     11  C   UNL     1      16.090 -20.283 -36.915  1.00  0.00     0.022 A 
ENDROOT
BRANCH   9  12
ATOM     12  O   UNL     1      13.007 -20.517 -38.936  1.00  0.00    -0.504 OA
ATOM     13  H   UNL     1      12.549 -19.620 -39.035  1.00  0.00     0.293 HD
ENDBRANCH   9  12
BRANCH   8  14
ATOM     14  O   UNL     1      14.902 -21.622 -40.716  1.00  0.00    -0.504 OA
ATOM     15  H   UNL     1      13.950 -21.915 -40.901  1.00  0.00     0.293 HD
ENDBRANCH   8  14
TORSDOF 2
ENDMDL
MODEL 5
REMARK VINA RESULT:    -4.803     13.709     14.643
REMARK INTER + INTRA:          -5.084
REMARK INTER:                  -5.084
REMARK INTRA:                   0.000
REMARK UNBOUND:                 0.000
REMARK SMILES O=c1ccc2cc(O)c(O)cc2o1
REMARK SMILES IDX 4 1 3 2 2 3 1 4 13 5 12 6 11 7 9 8 7 9 6 10 5 11 8 12 10 14
REMARK H PARENT 8 13 10 15
REMARK Flexibility Score: inf
ROOT
ATOM      1  C   UNL     1      12.602 -22.485 -23.845  1.00  0.00     0.019 A 
ATOM      2  C   UNL     1      11.579 -21.630 -24.255  1.00  0.00     0.094 A 
ATOM      3  C   UNL     1      11.896 -20.315 -24.612  1.00  0.00     0.336 A 
ATOM      4  O   UNL     1      10.986 -19.529 -24.985  1.00  0.00    -0.246 OA
ATOM      5  O   UNL     1      13.155 -19.889 -24.562  1.00  0.00    -0.423 OA
ATOM      6  C   UNL     1      14.162 -20.671 -24.177  1.00  0.00     0.142 A 
ATOM      7  C   UNL     1      15.465 -20.167 -24.143  1.00  0.00     0.098 A 
ATOM      8  C   UNL     1      16.529 -20.987 -23.738  1.00  0.00     0.161 A 
ATOM      9  C   UNL     1      16.285 -22.321 -23.364  1.00  0.00     0.158 A 
ATOM     10  C   UNL     1      14.980 -22.828 -23.397  1.00  0.00     0.062 A 
ATOM     11  C   UNL     1      13.916 -22.010 -23.801  1.00  0.00     0.022 A 
ENDROOT
BRANCH   9  12
ATOM     12  O   UNL     1      17.324 -23.157 -22.957  1.00  0.00    -0.504 OA
ATOM     13  H   UNL     1      17.753 -23.827 -23.584  1.00  0.00     0.293 HD
ENDBRANCH   9  12
BRANCH   8  14
ATOM     14  O   UNL     1      17.828 -20.480 -23.706  1.00  0.00    -0.504 OA
ATOM     15  H   UNL     1      18.009 -19.490 -23.595  1.00  0.00     0.293 HD
ENDBRANCH   8  14
TORSDOF 2
ENDMDL
MODEL 6
REMARK VINA RESULT:    -4.791      3.840      6.847
REMARK INTER + INTRA:          -5.071
REMARK INTER:                  -5.071
REMARK INTRA:                   0.000
REMARK UNBOUND:                 0.000
REMARK SMILES O=c1ccc2cc(O)c(O)cc2o1
REMARK SMILES IDX 4 1 3 2 2 3 1 4 13 5 12 6 11 7 9 8 7 9 6 10 5 11 8 12 10 14
REMARK H PARENT 8 13 10 15
REMARK Flexibility Score: inf
ROOT
ATOM      1  C   UNL     1      21.065 -22.280 -35.831  1.00  0.00     0.019 A 
ATOM      2  C   UNL     1      20.333 -21.747 -36.893  1.00  0.00     0.094 A 
ATOM      3  C   UNL     1      19.230 -22.457 -37.380  1.00  0.00     0.336 A 
ATOM      4  O   UNL     1      18.557 -21.992 -38.337  1.00  0.00    -0.246 OA
ATOM      5  O   UNL     1      18.886 -23.621 -36.836  1.00  0.00    -0.423 OA
ATOM      6  C   UNL     1      19.556 -24.165 -35.822  1.00  0.00     0.142 A 
ATOM      7  C   UNL     1      19.147 -25.393 -35.293  1.00  0.00     0.098 A 
ATOM      8  C   UNL     1      19.849 -25.970 -34.224  1.00  0.00     0.161 A 
ATOM      9  C   UNL     1      20.969 -25.313 -33.684  1.00  0.00     0.158 A 
ATOM     10  C   UNL     1      21.381 -24.084 -34.213  1.00  0.00     0.062 A 
ATOM     11  C   UNL     1      20.680 -23.506 -35.281  1.00  0.00     0.022 A 
ENDROOT
BRANCH   9  12
ATOM     12  O   UNL     1      21.686 -25.866 -32.623  1.00  0.00    -0.504 OA
ATOM     13  H   UNL     1      22.556 -25.465 -32.295  1.00  0.00     0.293 HD
ENDBRANCH   9  12
BRANCH   8  14
ATOM     14  O   UNL     1      19.438 -27.195 -33.699  1.00  0.00    -0.504 OA
ATOM     15  H   UNL     1      19.356 -27.344 -32.700  1.00  0.00     0.293 HD
ENDBRANCH   8  14
TORSDOF 2
ENDMDL
MODEL 7
REMARK VINA RESULT:    -4.783      2.312      2.398
REMARK INTER + INTRA:          -5.063
REMARK INTER:                  -5.063
REMARK INTRA:                   0.000
REMARK UNBOUND:                 0.000
REMARK SMILES O=c1ccc2cc(O)c(O)cc2o1
REMARK SMILES IDX 4 1 3 2 2 3 1 4 13 5 12 6 11 7 9 8 7 9 6 10 5 11 8 12 10 14
REMARK H PARENT 8 13 10 15
REMARK Flexibility Score: inf
ROOT
ATOM      1  C   UNL     1      18.317 -20.698 -37.229  1.00  0.00     0.019 A 
ATOM      2  C   UNL     1      18.620 -20.132 -35.990  1.00  0.00     0.094 A 
ATOM      3  C   UNL     1      17.592 -19.550 -35.241  1.00  0.00     0.336 A 
ATOM      4  O   UNL     1      17.845 -19.034 -34.121  1.00  0.00    -0.246 OA
ATOM      5  O   UNL     1      16.345 -19.538 -35.705  1.00  0.00    -0.423 OA
ATOM      6  C   UNL     1      16.012 -20.066 -36.881  1.00  0.00     0.142 A 
ATOM      7  C   UNL     1      14.684 -20.023 -37.316  1.00  0.00     0.098 A 
ATOM      8  C   UNL     1      14.328 -20.579 -38.554  1.00  0.00     0.161 A 
ATOM      9  C   UNL     1      15.310 -21.181 -39.361  1.00  0.00     0.158 A 
ATOM     10  C   UNL     1      16.641 -21.225 -38.928  1.00  0.00     0.062 A 
ATOM     11  C   UNL     1      16.998 -20.670 -37.691  1.00  0.00     0.022 A 
ENDROOT
BRANCH   9  12
ATOM     12  O   UNL     1      14.983 -21.740 -40.596  1.00  0.00    -0.504 OA
ATOM     13  H   UNL     1      14.543 -21.201 -41.332  1.00  0.00     0.293 HD
ENDBRANCH   9  12
BRANCH   8  14
ATOM     14  O   UNL     1      13.002 -20.534 -38.984  1.00  0.00    -0.504 OA
ATOM     15  H   UNL     1      12.505 -19.656 -39.079  1.00  0.00     0.293 HD
ENDBRANCH   8  14
TORSDOF 2
ENDMDL
MODEL 8
REMARK VINA RESULT:    -4.683      2.907      5.147
REMARK INTER + INTRA:          -4.957
REMARK INTER:                  -4.957
REMARK INTRA:                   0.000
REMARK UNBOUND:                 0.000
REMARK SMILES O=c1ccc2cc(O)c(O)cc2o1
REMARK SMILES IDX 4 1 3 2 2 3 1 4 13 5 12 6 11 7 9 8 7 9 6 10 5 11 8 12 10 14
REMARK H PARENT 8 13 10 15
REMARK Flexibility Score: inf
ROOT
ATOM      1  C   UNL     1      12.437 -19.544 -36.295  1.00  0.00     0.019 A 
ATOM      2  C   UNL     1      11.117 -19.995 -36.325  1.00  0.00     0.094 A 
ATOM      3  C   UNL     1      10.752 -20.959 -37.271  1.00  0.00     0.336 A 
ATOM      4  O   UNL     1       9.566 -21.378 -37.314  1.00  0.00    -0.246 OA
ATOM      5  O   UNL     1      11.651 -21.436 -38.128  1.00  0.00    -0.423 OA
ATOM      6  C   UNL     1      12.920 -21.033 -38.133  1.00  0.00     0.142 A 
ATOM      7  C   UNL     1      13.820 -21.571 -39.058  1.00  0.00     0.098 A 
ATOM      8  C   UNL     1      15.159 -21.150 -39.068  1.00  0.00     0.161 A 
ATOM      9  C   UNL     1      15.598 -20.184 -38.145  1.00  0.00     0.158 A 
ATOM     10  C   UNL     1      14.698 -19.643 -37.218  1.00  0.00     0.062 A 
ATOM     11  C   UNL     1      13.360 -20.063 -37.207  1.00  0.00     0.022 A 
ENDROOT
BRANCH   9  12
ATOM     12  O   UNL     1      16.922 -19.748 -38.134  1.00  0.00    -0.504 OA
ATOM     13  H   UNL     1      17.388 -19.422 -38.972  1.00  0.00     0.293 HD
ENDBRANCH   9  12
BRANCH   8  14
ATOM     14  O   UNL     1      16.053 -21.690 -39.992  1.00  0.00    -0.504 OA
ATOM     15  H   UNL     1      16.372 -21.159 -40.794  1.00  0.00     0.293 HD
ENDBRANCH   8  14
TORSDOF 2
ENDMDL
MODEL 9
REMARK VINA RESULT:    -4.638     14.413     16.341
REMARK INTER + INTRA:          -4.909
REMARK INTER:                  -4.909
REMARK INTRA:                   0.000
REMARK UNBOUND:                 0.000
REMARK SMILES O=c1ccc2cc(O)c(O)cc2o1
REMARK SMILES IDX 4 1 3 2 2 3 1 4 13 5 12 6 11 7 9 8 7 9 6 10 5 11 8 12 10 14
REMARK H PARENT 8 13 10 15
REMARK Flexibility Score: inf
ROOT
ATOM      1  C   UNL     1      23.919 -27.463 -22.481  1.00  0.00     0.019 A 
ATOM      2  C   UNL     1      24.680 -26.294 -22.498  1.00  0.00     0.094 A 
ATOM      3  C   UNL     1      24.635 -25.473 -23.630  1.00  0.00     0.336 A 
ATOM      4  O   UNL     1      25.315 -24.414 -23.665  1.00  0.00    -0.246 OA
ATOM      5  O   UNL     1      23.878 -25.804 -24.672  1.00  0.00    -0.423 OA
ATOM      6  C   UNL     1      23.137 -26.909 -24.697  1.00  0.00     0.142 A 
ATOM      7  C   UNL     1      22.361 -27.205 -25.822  1.00  0.00     0.098 A 
ATOM      8  C   UNL     1      21.577 -28.369 -25.853  1.00  0.00     0.161 A 
ATOM      9  C   UNL     1      21.572 -29.242 -24.751  1.00  0.00     0.158 A 
ATOM     10  C   UNL     1      22.349 -28.948 -23.624  1.00  0.00     0.062 A 
ATOM     11  C   UNL     1      23.133 -27.786 -23.591  1.00  0.00     0.022 A 
ENDROOT
BRANCH   9  12
ATOM     12  O   UNL     1      20.804 -30.405 -24.757  1.00  0.00    -0.504 OA
ATOM     13  H   UNL     1      20.955 -31.146 -25.430  1.00  0.00     0.293 HD
ENDBRANCH   9  12
BRANCH   8  14
ATOM     14  O   UNL     1      20.805 -28.660 -26.977  1.00  0.00    -0.504 OA
ATOM     15  H   UNL     1      21.193 -28.626 -27.912  1.00  0.00     0.293 HD
ENDBRANCH   8  14
TORSDOF 2
ENDMDL
