MODEL 1
REMARK VINA RESULT:    -5.775      0.000      0.000
REMARK INTER + INTRA:          -5.943
REMARK INTER:                  -5.943
REMARK INTRA:                   0.000
REMARK UNBOUND:                 0.000
REMARK SMILES O=c1ccc2ccc(O)cc2o1
REMARK SMILES IDX 6 1 7 2 8 3 10 4 11 5 5 6 4 7 3 8 2 9 1 10 12 11 9 12
REMARK H PARENT 9 13
REMARK Flexibility Score: inf
ROOT
ATOM      1  C   UNL     1     -31.100  -2.893 -18.703  1.00  0.00     0.016 A 
ATOM      2  C   UNL     1     -30.438  -2.470 -19.860  1.00  0.00     0.047 A 
ATOM      3  C   UNL     1     -31.138  -2.339 -21.069  1.00  0.00     0.119 A 
ATOM      4  C   UNL     1     -32.506  -2.634 -21.119  1.00  0.00     0.094 A 
ATOM      5  C   UNL     1     -33.177  -3.059 -19.967  1.00  0.00     0.142 A 
ATOM      6  C   UNL     1     -32.470  -3.188 -18.751  1.00  0.00     0.018 A 
ATOM      7  C   UNL     1     -33.168  -3.615 -17.617  1.00  0.00     0.019 A 
ATOM      8  C   UNL     1     -34.530  -3.897 -17.717  1.00  0.00     0.094 A 
ATOM      9  C   UNL     1     -35.164  -3.745 -18.955  1.00  0.00     0.336 A 
ATOM     10  O   UNL     1     -36.394  -3.994 -19.065  1.00  0.00    -0.246 OA
ATOM     11  O   UNL     1     -34.477  -3.338 -20.019  1.00  0.00    -0.423 OA
ENDROOT
BRANCH   3  12
ATOM     12  O   UNL     1     -30.484  -1.918 -22.225  1.00  0.00    -0.508 OA
ATOM     13  H   UNL     1     -30.285  -0.939 -22.394  1.00  0.00     0.293 HD
ENDBRANCH   3  12
TORSDOF 1
ENDMDL
MODEL 2
REMARK VINA RESULT:    -5.640      7.980      9.272
REMARK INTER + INTRA:          -5.805
REMARK INTER:                  -5.805
REMARK INTRA:                   0.000
REMARK UNBOUND:                 0.000
REMARK SMILES O=c1ccc2ccc(O)cc2o1
REMARK SMILES IDX 6 1 7 2 8 3 10 4 11 5 5 6 4 7 3 8 2 9 1 10 12 11 9 12
REMARK H PARENT 9 13
REMARK Flexibility Score: inf
ROOT
ATOM      1  C   UNL     1     -39.428  -8.471 -14.043  1.00  0.00     0.016 A 
ATOM      2  C   UNL     1     -38.485  -9.114 -14.854  1.00  0.00     0.047 A 
ATOM      3  C   UNL     1     -37.280  -8.474 -15.183  1.00  0.00     0.119 A 
ATOM      4  C   UNL     1     -37.019  -7.187 -14.698  1.00  0.00     0.094 A 
ATOM      5  C   UNL     1     -37.955  -6.536 -13.888  1.00  0.00     0.142 A 
ATOM      6  C   UNL     1     -39.167  -7.183 -13.558  1.00  0.00     0.018 A 
ATOM      7  C   UNL     1     -40.084  -6.506 -12.746  1.00  0.00     0.019 A 
ATOM      8  C   UNL     1     -39.777  -5.225 -12.289  1.00  0.00     0.094 A 
ATOM      9  C   UNL     1     -38.557  -4.648 -12.656  1.00  0.00     0.336 A 
ATOM     10  O   UNL     1     -38.263  -3.492 -12.253  1.00  0.00    -0.246 OA
ATOM     11  O   UNL     1     -37.703  -5.312 -13.430  1.00  0.00    -0.423 OA
ENDROOT
BRANCH   3  12
ATOM     12  O   UNL     1     -36.339  -9.109 -15.989  1.00  0.00    -0.508 OA
ATOM     13  H   UNL     1     -36.552  -9.974 -16.472  1.00  0.00     0.293 HD
ENDBRANCH   3  12
TORSDOF 1
ENDMDL
MODEL 3
REMARK VINA RESULT:    -5.492      7.882      8.718
REMARK INTER + INTRA:          -5.652
REMARK INTER:                  -5.652
REMARK INTRA:                   0.000
REMARK UNBOUND:                 0.000
REMARK SMILES O=c1ccc2ccc(O)cc2o1
REMARK SMILES IDX 6 1 7 2 8 3 10 4 11 5 5 6 4 7 3 8 2 9 1 10 12 11 9 12
REMARK H PARENT 9 13
REMARK Flexibility Score: inf
ROOT
ATOM      1  C   UNL     1     -36.113  -7.631 -14.631  1.00  0.00     0.016 A 
ATOM      2  C   UNL     1     -37.059  -8.511 -15.170  1.00  0.00     0.047 A 
ATOM      3  C   UNL     1     -38.430  -8.248 -15.030  1.00  0.00     0.119 A 
ATOM      4  C   UNL     1     -38.855  -7.101 -14.349  1.00  0.00     0.094 A 
ATOM      5  C   UNL     1     -37.918  -6.217 -13.806  1.00  0.00     0.142 A 
ATOM      6  C   UNL     1     -36.538  -6.483 -13.949  1.00  0.00     0.018 A 
ATOM      7  C   UNL     1     -35.624  -5.580 -13.396  1.00  0.00     0.019 A 
ATOM      8  C   UNL     1     -36.097  -4.452 -12.726  1.00  0.00     0.094 A 
ATOM      9  C   UNL     1     -37.478  -4.253 -12.625  1.00  0.00     0.336 A 
ATOM     10  O   UNL     1     -37.924  -3.240 -12.024  1.00  0.00    -0.246 OA
ATOM     11  O   UNL     1     -38.326  -5.128 -13.159  1.00  0.00    -0.423 OA
ENDROOT
BRANCH   3  12
ATOM     12  O   UNL     1     -39.376  -9.120 -15.565  1.00  0.00    -0.508 OA
ATOM     13  H   UNL     1     -39.574 -10.015 -15.134  1.00  0.00     0.293 HD
ENDBRANCH   3  12
TORSDOF 1
ENDMDL
MODEL 4
REMARK VINA RESULT:    -5.429      6.817      7.818
REMARK INTER + INTRA:          -5.587
REMARK INTER:                  -5.587
REMARK INTRA:                   0.000
REMARK UNBOUND:                 0.000
REMARK SMILES O=c1ccc2ccc(O)cc2o1
REMARK SMILES IDX 6 1 7 2 8 3 10 4 11 5 5 6 4 7 3 8 2 9 1 10 12 11 9 12
REMARK H PARENT 9 13
REMARK Flexibility Score: inf
ROOT
ATOM      1  C   UNL     1     -36.625  -8.465 -15.168  1.00  0.00     0.016 A 
ATOM      2  C   UNL     1     -35.752  -8.719 -14.105  1.00  0.00     0.047 A 
ATOM      3  C   UNL     1     -35.316  -7.671 -13.280  1.00  0.00     0.119 A 
ATOM      4  C   UNL     1     -35.755  -6.364 -13.522  1.00  0.00     0.094 A 
ATOM      5  C   UNL     1     -36.628  -6.099 -14.583  1.00  0.00     0.142 A 
ATOM      6  C   UNL     1     -37.066  -7.157 -15.411  1.00  0.00     0.018 A 
ATOM      7  C   UNL     1     -37.938  -6.861 -16.464  1.00  0.00     0.019 A 
ATOM      8  C   UNL     1     -38.348  -5.544 -16.664  1.00  0.00     0.094 A 
ATOM      9  C   UNL     1     -37.873  -4.548 -15.803  1.00  0.00     0.336 A 
ATOM     10  O   UNL     1     -38.232  -3.352 -15.968  1.00  0.00    -0.246 OA
ATOM     11  O   UNL     1     -37.043  -4.855 -14.809  1.00  0.00    -0.423 OA
ENDROOT
BRANCH   3  12
ATOM     12  O   UNL     1     -34.446  -7.918 -12.220  1.00  0.00    -0.508 OA
ATOM     13  H   UNL     1     -34.595  -7.507 -11.306  1.00  0.00     0.293 HD
ENDBRANCH   3  12
TORSDOF 1
ENDMDL
MODEL 5
REMARK VINA RESULT:    -5.268      4.423      6.475
REMARK INTER + INTRA:          -5.422
REMARK INTER:                  -5.422
REMARK INTRA:                   0.000
REMARK UNBOUND:                 0.000
REMARK SMILES O=c1ccc2ccc(O)cc2o1
REMARK SMILES IDX 6 1 7 2 8 3 10 4 11 5 5 6 4 7 3 8 2 9 1 10 12 11 9 12
REMARK H PARENT 9 13
REMARK Flexibility Score: inf
ROOT
ATOM      1  C   UNL     1     -36.051  -5.877 -13.939  1.00  0.00     0.016 A 
ATOM      2  C   UNL     1     -36.075  -7.256 -14.173  1.00  0.00     0.047 A 
ATOM      3  C   UNL     1     -36.089  -7.753 -15.485  1.00  0.00     0.119 A 
ATOM      4  C   UNL     1     -36.078  -6.864 -16.567  1.00  0.00     0.094 A 
ATOM      5  C   UNL     1     -36.055  -5.483 -16.344  1.00  0.00     0.142 A 
ATOM      6  C   UNL     1     -36.040  -4.987 -15.022  1.00  0.00     0.018 A 
ATOM      7  C   UNL     1     -36.017  -3.601 -14.830  1.00  0.00     0.019 A 
ATOM      8  C   UNL     1     -36.007  -2.758 -15.940  1.00  0.00     0.094 A 
ATOM      9  C   UNL     1     -36.022  -3.321 -17.221  1.00  0.00     0.336 A 
ATOM     10  O   UNL     1     -36.013  -2.575 -18.236  1.00  0.00    -0.246 OA
ATOM     11  O   UNL     1     -36.045  -4.643 -17.376  1.00  0.00    -0.423 OA
ENDROOT
BRANCH   3  12
ATOM     12  O   UNL     1     -36.112  -9.125 -15.723  1.00  0.00    -0.508 OA
ATOM     13  H   UNL     1     -35.937  -9.506 -16.645  1.00  0.00     0.293 HD
ENDBRANCH   3  12
TORSDOF 1
ENDMDL
MODEL 6
REMARK VINA RESULT:    -5.268      8.309      9.538
REMARK INTER + INTRA:          -5.422
REMARK INTER:                  -5.422
REMARK INTRA:                   0.000
REMARK UNBOUND:                 0.000
REMARK SMILES O=c1ccc2ccc(O)cc2o1
REMARK SMILES IDX 6 1 7 2 8 3 10 4 11 5 5 6 4 7 3 8 2 9 1 10 12 11 9 12
REMARK H PARENT 9 13
REMARK Flexibility Score: inf
ROOT
ATOM      1  C   UNL     1     -40.127  -6.234 -12.586  1.00  0.00     0.016 A 
ATOM      2  C   UNL     1     -39.750  -4.934 -12.232  1.00  0.00     0.047 A 
ATOM      3  C   UNL     1     -38.522  -4.410 -12.664  1.00  0.00     0.119 A 
ATOM      4  C   UNL     1     -37.670  -5.192 -13.454  1.00  0.00     0.094 A 
ATOM      5  C   UNL     1     -38.037  -6.493 -13.812  1.00  0.00     0.142 A 
ATOM      6  C   UNL     1     -39.274  -7.017 -13.376  1.00  0.00     0.018 A 
ATOM      7  C   UNL     1     -39.614  -8.321 -13.751  1.00  0.00     0.019 A 
ATOM      8  C   UNL     1     -38.731  -9.059 -14.538  1.00  0.00     0.094 A 
ATOM      9  C   UNL     1     -37.523  -8.474 -14.933  1.00  0.00     0.336 A 
ATOM     10  O   UNL     1     -36.713  -9.125 -15.644  1.00  0.00    -0.246 OA
ATOM     11  O   UNL     1     -37.223  -7.232 -14.562  1.00  0.00    -0.423 OA
ENDROOT
BRANCH   3  12
ATOM     12  O   UNL     1     -38.142  -3.117 -12.315  1.00  0.00    -0.508 OA
ATOM     13  H   UNL     1     -37.743  -2.909 -11.407  1.00  0.00     0.293 HD
ENDBRANCH   3  12
TORSDOF 1
ENDMDL
MODEL 7
REMARK VINA RESULT:    -5.244      5.762      8.969
REMARK INTER + INTRA:          -5.397
REMARK INTER:                  -5.397
REMARK INTRA:                   0.000
REMARK UNBOUND:                 0.000
REMARK SMILES O=c1ccc2ccc(O)cc2o1
REMARK SMILES IDX 6 1 7 2 8 3 10 4 11 5 5 6 4 7 3 8 2 9 1 10 12 11 9 12
REMARK H PARENT 9 13
REMARK Flexibility Score: inf
ROOT
ATOM      1  C   UNL     1     -38.808  -8.322 -14.671  1.00  0.00     0.016 A 
ATOM      2  C   UNL     1     -39.647  -7.986 -13.603  1.00  0.00     0.047 A 
ATOM      3  C   UNL     1     -39.559  -6.720 -13.003  1.00  0.00     0.119 A 
ATOM      4  C   UNL     1     -38.628  -5.788 -13.477  1.00  0.00     0.094 A 
ATOM      5  C   UNL     1     -37.784  -6.114 -14.544  1.00  0.00     0.142 A 
ATOM      6  C   UNL     1     -37.876  -7.389 -15.145  1.00  0.00     0.018 A 
ATOM      7  C   UNL     1     -37.019  -7.686 -16.211  1.00  0.00     0.019 A 
ATOM      8  C   UNL     1     -36.109  -6.723 -16.646  1.00  0.00     0.094 A 
ATOM      9  C   UNL     1     -36.076  -5.481 -16.002  1.00  0.00     0.336 A 
ATOM     10  O   UNL     1     -35.260  -4.599 -16.381  1.00  0.00    -0.246 OA
ATOM     11  O   UNL     1     -36.901  -5.224 -14.990  1.00  0.00    -0.423 OA
ENDROOT
BRANCH   3  12
ATOM     12  O   UNL     1     -40.391  -6.381 -11.939  1.00  0.00    -0.508 OA
ATOM     13  H   UNL     1     -41.399  -6.370 -12.038  1.00  0.00     0.293 HD
ENDBRANCH   3  12
TORSDOF 1
ENDMDL
MODEL 8
REMARK VINA RESULT:    -5.213      3.559      4.938
REMARK INTER + INTRA:          -5.365
REMARK INTER:                  -5.365
REMARK INTRA:                   0.000
REMARK UNBOUND:                 0.000
REMARK SMILES O=c1ccc2ccc(O)cc2o1
REMARK SMILES IDX 6 1 7 2 8 3 10 4 11 5 5 6 4 7 3 8 2 9 1 10 12 11 9 12
REMARK H PARENT 9 13
REMARK Flexibility Score: inf
ROOT
ATOM      1  C   UNL     1     -35.694  -3.232 -16.300  1.00  0.00     0.016 A 
ATOM      2  C   UNL     1     -35.535  -2.693 -17.581  1.00  0.00     0.047 A 
ATOM      3  C   UNL     1     -35.566  -3.527 -18.710  1.00  0.00     0.119 A 
ATOM      4  C   UNL     1     -35.758  -4.904 -18.554  1.00  0.00     0.094 A 
ATOM      5  C   UNL     1     -35.917  -5.454 -17.277  1.00  0.00     0.142 A 
ATOM      6  C   UNL     1     -35.885  -4.612 -16.143  1.00  0.00     0.018 A 
ATOM      7  C   UNL     1     -36.048  -5.190 -14.879  1.00  0.00     0.019 A 
ATOM      8  C   UNL     1     -36.235  -6.568 -14.776  1.00  0.00     0.094 A 
ATOM      9  C   UNL     1     -36.256  -7.338 -15.944  1.00  0.00     0.336 A 
ATOM     10  O   UNL     1     -36.424  -8.585 -15.871  1.00  0.00    -0.246 OA
ATOM     11  O   UNL     1     -36.098  -6.764 -17.134  1.00  0.00    -0.423 OA
ENDROOT
BRANCH   3  12
ATOM     12  O   UNL     1     -35.409  -2.995 -19.987  1.00  0.00    -0.508 OA
ATOM     13  H   UNL     1     -34.775  -2.225 -20.166  1.00  0.00     0.293 HD
ENDBRANCH   3  12
TORSDOF 1
ENDMDL
MODEL 9
REMARK VINA RESULT:    -3.276      7.632      9.698
REMARK INTER + INTRA:          -3.372
REMARK INTER:                  -3.372
REMARK INTRA:                   0.000
REMARK UNBOUND:                 0.000
REMARK SMILES O=c1ccc2ccc(O)cc2o1
REMARK SMILES IDX 6 1 7 2 8 3 10 4 11 5 5 6 4 7 3 8 2 9 1 10 12 11 9 12
REMARK H PARENT 9 13
REMARK Flexibility Score: inf
ROOT
ATOM      1  C   UNL     1     -38.277  -9.080 -14.297  1.00  0.00     0.016 A 
ATOM      2  C   UNL     1     -39.675  -9.125 -14.322  1.00  0.00     0.047 A 
ATOM      3  C   UNL     1     -40.426  -7.963 -14.088  1.00  0.00     0.119 A 
ATOM      4  C   UNL     1     -39.773  -6.752 -13.828  1.00  0.00     0.094 A 
ATOM      5  C   UNL     1     -38.375  -6.697 -13.800  1.00  0.00     0.142 A 
ATOM      6  C   UNL     1     -37.623  -7.868 -14.037  1.00  0.00     0.018 A 
ATOM      7  C   UNL     1     -36.227  -7.782 -14.003  1.00  0.00     0.019 A 
ATOM      8  C   UNL     1     -35.624  -6.553 -13.740  1.00  0.00     0.094 A 
ATOM      9  C   UNL     1     -36.434  -5.434 -13.515  1.00  0.00     0.336 A 
ATOM     10  O   UNL     1     -35.907  -4.315 -13.276  1.00  0.00    -0.246 OA
ATOM     11  O   UNL     1     -37.759  -5.543 -13.552  1.00  0.00    -0.423 OA
ENDROOT
BRANCH   3  12
ATOM     12  O   UNL     1     -41.818  -8.002 -14.111  1.00  0.00    -0.508 OA
ATOM     13  H   UNL     1     -42.342  -7.720 -14.931  1.00  0.00     0.293 HD
ENDBRANCH   3  12
TORSDOF 1
ENDMDL
