MODEL 1
REMARK VINA RESULT:    -3.871      0.000      0.000
REMARK INTER + INTRA:         -16.588
REMARK INTER:                 -10.207
REMARK INTRA:                  -6.381
REMARK UNBOUND:                -6.381
REMARK SMILES CCCCCCCCCCCCCCCCCCCCCCCCCCCCCC(=O)[O-]
REMARK SMILES IDX 16 1 17 2 18 3 19 4 20 5 21 6 22 7 23 8 24 9 25 10 26 11
REMARK SMILES IDX 27 12 28 13 29 14 30 15 31 16 32 17 15 18 14 19 13 20 12 21
REMARK SMILES IDX 11 22 10 23 9 24 8 25 7 26 6 27 5 28 4 29 3 30 2 31 1 32
REMARK H PARENT
REMARK Flexibility Score: inf
ROOT
ATOM      1  C   UNL     1       5.903  -7.665 -22.488  1.00  0.00     0.000 C 
ENDROOT
BRANCH   1   2
ATOM      2  C   UNL     1       5.754  -9.177 -22.236  1.00  0.00     0.000 C 
BRANCH   2   3
ATOM      3  C   UNL     1       6.444 -10.082 -23.274  1.00  0.00     0.000 C 
BRANCH   3   4
ATOM      4  C   UNL     1       5.615 -11.328 -23.630  1.00  0.00     0.000 C 
BRANCH   4   5
ATOM      5  C   UNL     1       4.789 -11.840 -22.431  1.00  0.00     0.000 C 
BRANCH   5   6
ATOM      6  C   UNL     1       3.493 -12.571 -22.830  1.00  0.00     0.000 C 
BRANCH   6   7
ATOM      7  C   UNL     1       2.900 -12.118 -24.181  1.00  0.00     0.000 C 
BRANCH   7   8
ATOM      8  C   UNL     1       1.492 -11.491 -24.093  1.00  0.00     0.000 C 
BRANCH   8   9
ATOM      9  C   UNL     1       1.431  -9.969 -24.331  1.00  0.00     0.000 C 
BRANCH   9  10
ATOM     10  C   UNL     1       2.200  -9.160 -23.272  1.00  0.00     0.000 C 
BRANCH  10  11
ATOM     11  C   UNL     1       1.448  -9.061 -21.936  1.00  0.00     0.000 C 
BRANCH  11  12
ATOM     12  C   UNL     1       2.375  -9.230 -20.720  1.00  0.00     0.000 C 
BRANCH  12  13
ATOM     13  C   UNL     1       2.158 -10.569 -19.992  1.00  0.00     0.006 C 
BRANCH  13  14
ATOM     14  C   UNL     1       0.896 -11.330 -20.436  1.00  0.00     0.053 C 
BRANCH  14  15
ATOM     15  C   UNL     1      -0.088 -11.480 -19.316  1.00  0.00     0.041 C 
ATOM     16  O   UNL     1      -1.316 -11.290 -19.522  1.00  0.00    -0.550 OA
ATOM     17  O   UNL     1       0.349 -11.863 -18.053  1.00  0.00    -0.550 OA
ENDBRANCH  14  15
ENDBRANCH  13  14
ENDBRANCH  12  13
ENDBRANCH  11  12
ENDBRANCH  10  11
ENDBRANCH   9  10
ENDBRANCH   8   9
ENDBRANCH   7   8
ENDBRANCH   6   7
ENDBRANCH   5   6
ENDBRANCH   4   5
ENDBRANCH   3   4
ENDBRANCH   2   3
ENDBRANCH   1   2
BRANCH   1  18
ATOM     18  C   UNL     1       4.822  -6.778 -21.838  1.00  0.00     0.000 C 
BRANCH  18  19
ATOM     19  C   UNL     1       5.311  -5.366 -21.452  1.00  0.00     0.000 C 
BRANCH  19  20
ATOM     20  C   UNL     1       5.043  -5.021 -19.975  1.00  0.00     0.000 C 
BRANCH  20  21
ATOM     21  C   UNL     1       4.275  -6.130 -19.237  1.00  0.00     0.000 C 
BRANCH  21  22
ATOM     22  C   UNL     1       3.135  -5.586 -18.364  1.00  0.00     0.000 C 
BRANCH  22  23
ATOM     23  C   UNL     1       2.101  -4.842 -19.218  1.00  0.00     0.000 C 
BRANCH  23  24
ATOM     24  C   UNL     1       1.195  -5.828 -19.970  1.00  0.00    -0.000 C 
BRANCH  24  25
ATOM     25  C   UNL     1       1.059  -5.487 -21.464  1.00  0.00    -0.000 C 
BRANCH  25  26
ATOM     26  C   UNL     1       1.890  -4.257 -21.895  1.00  0.00    -0.000 C 
BRANCH  26  27
ATOM     27  C   UNL     1       2.058  -4.176 -23.422  1.00  0.00    -0.000 C 
BRANCH  27  28
ATOM     28  C   UNL     1       2.293  -5.561 -24.059  1.00  0.00    -0.000 C 
BRANCH  28  29
ATOM     29  C   UNL     1       1.948  -5.623 -25.557  1.00  0.00    -0.000 C 
BRANCH  29  30
ATOM     30  C   UNL     1       0.445  -5.821 -25.815  1.00  0.00    -0.000 C 
BRANCH  30  31
ATOM     31  C   UNL     1      -0.233  -6.668 -24.727  1.00  0.00    -0.003 C 
ATOM     32  C   UNL     1      -1.295  -7.613 -25.288  1.00  0.00     0.004 C 
ENDBRANCH  30  31
ENDBRANCH  29  30
ENDBRANCH  28  29
ENDBRANCH  27  28
ENDBRANCH  26  27
ENDBRANCH  25  26
ENDBRANCH  24  25
ENDBRANCH  23  24
ENDBRANCH  22  23
ENDBRANCH  21  22
ENDBRANCH  20  21
ENDBRANCH  19  20
ENDBRANCH  18  19
ENDBRANCH   1  18
TORSDOF 28
ENDMDL
MODEL 2
REMARK VINA RESULT:    -3.817      3.310      5.250
REMARK INTER + INTRA:         -16.445
REMARK INTER:                 -11.272
REMARK INTRA:                  -5.173
REMARK UNBOUND:                -6.381
REMARK SMILES CCCCCCCCCCCCCCCCCCCCCCCCCCCCCC(=O)[O-]
REMARK SMILES IDX 16 1 17 2 18 3 19 4 20 5 21 6 22 7 23 8 24 9 25 10 26 11
REMARK SMILES IDX 27 12 28 13 29 14 30 15 31 16 32 17 15 18 14 19 13 20 12 21
REMARK SMILES IDX 11 22 10 23 9 24 8 25 7 26 6 27 5 28 4 29 3 30 2 31 1 32
REMARK H PARENT
REMARK Flexibility Score: inf
ROOT
ATOM      1  C   UNL     1       4.854  -8.594 -21.089  1.00  0.00     0.000 C 
ENDROOT
BRANCH   1   2
ATOM      2  C   UNL     1       5.719  -8.321 -22.334  1.00  0.00     0.000 C 
BRANCH   2   3
ATOM      3  C   UNL     1       6.866  -9.322 -22.563  1.00  0.00     0.000 C 
BRANCH   3   4
ATOM      4  C   UNL     1       6.900  -9.878 -23.997  1.00  0.00     0.000 C 
BRANCH   4   5
ATOM      5  C   UNL     1       6.632 -11.397 -24.038  1.00  0.00     0.000 C 
BRANCH   5   6
ATOM      6  C   UNL     1       5.444 -11.847 -23.166  1.00  0.00     0.000 C 
BRANCH   6   7
ATOM      7  C   UNL     1       4.062 -11.438 -23.717  1.00  0.00     0.000 C 
BRANCH   7   8
ATOM      8  C   UNL     1       2.885 -12.306 -23.224  1.00  0.00     0.000 C 
BRANCH   8   9
ATOM      9  C   UNL     1       1.493 -11.649 -23.322  1.00  0.00     0.000 C 
BRANCH   9  10
ATOM     10  C   UNL     1       1.339 -10.741 -24.555  1.00  0.00     0.000 C 
BRANCH  10  11
ATOM     11  C   UNL     1       0.235  -9.686 -24.383  1.00  0.00     0.000 C 
BRANCH  11  12
ATOM     12  C   UNL     1      -0.039  -8.900 -25.677  1.00  0.00     0.000 C 
BRANCH  12  13
ATOM     13  C   UNL     1       1.071  -9.084 -26.728  1.00  0.00     0.006 C 
BRANCH  13  14
ATOM     14  C   UNL     1       1.449  -7.795 -27.477  1.00  0.00     0.053 C 
BRANCH  14  15
ATOM     15  C   UNL     1       1.413  -7.983 -28.964  1.00  0.00     0.041 C 
ATOM     16  O   UNL     1       1.903  -9.020 -29.484  1.00  0.00    -0.550 OA
ATOM     17  O   UNL     1       0.806  -7.028 -29.771  1.00  0.00    -0.550 OA
ENDBRANCH  14  15
ENDBRANCH  13  14
ENDBRANCH  12  13
ENDBRANCH  11  12
ENDBRANCH  10  11
ENDBRANCH   9  10
ENDBRANCH   8   9
ENDBRANCH   7   8
ENDBRANCH   6   7
ENDBRANCH   5   6
ENDBRANCH   4   5
ENDBRANCH   3   4
ENDBRANCH   2   3
ENDBRANCH   1   2
BRANCH   1  18
ATOM     18  C   UNL     1       3.343  -8.741 -21.355  1.00  0.00     0.000 C 
BRANCH  18  19
ATOM     19  C   UNL     1       2.814  -7.858 -22.504  1.00  0.00     0.000 C 
BRANCH  19  20
ATOM     20  C   UNL     1       1.560  -7.052 -22.114  1.00  0.00     0.000 C 
BRANCH  20  21
ATOM     21  C   UNL     1       1.434  -6.849 -20.596  1.00  0.00     0.000 C 
BRANCH  21  22
ATOM     22  C   UNL     1       1.364  -5.367 -20.197  1.00  0.00     0.000 C 
BRANCH  22  23
ATOM     23  C   UNL     1       2.073  -5.129 -18.858  1.00  0.00     0.000 C 
BRANCH  23  24
ATOM     24  C   UNL     1       3.281  -6.064 -18.700  1.00  0.00    -0.000 C 
BRANCH  24  25
ATOM     25  C   UNL     1       4.596  -5.420 -19.173  1.00  0.00    -0.000 C 
BRANCH  25  26
ATOM     26  C   UNL     1       5.077  -4.263 -18.269  1.00  0.00    -0.000 C 
BRANCH  26  27
ATOM     27  C   UNL     1       5.471  -3.017 -19.082  1.00  0.00    -0.000 C 
BRANCH  27  28
ATOM     28  C   UNL     1       4.266  -2.391 -19.815  1.00  0.00    -0.000 C 
BRANCH  28  29
ATOM     29  C   UNL     1       4.411  -2.374 -21.346  1.00  0.00    -0.000 C 
BRANCH  29  30
ATOM     30  C   UNL     1       3.267  -3.112 -22.062  1.00  0.00    -0.000 C 
BRANCH  30  31
ATOM     31  C   UNL     1       3.777  -4.216 -23.001  1.00  0.00    -0.003 C 
ATOM     32  C   UNL     1       5.171  -4.718 -22.624  1.00  0.00     0.004 C 
ENDBRANCH  30  31
ENDBRANCH  29  30
ENDBRANCH  28  29
ENDBRANCH  27  28
ENDBRANCH  26  27
ENDBRANCH  25  26
ENDBRANCH  24  25
ENDBRANCH  23  24
ENDBRANCH  22  23
ENDBRANCH  21  22
ENDBRANCH  20  21
ENDBRANCH  19  20
ENDBRANCH  18  19
ENDBRANCH   1  18
TORSDOF 28
ENDMDL
MODEL 3
REMARK VINA RESULT:    -3.811      2.888      7.047
REMARK INTER + INTRA:         -16.429
REMARK INTER:                 -11.437
REMARK INTRA:                  -4.992
REMARK UNBOUND:                -6.381
REMARK SMILES CCCCCCCCCCCCCCCCCCCCCCCCCCCCCC(=O)[O-]
REMARK SMILES IDX 16 1 17 2 18 3 19 4 20 5 21 6 22 7 23 8 24 9 25 10 26 11
REMARK SMILES IDX 27 12 28 13 29 14 30 15 31 16 32 17 15 18 14 19 13 20 12 21
REMARK SMILES IDX 11 22 10 23 9 24 8 25 7 26 6 27 5 28 4 29 3 30 2 31 1 32
REMARK H PARENT
REMARK Flexibility Score: inf
ROOT
ATOM      1  C   UNL     1       5.242 -10.876 -22.804  1.00  0.00     0.000 C 
ENDROOT
BRANCH   1   2
ATOM      2  C   UNL     1       6.416 -10.016 -23.309  1.00  0.00     0.000 C 
BRANCH   2   3
ATOM      3  C   UNL     1       6.636  -8.699 -22.543  1.00  0.00     0.000 C 
BRANCH   3   4
ATOM      4  C   UNL     1       5.321  -8.037 -22.096  1.00  0.00     0.000 C 
BRANCH   4   5
ATOM      5  C   UNL     1       5.090  -6.677 -22.788  1.00  0.00     0.000 C 
BRANCH   5   6
ATOM      6  C   UNL     1       5.535  -5.464 -21.949  1.00  0.00     0.000 C 
BRANCH   6   7
ATOM      7  C   UNL     1       4.486  -4.335 -21.860  1.00  0.00     0.000 C 
BRANCH   7   8
ATOM      8  C   UNL     1       3.241  -4.536 -22.751  1.00  0.00     0.000 C 
BRANCH   8   9
ATOM      9  C   UNL     1       1.888  -4.501 -22.012  1.00  0.00     0.000 C 
BRANCH   9  10
ATOM     10  C   UNL     1       1.263  -5.896 -21.829  1.00  0.00     0.000 C 
BRANCH  10  11
ATOM     11  C   UNL     1       1.263  -6.361 -20.365  1.00  0.00     0.000 C 
BRANCH  11  12
ATOM     12  C   UNL     1       2.566  -7.079 -19.972  1.00  0.00     0.000 C 
BRANCH  12  13
ATOM     13  C   UNL     1       3.424  -6.255 -18.994  1.00  0.00     0.006 C 
BRANCH  13  14
ATOM     14  C   UNL     1       2.674  -5.091 -18.326  1.00  0.00     0.053 C 
BRANCH  14  15
ATOM     15  C   UNL     1       3.413  -3.795 -18.471  1.00  0.00     0.041 C 
ATOM     16  O   UNL     1       4.621  -3.712 -18.127  1.00  0.00    -0.550 OA
ATOM     17  O   UNL     1       2.774  -2.689 -19.019  1.00  0.00    -0.550 OA
ENDBRANCH  14  15
ENDBRANCH  13  14
ENDBRANCH  12  13
ENDBRANCH  11  12
ENDBRANCH  10  11
ENDBRANCH   9  10
ENDBRANCH   8   9
ENDBRANCH   7   8
ENDBRANCH   6   7
ENDBRANCH   5   6
ENDBRANCH   4   5
ENDBRANCH   3   4
ENDBRANCH   2   3
ENDBRANCH   1   2
BRANCH   1  18
ATOM     18  C   UNL     1       5.290 -12.363 -23.209  1.00  0.00     0.000 C 
BRANCH  18  19
ATOM     19  C   UNL     1       5.183 -13.345 -22.024  1.00  0.00     0.000 C 
BRANCH  19  20
ATOM     20  C   UNL     1       3.782 -13.970 -21.886  1.00  0.00     0.000 C 
BRANCH  20  21
ATOM     21  C   UNL     1       3.804 -15.503 -21.994  1.00  0.00     0.000 C 
BRANCH  21  22
ATOM     22  C   UNL     1       2.586 -16.164 -21.331  1.00  0.00     0.000 C 
BRANCH  22  23
ATOM     23  C   UNL     1       1.375 -15.224 -21.355  1.00  0.00     0.000 C 
BRANCH  23  24
ATOM     24  C   UNL     1       0.581 -15.313 -20.043  1.00  0.00    -0.000 C 
BRANCH  24  25
ATOM     25  C   UNL     1       0.166 -13.933 -19.505  1.00  0.00    -0.000 C 
BRANCH  25  26
ATOM     26  C   UNL     1       0.592 -12.761 -20.418  1.00  0.00    -0.000 C 
BRANCH  26  27
ATOM     27  C   UNL     1       0.518 -11.405 -19.696  1.00  0.00    -0.000 C 
BRANCH  27  28
ATOM     28  C   UNL     1       0.726 -10.217 -20.658  1.00  0.00    -0.000 C 
BRANCH  28  29
ATOM     29  C   UNL     1       1.912 -10.398 -21.621  1.00  0.00    -0.000 C 
BRANCH  29  30
ATOM     30  C   UNL     1       1.815  -9.497 -22.864  1.00  0.00    -0.000 C 
BRANCH  30  31
ATOM     31  C   UNL     1       1.772 -10.302 -24.172  1.00  0.00    -0.003 C 
ATOM     32  C   UNL     1       1.653 -11.808 -23.938  1.00  0.00     0.004 C 
ENDBRANCH  30  31
ENDBRANCH  29  30
ENDBRANCH  28  29
ENDBRANCH  27  28
ENDBRANCH  26  27
ENDBRANCH  25  26
ENDBRANCH  24  25
ENDBRANCH  23  24
ENDBRANCH  22  23
ENDBRANCH  21  22
ENDBRANCH  20  21
ENDBRANCH  19  20
ENDBRANCH  18  19
ENDBRANCH   1  18
TORSDOF 28
ENDMDL
MODEL 4
REMARK VINA RESULT:    -3.797      1.474      3.619
REMARK INTER + INTRA:         -16.392
REMARK INTER:                 -10.818
REMARK INTRA:                  -5.574
REMARK UNBOUND:                -6.381
REMARK SMILES CCCCCCCCCCCCCCCCCCCCCCCCCCCCCC(=O)[O-]
REMARK SMILES IDX 16 1 17 2 18 3 19 4 20 5 21 6 22 7 23 8 24 9 25 10 26 11
REMARK SMILES IDX 27 12 28 13 29 14 30 15 31 16 32 17 15 18 14 19 13 20 12 21
REMARK SMILES IDX 11 22 10 23 9 24 8 25 7 26 6 27 5 28 4 29 3 30 2 31 1 32
REMARK H PARENT
REMARK Flexibility Score: inf
ROOT
ATOM      1  C   UNL     1       6.375 -11.008 -23.982  1.00  0.00     0.000 C 
ENDROOT
BRANCH   1   2
ATOM      2  C   UNL     1       5.867 -12.108 -23.032  1.00  0.00     0.000 C 
BRANCH   2   3
ATOM      3  C   UNL     1       4.337 -12.267 -22.974  1.00  0.00     0.000 C 
BRANCH   3   4
ATOM      4  C   UNL     1       3.595 -11.272 -23.883  1.00  0.00     0.000 C 
BRANCH   4   5
ATOM      5  C   UNL     1       2.079 -11.550 -23.934  1.00  0.00     0.000 C 
BRANCH   5   6
ATOM      6  C   UNL     1       1.280 -10.518 -24.753  1.00  0.00     0.000 C 
BRANCH   6   7
ATOM      7  C   UNL     1       0.675  -9.373 -23.912  1.00  0.00     0.000 C 
BRANCH   7   8
ATOM      8  C   UNL     1       1.709  -8.488 -23.184  1.00  0.00     0.000 C 
BRANCH   8   9
ATOM      9  C   UNL     1       1.167  -7.697 -21.977  1.00  0.00     0.000 C 
BRANCH   9  10
ATOM     10  C   UNL     1       1.687  -8.223 -20.627  1.00  0.00     0.000 C 
BRANCH  10  11
ATOM     11  C   UNL     1       2.637  -9.421 -20.781  1.00  0.00     0.000 C 
BRANCH  11  12
ATOM     12  C   UNL     1       2.030 -10.729 -20.246  1.00  0.00     0.000 C 
BRANCH  12  13
ATOM     13  C   UNL     1       0.500 -10.782 -20.406  1.00  0.00     0.006 C 
BRANCH  13  14
ATOM     14  C   UNL     1      -0.019 -12.060 -21.087  1.00  0.00     0.053 C 
BRANCH  14  15
ATOM     15  C   UNL     1       0.653 -13.289 -20.552  1.00  0.00     0.041 C 
ATOM     16  O   UNL     1       0.304 -13.769 -19.441  1.00  0.00    -0.550 OA
ATOM     17  O   UNL     1       1.639 -13.922 -21.299  1.00  0.00    -0.550 OA
ENDBRANCH  14  15
ENDBRANCH  13  14
ENDBRANCH  12  13
ENDBRANCH  11  12
ENDBRANCH  10  11
ENDBRANCH   9  10
ENDBRANCH   8   9
ENDBRANCH   7   8
ENDBRANCH   6   7
ENDBRANCH   5   6
ENDBRANCH   4   5
ENDBRANCH   3   4
ENDBRANCH   2   3
ENDBRANCH   1   2
BRANCH   1  18
ATOM     18  C   UNL     1       6.989  -9.773 -23.295  1.00  0.00     0.000 C 
BRANCH  18  19
ATOM     19  C   UNL     1       6.026  -9.036 -22.341  1.00  0.00     0.000 C 
BRANCH  19  20
ATOM     20  C   UNL     1       5.864  -7.543 -22.686  1.00  0.00     0.000 C 
BRANCH  20  21
ATOM     21  C   UNL     1       4.948  -6.802 -21.698  1.00  0.00     0.000 C 
BRANCH  21  22
ATOM     22  C   UNL     1       5.488  -5.419 -21.307  1.00  0.00     0.000 C 
BRANCH  22  23
ATOM     23  C   UNL     1       4.970  -5.002 -19.925  1.00  0.00     0.000 C 
BRANCH  23  24
ATOM     24  C   UNL     1       4.300  -6.183 -19.208  1.00  0.00    -0.000 C 
BRANCH  24  25
ATOM     25  C   UNL     1       3.234  -5.734 -18.193  1.00  0.00    -0.000 C 
BRANCH  25  26
ATOM     26  C   UNL     1       2.106  -4.883 -18.819  1.00  0.00    -0.000 C 
BRANCH  26  27
ATOM     27  C   UNL     1       2.080  -3.450 -18.260  1.00  0.00    -0.000 C 
BRANCH  27  28
ATOM     28  C   UNL     1       2.391  -2.395 -19.342  1.00  0.00    -0.000 C 
BRANCH  28  29
ATOM     29  C   UNL     1       1.638  -2.621 -20.664  1.00  0.00    -0.000 C 
BRANCH  29  30
ATOM     30  C   UNL     1       2.576  -2.951 -21.837  1.00  0.00    -0.000 C 
BRANCH  30  31
ATOM     31  C   UNL     1       2.200  -4.265 -22.539  1.00  0.00    -0.003 C 
ATOM     32  C   UNL     1       2.936  -4.460 -23.865  1.00  0.00     0.004 C 
ENDBRANCH  30  31
ENDBRANCH  29  30
ENDBRANCH  28  29
ENDBRANCH  27  28
ENDBRANCH  26  27
ENDBRANCH  25  26
ENDBRANCH  24  25
ENDBRANCH  23  24
ENDBRANCH  22  23
ENDBRANCH  21  22
ENDBRANCH  20  21
ENDBRANCH  19  20
ENDBRANCH  18  19
ENDBRANCH   1  18
TORSDOF 28
ENDMDL
MODEL 5
REMARK VINA RESULT:    -3.768      3.121      7.028
REMARK INTER + INTRA:         -16.316
REMARK INTER:                 -11.055
REMARK INTRA:                  -5.261
REMARK UNBOUND:                -6.381
REMARK SMILES CCCCCCCCCCCCCCCCCCCCCCCCCCCCCC(=O)[O-]
REMARK SMILES IDX 16 1 17 2 18 3 19 4 20 5 21 6 22 7 23 8 24 9 25 10 26 11
REMARK SMILES IDX 27 12 28 13 29 14 30 15 31 16 32 17 15 18 14 19 13 20 12 21
REMARK SMILES IDX 11 22 10 23 9 24 8 25 7 26 6 27 5 28 4 29 3 30 2 31 1 32
REMARK H PARENT
REMARK Flexibility Score: inf
ROOT
ATOM      1  C   UNL     1       5.834  -7.769 -22.543  1.00  0.00     0.000 C 
ENDROOT
BRANCH   1   2
ATOM      2  C   UNL     1       4.360  -7.792 -22.096  1.00  0.00     0.000 C 
BRANCH   2   3
ATOM      3  C   UNL     1       4.069  -8.647 -20.850  1.00  0.00     0.000 C 
BRANCH   3   4
ATOM      4  C   UNL     1       2.571  -8.726 -20.510  1.00  0.00     0.000 C 
BRANCH   4   5
ATOM      5  C   UNL     1       1.743  -7.682 -21.288  1.00  0.00     0.000 C 
BRANCH   5   6
ATOM      6  C   UNL     1       0.366  -7.384 -20.664  1.00  0.00     0.000 C 
BRANCH   6   7
ATOM      7  C   UNL     1      -0.077  -5.910 -20.780  1.00  0.00     0.000 C 
BRANCH   7   8
ATOM      8  C   UNL     1       1.025  -4.876 -20.467  1.00  0.00     0.000 C 
BRANCH   8   9
ATOM      9  C   UNL     1       0.819  -4.062 -19.174  1.00  0.00     0.000 C 
BRANCH   9  10
ATOM     10  C   UNL     1       2.005  -4.166 -18.199  1.00  0.00     0.000 C 
BRANCH  10  11
ATOM     11  C   UNL     1       2.849  -5.431 -18.421  1.00  0.00     0.000 C 
BRANCH  11  12
ATOM     12  C   UNL     1       4.345  -5.119 -18.601  1.00  0.00     0.000 C 
BRANCH  12  13
ATOM     13  C   UNL     1       4.769  -5.083 -20.080  1.00  0.00     0.006 C 
BRANCH  13  14
ATOM     14  C   UNL     1       4.558  -3.721 -20.763  1.00  0.00     0.053 C 
BRANCH  14  15
ATOM     15  C   UNL     1       4.396  -3.859 -22.247  1.00  0.00     0.041 C 
ATOM     16  O   UNL     1       3.311  -3.538 -22.798  1.00  0.00    -0.550 OA
ATOM     17  O   UNL     1       5.458  -4.308 -23.022  1.00  0.00    -0.550 OA
ENDBRANCH  14  15
ENDBRANCH  13  14
ENDBRANCH  12  13
ENDBRANCH  11  12
ENDBRANCH  10  11
ENDBRANCH   9  10
ENDBRANCH   8   9
ENDBRANCH   7   8
ENDBRANCH   6   7
ENDBRANCH   5   6
ENDBRANCH   4   5
ENDBRANCH   3   4
ENDBRANCH   2   3
ENDBRANCH   1   2
BRANCH   1  18
ATOM     18  C   UNL     1       6.566  -9.124 -22.477  1.00  0.00     0.000 C 
BRANCH  18  19
ATOM     19  C   UNL     1       7.097  -9.622 -23.838  1.00  0.00     0.000 C 
BRANCH  19  20
ATOM     20  C   UNL     1       6.993 -11.150 -24.000  1.00  0.00     0.000 C 
BRANCH  20  21
ATOM     21  C   UNL     1       5.539 -11.649 -23.998  1.00  0.00     0.000 C 
BRANCH  21  22
ATOM     22  C   UNL     1       5.132 -12.291 -22.663  1.00  0.00     0.000 C 
BRANCH  22  23
ATOM     23  C   UNL     1       3.668 -11.977 -22.332  1.00  0.00     0.000 C 
BRANCH  23  24
ATOM     24  C   UNL     1       2.835 -11.813 -23.612  1.00  0.00    -0.000 C 
BRANCH  24  25
ATOM     25  C   UNL     1       2.297 -10.383 -23.792  1.00  0.00    -0.000 C 
BRANCH  25  26
ATOM     26  C   UNL     1       0.756 -10.291 -23.727  1.00  0.00    -0.000 C 
BRANCH  26  27
ATOM     27  C   UNL     1       0.135 -11.480 -22.972  1.00  0.00    -0.000 C 
BRANCH  27  28
ATOM     28  C   UNL     1      -0.288 -11.103 -21.536  1.00  0.00    -0.000 C 
BRANCH  28  29
ATOM     29  C   UNL     1       0.409 -11.933 -20.445  1.00  0.00    -0.000 C 
BRANCH  29  30
ATOM     30  C   UNL     1       0.329 -11.280 -19.055  1.00  0.00    -0.000 C 
BRANCH  30  31
ATOM     31  C   UNL     1      -1.110 -11.213 -18.519  1.00  0.00    -0.003 C 
ATOM     32  C   UNL     1      -1.232 -11.728 -17.085  1.00  0.00     0.004 C 
ENDBRANCH  30  31
ENDBRANCH  29  30
ENDBRANCH  28  29
ENDBRANCH  27  28
ENDBRANCH  26  27
ENDBRANCH  25  26
ENDBRANCH  24  25
ENDBRANCH  23  24
ENDBRANCH  22  23
ENDBRANCH  21  22
ENDBRANCH  20  21
ENDBRANCH  19  20
ENDBRANCH  18  19
ENDBRANCH   1  18
TORSDOF 28
ENDMDL
MODEL 6
REMARK VINA RESULT:    -3.759      3.021      6.516
REMARK INTER + INTRA:         -16.291
REMARK INTER:                 -11.023
REMARK INTRA:                  -5.268
REMARK UNBOUND:                -6.381
REMARK SMILES CCCCCCCCCCCCCCCCCCCCCCCCCCCCCC(=O)[O-]
REMARK SMILES IDX 16 1 17 2 18 3 19 4 20 5 21 6 22 7 23 8 24 9 25 10 26 11
REMARK SMILES IDX 27 12 28 13 29 14 30 15 31 16 32 17 15 18 14 19 13 20 12 21
REMARK SMILES IDX 11 22 10 23 9 24 8 25 7 26 6 27 5 28 4 29 3 30 2 31 1 32
REMARK H PARENT
REMARK Flexibility Score: inf
ROOT
ATOM      1  C   UNL     1       4.955  -8.071 -22.253  1.00  0.00     0.000 C 
ENDROOT
BRANCH   1   2
ATOM      2  C   UNL     1       5.630  -6.692 -22.130  1.00  0.00     0.000 C 
BRANCH   2   3
ATOM      3  C   UNL     1       5.127  -5.628 -23.122  1.00  0.00     0.000 C 
BRANCH   3   4
ATOM      4  C   UNL     1       4.650  -4.339 -22.431  1.00  0.00     0.000 C 
BRANCH   4   5
ATOM      5  C   UNL     1       3.337  -3.804 -23.041  1.00  0.00     0.000 C 
BRANCH   5   6
ATOM      6  C   UNL     1       3.012  -4.379 -24.432  1.00  0.00     0.000 C 
BRANCH   6   7
ATOM      7  C   UNL     1       1.717  -5.218 -24.485  1.00  0.00     0.000 C 
BRANCH   7   8
ATOM      8  C   UNL     1       1.125  -5.582 -23.107  1.00  0.00     0.000 C 
BRANCH   8   9
ATOM      9  C   UNL     1       1.502  -6.980 -22.576  1.00  0.00     0.000 C 
BRANCH   9  10
ATOM     10  C   UNL     1       1.317  -7.119 -21.054  1.00  0.00     0.000 C 
BRANCH  10  11
ATOM     11  C   UNL     1       2.095  -6.058 -20.261  1.00  0.00     0.000 C 
BRANCH  11  12
ATOM     12  C   UNL     1       3.181  -6.672 -19.360  1.00  0.00     0.000 C 
BRANCH  12  13
ATOM     13  C   UNL     1       4.180  -5.623 -18.839  1.00  0.00     0.006 C 
BRANCH  13  14
ATOM     14  C   UNL     1       3.548  -4.262 -18.506  1.00  0.00     0.053 C 
BRANCH  14  15
ATOM     15  C   UNL     1       4.383  -3.121 -19.004  1.00  0.00     0.041 C 
ATOM     16  O   UNL     1       5.617  -3.085 -18.758  1.00  0.00    -0.550 OA
ATOM     17  O   UNL     1       3.803  -2.118 -19.771  1.00  0.00    -0.550 OA
ENDBRANCH  14  15
ENDBRANCH  13  14
ENDBRANCH  12  13
ENDBRANCH  11  12
ENDBRANCH  10  11
ENDBRANCH   9  10
ENDBRANCH   8   9
ENDBRANCH   7   8
ENDBRANCH   6   7
ENDBRANCH   5   6
ENDBRANCH   4   5
ENDBRANCH   3   4
ENDBRANCH   2   3
ENDBRANCH   1   2
BRANCH   1  18
ATOM     18  C   UNL     1       5.902  -9.282 -22.135  1.00  0.00     0.000 C 
BRANCH  18  19
ATOM     19  C   UNL     1       6.933  -9.393 -23.277  1.00  0.00     0.000 C 
BRANCH  19  20
ATOM     20  C   UNL     1       6.906 -10.763 -23.980  1.00  0.00     0.000 C 
BRANCH  20  21
ATOM     21  C   UNL     1       5.596 -11.530 -23.734  1.00  0.00     0.000 C 
BRANCH  21  22
ATOM     22  C   UNL     1       5.795 -12.790 -22.879  1.00  0.00     0.000 C 
BRANCH  22  23
ATOM     23  C   UNL     1       4.759 -12.853 -21.751  1.00  0.00     0.000 C 
BRANCH  23  24
ATOM     24  C   UNL     1       3.610 -13.806 -22.110  1.00  0.00    -0.000 C 
BRANCH  24  25
ATOM     25  C   UNL     1       2.397 -13.075 -22.712  1.00  0.00    -0.000 C 
BRANCH  25  26
ATOM     26  C   UNL     1       2.045 -11.760 -21.980  1.00  0.00    -0.000 C 
BRANCH  26  27
ATOM     27  C   UNL     1       2.327 -10.520 -22.846  1.00  0.00    -0.000 C 
BRANCH  27  28
ATOM     28  C   UNL     1       1.841 -10.699 -24.300  1.00  0.00    -0.000 C 
BRANCH  28  29
ATOM     29  C   UNL     1       0.315 -10.597 -24.461  1.00  0.00    -0.000 C 
BRANCH  29  30
ATOM     30  C   UNL     1      -0.136  -9.244 -25.038  1.00  0.00    -0.000 C 
BRANCH  30  31
ATOM     31  C   UNL     1       0.953  -8.578 -25.894  1.00  0.00    -0.003 C 
ATOM     32  C   UNL     1       0.817  -8.902 -27.382  1.00  0.00     0.004 C 
ENDBRANCH  30  31
ENDBRANCH  29  30
ENDBRANCH  28  29
ENDBRANCH  27  28
ENDBRANCH  26  27
ENDBRANCH  25  26
ENDBRANCH  24  25
ENDBRANCH  23  24
ENDBRANCH  22  23
ENDBRANCH  21  22
ENDBRANCH  20  21
ENDBRANCH  19  20
ENDBRANCH  18  19
ENDBRANCH   1  18
TORSDOF 28
ENDMDL
MODEL 7
REMARK VINA RESULT:    -3.751      2.688      7.235
REMARK INTER + INTRA:         -16.271
REMARK INTER:                 -10.907
REMARK INTRA:                  -5.363
REMARK UNBOUND:                -6.381
REMARK SMILES CCCCCCCCCCCCCCCCCCCCCCCCCCCCCC(=O)[O-]
REMARK SMILES IDX 16 1 17 2 18 3 19 4 20 5 21 6 22 7 23 8 24 9 25 10 26 11
REMARK SMILES IDX 27 12 28 13 29 14 30 15 31 16 32 17 15 18 14 19 13 20 12 21
REMARK SMILES IDX 11 22 10 23 9 24 8 25 7 26 6 27 5 28 4 29 3 30 2 31 1 32
REMARK H PARENT
REMARK Flexibility Score: inf
ROOT
ATOM      1  C   UNL     1       5.125  -7.022 -22.430  1.00  0.00     0.000 C 
ENDROOT
BRANCH   1   2
ATOM      2  C   UNL     1       5.464  -5.671 -21.772  1.00  0.00     0.000 C 
BRANCH   2   3
ATOM      3  C   UNL     1       5.091  -4.429 -22.602  1.00  0.00     0.000 C 
BRANCH   3   4
ATOM      4  C   UNL     1       3.949  -3.610 -21.978  1.00  0.00     0.000 C 
BRANCH   4   5
ATOM      5  C   UNL     1       4.473  -2.469 -21.081  1.00  0.00     0.000 C 
BRANCH   5   6
ATOM      6  C   UNL     1       4.198  -2.676 -19.579  1.00  0.00     0.000 C 
BRANCH   6   7
ATOM      7  C   UNL     1       5.356  -3.347 -18.809  1.00  0.00     0.000 C 
BRANCH   7   8
ATOM      8  C   UNL     1       5.032  -4.744 -18.239  1.00  0.00     0.000 C 
BRANCH   8   9
ATOM      9  C   UNL     1       3.534  -5.107 -18.194  1.00  0.00     0.000 C 
BRANCH   9  10
ATOM     10  C   UNL     1       3.184  -6.336 -19.052  1.00  0.00     0.000 C 
BRANCH  10  11
ATOM     11  C   UNL     1       2.103  -6.039 -20.103  1.00  0.00     0.000 C 
BRANCH  11  12
ATOM     12  C   UNL     1       1.260  -4.801 -19.752  1.00  0.00     0.000 C 
BRANCH  12  13
ATOM     13  C   UNL     1       0.059  -4.615 -20.698  1.00  0.00     0.006 C 
BRANCH  13  14
ATOM     14  C   UNL     1       0.152  -3.370 -21.596  1.00  0.00     0.053 C 
BRANCH  14  15
ATOM     15  C   UNL     1       0.406  -3.733 -23.028  1.00  0.00     0.041 C 
ATOM     16  O   UNL     1       0.933  -4.839 -23.318  1.00  0.00    -0.550 OA
ATOM     17  O   UNL     1       0.026  -2.862 -24.043  1.00  0.00    -0.550 OA
ENDBRANCH  14  15
ENDBRANCH  13  14
ENDBRANCH  12  13
ENDBRANCH  11  12
ENDBRANCH  10  11
ENDBRANCH   9  10
ENDBRANCH   8   9
ENDBRANCH   7   8
ENDBRANCH   6   7
ENDBRANCH   5   6
ENDBRANCH   4   5
ENDBRANCH   3   4
ENDBRANCH   2   3
ENDBRANCH   1   2
BRANCH   1  18
ATOM     18  C   UNL     1       6.285  -8.035 -22.494  1.00  0.00     0.000 C 
BRANCH  18  19
ATOM     19  C   UNL     1       5.834  -9.506 -22.610  1.00  0.00     0.000 C 
BRANCH  19  20
ATOM     20  C   UNL     1       6.693 -10.322 -23.594  1.00  0.00     0.000 C 
BRANCH  20  21
ATOM     21  C   UNL     1       6.079 -11.692 -23.922  1.00  0.00     0.000 C 
BRANCH  21  22
ATOM     22  C   UNL     1       4.753 -11.942 -23.189  1.00  0.00     0.000 C 
BRANCH  22  23
ATOM     23  C   UNL     1       4.944 -12.942 -22.042  1.00  0.00     0.000 C 
BRANCH  23  24
ATOM     24  C   UNL     1       3.773 -13.934 -21.975  1.00  0.00    -0.000 C 
BRANCH  24  25
ATOM     25  C   UNL     1       2.435 -13.303 -22.399  1.00  0.00    -0.000 C 
BRANCH  25  26
ATOM     26  C   UNL     1       1.472 -13.048 -21.217  1.00  0.00    -0.000 C 
BRANCH  26  27
ATOM     27  C   UNL     1       0.961 -11.597 -21.189  1.00  0.00    -0.000 C 
BRANCH  27  28
ATOM     28  C   UNL     1       1.827 -10.690 -20.290  1.00  0.00    -0.000 C 
BRANCH  28  29
ATOM     29  C   UNL     1       2.614  -9.619 -21.064  1.00  0.00    -0.000 C 
BRANCH  29  30
ATOM     30  C   UNL     1       2.220  -9.545 -22.548  1.00  0.00    -0.000 C 
BRANCH  30  31
ATOM     31  C   UNL     1       1.536  -8.217 -22.910  1.00  0.00    -0.003 C 
ATOM     32  C   UNL     1       0.067  -8.174 -22.490  1.00  0.00     0.004 C 
ENDBRANCH  30  31
ENDBRANCH  29  30
ENDBRANCH  28  29
ENDBRANCH  27  28
ENDBRANCH  26  27
ENDBRANCH  25  26
ENDBRANCH  24  25
ENDBRANCH  23  24
ENDBRANCH  22  23
ENDBRANCH  21  22
ENDBRANCH  20  21
ENDBRANCH  19  20
ENDBRANCH  18  19
ENDBRANCH   1  18
TORSDOF 28
ENDMDL
MODEL 8
REMARK VINA RESULT:    -3.729      2.087      4.527
REMARK INTER + INTRA:         -16.214
REMARK INTER:                 -11.341
REMARK INTRA:                  -4.873
REMARK UNBOUND:                -6.381
REMARK SMILES CCCCCCCCCCCCCCCCCCCCCCCCCCCCCC(=O)[O-]
REMARK SMILES IDX 16 1 17 2 18 3 19 4 20 5 21 6 22 7 23 8 24 9 25 10 26 11
REMARK SMILES IDX 27 12 28 13 29 14 30 15 31 16 32 17 15 18 14 19 13 20 12 21
REMARK SMILES IDX 11 22 10 23 9 24 8 25 7 26 6 27 5 28 4 29 3 30 2 31 1 32
REMARK H PARENT
REMARK Flexibility Score: inf
ROOT
ATOM      1  C   UNL     1       6.358 -11.258 -24.026  1.00  0.00     0.000 C 
ENDROOT
BRANCH   1   2
ATOM      2  C   UNL     1       5.267 -11.653 -23.012  1.00  0.00     0.000 C 
BRANCH   2   3
ATOM      3  C   UNL     1       3.836 -11.698 -23.578  1.00  0.00     0.000 C 
BRANCH   3   4
ATOM      4  C   UNL     1       2.990 -12.837 -22.985  1.00  0.00     0.000 C 
BRANCH   4   5
ATOM      5  C   UNL     1       3.774 -13.663 -21.944  1.00  0.00     0.000 C 
BRANCH   5   6
ATOM      6  C   UNL     1       3.752 -15.182 -22.204  1.00  0.00     0.000 C 
BRANCH   6   7
ATOM      7  C   UNL     1       2.786 -15.967 -21.292  1.00  0.00     0.000 C 
BRANCH   7   8
ATOM      8  C   UNL     1       1.333 -15.447 -21.288  1.00  0.00     0.000 C 
BRANCH   8   9
ATOM      9  C   UNL     1       0.676 -15.336 -19.897  1.00  0.00     0.000 C 
BRANCH   9  10
ATOM     10  C   UNL     1      -0.156 -14.054 -19.723  1.00  0.00     0.000 C 
BRANCH  10  11
ATOM     11  C   UNL     1       0.046 -13.052 -20.869  1.00  0.00     0.000 C 
BRANCH  11  12
ATOM     12  C   UNL     1       0.574 -11.692 -20.381  1.00  0.00     0.000 C 
BRANCH  12  13
ATOM     13  C   UNL     1      -0.053 -11.259 -19.043  1.00  0.00     0.006 C 
BRANCH  13  14
ATOM     14  C   UNL     1      -1.499 -10.750 -19.161  1.00  0.00     0.053 C 
BRANCH  14  15
ATOM     15  C   UNL     1      -2.278 -10.983 -17.902  1.00  0.00     0.041 C 
ATOM     16  O   UNL     1      -2.944 -12.042 -17.756  1.00  0.00    -0.550 OA
ATOM     17  O   UNL     1      -2.239 -10.046 -16.876  1.00  0.00    -0.550 OA
ENDBRANCH  14  15
ENDBRANCH  13  14
ENDBRANCH  12  13
ENDBRANCH  11  12
ENDBRANCH  10  11
ENDBRANCH   9  10
ENDBRANCH   8   9
ENDBRANCH   7   8
ENDBRANCH   6   7
ENDBRANCH   5   6
ENDBRANCH   4   5
ENDBRANCH   3   4
ENDBRANCH   2   3
ENDBRANCH   1   2
BRANCH   1  18
ATOM     18  C   UNL     1       6.966  -9.856 -23.828  1.00  0.00     0.000 C 
BRANCH  18  19
ATOM     19  C   UNL     1       6.606  -9.194 -22.482  1.00  0.00     0.000 C 
BRANCH  19  20
ATOM     20  C   UNL     1       6.016  -7.780 -22.646  1.00  0.00     0.000 C 
BRANCH  20  21
ATOM     21  C   UNL     1       4.622  -7.642 -22.013  1.00  0.00     0.000 C 
BRANCH  21  22
ATOM     22  C   UNL     1       4.399  -8.613 -20.845  1.00  0.00     0.000 C 
BRANCH  22  23
ATOM     23  C   UNL     1       2.982  -9.197 -20.884  1.00  0.00     0.000 C 
BRANCH  23  24
ATOM     24  C   UNL     1       2.290  -8.878 -22.217  1.00  0.00    -0.000 C 
BRANCH  24  25
ATOM     25  C   UNL     1       0.843  -8.388 -22.034  1.00  0.00    -0.000 C 
BRANCH  25  26
ATOM     26  C   UNL     1       0.597  -7.688 -20.678  1.00  0.00    -0.000 C 
BRANCH  26  27
ATOM     27  C   UNL     1       0.342  -6.179 -20.841  1.00  0.00    -0.000 C 
BRANCH  27  28
ATOM     28  C   UNL     1       1.652  -5.378 -20.994  1.00  0.00    -0.000 C 
BRANCH  28  29
ATOM     29  C   UNL     1       2.190  -4.809 -19.670  1.00  0.00    -0.000 C 
BRANCH  29  30
ATOM     30  C   UNL     1       2.983  -5.845 -18.855  1.00  0.00    -0.000 C 
BRANCH  30  31
ATOM     31  C   UNL     1       4.490  -5.546 -18.830  1.00  0.00    -0.003 C 
ATOM     32  C   UNL     1       4.821  -4.132 -19.306  1.00  0.00     0.004 C 
ENDBRANCH  30  31
ENDBRANCH  29  30
ENDBRANCH  28  29
ENDBRANCH  27  28
ENDBRANCH  26  27
ENDBRANCH  25  26
ENDBRANCH  24  25
ENDBRANCH  23  24
ENDBRANCH  22  23
ENDBRANCH  21  22
ENDBRANCH  20  21
ENDBRANCH  19  20
ENDBRANCH  18  19
ENDBRANCH   1  18
TORSDOF 28
ENDMDL
MODEL 9
REMARK VINA RESULT:    -3.596      1.502      3.592
REMARK INTER + INTRA:         -15.864
REMARK INTER:                 -10.063
REMARK INTRA:                  -5.801
REMARK UNBOUND:                -6.381
REMARK SMILES CCCCCCCCCCCCCCCCCCCCCCCCCCCCCC(=O)[O-]
REMARK SMILES IDX 16 1 17 2 18 3 19 4 20 5 21 6 22 7 23 8 24 9 25 10 26 11
REMARK SMILES IDX 27 12 28 13 29 14 30 15 31 16 32 17 15 18 14 19 13 20 12 21
REMARK SMILES IDX 11 22 10 23 9 24 8 25 7 26 6 27 5 28 4 29 3 30 2 31 1 32
REMARK H PARENT
REMARK Flexibility Score: inf
ROOT
ATOM      1  C   UNL     1       4.283  -5.984 -19.132  1.00  0.00     0.000 C 
ENDROOT
BRANCH   1   2
ATOM      2  C   UNL     1       4.228  -7.165 -20.120  1.00  0.00     0.000 C 
BRANCH   2   3
ATOM      3  C   UNL     1       4.156  -6.769 -21.606  1.00  0.00     0.000 C 
BRANCH   3   4
ATOM      4  C   UNL     1       5.392  -7.214 -22.407  1.00  0.00     0.000 C 
BRANCH   4   5
ATOM      5  C   UNL     1       5.790  -8.673 -22.100  1.00  0.00     0.000 C 
BRANCH   5   6
ATOM      6  C   UNL     1       7.135  -9.098 -22.720  1.00  0.00     0.000 C 
BRANCH   6   7
ATOM      7  C   UNL     1       7.009  -9.788 -24.095  1.00  0.00     0.000 C 
BRANCH   7   8
ATOM      8  C   UNL     1       7.008 -11.331 -24.049  1.00  0.00     0.000 C 
BRANCH   8   9
ATOM      9  C   UNL     1       5.614 -11.988 -24.007  1.00  0.00     0.000 C 
BRANCH   9  10
ATOM     10  C   UNL     1       5.109 -12.243 -22.576  1.00  0.00     0.000 C 
BRANCH  10  11
ATOM     11  C   UNL     1       3.587 -12.074 -22.443  1.00  0.00     0.000 C 
BRANCH  11  12
ATOM     12  C   UNL     1       3.023 -11.015 -23.406  1.00  0.00     0.000 C 
BRANCH  12  13
ATOM     13  C   UNL     1       2.369  -9.833 -22.669  1.00  0.00     0.006 C 
BRANCH  13  14
ATOM     14  C   UNL     1       1.947 -10.148 -21.224  1.00  0.00     0.053 C 
BRANCH  14  15
ATOM     15  C   UNL     1       0.473 -10.403 -21.115  1.00  0.00     0.041 C 
ATOM     16  O   UNL     1      -0.152 -10.922 -22.077  1.00  0.00    -0.550 OA
ATOM     17  O   UNL     1      -0.200 -10.099 -19.938  1.00  0.00    -0.550 OA
ENDBRANCH  14  15
ENDBRANCH  13  14
ENDBRANCH  12  13
ENDBRANCH  11  12
ENDBRANCH  10  11
ENDBRANCH   9  10
ENDBRANCH   8   9
ENDBRANCH   7   8
ENDBRANCH   6   7
ENDBRANCH   5   6
ENDBRANCH   4   5
ENDBRANCH   3   4
ENDBRANCH   2   3
ENDBRANCH   1   2
BRANCH   1  18
ATOM     18  C   UNL     1       5.134  -4.782 -19.586  1.00  0.00     0.000 C 
BRANCH  18  19
ATOM     19  C   UNL     1       4.798  -3.461 -18.863  1.00  0.00     0.000 C 
BRANCH  19  20
ATOM     20  C   UNL     1       4.298  -2.362 -19.820  1.00  0.00     0.000 C 
BRANCH  20  21
ATOM     21  C   UNL     1       2.769  -2.204 -19.793  1.00  0.00     0.000 C 
BRANCH  21  22
ATOM     22  C   UNL     1       2.140  -2.713 -18.488  1.00  0.00     0.000 C 
BRANCH  22  23
ATOM     23  C   UNL     1       1.133  -3.835 -18.769  1.00  0.00     0.000 C 
BRANCH  23  24
ATOM     24  C   UNL     1       1.163  -4.245 -20.249  1.00  0.00    -0.000 C 
BRANCH  24  25
ATOM     25  C   UNL     1       0.040  -5.231 -20.615  1.00  0.00    -0.000 C 
BRANCH  25  26
ATOM     26  C   UNL     1       0.555  -6.631 -21.017  1.00  0.00    -0.000 C 
BRANCH  26  27
ATOM     27  C   UNL     1       0.141  -7.013 -22.448  1.00  0.00    -0.000 C 
BRANCH  27  28
ATOM     28  C   UNL     1       0.561  -5.948 -23.483  1.00  0.00    -0.000 C 
BRANCH  28  29
ATOM     29  C   UNL     1       1.843  -6.301 -24.254  1.00  0.00    -0.000 C 
BRANCH  29  30
ATOM     30  C   UNL     1       2.663  -5.061 -24.650  1.00  0.00    -0.000 C 
BRANCH  30  31
ATOM     31  C   UNL     1       2.808  -4.059 -23.495  1.00  0.00    -0.003 C 
ATOM     32  C   UNL     1       4.236  -3.536 -23.340  1.00  0.00     0.004 C 
ENDBRANCH  30  31
ENDBRANCH  29  30
ENDBRANCH  28  29
ENDBRANCH  27  28
ENDBRANCH  26  27
ENDBRANCH  25  26
ENDBRANCH  24  25
ENDBRANCH  23  24
ENDBRANCH  22  23
ENDBRANCH  21  22
ENDBRANCH  20  21
ENDBRANCH  19  20
ENDBRANCH  18  19
ENDBRANCH   1  18
TORSDOF 28
ENDMDL
