MODEL 1
REMARK VINA RESULT:    -4.356      0.000      0.000
REMARK INTER + INTRA:          -8.253
REMARK INTER:                  -6.902
REMARK INTRA:                  -1.351
REMARK UNBOUND:                -1.351
REMARK SMILES CCCCCCCCCCCC(=O)[O-]
REMARK SMILES IDX 7 1 8 2 9 3 10 4 11 5 12 6 13 7 14 8 6 9 5 10 4 11 3 12 2 13
REMARK SMILES IDX 1 14
REMARK H PARENT
REMARK Flexibility Score: inf
ROOT
ATOM      1  C   UNL     1     -10.134  -7.689 -12.930  1.00  0.00     0.000 C 
ENDROOT
BRANCH   1   2
ATOM      2  C   UNL     1      -9.347  -6.817 -13.924  1.00  0.00     0.000 C 
BRANCH   2   3
ATOM      3  C   UNL     1      -7.853  -7.165 -14.067  1.00  0.00     0.000 C 
BRANCH   3   4
ATOM      4  C   UNL     1      -6.904  -5.959 -14.206  1.00  0.00     0.006 C 
BRANCH   4   5
ATOM      5  C   UNL     1      -7.582  -4.598 -13.961  1.00  0.00     0.053 C 
BRANCH   5   6
ATOM      6  C   UNL     1      -6.688  -3.634 -13.241  1.00  0.00     0.041 C 
ATOM      7  O   UNL     1      -5.499  -3.951 -12.972  1.00  0.00    -0.550 OA
ATOM      8  O   UNL     1      -7.177  -2.399 -12.835  1.00  0.00    -0.550 OA
ENDBRANCH   5   6
ENDBRANCH   4   5
ENDBRANCH   3   4
ENDBRANCH   2   3
ENDBRANCH   1   2
BRANCH   1   9
ATOM      9  C   UNL     1     -10.104  -7.136 -11.495  1.00  0.00     0.000 C 
BRANCH   9  10
ATOM     10  C   UNL     1      -9.202  -7.961 -10.563  1.00  0.00    -0.000 C 
BRANCH  10  11
ATOM     11  C   UNL     1      -7.809  -7.339 -10.379  1.00  0.00    -0.000 C 
BRANCH  11  12
ATOM     12  C   UNL     1      -7.880  -5.806 -10.450  1.00  0.00    -0.000 C 
BRANCH  12  13
ATOM     13  C   UNL     1      -6.631  -5.129  -9.865  1.00  0.00    -0.003 C 
ATOM     14  C   UNL     1      -6.835  -3.637  -9.601  1.00  0.00     0.004 C 
ENDBRANCH  12  13
ENDBRANCH  11  12
ENDBRANCH  10  11
ENDBRANCH   9  10
ENDBRANCH   1   9
TORSDOF 10
ENDMDL
MODEL 2
REMARK VINA RESULT:    -4.316      2.480      4.352
REMARK INTER + INTRA:          -8.190
REMARK INTER:                  -6.917
REMARK INTRA:                  -1.273
REMARK UNBOUND:                -1.351
REMARK SMILES CCCCCCCCCCCC(=O)[O-]
REMARK SMILES IDX 7 1 8 2 9 3 10 4 11 5 12 6 13 7 14 8 6 9 5 10 4 11 3 12 2 13
REMARK SMILES IDX 1 14
REMARK H PARENT
REMARK Flexibility Score: inf
ROOT
ATOM      1  C   UNL     1      -7.641  -7.838 -11.222  1.00  0.00     0.000 C 
ENDROOT
BRANCH   1   2
ATOM      2  C   UNL     1      -8.622  -6.892 -10.507  1.00  0.00     0.000 C 
BRANCH   2   3
ATOM      3  C   UNL     1      -8.088  -5.472 -10.235  1.00  0.00     0.000 C 
BRANCH   3   4
ATOM      4  C   UNL     1      -6.583  -5.380  -9.921  1.00  0.00     0.006 C 
BRANCH   4   5
ATOM      5  C   UNL     1      -6.182  -4.112  -9.144  1.00  0.00     0.053 C 
BRANCH   5   6
ATOM      6  C   UNL     1      -5.163  -4.390  -8.082  1.00  0.00     0.041 C 
ATOM      7  O   UNL     1      -4.537  -3.442  -7.538  1.00  0.00    -0.550 OA
ATOM      8  O   UNL     1      -4.878  -5.699  -7.715  1.00  0.00    -0.550 OA
ENDBRANCH   5   6
ENDBRANCH   4   5
ENDBRANCH   3   4
ENDBRANCH   2   3
ENDBRANCH   1   2
BRANCH   1   9
ATOM      9  C   UNL     1      -7.812  -7.833 -12.751  1.00  0.00     0.000 C 
BRANCH   9  10
ATOM     10  C   UNL     1      -6.617  -7.192 -13.476  1.00  0.00    -0.000 C 
BRANCH  10  11
ATOM     11  C   UNL     1      -7.046  -6.176 -14.546  1.00  0.00    -0.000 C 
BRANCH  11  12
ATOM     12  C   UNL     1      -7.534  -4.871 -13.900  1.00  0.00    -0.000 C 
BRANCH  12  13
ATOM     13  C   UNL     1      -6.379  -3.944 -13.495  1.00  0.00    -0.003 C 
ATOM     14  C   UNL     1      -6.822  -2.818 -12.560  1.00  0.00     0.004 C 
ENDBRANCH  12  13
ENDBRANCH  11  12
ENDBRANCH  10  11
ENDBRANCH   9  10
ENDBRANCH   1   9
TORSDOF 10
ENDMDL
MODEL 3
REMARK VINA RESULT:    -4.252      2.249      3.736
REMARK INTER + INTRA:          -8.088
REMARK INTER:                  -6.995
REMARK INTRA:                  -1.093
REMARK UNBOUND:                -1.351
REMARK SMILES CCCCCCCCCCCC(=O)[O-]
REMARK SMILES IDX 7 1 8 2 9 3 10 4 11 5 12 6 13 7 14 8 6 9 5 10 4 11 3 12 2 13
REMARK SMILES IDX 1 14
REMARK H PARENT
REMARK Flexibility Score: inf
ROOT
ATOM      1  C   UNL     1      -6.633  -4.106 -10.746  1.00  0.00     0.000 C 
ENDROOT
BRANCH   1   2
ATOM      2  C   UNL     1      -6.802  -3.358 -12.080  1.00  0.00     0.000 C 
BRANCH   2   3
ATOM      3  C   UNL     1      -5.986  -3.921 -13.259  1.00  0.00     0.000 C 
BRANCH   3   4
ATOM      4  C   UNL     1      -6.634  -5.102 -14.006  1.00  0.00     0.006 C 
BRANCH   4   5
ATOM      5  C   UNL     1      -8.160  -4.976 -14.173  1.00  0.00     0.053 C 
BRANCH   5   6
ATOM      6  C   UNL     1      -8.833  -6.308 -14.309  1.00  0.00     0.041 C 
ATOM      7  O   UNL     1      -8.191  -7.369 -14.092  1.00  0.00    -0.550 OA
ATOM      8  O   UNL     1     -10.161  -6.380 -14.710  1.00  0.00    -0.550 OA
ENDBRANCH   5   6
ENDBRANCH   4   5
ENDBRANCH   3   4
ENDBRANCH   2   3
ENDBRANCH   1   2
BRANCH   1   9
ATOM      9  C   UNL     1      -7.787  -5.082 -10.457  1.00  0.00     0.000 C 
BRANCH   9  10
ATOM     10  C   UNL     1      -7.392  -6.549 -10.694  1.00  0.00    -0.000 C 
BRANCH  10  11
ATOM     11  C   UNL     1      -8.459  -7.539 -10.203  1.00  0.00    -0.000 C 
BRANCH  11  12
ATOM     12  C   UNL     1      -9.859  -7.110 -10.667  1.00  0.00    -0.000 C 
BRANCH  12  13
ATOM     13  C   UNL     1     -10.874  -7.062  -9.516  1.00  0.00    -0.003 C 
ATOM     14  C   UNL     1     -11.059  -5.655  -8.947  1.00  0.00     0.004 C 
ENDBRANCH  12  13
ENDBRANCH  11  12
ENDBRANCH  10  11
ENDBRANCH   9  10
ENDBRANCH   1   9
TORSDOF 10
ENDMDL
MODEL 4
REMARK VINA RESULT:    -4.183      0.789      3.457
REMARK INTER + INTRA:          -7.979
REMARK INTER:                  -6.587
REMARK INTRA:                  -1.392
REMARK UNBOUND:                -1.351
REMARK SMILES CCCCCCCCCCCC(=O)[O-]
REMARK SMILES IDX 7 1 8 2 9 3 10 4 11 5 12 6 13 7 14 8 6 9 5 10 4 11 3 12 2 13
REMARK SMILES IDX 1 14
REMARK H PARENT
REMARK Flexibility Score: inf
ROOT
ATOM      1  C   UNL     1      -9.421  -7.927 -10.773  1.00  0.00     0.000 C 
ENDROOT
BRANCH   1   2
ATOM      2  C   UNL     1      -8.139  -7.200 -10.332  1.00  0.00     0.000 C 
BRANCH   2   3
ATOM      3  C   UNL     1      -8.203  -5.661 -10.382  1.00  0.00     0.000 C 
BRANCH   3   4
ATOM      4  C   UNL     1      -6.840  -4.943 -10.394  1.00  0.00     0.006 C 
BRANCH   4   5
ATOM      5  C   UNL     1      -6.916  -3.465 -10.822  1.00  0.00     0.053 C 
BRANCH   5   6
ATOM      6  C   UNL     1      -6.587  -3.271 -12.270  1.00  0.00     0.041 C 
ATOM      7  O   UNL     1      -7.277  -2.492 -12.980  1.00  0.00    -0.550 OA
ATOM      8  O   UNL     1      -5.540  -3.978 -12.848  1.00  0.00    -0.550 OA
ENDBRANCH   5   6
ENDBRANCH   4   5
ENDBRANCH   3   4
ENDBRANCH   2   3
ENDBRANCH   1   2
BRANCH   1   9
ATOM      9  C   UNL     1     -10.226  -7.138 -11.820  1.00  0.00     0.000 C 
BRANCH   9  10
ATOM     10  C   UNL     1     -10.207  -7.806 -13.205  1.00  0.00    -0.000 C 
BRANCH  10  11
ATOM     11  C   UNL     1      -9.783  -6.842 -14.324  1.00  0.00    -0.000 C 
BRANCH  11  12
ATOM     12  C   UNL     1      -8.484  -6.110 -13.954  1.00  0.00    -0.000 C 
BRANCH  12  13
ATOM     13  C   UNL     1      -7.231  -6.835 -14.466  1.00  0.00    -0.003 C 
ATOM     14  C   UNL     1      -6.337  -7.344 -13.335  1.00  0.00     0.004 C 
ENDBRANCH  12  13
ENDBRANCH  11  12
ENDBRANCH  10  11
ENDBRANCH   9  10
ENDBRANCH   1   9
TORSDOF 10
ENDMDL
MODEL 5
REMARK VINA RESULT:    -4.115      2.632      5.352
REMARK INTER + INTRA:          -7.871
REMARK INTER:                  -6.556
REMARK INTRA:                  -1.315
REMARK UNBOUND:                -1.351
REMARK SMILES CCCCCCCCCCCC(=O)[O-]
REMARK SMILES IDX 7 1 8 2 9 3 10 4 11 5 12 6 13 7 14 8 6 9 5 10 4 11 3 12 2 13
REMARK SMILES IDX 1 14
REMARK H PARENT
REMARK Flexibility Score: inf
ROOT
ATOM      1  C   UNL     1      -6.750  -3.219 -11.182  1.00  0.00     0.000 C 
ENDROOT
BRANCH   1   2
ATOM      2  C   UNL     1      -6.736  -4.571 -10.447  1.00  0.00     0.000 C 
BRANCH   2   3
ATOM      3  C   UNL     1      -7.969  -5.464 -10.686  1.00  0.00     0.000 C 
BRANCH   3   4
ATOM      4  C   UNL     1      -7.681  -6.975 -10.781  1.00  0.00     0.006 C 
BRANCH   4   5
ATOM      5  C   UNL     1      -8.677  -7.852 -10.000  1.00  0.00     0.053 C 
BRANCH   5   6
ATOM      6  C   UNL     1     -10.100  -7.433 -10.216  1.00  0.00     0.041 C 
ATOM      7  O   UNL     1     -10.789  -7.004  -9.253  1.00  0.00    -0.550 OA
ATOM      8  O   UNL     1     -10.678  -7.550 -11.473  1.00  0.00    -0.550 OA
ENDBRANCH   5   6
ENDBRANCH   4   5
ENDBRANCH   3   4
ENDBRANCH   2   3
ENDBRANCH   1   2
BRANCH   1   9
ATOM      9  C   UNL     1      -7.079  -3.357 -12.679  1.00  0.00     0.000 C 
BRANCH   9  10
ATOM     10  C   UNL     1      -5.995  -4.127 -13.452  1.00  0.00    -0.000 C 
BRANCH  10  11
ATOM     11  C   UNL     1      -6.561  -5.317 -14.243  1.00  0.00    -0.000 C 
BRANCH  11  12
ATOM     12  C   UNL     1      -8.095  -5.255 -14.304  1.00  0.00    -0.000 C 
BRANCH  12  13
ATOM     13  C   UNL     1      -8.745  -6.645 -14.259  1.00  0.00    -0.003 C 
ATOM     14  C   UNL     1      -7.723  -7.780 -14.336  1.00  0.00     0.004 C 
ENDBRANCH  12  13
ENDBRANCH  11  12
ENDBRANCH  10  11
ENDBRANCH   9  10
ENDBRANCH   1   9
TORSDOF 10
ENDMDL
MODEL 6
REMARK VINA RESULT:    -4.063      0.888      1.682
REMARK INTER + INTRA:          -7.788
REMARK INTER:                  -6.419
REMARK INTRA:                  -1.369
REMARK UNBOUND:                -1.351
REMARK SMILES CCCCCCCCCCCC(=O)[O-]
REMARK SMILES IDX 7 1 8 2 9 3 10 4 11 5 12 6 13 7 14 8 6 9 5 10 4 11 3 12 2 13
REMARK SMILES IDX 1 14
REMARK H PARENT
REMARK Flexibility Score: inf
ROOT
ATOM      1  C   UNL     1      -9.484  -7.537 -14.392  1.00  0.00     0.000 C 
ENDROOT
BRANCH   1   2
ATOM      2  C   UNL     1      -8.083  -8.088 -14.075  1.00  0.00     0.000 C 
BRANCH   2   3
ATOM      3  C   UNL     1      -7.042  -7.036 -13.646  1.00  0.00     0.000 C 
BRANCH   3   4
ATOM      4  C   UNL     1      -7.085  -5.708 -14.426  1.00  0.00     0.006 C 
BRANCH   4   5
ATOM      5  C   UNL     1      -7.740  -4.549 -13.652  1.00  0.00     0.053 C 
BRANCH   5   6
ATOM      6  C   UNL     1      -6.732  -3.601 -13.079  1.00  0.00     0.041 C 
ATOM      7  O   UNL     1      -5.542  -3.973 -12.896  1.00  0.00    -0.550 OA
ATOM      8  O   UNL     1      -7.112  -2.316 -12.713  1.00  0.00    -0.550 OA
ENDBRANCH   5   6
ENDBRANCH   4   5
ENDBRANCH   3   4
ENDBRANCH   2   3
ENDBRANCH   1   2
BRANCH   1   9
ATOM      9  C   UNL     1     -10.576  -8.112 -13.472  1.00  0.00     0.000 C 
BRANCH   9  10
ATOM     10  C   UNL     1     -10.721  -7.319 -12.163  1.00  0.00    -0.000 C 
BRANCH  10  11
ATOM     11  C   UNL     1     -10.286  -8.125 -10.929  1.00  0.00    -0.000 C 
BRANCH  11  12
ATOM     12  C   UNL     1      -8.898  -7.679 -10.444  1.00  0.00    -0.000 C 
BRANCH  12  13
ATOM     13  C   UNL     1      -8.772  -6.152 -10.337  1.00  0.00    -0.003 C 
ATOM     14  C   UNL     1      -7.322  -5.686 -10.199  1.00  0.00     0.004 C 
ENDBRANCH  12  13
ENDBRANCH  11  12
ENDBRANCH  10  11
ENDBRANCH   9  10
ENDBRANCH   1   9
TORSDOF 10
ENDMDL
MODEL 7
REMARK VINA RESULT:    -4.019      1.904      3.611
REMARK INTER + INTRA:          -7.718
REMARK INTER:                  -6.636
REMARK INTRA:                  -1.082
REMARK UNBOUND:                -1.351
REMARK SMILES CCCCCCCCCCCC(=O)[O-]
REMARK SMILES IDX 7 1 8 2 9 3 10 4 11 5 12 6 13 7 14 8 6 9 5 10 4 11 3 12 2 13
REMARK SMILES IDX 1 14
REMARK H PARENT
REMARK Flexibility Score: inf
ROOT
ATOM      1  C   UNL     1      -7.120  -5.875 -14.704  1.00  0.00     0.000 C 
ENDROOT
BRANCH   1   2
ATOM      2  C   UNL     1      -6.238  -4.928 -13.872  1.00  0.00     0.000 C 
BRANCH   2   3
ATOM      3  C   UNL     1      -6.915  -3.617 -13.427  1.00  0.00     0.000 C 
BRANCH   3   4
ATOM      4  C   UNL     1      -6.645  -3.196 -11.970  1.00  0.00     0.006 C 
BRANCH   4   5
ATOM      5  C   UNL     1      -6.904  -4.309 -10.938  1.00  0.00     0.053 C 
BRANCH   5   6
ATOM      6  C   UNL     1      -6.649  -3.857  -9.533  1.00  0.00     0.041 C 
ATOM      7  O   UNL     1      -7.404  -3.005  -8.993  1.00  0.00    -0.550 OA
ATOM      8  O   UNL     1      -5.557  -4.349  -8.829  1.00  0.00    -0.550 OA
ENDBRANCH   5   6
ENDBRANCH   4   5
ENDBRANCH   3   4
ENDBRANCH   2   3
ENDBRANCH   1   2
BRANCH   1   9
ATOM      9  C   UNL     1      -7.728  -7.014 -13.867  1.00  0.00     0.000 C 
BRANCH   9  10
ATOM     10  C   UNL     1      -6.721  -7.621 -12.877  1.00  0.00    -0.000 C 
BRANCH  10  11
ATOM     11  C   UNL     1      -7.385  -8.125 -11.586  1.00  0.00    -0.000 C 
BRANCH  11  12
ATOM     12  C   UNL     1      -8.857  -7.691 -11.522  1.00  0.00    -0.000 C 
BRANCH  12  13
ATOM     13  C   UNL     1      -9.364  -7.532 -10.081  1.00  0.00    -0.003 C 
ATOM     14  C   UNL     1     -10.043  -6.184  -9.837  1.00  0.00     0.004 C 
ENDBRANCH  12  13
ENDBRANCH  11  12
ENDBRANCH  10  11
ENDBRANCH   9  10
ENDBRANCH   1   9
TORSDOF 10
ENDMDL
MODEL 8
REMARK VINA RESULT:    -3.857      2.435      3.898
REMARK INTER + INTRA:          -7.462
REMARK INTER:                  -6.577
REMARK INTRA:                  -0.886
REMARK UNBOUND:                -1.351
REMARK SMILES CCCCCCCCCCCC(=O)[O-]
REMARK SMILES IDX 7 1 8 2 9 3 10 4 11 5 12 6 13 7 14 8 6 9 5 10 4 11 3 12 2 13
REMARK SMILES IDX 1 14
REMARK H PARENT
REMARK Flexibility Score: inf
ROOT
ATOM      1  C   UNL     1      -6.296  -3.926 -13.252  1.00  0.00     0.000 C 
ENDROOT
BRANCH   1   2
ATOM      2  C   UNL     1      -7.411  -4.793 -13.862  1.00  0.00     0.000 C 
BRANCH   2   3
ATOM      3  C   UNL     1      -6.931  -6.039 -14.632  1.00  0.00     0.000 C 
BRANCH   3   4
ATOM      4  C   UNL     1      -7.611  -7.363 -14.237  1.00  0.00     0.006 C 
BRANCH   4   5
ATOM      5  C   UNL     1      -7.150  -7.923 -12.878  1.00  0.00     0.053 C 
BRANCH   5   6
ATOM      6  C   UNL     1      -8.209  -7.812 -11.824  1.00  0.00     0.041 C 
ATOM      7  O   UNL     1      -7.954  -8.125 -10.631  1.00  0.00    -0.550 OA
ATOM      8  O   UNL     1      -9.491  -7.397 -12.164  1.00  0.00    -0.550 OA
ENDBRANCH   5   6
ENDBRANCH   4   5
ENDBRANCH   3   4
ENDBRANCH   2   3
ENDBRANCH   1   2
BRANCH   1   9
ATOM      9  C   UNL     1      -6.622  -3.449 -11.826  1.00  0.00     0.000 C 
BRANCH   9  10
ATOM     10  C   UNL     1      -7.356  -4.519 -11.000  1.00  0.00    -0.000 C 
BRANCH  10  11
ATOM     11  C   UNL     1      -6.552  -4.980  -9.775  1.00  0.00    -0.000 C 
BRANCH  11  12
ATOM     12  C   UNL     1      -6.257  -3.800  -8.836  1.00  0.00    -0.000 C 
BRANCH  12  13
ATOM     13  C   UNL     1      -4.970  -4.000  -8.023  1.00  0.00    -0.003 C 
ATOM     14  C   UNL     1      -4.740  -5.459  -7.627  1.00  0.00     0.004 C 
ENDBRANCH  12  13
ENDBRANCH  11  12
ENDBRANCH  10  11
ENDBRANCH   9  10
ENDBRANCH   1   9
TORSDOF 10
ENDMDL
MODEL 9
REMARK VINA RESULT:    -3.827     13.298     15.388
REMARK INTER + INTRA:          -7.415
REMARK INTER:                  -7.014
REMARK INTRA:                  -0.401
REMARK UNBOUND:                -1.351
REMARK SMILES CCCCCCCCCCCC(=O)[O-]
REMARK SMILES IDX 7 1 8 2 9 3 10 4 11 5 12 6 13 7 14 8 6 9 5 10 4 11 3 12 2 13
REMARK SMILES IDX 1 14
REMARK H PARENT
REMARK Flexibility Score: inf
ROOT
ATOM      1  C   UNL     1       6.136  -3.936 -12.417  1.00  0.00     0.000 C 
ENDROOT
BRANCH   1   2
ATOM      2  C   UNL     1       7.477  -3.262 -12.076  1.00  0.00     0.000 C 
BRANCH   2   3
ATOM      3  C   UNL     1       8.144  -3.743 -10.773  1.00  0.00     0.000 C 
BRANCH   3   4
ATOM      4  C   UNL     1       8.719  -5.172 -10.814  1.00  0.00     0.006 C 
BRANCH   4   5
ATOM      5  C   UNL     1       8.513  -5.967  -9.511  1.00  0.00     0.053 C 
BRANCH   5   6
ATOM      6  C   UNL     1       8.335  -7.434  -9.757  1.00  0.00     0.041 C 
ATOM      7  O   UNL     1       9.098  -8.041 -10.554  1.00  0.00    -0.550 OA
ATOM      8  O   UNL     1       7.303  -8.125  -9.135  1.00  0.00    -0.550 OA
ENDBRANCH   5   6
ENDBRANCH   4   5
ENDBRANCH   3   4
ENDBRANCH   2   3
ENDBRANCH   1   2
BRANCH   1   9
ATOM      9  C   UNL     1       5.369  -3.211 -13.536  1.00  0.00     0.000 C 
BRANCH   9  10
ATOM     10  C   UNL     1       5.762  -1.729 -13.655  1.00  0.00    -0.000 C 
BRANCH  10  11
ATOM     11  C   UNL     1       4.761  -0.913 -14.486  1.00  0.00    -0.000 C 
BRANCH  11  12
ATOM     12  C   UNL     1       3.460  -0.680 -13.703  1.00  0.00    -0.000 C 
BRANCH  12  13
ATOM     13  C   UNL     1       2.292  -0.262 -14.608  1.00  0.00    -0.003 C 
ATOM     14  C   UNL     1       2.405   1.184 -15.092  1.00  0.00     0.004 C 
ENDBRANCH  12  13
ENDBRANCH  11  12
ENDBRANCH  10  11
ENDBRANCH   9  10
ENDBRANCH   1   9
TORSDOF 10
ENDMDL
