MODEL 1
REMARK VINA RESULT:    -3.434      0.000      0.000
REMARK INTER + INTRA:          -3.534
REMARK INTER:                  -3.534
REMARK INTRA:                   0.000
REMARK UNBOUND:                 0.000
REMARK SMILES CC1(C)[C@@H]2CC[C@@](C)(C2)[C@@H]1O
REMARK SMILES IDX 1 1 2 2 4 3 5 4 6 5 7 6 9 7 10 8 8 9 3 10 11 11
REMARK H PARENT 11 12
REMARK Flexibility Score: inf
ROOT
ATOM      1  C   UNL     1     173.543 156.775 169.765  1.00  0.00     0.014 C 
ATOM      2  C   UNL     1     172.414 157.551 169.043  1.00  0.00    -0.006 C 
ATOM      3  C   UNL     1     171.015 157.096 169.585  1.00  0.00    -0.002 C 
ATOM      4  C   UNL     1     169.870 157.648 168.709  1.00  0.00     0.005 C 
ATOM      5  C   UNL     1     169.930 159.158 168.984  1.00  0.00     0.010 C 
ATOM      6  C   UNL     1     171.026 159.264 170.072  1.00  0.00    -0.006 C 
ATOM      7  C   UNL     1     170.837 157.963 170.821  1.00  0.00     0.013 C 
ATOM      8  C   UNL     1     172.430 159.064 169.447  1.00  0.00     0.126 C 
ATOM      9  C   UNL     1     170.908 160.513 170.952  1.00  0.00     0.014 C 
ATOM     10  C   UNL     1     172.589 157.312 167.521  1.00  0.00     0.014 C 
ENDROOT
BRANCH   8  11
ATOM     11  O   UNL     1     172.637 159.936 168.364  1.00  0.00    -0.392 OA
ATOM     12  H   UNL     1     172.913 159.371 167.597  1.00  0.00     0.211 HD
ENDBRANCH   8  11
TORSDOF 1
ENDMDL
MODEL 2
REMARK VINA RESULT:    -3.410     16.967     18.969
REMARK INTER + INTRA:          -3.509
REMARK INTER:                  -3.509
REMARK INTRA:                   0.000
REMARK UNBOUND:                 0.000
REMARK SMILES CC1(C)[C@@H]2CC[C@@](C)(C2)[C@@H]1O
REMARK SMILES IDX 1 1 2 2 4 3 5 4 6 5 7 6 9 7 10 8 8 9 3 10 11 11
REMARK H PARENT 11 12
REMARK Flexibility Score: inf
ROOT
ATOM      1  C   UNL     1     157.744 174.453 169.737  1.00  0.00     0.014 C 
ATOM      2  C   UNL     1     158.860 173.665 169.008  1.00  0.00    -0.006 C 
ATOM      3  C   UNL     1     160.267 174.097 169.548  1.00  0.00    -0.002 C 
ATOM      4  C   UNL     1     161.401 173.534 168.665  1.00  0.00     0.005 C 
ATOM      5  C   UNL     1     161.321 172.024 168.932  1.00  0.00     0.010 C 
ATOM      6  C   UNL     1     160.226 171.927 170.023  1.00  0.00    -0.006 C 
ATOM      7  C   UNL     1     160.436 173.221 170.778  1.00  0.00     0.013 C 
ATOM      8  C   UNL     1     158.823 172.150 169.404  1.00  0.00     0.126 C 
ATOM      9  C   UNL     1     160.329 170.671 170.895  1.00  0.00     0.014 C 
ATOM     10  C   UNL     1     158.684 173.915 167.487  1.00  0.00     0.014 C 
ENDROOT
BRANCH   8  11
ATOM     11  O   UNL     1     158.601 171.287 168.316  1.00  0.00    -0.392 OA
ATOM     12  H   UNL     1     158.385 171.865 167.539  1.00  0.00     0.211 HD
ENDBRANCH   8  11
TORSDOF 1
ENDMDL
MODEL 3
REMARK VINA RESULT:    -3.397      2.977      4.154
REMARK INTER + INTRA:          -3.496
REMARK INTER:                  -3.496
REMARK INTRA:                   0.000
REMARK UNBOUND:                 0.000
REMARK SMILES CC1(C)[C@@H]2CC[C@@](C)(C2)[C@@H]1O
REMARK SMILES IDX 1 1 2 2 4 3 5 4 6 5 7 6 9 7 10 8 8 9 3 10 11 11
REMARK H PARENT 11 12
REMARK Flexibility Score: inf
ROOT
ATOM      1  C   UNL     1     169.929 156.094 170.304  1.00  0.00     0.014 C 
ATOM      2  C   UNL     1     169.053 157.337 170.600  1.00  0.00    -0.006 C 
ATOM      3  C   UNL     1     169.904 158.645 170.449  1.00  0.00    -0.002 C 
ATOM      4  C   UNL     1     169.141 159.872 170.992  1.00  0.00     0.005 C 
ATOM      5  C   UNL     1     167.992 160.030 169.986  1.00  0.00     0.010 C 
ATOM      6  C   UNL     1     168.309 158.943 168.930  1.00  0.00    -0.006 C 
ATOM      7  C   UNL     1     169.822 158.927 168.958  1.00  0.00     0.013 C 
ATOM      8  C   UNL     1     167.972 157.535 169.484  1.00  0.00     0.126 C 
ATOM      9  C   UNL     1     167.713 159.227 167.548  1.00  0.00     0.014 C 
ATOM     10  C   UNL     1     168.456 157.154 172.019  1.00  0.00     0.014 C 
ENDROOT
BRANCH   8  11
ATOM     11  O   UNL     1     166.650 157.477 169.961  1.00  0.00    -0.392 OA
ATOM     12  H   UNL     1     166.525 156.564 170.331  1.00  0.00     0.211 HD
ENDBRANCH   8  11
TORSDOF 1
ENDMDL
MODEL 4
REMARK VINA RESULT:    -3.389     15.507     17.374
REMARK INTER + INTRA:          -3.488
REMARK INTER:                  -3.488
REMARK INTRA:                   0.000
REMARK UNBOUND:                 0.000
REMARK SMILES CC1(C)[C@@H]2CC[C@@](C)(C2)[C@@H]1O
REMARK SMILES IDX 1 1 2 2 4 3 5 4 6 5 7 6 9 7 10 8 8 9 3 10 11 11
REMARK H PARENT 11 12
REMARK Flexibility Score: inf
ROOT
ATOM      1  C   UNL     1     161.218 175.056 170.342  1.00  0.00     0.014 C 
ATOM      2  C   UNL     1     162.128 173.833 170.616  1.00  0.00    -0.006 C 
ATOM      3  C   UNL     1     161.310 172.505 170.453  1.00  0.00    -0.002 C 
ATOM      4  C   UNL     1     162.108 171.291 170.975  1.00  0.00     0.005 C 
ATOM      5  C   UNL     1     163.256 171.177 169.961  1.00  0.00     0.010 C 
ATOM      6  C   UNL     1     162.904 172.269 168.922  1.00  0.00    -0.006 C 
ATOM      7  C   UNL     1     161.392 172.245 168.958  1.00  0.00     0.013 C 
ATOM      8  C   UNL     1     163.207 173.678 169.492  1.00  0.00     0.126 C 
ATOM      9  C   UNL     1     163.499 172.019 167.532  1.00  0.00     0.014 C 
ATOM     10  C   UNL     1     162.728 174.013 172.035  1.00  0.00     0.014 C 
ENDROOT
BRANCH   8  11
ATOM     11  O   UNL     1     164.530 173.765 169.963  1.00  0.00    -0.392 OA
ATOM     12  H   UNL     1     165.117 173.597 169.181  1.00  0.00     0.211 HD
ENDBRANCH   8  11
TORSDOF 1
ENDMDL
MODEL 5
REMARK VINA RESULT:    -3.338      0.806      3.296
REMARK INTER + INTRA:          -3.436
REMARK INTER:                  -3.436
REMARK INTRA:                   0.000
REMARK UNBOUND:                 0.000
REMARK SMILES CC1(C)[C@@H]2CC[C@@](C)(C2)[C@@H]1O
REMARK SMILES IDX 1 1 2 2 4 3 5 4 6 5 7 6 9 7 10 8 8 9 3 10 11 11
REMARK H PARENT 11 12
REMARK Flexibility Score: inf
ROOT
ATOM      1  C   UNL     1     169.353 159.273 169.051  1.00  0.00     0.014 C 
ATOM      2  C   UNL     1     170.784 159.059 169.602  1.00  0.00    -0.006 C 
ATOM      3  C   UNL     1     170.895 157.652 170.284  1.00  0.00    -0.002 C 
ATOM      4  C   UNL     1     172.216 157.515 171.071  1.00  0.00     0.005 C 
ATOM      5  C   UNL     1     173.274 157.500 169.959  1.00  0.00     0.010 C 
ATOM      6  C   UNL     1     172.416 157.514 168.670  1.00  0.00    -0.006 C 
ATOM      7  C   UNL     1     171.196 156.735 169.110  1.00  0.00     0.013 C 
ATOM      8  C   UNL     1     171.817 158.923 168.433  1.00  0.00     0.126 C 
ATOM      9  C   UNL     1     173.125 156.924 167.446  1.00  0.00     0.014 C 
ATOM     10  C   UNL     1     171.088 160.234 170.568  1.00  0.00     0.014 C 
ENDROOT
BRANCH   8  11
ATOM     11  O   UNL     1     172.817 159.912 168.445  1.00  0.00    -0.392 OA
ATOM     12  H   UNL     1     172.354 160.778 168.583  1.00  0.00     0.211 HD
ENDBRANCH   8  11
TORSDOF 1
ENDMDL
MODEL 6
REMARK VINA RESULT:    -3.335     17.210     19.079
REMARK INTER + INTRA:          -3.432
REMARK INTER:                  -3.432
REMARK INTRA:                   0.000
REMARK UNBOUND:                 0.000
REMARK SMILES CC1(C)[C@@H]2CC[C@@](C)(C2)[C@@H]1O
REMARK SMILES IDX 1 1 2 2 4 3 5 4 6 5 7 6 9 7 10 8 8 9 3 10 11 11
REMARK H PARENT 11 12
REMARK Flexibility Score: inf
ROOT
ATOM      1  C   UNL     1     161.830 171.937 169.027  1.00  0.00     0.014 C 
ATOM      2  C   UNL     1     160.398 172.151 169.577  1.00  0.00    -0.006 C 
ATOM      3  C   UNL     1     160.290 173.557 170.264  1.00  0.00    -0.002 C 
ATOM      4  C   UNL     1     158.969 173.692 171.051  1.00  0.00     0.005 C 
ATOM      5  C   UNL     1     157.911 173.713 169.938  1.00  0.00     0.010 C 
ATOM      6  C   UNL     1     158.770 173.702 168.650  1.00  0.00    -0.006 C 
ATOM      7  C   UNL     1     159.990 174.478 169.094  1.00  0.00     0.013 C 
ATOM      8  C   UNL     1     159.366 172.293 168.408  1.00  0.00     0.126 C 
ATOM      9  C   UNL     1     158.062 174.297 167.428  1.00  0.00     0.014 C 
ATOM     10  C   UNL     1     160.092 170.974 170.539  1.00  0.00     0.014 C 
ENDROOT
BRANCH   8  11
ATOM     11  O   UNL     1     158.365 171.305 168.416  1.00  0.00    -0.392 OA
ATOM     12  H   UNL     1     158.065 171.202 167.476  1.00  0.00     0.211 HD
ENDBRANCH   8  11
TORSDOF 1
ENDMDL
MODEL 7
REMARK VINA RESULT:    -3.284     15.792     17.174
REMARK INTER + INTRA:          -3.380
REMARK INTER:                  -3.380
REMARK INTRA:                   0.000
REMARK UNBOUND:                 0.000
REMARK SMILES CC1(C)[C@@H]2CC[C@@](C)(C2)[C@@H]1O
REMARK SMILES IDX 1 1 2 2 4 3 5 4 6 5 7 6 9 7 10 8 8 9 3 10 11 11
REMARK H PARENT 11 12
REMARK Flexibility Score: inf
ROOT
ATOM      1  C   UNL     1     162.353 171.518 171.843  1.00  0.00     0.014 C 
ATOM      2  C   UNL     1     163.021 172.186 170.616  1.00  0.00    -0.006 C 
ATOM      3  C   UNL     1     162.499 171.526 169.293  1.00  0.00    -0.002 C 
ATOM      4  C   UNL     1     163.334 171.979 168.076  1.00  0.00     0.005 C 
ATOM      5  C   UNL     1     162.969 173.465 167.948  1.00  0.00     0.010 C 
ATOM      6  C   UNL     1     161.883 173.646 169.037  1.00  0.00    -0.006 C 
ATOM      7  C   UNL     1     161.213 172.289 169.023  1.00  0.00     0.013 C 
ATOM      8  C   UNL     1     162.527 173.662 170.446  1.00  0.00     0.126 C 
ATOM      9  C   UNL     1     160.929 174.816 168.774  1.00  0.00     0.014 C 
ATOM     10  C   UNL     1     164.555 172.060 170.799  1.00  0.00     0.014 C 
ENDROOT
BRANCH   8  11
ATOM     11  O   UNL     1     163.557 174.616 170.526  1.00  0.00    -0.392 OA
ATOM     12  H   UNL     1     164.334 174.231 170.042  1.00  0.00     0.211 HD
ENDBRANCH   8  11
TORSDOF 1
ENDMDL
MODEL 8
REMARK VINA RESULT:    -3.278      2.828      4.515
REMARK INTER + INTRA:          -3.374
REMARK INTER:                  -3.374
REMARK INTRA:                   0.000
REMARK UNBOUND:                 0.000
REMARK SMILES CC1(C)[C@@H]2CC[C@@](C)(C2)[C@@H]1O
REMARK SMILES IDX 1 1 2 2 4 3 5 4 6 5 7 6 9 7 10 8 8 9 3 10 11 11
REMARK H PARENT 11 12
REMARK Flexibility Score: inf
ROOT
ATOM      1  C   UNL     1     168.871 159.695 171.901  1.00  0.00     0.014 C 
ATOM      2  C   UNL     1     168.193 159.035 170.676  1.00  0.00    -0.006 C 
ATOM      3  C   UNL     1     168.721 159.688 169.351  1.00  0.00    -0.002 C 
ATOM      4  C   UNL     1     167.878 159.244 168.136  1.00  0.00     0.005 C 
ATOM      5  C   UNL     1     168.224 157.753 168.009  1.00  0.00     0.010 C 
ATOM      6  C   UNL     1     169.310 157.560 169.095  1.00  0.00    -0.006 C 
ATOM      7  C   UNL     1     169.997 158.908 169.080  1.00  0.00     0.013 C 
ATOM      8  C   UNL     1     168.669 157.553 170.506  1.00  0.00     0.126 C 
ATOM      9  C   UNL     1     170.249 156.378 168.831  1.00  0.00     0.014 C 
ATOM     10  C   UNL     1     166.661 159.179 170.862  1.00  0.00     0.014 C 
ENDROOT
BRANCH   8  11
ATOM     11  O   UNL     1     167.627 156.612 170.589  1.00  0.00    -0.392 OA
ATOM     12  H   UNL     1     167.054 156.893 171.349  1.00  0.00     0.211 HD
ENDBRANCH   8  11
TORSDOF 1
ENDMDL
MODEL 9
REMARK VINA RESULT:    -3.239     15.682     17.150
REMARK INTER + INTRA:          -3.333
REMARK INTER:                  -3.333
REMARK INTRA:                   0.000
REMARK UNBOUND:                 0.000
REMARK SMILES CC1(C)[C@@H]2CC[C@@](C)(C2)[C@@H]1O
REMARK SMILES IDX 1 1 2 2 4 3 5 4 6 5 7 6 9 7 10 8 8 9 3 10 11 11
REMARK H PARENT 11 12
REMARK Flexibility Score: inf
ROOT
ATOM      1  C   UNL     1     163.358 173.531 167.159  1.00  0.00     0.014 C 
ATOM      2  C   UNL     1     162.596 173.489 168.506  1.00  0.00    -0.006 C 
ATOM      3  C   UNL     1     161.942 172.079 168.712  1.00  0.00    -0.002 C 
ATOM      4  C   UNL     1     160.961 172.087 169.904  1.00  0.00     0.005 C 
ATOM      5  C   UNL     1     161.894 172.270 171.110  1.00  0.00     0.010 C 
ATOM      6  C   UNL     1     163.301 172.227 170.463  1.00  0.00    -0.006 C 
ATOM      7  C   UNL     1     163.077 171.269 169.315  1.00  0.00     0.013 C 
ATOM      8  C   UNL     1     163.592 173.552 169.713  1.00  0.00     0.126 C 
ATOM      9  C   UNL     1     164.414 171.799 171.427  1.00  0.00     0.014 C 
ATOM     10  C   UNL     1     161.564 174.646 168.490  1.00  0.00     0.014 C 
ENDROOT
BRANCH   8  11
ATOM     11  O   UNL     1     163.398 174.666 170.548  1.00  0.00    -0.392 OA
ATOM     12  H   UNL     1     162.944 174.330 171.364  1.00  0.00     0.211 HD
ENDBRANCH   8  11
TORSDOF 1
ENDMDL
