MODEL 1
REMARK VINA RESULT:     6.823      0.000      0.000
REMARK INTER + INTRA:          14.646
REMARK INTER:                  17.194
REMARK INTRA:                  -2.549
REMARK UNBOUND:                -2.549
REMARK SMILES CCCCCCCCCCCCCCCCCCCCCCCCCCCC(=O)[O-]
REMARK SMILES IDX 15 1 16 2 17 3 18 4 19 5 20 6 21 7 22 8 23 9 24 10 25 11
REMARK SMILES IDX 26 12 27 13 28 14 29 15 30 16 14 17 13 18 12 19 11 20 10 21
REMARK SMILES IDX 9 22 8 23 7 24 6 25 5 26 4 27 3 28 2 29 1 30
REMARK H PARENT
REMARK Flexibility Score: inf
ROOT
ATOM      1  C   UNL     1       4.374 -36.767  22.225  1.00  0.00     0.000 C 
ENDROOT
BRANCH   1   2
ATOM      2  C   UNL     1       4.118 -37.674  21.009  1.00  0.00     0.000 C 
BRANCH   2   3
ATOM      3  C   UNL     1       5.412 -38.310  20.476  1.00  0.00     0.000 C 
BRANCH   3   4
ATOM      4  C   UNL     1       5.664 -39.702  21.082  1.00  0.00     0.000 C 
BRANCH   4   5
ATOM      5  C   UNL     1       4.772 -39.983  22.311  1.00  0.00     0.000 C 
BRANCH   5   6
ATOM      6  C   UNL     1       5.536 -39.949  23.646  1.00  0.00     0.000 C 
BRANCH   6   7
ATOM      7  C   UNL     1       4.638 -39.555  24.831  1.00  0.00     0.000 C 
BRANCH   7   8
ATOM      8  C   UNL     1       5.131 -38.293  25.556  1.00  0.00     0.000 C 
BRANCH   8   9
ATOM      9  C   UNL     1       3.991 -37.332  25.926  1.00  0.00     0.000 C 
BRANCH   9  10
ATOM     10  C   UNL     1       3.210 -37.840  27.143  1.00  0.00     0.000 C 
BRANCH  10  11
ATOM     11  C   UNL     1       1.925 -37.022  27.352  1.00  0.00     0.000 C 
BRANCH  11  12
ATOM     12  C   UNL     1       2.192 -35.664  28.031  1.00  0.00     0.006 C 
BRANCH  12  13
ATOM     13  C   UNL     1       1.287 -35.397  29.244  1.00  0.00     0.053 C 
BRANCH  13  14
ATOM     14  C   UNL     1       1.604 -34.096  29.914  1.00  0.00     0.041 C 
ATOM     15  O   UNL     1       0.899 -33.077  29.687  1.00  0.00    -0.550 OA
ATOM     16  O   UNL     1       2.686 -34.004  30.780  1.00  0.00    -0.550 OA
ENDBRANCH  13  14
ENDBRANCH  12  13
ENDBRANCH  11  12
ENDBRANCH  10  11
ENDBRANCH   9  10
ENDBRANCH   8   9
ENDBRANCH   7   8
ENDBRANCH   6   7
ENDBRANCH   5   6
ENDBRANCH   4   5
ENDBRANCH   3   4
ENDBRANCH   2   3
ENDBRANCH   1   2
BRANCH   1  17
ATOM     17  C   UNL     1       5.844 -36.330  22.334  1.00  0.00     0.000 C 
BRANCH  17  18
ATOM     18  C   UNL     1       6.110 -35.486  23.593  1.00  0.00     0.000 C 
BRANCH  18  19
ATOM     19  C   UNL     1       5.249 -34.214  23.643  1.00  0.00     0.000 C 
BRANCH  19  20
ATOM     20  C   UNL     1       5.205 -33.480  22.293  1.00  0.00     0.000 C 
BRANCH  20  21
ATOM     21  C   UNL     1       3.863 -33.663  21.562  1.00  0.00     0.000 C 
BRANCH  21  22
ATOM     22  C   UNL     1       3.984 -34.092  20.088  1.00  0.00    -0.000 C 
BRANCH  22  23
ATOM     23  C   UNL     1       5.427 -34.431  19.683  1.00  0.00    -0.000 C 
BRANCH  23  24
ATOM     24  C   UNL     1       5.466 -35.178  18.341  1.00  0.00    -0.000 C 
BRANCH  24  25
ATOM     25  C   UNL     1       4.073 -35.639  17.884  1.00  0.00    -0.000 C 
BRANCH  25  26
ATOM     26  C   UNL     1       3.817 -35.356  16.395  1.00  0.00    -0.000 C 
BRANCH  26  27
ATOM     27  C   UNL     1       2.357 -35.616  15.982  1.00  0.00    -0.000 C 
BRANCH  27  28
ATOM     28  C   UNL     1       2.213 -36.701  14.895  1.00  0.00    -0.000 C 
BRANCH  28  29
ATOM     29  C   UNL     1       3.536 -36.975  14.167  1.00  0.00    -0.003 C 
ATOM     30  C   UNL     1       3.926 -38.447  14.267  1.00  0.00     0.004 C 
ENDBRANCH  28  29
ENDBRANCH  27  28
ENDBRANCH  26  27
ENDBRANCH  25  26
ENDBRANCH  24  25
ENDBRANCH  23  24
ENDBRANCH  22  23
ENDBRANCH  21  22
ENDBRANCH  20  21
ENDBRANCH  19  20
ENDBRANCH  18  19
ENDBRANCH  17  18
ENDBRANCH   1  17
TORSDOF 26
ENDMDL
MODEL 2
REMARK VINA RESULT:     7.468      1.502      2.429
REMARK INTER + INTRA:          16.271
REMARK INTER:                  15.861
REMARK INTRA:                   0.410
REMARK UNBOUND:                -2.549
REMARK SMILES CCCCCCCCCCCCCCCCCCCCCCCCCCCC(=O)[O-]
REMARK SMILES IDX 15 1 16 2 17 3 18 4 19 5 20 6 21 7 22 8 23 9 24 10 25 11
REMARK SMILES IDX 26 12 27 13 28 14 29 15 30 16 14 17 13 18 12 19 11 20 10 21
REMARK SMILES IDX 9 22 8 23 7 24 6 25 5 26 4 27 3 28 2 29 1 30
REMARK H PARENT
REMARK Flexibility Score: inf
ROOT
ATOM      1  C   UNL     1       5.803 -36.026  22.198  1.00  0.00     0.000 C 
ENDROOT
BRANCH   1   2
ATOM      2  C   UNL     1       4.900 -37.239  21.916  1.00  0.00     0.000 C 
BRANCH   2   3
ATOM      3  C   UNL     1       4.657 -37.445  20.412  1.00  0.00     0.000 C 
BRANCH   3   4
ATOM      4  C   UNL     1       5.862 -38.105  19.716  1.00  0.00     0.000 C 
BRANCH   4   5
ATOM      5  C   UNL     1       5.752 -39.645  19.679  1.00  0.00     0.000 C 
BRANCH   5   6
ATOM      6  C   UNL     1       6.039 -40.315  21.033  1.00  0.00     0.000 C 
BRANCH   6   7
ATOM      7  C   UNL     1       4.878 -40.158  22.030  1.00  0.00     0.000 C 
BRANCH   7   8
ATOM      8  C   UNL     1       5.263 -40.567  23.459  1.00  0.00     0.000 C 
BRANCH   8   9
ATOM      9  C   UNL     1       4.338 -39.960  24.525  1.00  0.00     0.000 C 
BRANCH   9  10
ATOM     10  C   UNL     1       5.145 -39.322  25.662  1.00  0.00     0.000 C 
BRANCH  10  11
ATOM     11  C   UNL     1       5.265 -37.801  25.465  1.00  0.00     0.000 C 
BRANCH  11  12
ATOM     12  C   UNL     1       4.112 -37.026  26.134  1.00  0.00     0.006 C 
BRANCH  12  13
ATOM     13  C   UNL     1       3.465 -37.782  27.306  1.00  0.00     0.053 C 
BRANCH  13  14
ATOM     14  C   UNL     1       2.015 -37.447  27.466  1.00  0.00     0.041 C 
ATOM     15  O   UNL     1       1.132 -38.289  27.152  1.00  0.00    -0.550 OA
ATOM     16  O   UNL     1       1.637 -36.201  27.948  1.00  0.00    -0.550 OA
ENDBRANCH  13  14
ENDBRANCH  12  13
ENDBRANCH  11  12
ENDBRANCH  10  11
ENDBRANCH   9  10
ENDBRANCH   8   9
ENDBRANCH   7   8
ENDBRANCH   6   7
ENDBRANCH   5   6
ENDBRANCH   4   5
ENDBRANCH   3   4
ENDBRANCH   2   3
ENDBRANCH   1   2
BRANCH   1  17
ATOM     17  C   UNL     1       5.857 -35.669  23.693  1.00  0.00     0.000 C 
BRANCH  17  18
ATOM     18  C   UNL     1       6.123 -34.171  23.925  1.00  0.00     0.000 C 
BRANCH  18  19
ATOM     19  C   UNL     1       5.409 -33.278  22.898  1.00  0.00     0.000 C 
BRANCH  19  20
ATOM     20  C   UNL     1       4.116 -33.916  22.362  1.00  0.00     0.000 C 
BRANCH  20  21
ATOM     21  C   UNL     1       3.756 -33.428  20.948  1.00  0.00     0.000 C 
BRANCH  21  22
ATOM     22  C   UNL     1       3.811 -34.513  19.857  1.00  0.00    -0.000 C 
BRANCH  22  23
ATOM     23  C   UNL     1       5.159 -34.551  19.121  1.00  0.00    -0.000 C 
BRANCH  23  24
ATOM     24  C   UNL     1       4.962 -34.759  17.612  1.00  0.00    -0.000 C 
BRANCH  24  25
ATOM     25  C   UNL     1       3.639 -35.468  17.284  1.00  0.00    -0.000 C 
BRANCH  25  26
ATOM     26  C   UNL     1       3.209 -35.271  15.822  1.00  0.00    -0.000 C 
BRANCH  26  27
ATOM     27  C   UNL     1       2.117 -36.262  15.383  1.00  0.00    -0.000 C 
BRANCH  27  28
ATOM     28  C   UNL     1       2.564 -37.200  14.242  1.00  0.00    -0.000 C 
BRANCH  28  29
ATOM     29  C   UNL     1       4.062 -37.530  14.314  1.00  0.00    -0.003 C 
ATOM     30  C   UNL     1       4.329 -38.974  13.897  1.00  0.00     0.004 C 
ENDBRANCH  28  29
ENDBRANCH  27  28
ENDBRANCH  26  27
ENDBRANCH  25  26
ENDBRANCH  24  25
ENDBRANCH  23  24
ENDBRANCH  22  23
ENDBRANCH  21  22
ENDBRANCH  20  21
ENDBRANCH  19  20
ENDBRANCH  18  19
ENDBRANCH  17  18
ENDBRANCH   1  17
TORSDOF 26
ENDMDL
MODEL 3
REMARK VINA RESULT:     7.701      1.679      3.272
REMARK INTER + INTRA:          16.857
REMARK INTER:                  14.770
REMARK INTRA:                   2.087
REMARK UNBOUND:                -2.549
REMARK SMILES CCCCCCCCCCCCCCCCCCCCCCCCCCCC(=O)[O-]
REMARK SMILES IDX 15 1 16 2 17 3 18 4 19 5 20 6 21 7 22 8 23 9 24 10 25 11
REMARK SMILES IDX 26 12 27 13 28 14 29 15 30 16 14 17 13 18 12 19 11 20 10 21
REMARK SMILES IDX 9 22 8 23 7 24 6 25 5 26 4 27 3 28 2 29 1 30
REMARK H PARENT
REMARK Flexibility Score: inf
ROOT
ATOM      1  C   UNL     1       6.094 -35.247  23.717  1.00  0.00     0.000 C 
ENDROOT
BRANCH   1   2
ATOM      2  C   UNL     1       6.098 -35.698  22.246  1.00  0.00     0.000 C 
BRANCH   2   3
ATOM      3  C   UNL     1       5.512 -37.108  22.069  1.00  0.00     0.000 C 
BRANCH   3   4
ATOM      4  C   UNL     1       5.135 -37.399  20.604  1.00  0.00     0.000 C 
BRANCH   4   5
ATOM      5  C   UNL     1       4.552 -38.815  20.414  1.00  0.00     0.000 C 
BRANCH   5   6
ATOM      6  C   UNL     1       5.596 -39.935  20.564  1.00  0.00     0.000 C 
BRANCH   6   7
ATOM      7  C   UNL     1       5.824 -40.339  22.030  1.00  0.00     0.000 C 
BRANCH   7   8
ATOM      8  C   UNL     1       4.586 -40.108  22.910  1.00  0.00     0.000 C 
BRANCH   8   9
ATOM      9  C   UNL     1       4.940 -39.675  24.340  1.00  0.00     0.000 C 
BRANCH   9  10
ATOM     10  C   UNL     1       5.407 -38.216  24.379  1.00  0.00     0.000 C 
BRANCH  10  11
ATOM     11  C   UNL     1       5.663 -37.759  25.825  1.00  0.00     0.000 C 
BRANCH  11  12
ATOM     12  C   UNL     1       4.458 -38.024  26.751  1.00  0.00     0.006 C 
BRANCH  12  13
ATOM     13  C   UNL     1       3.222 -37.179  26.404  1.00  0.00     0.053 C 
BRANCH  13  14
ATOM     14  C   UNL     1       2.094 -37.404  27.362  1.00  0.00     0.041 C 
ATOM     15  O   UNL     1       1.802 -36.525  28.215  1.00  0.00    -0.550 OA
ATOM     16  O   UNL     1       1.372 -38.590  27.322  1.00  0.00    -0.550 OA
ENDBRANCH  13  14
ENDBRANCH  12  13
ENDBRANCH  11  12
ENDBRANCH  10  11
ENDBRANCH   9  10
ENDBRANCH   8   9
ENDBRANCH   7   8
ENDBRANCH   6   7
ENDBRANCH   5   6
ENDBRANCH   4   5
ENDBRANCH   3   4
ENDBRANCH   2   3
ENDBRANCH   1   2
BRANCH   1  17
ATOM     17  C   UNL     1       5.897 -33.729  23.865  1.00  0.00     0.000 C 
BRANCH  17  18
ATOM     18  C   UNL     1       5.395 -33.077  22.564  1.00  0.00     0.000 C 
BRANCH  18  19
ATOM     19  C   UNL     1       4.367 -33.948  21.826  1.00  0.00     0.000 C 
BRANCH  19  20
ATOM     20  C   UNL     1       4.324 -33.657  20.317  1.00  0.00     0.000 C 
BRANCH  20  21
ATOM     21  C   UNL     1       5.274 -34.560  19.511  1.00  0.00     0.000 C 
BRANCH  21  22
ATOM     22  C   UNL     1       4.978 -34.624  18.001  1.00  0.00    -0.000 C 
BRANCH  22  23
ATOM     23  C   UNL     1       4.061 -35.798  17.623  1.00  0.00    -0.000 C 
BRANCH  23  24
ATOM     24  C   UNL     1       3.300 -35.510  16.320  1.00  0.00    -0.000 C 
BRANCH  24  25
ATOM     25  C   UNL     1       3.693 -36.469  15.185  1.00  0.00    -0.000 C 
BRANCH  25  26
ATOM     26  C   UNL     1       2.905 -37.787  15.224  1.00  0.00    -0.000 C 
BRANCH  26  27
ATOM     27  C   UNL     1       3.343 -38.777  14.131  1.00  0.00    -0.000 C 
BRANCH  27  28
ATOM     28  C   UNL     1       4.837 -39.154  14.210  1.00  0.00    -0.000 C 
BRANCH  28  29
ATOM     29  C   UNL     1       5.082 -40.633  13.875  1.00  0.00    -0.003 C 
ATOM     30  C   UNL     1       5.458 -41.425  15.124  1.00  0.00     0.004 C 
ENDBRANCH  28  29
ENDBRANCH  27  28
ENDBRANCH  26  27
ENDBRANCH  25  26
ENDBRANCH  24  25
ENDBRANCH  23  24
ENDBRANCH  22  23
ENDBRANCH  21  22
ENDBRANCH  20  21
ENDBRANCH  19  20
ENDBRANCH  18  19
ENDBRANCH  17  18
ENDBRANCH   1  17
TORSDOF 26
ENDMDL
MODEL 4
REMARK VINA RESULT:     9.263      1.118      3.138
REMARK INTER + INTRA:          20.792
REMARK INTER:                  20.303
REMARK INTRA:                   0.489
REMARK UNBOUND:                -2.549
REMARK SMILES CCCCCCCCCCCCCCCCCCCCCCCCCCCC(=O)[O-]
REMARK SMILES IDX 15 1 16 2 17 3 18 4 19 5 20 6 21 7 22 8 23 9 24 10 25 11
REMARK SMILES IDX 26 12 27 13 28 14 29 15 30 16 14 17 13 18 12 19 11 20 10 21
REMARK SMILES IDX 9 22 8 23 7 24 6 25 5 26 4 27 3 28 2 29 1 30
REMARK H PARENT
REMARK Flexibility Score: inf
ROOT
ATOM      1  C   UNL     1       3.183 -34.604  21.886  1.00  0.00     0.000 C 
ENDROOT
BRANCH   1   2
ATOM      2  C   UNL     1       3.558 -33.192  21.404  1.00  0.00     0.000 C 
BRANCH   2   3
ATOM      3  C   UNL     1       4.737 -32.602  22.194  1.00  0.00     0.000 C 
BRANCH   3   4
ATOM      4  C   UNL     1       5.852 -33.638  22.428  1.00  0.00     0.000 C 
BRANCH   4   5
ATOM      5  C   UNL     1       5.860 -34.180  23.874  1.00  0.00     0.000 C 
BRANCH   5   6
ATOM      6  C   UNL     1       5.961 -35.713  23.954  1.00  0.00     0.000 C 
BRANCH   6   7
ATOM      7  C   UNL     1       5.882 -36.236  25.399  1.00  0.00     0.000 C 
BRANCH   7   8
ATOM      8  C   UNL     1       5.258 -37.637  25.490  1.00  0.00     0.000 C 
BRANCH   8   9
ATOM      9  C   UNL     1       3.764 -37.605  25.844  1.00  0.00     0.000 C 
BRANCH   9  10
ATOM     10  C   UNL     1       3.553 -37.331  27.337  1.00  0.00     0.000 C 
BRANCH  10  11
ATOM     11  C   UNL     1       2.055 -37.254  27.676  1.00  0.00     0.000 C 
BRANCH  11  12
ATOM     12  C   UNL     1       1.559 -35.803  27.842  1.00  0.00     0.006 C 
BRANCH  12  13
ATOM     13  C   UNL     1       2.410 -34.974  28.818  1.00  0.00     0.053 C 
BRANCH  13  14
ATOM     14  C   UNL     1       1.580 -34.315  29.875  1.00  0.00     0.041 C 
ATOM     15  O   UNL     1       1.809 -34.539  31.093  1.00  0.00    -0.550 OA
ATOM     16  O   UNL     1       0.544 -33.462  29.516  1.00  0.00    -0.550 OA
ENDBRANCH  13  14
ENDBRANCH  12  13
ENDBRANCH  11  12
ENDBRANCH  10  11
ENDBRANCH   9  10
ENDBRANCH   8   9
ENDBRANCH   7   8
ENDBRANCH   6   7
ENDBRANCH   5   6
ENDBRANCH   4   5
ENDBRANCH   3   4
ENDBRANCH   2   3
ENDBRANCH   1   2
BRANCH   1  17
ATOM     17  C   UNL     1       4.110 -35.687  21.307  1.00  0.00     0.000 C 
BRANCH  17  18
ATOM     18  C   UNL     1       3.680 -37.105  21.723  1.00  0.00     0.000 C 
BRANCH  18  19
ATOM     19  C   UNL     1       4.850 -38.101  21.724  1.00  0.00     0.000 C 
BRANCH  19  20
ATOM     20  C   UNL     1       5.418 -38.344  20.316  1.00  0.00     0.000 C 
BRANCH  20  21
ATOM     21  C   UNL     1       4.601 -37.639  19.218  1.00  0.00     0.000 C 
BRANCH  21  22
ATOM     22  C   UNL     1       5.395 -36.624  18.376  1.00  0.00    -0.000 C 
BRANCH  22  23
ATOM     23  C   UNL     1       4.991 -35.169  18.661  1.00  0.00    -0.000 C 
BRANCH  23  24
ATOM     24  C   UNL     1       3.889 -34.700  17.699  1.00  0.00    -0.000 C 
BRANCH  24  25
ATOM     25  C   UNL     1       3.784 -35.586  16.448  1.00  0.00    -0.000 C 
BRANCH  25  26
ATOM     26  C   UNL     1       2.334 -35.971  16.116  1.00  0.00    -0.000 C 
BRANCH  26  27
ATOM     27  C   UNL     1       2.053 -35.984  14.603  1.00  0.00    -0.000 C 
BRANCH  27  28
ATOM     28  C   UNL     1       2.674 -37.196  13.876  1.00  0.00    -0.000 C 
BRANCH  28  29
ATOM     29  C   UNL     1       4.000 -37.638  14.511  1.00  0.00    -0.003 C 
ATOM     30  C   UNL     1       4.323 -39.087  14.158  1.00  0.00     0.004 C 
ENDBRANCH  28  29
ENDBRANCH  27  28
ENDBRANCH  26  27
ENDBRANCH  25  26
ENDBRANCH  24  25
ENDBRANCH  23  24
ENDBRANCH  22  23
ENDBRANCH  21  22
ENDBRANCH  20  21
ENDBRANCH  19  20
ENDBRANCH  18  19
ENDBRANCH  17  18
ENDBRANCH   1  17
TORSDOF 26
ENDMDL
MODEL 5
REMARK VINA RESULT:     9.441      1.635      3.243
REMARK INTER + INTRA:          21.241
REMARK INTER:                  20.601
REMARK INTRA:                   0.640
REMARK UNBOUND:                -2.549
REMARK SMILES CCCCCCCCCCCCCCCCCCCCCCCCCCCC(=O)[O-]
REMARK SMILES IDX 15 1 16 2 17 3 18 4 19 5 20 6 21 7 22 8 23 9 24 10 25 11
REMARK SMILES IDX 26 12 27 13 28 14 29 15 30 16 14 17 13 18 12 19 11 20 10 21
REMARK SMILES IDX 9 22 8 23 7 24 6 25 5 26 4 27 3 28 2 29 1 30
REMARK H PARENT
REMARK Flexibility Score: inf
ROOT
ATOM      1  C   UNL     1       5.841 -35.209  23.265  1.00  0.00     0.000 C 
ENDROOT
BRANCH   1   2
ATOM      2  C   UNL     1       5.948 -35.609  21.783  1.00  0.00     0.000 C 
BRANCH   2   3
ATOM      3  C   UNL     1       5.699 -37.110  21.567  1.00  0.00     0.000 C 
BRANCH   3   4
ATOM      4  C   UNL     1       5.163 -37.411  20.155  1.00  0.00     0.000 C 
BRANCH   4   5
ATOM      5  C   UNL     1       4.857 -38.910  19.947  1.00  0.00     0.000 C 
BRANCH   5   6
ATOM      6  C   UNL     1       6.088 -39.818  20.112  1.00  0.00     0.000 C 
BRANCH   6   7
ATOM      7  C   UNL     1       6.125 -40.522  21.479  1.00  0.00     0.000 C 
BRANCH   7   8
ATOM      8  C   UNL     1       4.783 -40.446  22.223  1.00  0.00     0.000 C 
BRANCH   8   9
ATOM      9  C   UNL     1       4.946 -40.145  23.721  1.00  0.00     0.000 C 
BRANCH   9  10
ATOM     10  C   UNL     1       4.282 -38.815  24.095  1.00  0.00     0.000 C 
BRANCH  10  11
ATOM     11  C   UNL     1       5.217 -37.961  24.968  1.00  0.00     0.000 C 
BRANCH  11  12
ATOM     12  C   UNL     1       4.456 -37.170  26.051  1.00  0.00     0.006 C 
BRANCH  12  13
ATOM     13  C   UNL     1       3.655 -38.063  27.012  1.00  0.00     0.053 C 
BRANCH  13  14
ATOM     14  C   UNL     1       2.282 -37.528  27.274  1.00  0.00     0.041 C 
ATOM     15  O   UNL     1       1.267 -38.185  26.921  1.00  0.00    -0.550 OA
ATOM     16  O   UNL     1       2.121 -36.296  27.895  1.00  0.00    -0.550 OA
ENDBRANCH  13  14
ENDBRANCH  12  13
ENDBRANCH  11  12
ENDBRANCH  10  11
ENDBRANCH   9  10
ENDBRANCH   8   9
ENDBRANCH   7   8
ENDBRANCH   6   7
ENDBRANCH   5   6
ENDBRANCH   4   5
ENDBRANCH   3   4
ENDBRANCH   2   3
ENDBRANCH   1   2
BRANCH   1  17
ATOM     17  C   UNL     1       5.821 -33.684  23.461  1.00  0.00     0.000 C 
BRANCH  17  18
ATOM     18  C   UNL     1       5.081 -32.959  22.322  1.00  0.00     0.000 C 
BRANCH  18  19
ATOM     19  C   UNL     1       3.875 -33.756  21.802  1.00  0.00     0.000 C 
BRANCH  19  20
ATOM     20  C   UNL     1       3.669 -33.591  20.287  1.00  0.00     0.000 C 
BRANCH  20  21
ATOM     21  C   UNL     1       4.846 -34.145  19.465  1.00  0.00     0.000 C 
BRANCH  21  22
ATOM     22  C   UNL     1       4.515 -34.457  17.994  1.00  0.00    -0.000 C 
BRANCH  22  23
ATOM     23  C   UNL     1       3.745 -35.776  17.823  1.00  0.00    -0.000 C 
BRANCH  23  24
ATOM     24  C   UNL     1       4.415 -36.679  16.777  1.00  0.00    -0.000 C 
BRANCH  24  25
ATOM     25  C   UNL     1       3.515 -37.847  16.344  1.00  0.00    -0.000 C 
BRANCH  25  26
ATOM     26  C   UNL     1       3.665 -38.187  14.853  1.00  0.00    -0.000 C 
BRANCH  26  27
ATOM     27  C   UNL     1       3.684 -36.937  13.955  1.00  0.00    -0.000 C 
BRANCH  27  28
ATOM     28  C   UNL     1       2.320 -36.219  13.876  1.00  0.00    -0.000 C 
BRANCH  28  29
ATOM     29  C   UNL     1       1.387 -36.616  15.030  1.00  0.00    -0.003 C 
ATOM     30  C   UNL     1       1.351 -35.534  16.106  1.00  0.00     0.004 C 
ENDBRANCH  28  29
ENDBRANCH  27  28
ENDBRANCH  26  27
ENDBRANCH  25  26
ENDBRANCH  24  25
ENDBRANCH  23  24
ENDBRANCH  22  23
ENDBRANCH  21  22
ENDBRANCH  20  21
ENDBRANCH  19  20
ENDBRANCH  18  19
ENDBRANCH  17  18
ENDBRANCH   1  17
TORSDOF 26
ENDMDL
