MODEL 1
REMARK VINA RESULT:    -4.750      0.000      0.000
REMARK INTER + INTRA:         -15.192
REMARK INTER:                 -11.969
REMARK INTRA:                  -3.223
REMARK UNBOUND:                -3.223
REMARK SMILES CCCCCCCCCCCCCCCCCCCCCCCCCCCC(=O)[O-]
REMARK SMILES IDX 15 1 16 2 17 3 18 4 19 5 20 6 21 7 22 8 23 9 24 10 25 11
REMARK SMILES IDX 26 12 27 13 28 14 29 15 30 16 14 17 13 18 12 19 11 20 10 21
REMARK SMILES IDX 9 22 8 23 7 24 6 25 5 26 4 27 3 28 2 29 1 30
REMARK H PARENT
REMARK Flexibility Score: inf
ROOT
ATOM      1  C   UNL     1     -22.998  -8.825  16.018  1.00  0.00     0.000 C 
ENDROOT
BRANCH   1   2
ATOM      2  C   UNL     1     -23.208  -8.297  17.446  1.00  0.00     0.000 C 
BRANCH   2   3
ATOM      3  C   UNL     1     -22.005  -7.487  17.965  1.00  0.00     0.000 C 
BRANCH   3   4
ATOM      4  C   UNL     1     -22.179  -5.974  17.758  1.00  0.00     0.000 C 
BRANCH   4   5
ATOM      5  C   UNL     1     -21.018  -5.350  16.962  1.00  0.00     0.000 C 
BRANCH   5   6
ATOM      6  C   UNL     1     -21.449  -4.890  15.560  1.00  0.00     0.000 C 
BRANCH   6   7
ATOM      7  C   UNL     1     -20.409  -5.224  14.479  1.00  0.00     0.000 C 
BRANCH   7   8
ATOM      8  C   UNL     1     -19.000  -5.281  15.082  1.00  0.00     0.000 C 
BRANCH   8   9
ATOM      9  C   UNL     1     -18.182  -6.436  14.482  1.00  0.00     0.000 C 
BRANCH   9  10
ATOM     10  C   UNL     1     -19.032  -7.706  14.267  1.00  0.00     0.000 C 
BRANCH  10  11
ATOM     11  C   UNL     1     -19.433  -8.421  15.571  1.00  0.00     0.000 C 
BRANCH  11  12
ATOM     12  C   UNL     1     -18.332  -8.486  16.642  1.00  0.00     0.006 C 
BRANCH  12  13
ATOM     13  C   UNL     1     -18.812  -9.125  17.954  1.00  0.00     0.053 C 
BRANCH  13  14
ATOM     14  C   UNL     1     -17.748  -9.997  18.541  1.00  0.00     0.041 C 
ATOM     15  O   UNL     1     -17.949 -11.232  18.694  1.00  0.00    -0.550 OA
ATOM     16  O   UNL     1     -16.519  -9.452  18.896  1.00  0.00    -0.550 OA
ENDBRANCH  13  14
ENDBRANCH  12  13
ENDBRANCH  11  12
ENDBRANCH  10  11
ENDBRANCH   9  10
ENDBRANCH   8   9
ENDBRANCH   7   8
ENDBRANCH   6   7
ENDBRANCH   5   6
ENDBRANCH   4   5
ENDBRANCH   3   4
ENDBRANCH   2   3
ENDBRANCH   1   2
BRANCH   1  17
ATOM     17  C   UNL     1     -23.546  -7.863  14.949  1.00  0.00     0.000 C 
BRANCH  17  18
ATOM     18  C   UNL     1     -24.805  -7.110  15.417  1.00  0.00     0.000 C 
BRANCH  18  19
ATOM     19  C   UNL     1     -25.948  -7.060  14.384  1.00  0.00     0.000 C 
BRANCH  19  20
ATOM     20  C   UNL     1     -27.250  -6.488  14.962  1.00  0.00     0.000 C 
BRANCH  20  21
ATOM     21  C   UNL     1     -27.062  -6.055  16.423  1.00  0.00     0.000 C 
BRANCH  21  22
ATOM     22  C   UNL     1     -27.699  -4.680  16.671  1.00  0.00    -0.000 C 
BRANCH  22  23
ATOM     23  C   UNL     1     -27.743  -4.305  18.161  1.00  0.00    -0.000 C 
BRANCH  23  24
ATOM     24  C   UNL     1     -26.793  -5.164  19.016  1.00  0.00    -0.000 C 
BRANCH  24  25
ATOM     25  C   UNL     1     -26.888  -4.831  20.514  1.00  0.00    -0.000 C 
BRANCH  25  26
ATOM     26  C   UNL     1     -27.676  -3.537  20.781  1.00  0.00    -0.000 C 
BRANCH  26  27
ATOM     27  C   UNL     1     -27.161  -2.781  22.017  1.00  0.00    -0.000 C 
BRANCH  27  28
ATOM     28  C   UNL     1     -26.360  -3.690  22.969  1.00  0.00    -0.000 C 
BRANCH  28  29
ATOM     29  C   UNL     1     -25.352  -2.905  23.822  1.00  0.00    -0.003 C 
ATOM     30  C   UNL     1     -26.018  -2.141  24.965  1.00  0.00     0.004 C 
ENDBRANCH  28  29
ENDBRANCH  27  28
ENDBRANCH  26  27
ENDBRANCH  25  26
ENDBRANCH  24  25
ENDBRANCH  23  24
ENDBRANCH  22  23
ENDBRANCH  21  22
ENDBRANCH  20  21
ENDBRANCH  19  20
ENDBRANCH  18  19
ENDBRANCH  17  18
ENDBRANCH   1  17
TORSDOF 26
ENDMDL
MODEL 2
REMARK VINA RESULT:    -4.656      1.823      6.855
REMARK INTER + INTRA:         -14.954
REMARK INTER:                 -11.222
REMARK INTRA:                  -3.733
REMARK UNBOUND:                -3.223
REMARK SMILES CCCCCCCCCCCCCCCCCCCCCCCCCCCC(=O)[O-]
REMARK SMILES IDX 15 1 16 2 17 3 18 4 19 5 20 6 21 7 22 8 23 9 24 10 25 11
REMARK SMILES IDX 26 12 27 13 28 14 29 15 30 16 14 17 13 18 12 19 11 20 10 21
REMARK SMILES IDX 9 22 8 23 7 24 6 25 5 26 4 27 3 28 2 29 1 30
REMARK H PARENT
REMARK Flexibility Score: inf
ROOT
ATOM      1  C   UNL     1     -27.358  -5.216  17.679  1.00  0.00     0.000 C 
ENDROOT
BRANCH   1   2
ATOM      2  C   UNL     1     -28.085  -4.501  16.528  1.00  0.00     0.000 C 
BRANCH   2   3
ATOM      3  C   UNL     1     -27.896  -5.207  15.173  1.00  0.00     0.000 C 
BRANCH   3   4
ATOM      4  C   UNL     1     -27.442  -6.668  15.329  1.00  0.00     0.000 C 
BRANCH   4   5
ATOM      5  C   UNL     1     -26.235  -7.009  14.436  1.00  0.00     0.000 C 
BRANCH   5   6
ATOM      6  C   UNL     1     -25.042  -7.546  15.242  1.00  0.00     0.000 C 
BRANCH   6   7
ATOM      7  C   UNL     1     -23.724  -7.505  14.453  1.00  0.00     0.000 C 
BRANCH   7   8
ATOM      8  C   UNL     1     -22.907  -8.779  14.698  1.00  0.00     0.000 C 
BRANCH   8   9
ATOM      9  C   UNL     1     -23.368  -9.501  15.974  1.00  0.00     0.000 C 
BRANCH   9  10
ATOM     10  C   UNL     1     -22.237  -9.625  17.018  1.00  0.00     0.000 C 
BRANCH  10  11
ATOM     11  C   UNL     1     -20.897  -9.012  16.567  1.00  0.00     0.000 C 
BRANCH  11  12
ATOM     12  C   UNL     1     -19.895  -8.734  17.699  1.00  0.00     0.006 C 
BRANCH  12  13
ATOM     13  C   UNL     1     -18.438  -8.988  17.282  1.00  0.00     0.053 C 
BRANCH  13  14
ATOM     14  C   UNL     1     -17.735  -9.833  18.296  1.00  0.00     0.041 C 
ATOM     15  O   UNL     1     -16.697  -9.408  18.870  1.00  0.00    -0.550 OA
ATOM     16  O   UNL     1     -18.242 -11.084  18.629  1.00  0.00    -0.550 OA
ENDBRANCH  13  14
ENDBRANCH  12  13
ENDBRANCH  11  12
ENDBRANCH  10  11
ENDBRANCH   9  10
ENDBRANCH   8   9
ENDBRANCH   7   8
ENDBRANCH   6   7
ENDBRANCH   5   6
ENDBRANCH   4   5
ENDBRANCH   3   4
ENDBRANCH   2   3
ENDBRANCH   1   2
BRANCH   1  17
ATOM     17  C   UNL     1     -27.944  -4.857  19.056  1.00  0.00     0.000 C 
BRANCH  17  18
ATOM     18  C   UNL     1     -27.029  -5.281  20.220  1.00  0.00     0.000 C 
BRANCH  18  19
ATOM     19  C   UNL     1     -25.534  -5.385  19.861  1.00  0.00     0.000 C 
BRANCH  19  20
ATOM     20  C   UNL     1     -25.004  -6.825  19.926  1.00  0.00     0.000 C 
BRANCH  20  21
ATOM     21  C   UNL     1     -24.378  -7.243  18.588  1.00  0.00     0.000 C 
BRANCH  21  22
ATOM     22  C   UNL     1     -23.679  -6.053  17.916  1.00  0.00    -0.000 C 
BRANCH  22  23
ATOM     23  C   UNL     1     -22.153  -6.086  18.087  1.00  0.00    -0.000 C 
BRANCH  23  24
ATOM     24  C   UNL     1     -21.429  -5.113  17.138  1.00  0.00    -0.000 C 
BRANCH  24  25
ATOM     25  C   UNL     1     -21.399  -5.620  15.688  1.00  0.00    -0.000 C 
BRANCH  25  26
ATOM     26  C   UNL     1     -20.095  -5.251  14.960  1.00  0.00    -0.000 C 
BRANCH  26  27
ATOM     27  C   UNL     1     -19.149  -6.452  14.806  1.00  0.00    -0.000 C 
BRANCH  27  28
ATOM     28  C   UNL     1     -17.672  -6.027  14.706  1.00  0.00    -0.000 C 
BRANCH  28  29
ATOM     29  C   UNL     1     -17.366  -5.266  13.407  1.00  0.00    -0.003 C 
ATOM     30  C   UNL     1     -16.189  -4.302  13.553  1.00  0.00     0.004 C 
ENDBRANCH  28  29
ENDBRANCH  27  28
ENDBRANCH  26  27
ENDBRANCH  25  26
ENDBRANCH  24  25
ENDBRANCH  23  24
ENDBRANCH  22  23
ENDBRANCH  21  22
ENDBRANCH  20  21
ENDBRANCH  19  20
ENDBRANCH  18  19
ENDBRANCH  17  18
ENDBRANCH   1  17
TORSDOF 26
ENDMDL
MODEL 3
REMARK VINA RESULT:    -4.236      3.321      5.831
REMARK INTER + INTRA:         -13.898
REMARK INTER:                 -10.516
REMARK INTRA:                  -3.382
REMARK UNBOUND:                -3.223
REMARK SMILES CCCCCCCCCCCCCCCCCCCCCCCCCCCC(=O)[O-]
REMARK SMILES IDX 15 1 16 2 17 3 18 4 19 5 20 6 21 7 22 8 23 9 24 10 25 11
REMARK SMILES IDX 26 12 27 13 28 14 29 15 30 16 14 17 13 18 12 19 11 20 10 21
REMARK SMILES IDX 9 22 8 23 7 24 6 25 5 26 4 27 3 28 2 29 1 30
REMARK H PARENT
REMARK Flexibility Score: inf
ROOT
ATOM      1  C   UNL     1     -20.813  -5.958  14.751  1.00  0.00     0.000 C 
ENDROOT
BRANCH   1   2
ATOM      2  C   UNL     1     -19.370  -5.438  14.849  1.00  0.00     0.000 C 
BRANCH   2   3
ATOM      3  C   UNL     1     -18.327  -6.571  14.857  1.00  0.00     0.000 C 
BRANCH   3   4
ATOM      4  C   UNL     1     -18.967  -7.959  15.028  1.00  0.00     0.000 C 
BRANCH   4   5
ATOM      5  C   UNL     1     -18.704  -8.561  16.421  1.00  0.00     0.000 C 
BRANCH   5   6
ATOM      6  C   UNL     1     -20.001  -8.961  17.141  1.00  0.00     0.000 C 
BRANCH   6   7
ATOM      7  C   UNL     1     -21.236  -8.885  16.229  1.00  0.00     0.000 C 
BRANCH   7   8
ATOM      8  C   UNL     1     -22.416  -9.638  16.854  1.00  0.00     0.000 C 
BRANCH   8   9
ATOM      9  C   UNL     1     -23.759  -9.110  16.324  1.00  0.00     0.000 C 
BRANCH   9  10
ATOM     10  C   UNL     1     -24.889  -9.233  17.368  1.00  0.00     0.000 C 
BRANCH  10  11
ATOM     11  C   UNL     1     -26.227  -8.615  16.918  1.00  0.00     0.000 C 
BRANCH  11  12
ATOM     12  C   UNL     1     -26.102  -7.353  16.048  1.00  0.00     0.006 C 
BRANCH  12  13
ATOM     13  C   UNL     1     -27.463  -6.792  15.610  1.00  0.00     0.053 C 
BRANCH  13  14
ATOM     14  C   UNL     1     -27.384  -6.229  14.226  1.00  0.00     0.041 C 
ATOM     15  O   UNL     1     -26.995  -6.947  13.268  1.00  0.00    -0.550 OA
ATOM     16  O   UNL     1     -27.767  -4.913  13.989  1.00  0.00    -0.550 OA
ENDBRANCH  13  14
ENDBRANCH  12  13
ENDBRANCH  11  12
ENDBRANCH  10  11
ENDBRANCH   9  10
ENDBRANCH   8   9
ENDBRANCH   7   8
ENDBRANCH   6   7
ENDBRANCH   5   6
ENDBRANCH   4   5
ENDBRANCH   3   4
ENDBRANCH   2   3
ENDBRANCH   1   2
BRANCH   1  17
ATOM     17  C   UNL     1     -21.781  -5.176  15.656  1.00  0.00     0.000 C 
BRANCH  17  18
ATOM     18  C   UNL     1     -21.330  -5.152  17.128  1.00  0.00     0.000 C 
BRANCH  18  19
ATOM     19  C   UNL     1     -22.063  -6.151  18.044  1.00  0.00     0.000 C 
BRANCH  19  20
ATOM     20  C   UNL     1     -23.580  -5.917  18.091  1.00  0.00     0.000 C 
BRANCH  20  21
ATOM     21  C   UNL     1     -24.229  -6.729  19.220  1.00  0.00     0.000 C 
BRANCH  21  22
ATOM     22  C   UNL     1     -25.214  -5.865  20.019  1.00  0.00    -0.000 C 
BRANCH  22  23
ATOM     23  C   UNL     1     -26.498  -5.549  19.238  1.00  0.00    -0.000 C 
BRANCH  23  24
ATOM     24  C   UNL     1     -27.599  -4.942  20.127  1.00  0.00    -0.000 C 
BRANCH  24  25
ATOM     25  C   UNL     1     -27.746  -3.425  19.927  1.00  0.00    -0.000 C 
BRANCH  25  26
ATOM     26  C   UNL     1     -27.652  -2.645  21.249  1.00  0.00    -0.000 C 
BRANCH  26  27
ATOM     27  C   UNL     1     -27.294  -3.549  22.440  1.00  0.00    -0.000 C 
BRANCH  27  28
ATOM     28  C   UNL     1     -25.832  -3.375  22.891  1.00  0.00    -0.000 C 
BRANCH  28  29
ATOM     29  C   UNL     1     -25.712  -3.037  24.384  1.00  0.00    -0.003 C 
ATOM     30  C   UNL     1     -27.032  -3.211  25.134  1.00  0.00     0.004 C 
ENDBRANCH  28  29
ENDBRANCH  27  28
ENDBRANCH  26  27
ENDBRANCH  25  26
ENDBRANCH  24  25
ENDBRANCH  23  24
ENDBRANCH  22  23
ENDBRANCH  21  22
ENDBRANCH  20  21
ENDBRANCH  19  20
ENDBRANCH  18  19
ENDBRANCH  17  18
ENDBRANCH   1  17
TORSDOF 26
ENDMDL
MODEL 4
REMARK VINA RESULT:    -4.220      2.082      7.747
REMARK INTER + INTRA:         -13.857
REMARK INTER:                 -10.654
REMARK INTRA:                  -3.203
REMARK UNBOUND:                -3.223
REMARK SMILES CCCCCCCCCCCCCCCCCCCCCCCCCCCC(=O)[O-]
REMARK SMILES IDX 15 1 16 2 17 3 18 4 19 5 20 6 21 7 22 8 23 9 24 10 25 11
REMARK SMILES IDX 26 12 27 13 28 14 29 15 30 16 14 17 13 18 12 19 11 20 10 21
REMARK SMILES IDX 9 22 8 23 7 24 6 25 5 26 4 27 3 28 2 29 1 30
REMARK H PARENT
REMARK Flexibility Score: inf
ROOT
ATOM      1  C   UNL     1     -25.568  -6.548  19.779  1.00  0.00     0.000 C 
ENDROOT
BRANCH   1   2
ATOM      2  C   UNL     1     -25.781  -5.517  20.899  1.00  0.00     0.000 C 
BRANCH   2   3
ATOM      3  C   UNL     1     -26.943  -4.550  20.606  1.00  0.00     0.000 C 
BRANCH   3   4
ATOM      4  C   UNL     1     -27.798  -5.002  19.410  1.00  0.00     0.000 C 
BRANCH   4   5
ATOM      5  C   UNL     1     -27.705  -4.031  18.219  1.00  0.00     0.000 C 
BRANCH   5   6
ATOM      6  C   UNL     1     -27.593  -4.763  16.873  1.00  0.00     0.000 C 
BRANCH   6   7
ATOM      7  C   UNL     1     -27.759  -6.285  17.008  1.00  0.00     0.000 C 
BRANCH   7   8
ATOM      8  C   UNL     1     -27.749  -6.954  15.628  1.00  0.00     0.000 C 
BRANCH   8   9
ATOM      9  C   UNL     1     -26.484  -6.584  14.837  1.00  0.00     0.000 C 
BRANCH   9  10
ATOM     10  C   UNL     1     -25.201  -7.138  15.492  1.00  0.00     0.000 C 
BRANCH  10  11
ATOM     11  C   UNL     1     -24.101  -7.528  14.485  1.00  0.00     0.000 C 
BRANCH  11  12
ATOM     12  C   UNL     1     -23.156  -8.646  14.955  1.00  0.00     0.006 C 
BRANCH  12  13
ATOM     13  C   UNL     1     -23.349  -9.008  16.436  1.00  0.00     0.053 C 
BRANCH  13  14
ATOM     14  C   UNL     1     -23.282 -10.490  16.633  1.00  0.00     0.041 C 
ATOM     15  O   UNL     1     -22.168 -11.067  16.743  1.00  0.00    -0.550 OA
ATOM     16  O   UNL     1     -24.454 -11.233  16.721  1.00  0.00    -0.550 OA
ENDBRANCH  13  14
ENDBRANCH  12  13
ENDBRANCH  11  12
ENDBRANCH  10  11
ENDBRANCH   9  10
ENDBRANCH   8   9
ENDBRANCH   7   8
ENDBRANCH   6   7
ENDBRANCH   5   6
ENDBRANCH   4   5
ENDBRANCH   3   4
ENDBRANCH   2   3
ENDBRANCH   1   2
BRANCH   1  17
ATOM     17  C   UNL     1     -24.592  -6.048  18.700  1.00  0.00     0.000 C 
BRANCH  17  18
ATOM     18  C   UNL     1     -23.317  -6.906  18.607  1.00  0.00     0.000 C 
BRANCH  18  19
ATOM     19  C   UNL     1     -22.017  -6.109  18.379  1.00  0.00     0.000 C 
BRANCH  19  20
ATOM     20  C   UNL     1     -21.593  -6.071  16.904  1.00  0.00     0.000 C 
BRANCH  20  21
ATOM     21  C   UNL     1     -21.431  -4.625  16.414  1.00  0.00     0.000 C 
BRANCH  21  22
ATOM     22  C   UNL     1     -20.835  -4.591  14.999  1.00  0.00    -0.000 C 
BRANCH  22  23
ATOM     23  C   UNL     1     -20.376  -5.975  14.514  1.00  0.00    -0.000 C 
BRANCH  23  24
ATOM     24  C   UNL     1     -18.905  -6.267  14.862  1.00  0.00    -0.000 C 
BRANCH  24  25
ATOM     25  C   UNL     1     -18.562  -7.762  14.753  1.00  0.00    -0.000 C 
BRANCH  25  26
ATOM     26  C   UNL     1     -19.334  -8.620  15.769  1.00  0.00    -0.000 C 
BRANCH  26  27
ATOM     27  C   UNL     1     -18.715  -8.565  17.175  1.00  0.00    -0.000 C 
BRANCH  27  28
ATOM     28  C   UNL     1     -18.578  -9.961  17.812  1.00  0.00    -0.000 C 
BRANCH  28  29
ATOM     29  C   UNL     1     -17.451 -10.025  18.854  1.00  0.00    -0.003 C 
ATOM     30  C   UNL     1     -16.417  -8.915  18.669  1.00  0.00     0.004 C 
ENDBRANCH  28  29
ENDBRANCH  27  28
ENDBRANCH  26  27
ENDBRANCH  25  26
ENDBRANCH  24  25
ENDBRANCH  23  24
ENDBRANCH  22  23
ENDBRANCH  21  22
ENDBRANCH  20  21
ENDBRANCH  19  20
ENDBRANCH  18  19
ENDBRANCH  17  18
ENDBRANCH   1  17
TORSDOF 26
ENDMDL
MODEL 5
REMARK VINA RESULT:    -4.046      1.607      4.132
REMARK INTER + INTRA:         -13.418
REMARK INTER:                 -10.439
REMARK INTRA:                  -2.979
REMARK UNBOUND:                -3.223
REMARK SMILES CCCCCCCCCCCCCCCCCCCCCCCCCCCC(=O)[O-]
REMARK SMILES IDX 15 1 16 2 17 3 18 4 19 5 20 6 21 7 22 8 23 9 24 10 25 11
REMARK SMILES IDX 26 12 27 13 28 14 29 15 30 16 14 17 13 18 12 19 11 20 10 21
REMARK SMILES IDX 9 22 8 23 7 24 6 25 5 26 4 27 3 28 2 29 1 30
REMARK H PARENT
REMARK Flexibility Score: inf
ROOT
ATOM      1  C   UNL     1     -26.355  -7.178  14.681  1.00  0.00     0.000 C 
ENDROOT
BRANCH   1   2
ATOM      2  C   UNL     1     -24.951  -6.761  15.147  1.00  0.00     0.000 C 
BRANCH   2   3
ATOM      3  C   UNL     1     -23.836  -7.631  14.537  1.00  0.00     0.000 C 
BRANCH   3   4
ATOM      4  C   UNL     1     -22.437  -7.025  14.740  1.00  0.00     0.000 C 
BRANCH   4   5
ATOM      5  C   UNL     1     -22.281  -6.354  16.117  1.00  0.00     0.000 C 
BRANCH   5   6
ATOM      6  C   UNL     1     -21.133  -5.333  16.145  1.00  0.00     0.000 C 
BRANCH   6   7
ATOM      7  C   UNL     1     -20.296  -5.344  14.856  1.00  0.00     0.000 C 
BRANCH   7   8
ATOM      8  C   UNL     1     -18.807  -5.518  15.180  1.00  0.00     0.000 C 
BRANCH   8   9
ATOM      9  C   UNL     1     -18.162  -6.586  14.283  1.00  0.00     0.000 C 
BRANCH   9  10
ATOM     10  C   UNL     1     -19.043  -7.846  14.147  1.00  0.00     0.000 C 
BRANCH  10  11
ATOM     11  C   UNL     1     -19.412  -8.502  15.491  1.00  0.00     0.000 C 
BRANCH  11  12
ATOM     12  C   UNL     1     -18.279  -8.540  16.529  1.00  0.00     0.006 C 
BRANCH  12  13
ATOM     13  C   UNL     1     -18.755  -9.001  17.916  1.00  0.00     0.053 C 
BRANCH  13  14
ATOM     14  C   UNL     1     -17.742  -9.900  18.553  1.00  0.00     0.041 C 
ATOM     15  O   UNL     1     -16.649  -9.432  18.969  1.00  0.00    -0.550 OA
ATOM     16  O   UNL     1     -18.017 -11.253  18.711  1.00  0.00    -0.550 OA
ENDBRANCH  13  14
ENDBRANCH  12  13
ENDBRANCH  11  12
ENDBRANCH  10  11
ENDBRANCH   9  10
ENDBRANCH   8   9
ENDBRANCH   7   8
ENDBRANCH   6   7
ENDBRANCH   5   6
ENDBRANCH   4   5
ENDBRANCH   3   4
ENDBRANCH   2   3
ENDBRANCH   1   2
BRANCH   1  17
ATOM     17  C   UNL     1     -27.469  -6.441  15.444  1.00  0.00     0.000 C 
BRANCH  17  18
ATOM     18  C   UNL     1     -27.761  -5.043  14.867  1.00  0.00     0.000 C 
BRANCH  18  19
ATOM     19  C   UNL     1     -28.124  -3.974  15.916  1.00  0.00     0.000 C 
BRANCH  19  20
ATOM     20  C   UNL     1     -27.701  -4.368  17.339  1.00  0.00     0.000 C 
BRANCH  20  21
ATOM     21  C   UNL     1     -28.090  -3.281  18.350  1.00  0.00     0.000 C 
BRANCH  21  22
ATOM     22  C   UNL     1     -27.731  -3.710  19.780  1.00  0.00    -0.000 C 
BRANCH  22  23
ATOM     23  C   UNL     1     -27.229  -5.160  19.857  1.00  0.00    -0.000 C 
BRANCH  23  24
ATOM     24  C   UNL     1     -26.013  -5.318  20.788  1.00  0.00    -0.000 C 
BRANCH  24  25
ATOM     25  C   UNL     1     -25.020  -6.377  20.282  1.00  0.00    -0.000 C 
BRANCH  25  26
ATOM     26  C   UNL     1     -24.822  -6.320  18.758  1.00  0.00    -0.000 C 
BRANCH  26  27
ATOM     27  C   UNL     1     -25.366  -7.570  18.048  1.00  0.00    -0.000 C 
BRANCH  27  28
ATOM     28  C   UNL     1     -24.471  -8.805  18.265  1.00  0.00    -0.000 C 
BRANCH  28  29
ATOM     29  C   UNL     1     -24.545  -9.798  17.096  1.00  0.00    -0.003 C 
ATOM     30  C   UNL     1     -23.168 -10.301  16.664  1.00  0.00     0.004 C 
ENDBRANCH  28  29
ENDBRANCH  27  28
ENDBRANCH  26  27
ENDBRANCH  25  26
ENDBRANCH  24  25
ENDBRANCH  23  24
ENDBRANCH  22  23
ENDBRANCH  21  22
ENDBRANCH  20  21
ENDBRANCH  19  20
ENDBRANCH  18  19
ENDBRANCH  17  18
ENDBRANCH   1  17
TORSDOF 26
ENDMDL
MODEL 6
REMARK VINA RESULT:    -4.044      2.357      7.572
REMARK INTER + INTRA:         -13.414
REMARK INTER:                  -9.880
REMARK INTRA:                  -3.534
REMARK UNBOUND:                -3.223
REMARK SMILES CCCCCCCCCCCCCCCCCCCCCCCCCCCC(=O)[O-]
REMARK SMILES IDX 15 1 16 2 17 3 18 4 19 5 20 6 21 7 22 8 23 9 24 10 25 11
REMARK SMILES IDX 26 12 27 13 28 14 29 15 30 16 14 17 13 18 12 19 11 20 10 21
REMARK SMILES IDX 9 22 8 23 7 24 6 25 5 26 4 27 3 28 2 29 1 30
REMARK H PARENT
REMARK Flexibility Score: inf
ROOT
ATOM      1  C   UNL     1     -25.985  -5.607  18.664  1.00  0.00     0.000 C 
ENDROOT
BRANCH   1   2
ATOM      2  C   UNL     1     -27.466  -5.999  18.543  1.00  0.00     0.000 C 
BRANCH   2   3
ATOM      3  C   UNL     1     -27.800  -6.658  17.191  1.00  0.00     0.000 C 
BRANCH   3   4
ATOM      4  C   UNL     1     -27.167  -5.916  16.002  1.00  0.00     0.000 C 
BRANCH   4   5
ATOM      5  C   UNL     1     -26.451  -6.869  15.027  1.00  0.00     0.000 C 
BRANCH   5   6
ATOM      6  C   UNL     1     -24.978  -7.095  15.403  1.00  0.00     0.000 C 
BRANCH   6   7
ATOM      7  C   UNL     1     -24.188  -7.823  14.303  1.00  0.00     0.000 C 
BRANCH   7   8
ATOM      8  C   UNL     1     -22.808  -8.246  14.819  1.00  0.00     0.000 C 
BRANCH   8   9
ATOM      9  C   UNL     1     -22.905  -8.899  16.207  1.00  0.00     0.000 C 
BRANCH   9  10
ATOM     10  C   UNL     1     -21.537  -9.397  16.717  1.00  0.00     0.000 C 
BRANCH  10  11
ATOM     11  C   UNL     1     -20.345  -8.533  16.262  1.00  0.00     0.000 C 
BRANCH  11  12
ATOM     12  C   UNL     1     -18.966  -9.029  16.728  1.00  0.00     0.006 C 
BRANCH  12  13
ATOM     13  C   UNL     1     -18.850  -9.122  18.257  1.00  0.00     0.053 C 
BRANCH  13  14
ATOM     14  C   UNL     1     -17.692  -9.983  18.650  1.00  0.00     0.041 C 
ATOM     15  O   UNL     1     -17.723 -11.225  18.441  1.00  0.00    -0.550 OA
ATOM     16  O   UNL     1     -16.563  -9.410  19.224  1.00  0.00    -0.550 OA
ENDBRANCH  13  14
ENDBRANCH  12  13
ENDBRANCH  11  12
ENDBRANCH  10  11
ENDBRANCH   9  10
ENDBRANCH   8   9
ENDBRANCH   7   8
ENDBRANCH   6   7
ENDBRANCH   5   6
ENDBRANCH   4   5
ENDBRANCH   3   4
ENDBRANCH   2   3
ENDBRANCH   1   2
BRANCH   1  17
ATOM     17  C   UNL     1     -25.156  -6.667  19.411  1.00  0.00     0.000 C 
BRANCH  17  18
ATOM     18  C   UNL     1     -23.768  -6.889  18.782  1.00  0.00     0.000 C 
BRANCH  18  19
ATOM     19  C   UNL     1     -23.224  -5.691  17.980  1.00  0.00     0.000 C 
BRANCH  19  20
ATOM     20  C   UNL     1     -21.735  -5.832  17.633  1.00  0.00     0.000 C 
BRANCH  20  21
ATOM     21  C   UNL     1     -21.296  -4.755  16.632  1.00  0.00     0.000 C 
BRANCH  21  22
ATOM     22  C   UNL     1     -21.343  -5.293  15.195  1.00  0.00    -0.000 C 
BRANCH  22  23
ATOM     23  C   UNL     1     -20.018  -5.094  14.442  1.00  0.00    -0.000 C 
BRANCH  23  24
ATOM     24  C   UNL     1     -18.789  -5.231  15.359  1.00  0.00    -0.000 C 
BRANCH  24  25
ATOM     25  C   UNL     1     -17.692  -6.115  14.742  1.00  0.00    -0.000 C 
BRANCH  25  26
ATOM     26  C   UNL     1     -17.361  -5.719  13.293  1.00  0.00    -0.000 C 
BRANCH  26  27
ATOM     27  C   UNL     1     -16.600  -4.386  13.208  1.00  0.00    -0.000 C 
BRANCH  27  28
ATOM     28  C   UNL     1     -17.420  -3.284  12.510  1.00  0.00    -0.000 C 
BRANCH  28  29
ATOM     29  C   UNL     1     -16.635  -1.973  12.360  1.00  0.00    -0.003 C 
ATOM     30  C   UNL     1     -15.266  -2.026  13.036  1.00  0.00     0.004 C 
ENDBRANCH  28  29
ENDBRANCH  27  28
ENDBRANCH  26  27
ENDBRANCH  25  26
ENDBRANCH  24  25
ENDBRANCH  23  24
ENDBRANCH  22  23
ENDBRANCH  21  22
ENDBRANCH  20  21
ENDBRANCH  19  20
ENDBRANCH  18  19
ENDBRANCH  17  18
ENDBRANCH   1  17
TORSDOF 26
ENDMDL
MODEL 7
REMARK VINA RESULT:    -3.944      4.010      8.165
REMARK INTER + INTRA:         -13.161
REMARK INTER:                  -9.984
REMARK INTRA:                  -3.177
REMARK UNBOUND:                -3.223
REMARK SMILES CCCCCCCCCCCCCCCCCCCCCCCCCCCC(=O)[O-]
REMARK SMILES IDX 15 1 16 2 17 3 18 4 19 5 20 6 21 7 22 8 23 9 24 10 25 11
REMARK SMILES IDX 26 12 27 13 28 14 29 15 30 16 14 17 13 18 12 19 11 20 10 21
REMARK SMILES IDX 9 22 8 23 7 24 6 25 5 26 4 27 3 28 2 29 1 30
REMARK H PARENT
REMARK Flexibility Score: inf
ROOT
ATOM      1  C   UNL     1     -19.221  -7.776  14.889  1.00  0.00     0.000 C 
ENDROOT
BRANCH   1   2
ATOM      2  C   UNL     1     -18.667  -6.380  15.215  1.00  0.00     0.000 C 
BRANCH   2   3
ATOM      3  C   UNL     1     -19.443  -5.251  14.510  1.00  0.00     0.000 C 
BRANCH   3   4
ATOM      4  C   UNL     1     -20.887  -5.119  15.023  1.00  0.00     0.000 C 
BRANCH   4   5
ATOM      5  C   UNL     1     -20.951  -4.844  16.537  1.00  0.00     0.000 C 
BRANCH   5   6
ATOM      6  C   UNL     1     -22.282  -5.293  17.159  1.00  0.00     0.000 C 
BRANCH   6   7
ATOM      7  C   UNL     1     -22.097  -6.343  18.266  1.00  0.00     0.000 C 
BRANCH   7   8
ATOM      8  C   UNL     1     -23.301  -7.291  18.318  1.00  0.00     0.000 C 
BRANCH   8   9
ATOM      9  C   UNL     1     -24.472  -6.665  19.092  1.00  0.00     0.000 C 
BRANCH   9  10
ATOM     10  C   UNL     1     -25.817  -6.829  18.352  1.00  0.00     0.000 C 
BRANCH  10  11
ATOM     11  C   UNL     1     -26.560  -5.503  18.101  1.00  0.00     0.000 C 
BRANCH  11  12
ATOM     12  C   UNL     1     -27.735  -5.225  19.053  1.00  0.00     0.006 C 
BRANCH  12  13
ATOM     13  C   UNL     1     -27.612  -3.875  19.776  1.00  0.00     0.053 C 
BRANCH  13  14
ATOM     14  C   UNL     1     -27.074  -4.061  21.159  1.00  0.00     0.041 C 
ATOM     15  O   UNL     1     -27.103  -3.112  21.987  1.00  0.00    -0.550 OA
ATOM     16  O   UNL     1     -26.562  -5.295  21.546  1.00  0.00    -0.550 OA
ENDBRANCH  13  14
ENDBRANCH  12  13
ENDBRANCH  11  12
ENDBRANCH  10  11
ENDBRANCH   9  10
ENDBRANCH   8   9
ENDBRANCH   7   8
ENDBRANCH   6   7
ENDBRANCH   5   6
ENDBRANCH   4   5
ENDBRANCH   3   4
ENDBRANCH   2   3
ENDBRANCH   1   2
BRANCH   1  17
ATOM     17  C   UNL     1     -19.718  -8.517  16.143  1.00  0.00     0.000 C 
BRANCH  17  18
ATOM     18  C   UNL     1     -21.222  -8.843  16.084  1.00  0.00     0.000 C 
BRANCH  18  19
ATOM     19  C   UNL     1     -21.966  -8.242  14.876  1.00  0.00     0.000 C 
BRANCH  19  20
ATOM     20  C   UNL     1     -23.486  -8.447  14.949  1.00  0.00     0.000 C 
BRANCH  20  21
ATOM     21  C   UNL     1     -24.234  -7.136  14.670  1.00  0.00     0.000 C 
BRANCH  21  22
ATOM     22  C   UNL     1     -25.727  -7.278  14.998  1.00  0.00    -0.000 C 
BRANCH  22  23
ATOM     23  C   UNL     1     -26.628  -7.077  13.770  1.00  0.00    -0.000 C 
BRANCH  23  24
ATOM     24  C   UNL     1     -27.930  -6.328  14.105  1.00  0.00    -0.000 C 
BRANCH  24  25
ATOM     25  C   UNL     1     -27.907  -4.867  13.628  1.00  0.00    -0.000 C 
BRANCH  25  26
ATOM     26  C   UNL     1     -28.084  -4.741  12.106  1.00  0.00    -0.000 C 
BRANCH  26  27
ATOM     27  C   UNL     1     -27.930  -3.292  11.615  1.00  0.00    -0.000 C 
BRANCH  27  28
ATOM     28  C   UNL     1     -28.023  -3.179  10.081  1.00  0.00    -0.000 C 
BRANCH  28  29
ATOM     29  C   UNL     1     -26.743  -2.606   9.454  1.00  0.00    -0.003 C 
ATOM     30  C   UNL     1     -26.444  -3.203   8.080  1.00  0.00     0.004 C 
ENDBRANCH  28  29
ENDBRANCH  27  28
ENDBRANCH  26  27
ENDBRANCH  25  26
ENDBRANCH  24  25
ENDBRANCH  23  24
ENDBRANCH  22  23
ENDBRANCH  21  22
ENDBRANCH  20  21
ENDBRANCH  19  20
ENDBRANCH  18  19
ENDBRANCH  17  18
ENDBRANCH   1  17
TORSDOF 26
ENDMDL
MODEL 8
REMARK VINA RESULT:    -3.927      3.456      5.576
REMARK INTER + INTRA:         -13.119
REMARK INTER:                  -9.976
REMARK INTRA:                  -3.142
REMARK UNBOUND:                -3.223
REMARK SMILES CCCCCCCCCCCCCCCCCCCCCCCCCCCC(=O)[O-]
REMARK SMILES IDX 15 1 16 2 17 3 18 4 19 5 20 6 21 7 22 8 23 9 24 10 25 11
REMARK SMILES IDX 26 12 27 13 28 14 29 15 30 16 14 17 13 18 12 19 11 20 10 21
REMARK SMILES IDX 9 22 8 23 7 24 6 25 5 26 4 27 3 28 2 29 1 30
REMARK H PARENT
REMARK Flexibility Score: inf
ROOT
ATOM      1  C   UNL     1     -19.503  -9.216  17.061  1.00  0.00     0.000 C 
ENDROOT
BRANCH   1   2
ATOM      2  C   UNL     1     -18.625  -8.160  16.372  1.00  0.00     0.000 C 
BRANCH   2   3
ATOM      3  C   UNL     1     -18.675  -8.254  14.835  1.00  0.00     0.000 C 
BRANCH   3   4
ATOM      4  C   UNL     1     -18.010  -7.049  14.150  1.00  0.00     0.000 C 
BRANCH   4   5
ATOM      5  C   UNL     1     -18.297  -5.724  14.879  1.00  0.00     0.000 C 
BRANCH   5   6
ATOM      6  C   UNL     1     -19.663  -5.130  14.500  1.00  0.00     0.000 C 
BRANCH   6   7
ATOM      7  C   UNL     1     -20.727  -5.343  15.589  1.00  0.00     0.000 C 
BRANCH   7   8
ATOM      8  C   UNL     1     -22.078  -5.708  14.961  1.00  0.00     0.000 C 
BRANCH   8   9
ATOM      9  C   UNL     1     -22.111  -7.181  14.525  1.00  0.00     0.000 C 
BRANCH   9  10
ATOM     10  C   UNL     1     -23.538  -7.769  14.558  1.00  0.00     0.000 C 
BRANCH  10  11
ATOM     11  C   UNL     1     -24.595  -6.818  15.153  1.00  0.00     0.000 C 
BRANCH  11  12
ATOM     12  C   UNL     1     -26.051  -7.293  15.010  1.00  0.00     0.006 C 
BRANCH  12  13
ATOM     13  C   UNL     1     -26.679  -6.897  13.665  1.00  0.00     0.053 C 
BRANCH  13  14
ATOM     14  C   UNL     1     -27.578  -5.712  13.828  1.00  0.00     0.041 C 
ATOM     15  O   UNL     1     -27.873  -5.291  14.978  1.00  0.00    -0.550 OA
ATOM     16  O   UNL     1     -28.070  -5.054  12.707  1.00  0.00    -0.550 OA
ENDBRANCH  13  14
ENDBRANCH  12  13
ENDBRANCH  11  12
ENDBRANCH  10  11
ENDBRANCH   9  10
ENDBRANCH   8   9
ENDBRANCH   7   8
ENDBRANCH   6   7
ENDBRANCH   5   6
ENDBRANCH   4   5
ENDBRANCH   3   4
ENDBRANCH   2   3
ENDBRANCH   1   2
BRANCH   1  17
ATOM     17  C   UNL     1     -20.974  -8.777  17.170  1.00  0.00     0.000 C 
BRANCH  17  18
ATOM     18  C   UNL     1     -21.159  -7.531  18.055  1.00  0.00     0.000 C 
BRANCH  18  19
ATOM     19  C   UNL     1     -22.623  -7.098  18.263  1.00  0.00     0.000 C 
BRANCH  19  20
ATOM     20  C   UNL     1     -23.623  -8.236  18.009  1.00  0.00     0.000 C 
BRANCH  20  21
ATOM     21  C   UNL     1     -25.024  -7.861  18.511  1.00  0.00     0.000 C 
BRANCH  21  22
ATOM     22  C   UNL     1     -25.067  -6.396  18.969  1.00  0.00    -0.000 C 
BRANCH  22  23
ATOM     23  C   UNL     1     -26.293  -5.641  18.433  1.00  0.00    -0.000 C 
BRANCH  23  24
ATOM     24  C   UNL     1     -27.440  -5.567  19.458  1.00  0.00    -0.000 C 
BRANCH  24  25
ATOM     25  C   UNL     1     -27.352  -4.316  20.347  1.00  0.00    -0.000 C 
BRANCH  25  26
ATOM     26  C   UNL     1     -26.449  -4.527  21.574  1.00  0.00    -0.000 C 
BRANCH  26  27
ATOM     27  C   UNL     1     -26.712  -3.493  22.681  1.00  0.00    -0.000 C 
BRANCH  27  28
ATOM     28  C   UNL     1     -25.430  -3.115  23.448  1.00  0.00    -0.000 C 
BRANCH  28  29
ATOM     29  C   UNL     1     -25.701  -2.803  24.928  1.00  0.00    -0.003 C 
ATOM     30  C   UNL     1     -27.039  -3.360  25.411  1.00  0.00     0.004 C 
ENDBRANCH  28  29
ENDBRANCH  27  28
ENDBRANCH  26  27
ENDBRANCH  25  26
ENDBRANCH  24  25
ENDBRANCH  23  24
ENDBRANCH  22  23
ENDBRANCH  21  22
ENDBRANCH  20  21
ENDBRANCH  19  20
ENDBRANCH  18  19
ENDBRANCH  17  18
ENDBRANCH   1  17
TORSDOF 26
ENDMDL
MODEL 9
REMARK VINA RESULT:    -3.751      1.187      2.138
REMARK INTER + INTRA:         -12.675
REMARK INTER:                 -10.445
REMARK INTRA:                  -2.230
REMARK UNBOUND:                -3.223
REMARK SMILES CCCCCCCCCCCCCCCCCCCCCCCCCCCC(=O)[O-]
REMARK SMILES IDX 15 1 16 2 17 3 18 4 19 5 20 6 21 7 22 8 23 9 24 10 25 11
REMARK SMILES IDX 26 12 27 13 28 14 29 15 30 16 14 17 13 18 12 19 11 20 10 21
REMARK SMILES IDX 9 22 8 23 7 24 6 25 5 26 4 27 3 28 2 29 1 30
REMARK H PARENT
REMARK Flexibility Score: inf
ROOT
ATOM      1  C   UNL     1     -24.699  -9.833  16.754  1.00  0.00     0.000 C 
ENDROOT
BRANCH   1   2
ATOM      2  C   UNL     1     -23.188 -10.112  16.710  1.00  0.00     0.000 C 
BRANCH   2   3
ATOM      3  C   UNL     1     -22.479  -9.377  15.557  1.00  0.00     0.000 C 
BRANCH   3   4
ATOM      4  C   UNL     1     -23.310  -8.208  15.004  1.00  0.00     0.000 C 
BRANCH   4   5
ATOM      5  C   UNL     1     -22.727  -6.836  15.390  1.00  0.00     0.000 C 
BRANCH   5   6
ATOM      6  C   UNL     1     -22.205  -6.807  16.835  1.00  0.00     0.000 C 
BRANCH   6   7
ATOM      7  C   UNL     1     -21.389  -5.542  17.147  1.00  0.00     0.000 C 
BRANCH   7   8
ATOM      8  C   UNL     1     -21.068  -4.774  15.859  1.00  0.00     0.000 C 
BRANCH   8   9
ATOM      9  C   UNL     1     -20.468  -5.702  14.791  1.00  0.00     0.000 C 
BRANCH   9  10
ATOM     10  C   UNL     1     -18.924  -5.688  14.803  1.00  0.00     0.000 C 
BRANCH  10  11
ATOM     11  C   UNL     1     -18.283  -7.078  14.626  1.00  0.00     0.000 C 
BRANCH  11  12
ATOM     12  C   UNL     1     -18.832  -8.171  15.557  1.00  0.00     0.006 C 
BRANCH  12  13
ATOM     13  C   UNL     1     -18.104  -8.223  16.910  1.00  0.00     0.053 C 
BRANCH  13  14
ATOM     14  C   UNL     1     -18.509  -9.437  17.684  1.00  0.00     0.041 C 
ATOM     15  O   UNL     1     -19.413 -10.199  17.246  1.00  0.00    -0.550 OA
ATOM     16  O   UNL     1     -17.869  -9.745  18.879  1.00  0.00    -0.550 OA
ENDBRANCH  13  14
ENDBRANCH  12  13
ENDBRANCH  11  12
ENDBRANCH  10  11
ENDBRANCH   9  10
ENDBRANCH   8   9
ENDBRANCH   7   8
ENDBRANCH   6   7
ENDBRANCH   5   6
ENDBRANCH   4   5
ENDBRANCH   3   4
ENDBRANCH   2   3
ENDBRANCH   1   2
BRANCH   1  17
ATOM     17  C   UNL     1     -25.095  -8.932  17.937  1.00  0.00     0.000 C 
BRANCH  17  18
ATOM     18  C   UNL     1     -25.593  -7.546  17.489  1.00  0.00     0.000 C 
BRANCH  18  19
ATOM     19  C   UNL     1     -26.876  -7.566  16.635  1.00  0.00     0.000 C 
BRANCH  19  20
ATOM     20  C   UNL     1     -26.702  -6.864  15.280  1.00  0.00     0.000 C 
BRANCH  20  21
ATOM     21  C   UNL     1     -27.443  -5.520  15.256  1.00  0.00     0.000 C 
BRANCH  21  22
ATOM     22  C   UNL     1     -28.091  -5.228  16.617  1.00  0.00    -0.000 C 
BRANCH  22  23
ATOM     23  C   UNL     1     -28.116  -3.730  16.954  1.00  0.00    -0.000 C 
BRANCH  23  24
ATOM     24  C   UNL     1     -27.768  -3.447  18.427  1.00  0.00    -0.000 C 
BRANCH  24  25
ATOM     25  C   UNL     1     -27.963  -4.681  19.323  1.00  0.00    -0.000 C 
BRANCH  25  26
ATOM     26  C   UNL     1     -26.657  -5.131  19.999  1.00  0.00    -0.000 C 
BRANCH  26  27
ATOM     27  C   UNL     1     -26.795  -5.244  21.526  1.00  0.00    -0.000 C 
BRANCH  27  28
ATOM     28  C   UNL     1     -26.072  -4.102  22.266  1.00  0.00    -0.000 C 
BRANCH  28  29
ATOM     29  C   UNL     1     -27.029  -3.251  23.113  1.00  0.00    -0.003 C 
ATOM     30  C   UNL     1     -26.570  -3.118  24.565  1.00  0.00     0.004 C 
ENDBRANCH  28  29
ENDBRANCH  27  28
ENDBRANCH  26  27
ENDBRANCH  25  26
ENDBRANCH  24  25
ENDBRANCH  23  24
ENDBRANCH  22  23
ENDBRANCH  21  22
ENDBRANCH  20  21
ENDBRANCH  19  20
ENDBRANCH  18  19
ENDBRANCH  17  18
ENDBRANCH   1  17
TORSDOF 26
ENDMDL
