MODEL 1
REMARK VINA RESULT:    -6.032      0.000      0.000
REMARK INTER + INTRA:          -7.492
REMARK INTER:                  -7.266
REMARK INTRA:                  -0.225
REMARK UNBOUND:                -0.225
REMARK SMILES O=c1c(O)c(-c2ccc(O)c(O)c2)oc2cc(O)cc(O)c12
REMARK SMILES IDX 5 1 3 2 2 3 1 4 22 5 20 6 19 7 17 8 16 9 15 10 14 11 6 12
REMARK SMILES IDX 7 13 8 14 9 15 13 16 11 17 10 18 12 20 4 22 21 24 18 26
REMARK H PARENT 10 19 12 21 4 23 21 25 18 27
REMARK Flexibility Score: inf
ROOT
ATOM      1  C   UNL     1      14.300  24.930  34.097  1.00  0.00     0.180 A 
ATOM      2  C   UNL     1      14.007  24.398  35.364  1.00  0.00     0.208 A 
ATOM      3  C   UNL     1      14.260  25.177  36.504  1.00  0.00     0.238 A 
ATOM      4  O   UNL     1      14.046  24.676  37.639  1.00  0.00    -0.285 OA
ATOM      5  C   UNL     1      14.786  26.484  36.362  1.00  0.00     0.111 A 
ATOM      6  C   UNL     1      15.043  27.376  37.446  1.00  0.00     0.134 A 
ATOM      7  C   UNL     1      15.688  28.595  37.199  1.00  0.00     0.093 A 
ATOM      8  C   UNL     1      16.023  28.982  35.903  1.00  0.00     0.123 A 
ATOM      9  C   UNL     1      15.723  28.143  34.828  1.00  0.00     0.094 A 
ATOM     10  C   UNL     1      15.114  26.906  35.047  1.00  0.00     0.146 A 
ATOM     11  O   UNL     1      14.855  26.133  34.000  1.00  0.00    -0.452 OA
ENDROOT
BRANCH   1  12
ATOM     12  C   UNL     1      14.039  24.178  32.847  1.00  0.00     0.025 A 
ATOM     13  C   UNL     1      15.117  23.780  32.042  1.00  0.00     0.016 A 
ATOM     14  C   UNL     1      14.892  23.088  30.849  1.00  0.00     0.051 A 
ATOM     15  C   UNL     1      13.589  22.799  30.435  1.00  0.00     0.157 A 
ATOM     16  C   UNL     1      12.727  23.905  32.419  1.00  0.00     0.062 A 
ATOM     17  C   UNL     1      12.499  23.212  31.220  1.00  0.00     0.158 A 
BRANCH  15  18
ATOM     18  O   UNL     1      13.395  22.105  29.241  1.00  0.00    -0.504 OA
ATOM     19  H   UNL     1      14.169  21.818  28.653  1.00  0.00     0.293 HD
ENDBRANCH  15  18
BRANCH  17  20
ATOM     20  O   UNL     1      11.196  22.939  30.805  1.00  0.00    -0.504 OA
ATOM     21  H   UNL     1      10.436  22.850  31.470  1.00  0.00     0.293 HD
ENDBRANCH  17  20
ENDBRANCH   1  12
BRANCH   2  22
ATOM     22  O   UNL     1      13.508  23.098  35.482  1.00  0.00    -0.502 OA
ATOM     23  H   UNL     1      14.051  22.281  35.227  1.00  0.00     0.293 HD
ENDBRANCH   2  22
BRANCH   6  24
ATOM     24  O   UNL     1      14.664  27.128  38.769  1.00  0.00    -0.507 OA
ATOM     25  H   UNL     1      15.289  27.155  39.560  1.00  0.00     0.293 HD
ENDBRANCH   6  24
BRANCH   8  26
ATOM     26  O   UNL     1      16.649  30.209  35.692  1.00  0.00    -0.508 OA
ATOM     27  H   UNL     1      17.407  30.310  35.027  1.00  0.00     0.293 HD
ENDBRANCH   8  26
TORSDOF 6
ENDMDL
MODEL 2
REMARK VINA RESULT:    -6.017      2.546      7.820
REMARK INTER + INTRA:          -7.474
REMARK INTER:                  -7.158
REMARK INTRA:                  -0.316
REMARK UNBOUND:                -0.225
REMARK SMILES O=c1c(O)c(-c2ccc(O)c(O)c2)oc2cc(O)cc(O)c12
REMARK SMILES IDX 5 1 3 2 2 3 1 4 22 5 20 6 19 7 17 8 16 9 15 10 14 11 6 12
REMARK SMILES IDX 7 13 8 14 9 15 13 16 11 17 10 18 12 20 4 22 21 24 18 26
REMARK H PARENT 10 19 12 21 4 23 21 25 18 27
REMARK Flexibility Score: inf
ROOT
ATOM      1  C   UNL     1      16.411  26.985  36.513  1.00  0.00     0.180 A 
ATOM      2  C   UNL     1      16.952  27.118  35.223  1.00  0.00     0.208 A 
ATOM      3  C   UNL     1      16.332  26.452  34.154  1.00  0.00     0.238 A 
ATOM      4  O   UNL     1      16.852  26.531  33.009  1.00  0.00    -0.285 OA
ATOM      5  C   UNL     1      15.172  25.675  34.384  1.00  0.00     0.111 A 
ATOM      6  C   UNL     1      14.439  24.990  33.369  1.00  0.00     0.134 A 
ATOM      7  C   UNL     1      13.383  24.144  33.730  1.00  0.00     0.093 A 
ATOM      8  C   UNL     1      12.991  24.011  35.061  1.00  0.00     0.123 A 
ATOM      9  C   UNL     1      13.662  24.722  36.057  1.00  0.00     0.094 A 
ATOM     10  C   UNL     1      14.743  25.544  35.731  1.00  0.00     0.146 A 
ATOM     11  O   UNL     1      15.361  26.196  36.709  1.00  0.00    -0.452 OA
ENDROOT
BRANCH   1  12
ATOM     12  C   UNL     1      16.994  27.676  37.686  1.00  0.00     0.025 A 
ATOM     13  C   UNL     1      16.510  28.941  38.053  1.00  0.00     0.016 A 
ATOM     14  C   UNL     1      17.059  29.620  39.144  1.00  0.00     0.051 A 
ATOM     15  C   UNL     1      18.107  29.055  39.874  1.00  0.00     0.157 A 
ATOM     16  C   UNL     1      18.063  27.117  38.409  1.00  0.00     0.062 A 
ATOM     17  C   UNL     1      18.617  27.798  39.504  1.00  0.00     0.158 A 
BRANCH  15  18
ATOM     18  O   UNL     1      18.633  29.755  40.959  1.00  0.00    -0.504 OA
ATOM     19  H   UNL     1      18.912  30.726  40.889  1.00  0.00     0.293 HD
ENDBRANCH  15  18
BRANCH  17  20
ATOM     20  O   UNL     1      19.672  27.234  40.219  1.00  0.00    -0.504 OA
ATOM     21  H   UNL     1      19.511  26.561  40.959  1.00  0.00     0.293 HD
ENDBRANCH  17  20
ENDBRANCH   1  12
BRANCH   2  22
ATOM     22  O   UNL     1      18.111  27.873  35.021  1.00  0.00    -0.502 OA
ATOM     23  H   UNL     1      18.398  28.609  35.655  1.00  0.00     0.293 HD
ENDBRANCH   2  22
BRANCH   6  24
ATOM     24  O   UNL     1      14.689  25.126  31.999  1.00  0.00    -0.507 OA
ATOM     25  H   UNL     1      14.342  25.878  31.424  1.00  0.00     0.293 HD
ENDBRANCH   6  24
BRANCH   8  26
ATOM     26  O   UNL     1      11.926  23.172  35.382  1.00  0.00    -0.508 OA
ATOM     27  H   UNL     1      11.539  22.524  34.706  1.00  0.00     0.293 HD
ENDBRANCH   8  26
TORSDOF 6
ENDMDL
MODEL 3
REMARK VINA RESULT:    -5.944      9.879     11.899
REMARK INTER + INTRA:          -7.386
REMARK INTER:                  -7.067
REMARK INTRA:                  -0.319
REMARK UNBOUND:                -0.225
REMARK SMILES O=c1c(O)c(-c2ccc(O)c(O)c2)oc2cc(O)cc(O)c12
REMARK SMILES IDX 5 1 3 2 2 3 1 4 22 5 20 6 19 7 17 8 16 9 15 10 14 11 6 12
REMARK SMILES IDX 7 13 8 14 9 15 13 16 11 17 10 18 12 20 4 22 21 24 18 26
REMARK H PARENT 10 19 12 21 4 23 21 25 18 27
REMARK Flexibility Score: inf
ROOT
ATOM      1  C   UNL     1      11.650  36.088  35.702  1.00  0.00     0.180 A 
ATOM      2  C   UNL     1      12.555  36.596  34.754  1.00  0.00     0.208 A 
ATOM      3  C   UNL     1      13.615  37.405  35.192  1.00  0.00     0.238 A 
ATOM      4  O   UNL     1      14.391  37.902  34.333  1.00  0.00    -0.285 OA
ATOM      5  C   UNL     1      13.769  37.682  36.572  1.00  0.00     0.111 A 
ATOM      6  C   UNL     1      14.830  38.456  37.131  1.00  0.00     0.134 A 
ATOM      7  C   UNL     1      14.808  38.775  38.494  1.00  0.00     0.093 A 
ATOM      8  C   UNL     1      13.802  38.294  39.330  1.00  0.00     0.123 A 
ATOM      9  C   UNL     1      12.791  37.486  38.806  1.00  0.00     0.094 A 
ATOM     10  C   UNL     1      12.766  37.182  37.443  1.00  0.00     0.146 A 
ATOM     11  O   UNL     1      11.782  36.419  36.982  1.00  0.00    -0.452 OA
ENDROOT
BRANCH   1  12
ATOM     12  C   UNL     1      10.521  35.208  35.321  1.00  0.00     0.025 A 
ATOM     13  C   UNL     1      10.701  33.816  35.316  1.00  0.00     0.016 A 
ATOM     14  C   UNL     1       9.656  32.969  34.940  1.00  0.00     0.051 A 
ATOM     15  C   UNL     1       8.423  33.497  34.549  1.00  0.00     0.157 A 
ATOM     16  C   UNL     1       9.286  35.739  34.907  1.00  0.00     0.062 A 
ATOM     17  C   UNL     1       8.236  34.890  34.527  1.00  0.00     0.158 A 
BRANCH  15  18
ATOM     18  O   UNL     1       7.398  32.626  34.181  1.00  0.00    -0.504 OA
ATOM     19  H   UNL     1       6.952  32.008  34.848  1.00  0.00     0.293 HD
ENDBRANCH  15  18
BRANCH  17  20
ATOM     20  O   UNL     1       7.013  35.424  34.125  1.00  0.00    -0.504 OA
ATOM     21  H   UNL     1       6.285  35.644  34.794  1.00  0.00     0.293 HD
ENDBRANCH  17  20
ENDBRANCH   1  12
BRANCH   2  22
ATOM     22  O   UNL     1      12.373  36.328  33.395  1.00  0.00    -0.502 OA
ATOM     23  H   UNL     1      13.144  36.106  32.776  1.00  0.00     0.293 HD
ENDBRANCH   2  22
BRANCH   6  24
ATOM     24  O   UNL     1      15.934  38.909  36.401  1.00  0.00    -0.507 OA
ATOM     25  H   UNL     1      16.289  38.470  35.566  1.00  0.00     0.293 HD
ENDBRANCH   6  24
BRANCH   8  26
ATOM     26  O   UNL     1      13.820  38.618  40.685  1.00  0.00    -0.508 OA
ATOM     27  H   UNL     1      14.511  39.253  41.068  1.00  0.00     0.293 HD
ENDBRANCH   8  26
TORSDOF 6
ENDMDL
MODEL 4
REMARK VINA RESULT:    -5.721      1.483      2.813
REMARK INTER + INTRA:          -7.117
REMARK INTER:                  -7.140
REMARK INTRA:                   0.023
REMARK UNBOUND:                -0.225
REMARK SMILES O=c1c(O)c(-c2ccc(O)c(O)c2)oc2cc(O)cc(O)c12
REMARK SMILES IDX 5 1 3 2 2 3 1 4 22 5 20 6 19 7 17 8 16 9 15 10 14 11 6 12
REMARK SMILES IDX 7 13 8 14 9 15 13 16 11 17 10 18 12 20 4 22 21 24 18 26
REMARK H PARENT 10 19 12 21 4 23 21 25 18 27
REMARK Flexibility Score: inf
ROOT
ATOM      1  C   UNL     1      15.056  25.372  33.884  1.00  0.00     0.180 A 
ATOM      2  C   UNL     1      16.225  26.144  33.771  1.00  0.00     0.208 A 
ATOM      3  C   UNL     1      16.687  26.846  34.896  1.00  0.00     0.238 A 
ATOM      4  O   UNL     1      17.704  27.578  34.775  1.00  0.00    -0.285 OA
ATOM      5  C   UNL     1      15.985  26.754  36.122  1.00  0.00     0.111 A 
ATOM      6  C   UNL     1      16.386  27.391  37.335  1.00  0.00     0.134 A 
ATOM      7  C   UNL     1      15.544  27.338  38.454  1.00  0.00     0.093 A 
ATOM      8  C   UNL     1      14.351  26.618  38.423  1.00  0.00     0.123 A 
ATOM      9  C   UNL     1      13.978  25.942  37.260  1.00  0.00     0.094 A 
ATOM     10  C   UNL     1      14.779  26.007  36.118  1.00  0.00     0.146 A 
ATOM     11  O   UNL     1      14.383  25.358  35.029  1.00  0.00    -0.452 OA
ENDROOT
BRANCH   1  12
ATOM     12  C   UNL     1      14.520  24.584  32.750  1.00  0.00     0.025 A 
ATOM     13  C   UNL     1      15.378  23.740  32.028  1.00  0.00     0.016 A 
ATOM     14  C   UNL     1      14.899  23.004  30.943  1.00  0.00     0.051 A 
ATOM     15  C   UNL     1      13.561  23.110  30.551  1.00  0.00     0.157 A 
ATOM     16  C   UNL     1      13.179  24.706  32.342  1.00  0.00     0.062 A 
ATOM     17  C   UNL     1      12.696  23.968  31.251  1.00  0.00     0.158 A 
BRANCH  15  18
ATOM     18  O   UNL     1      13.110  22.361  29.465  1.00  0.00    -0.504 OA
ATOM     19  H   UNL     1      13.709  21.705  28.977  1.00  0.00     0.293 HD
ENDBRANCH  15  18
BRANCH  17  20
ATOM     20  O   UNL     1      11.364  24.090  30.857  1.00  0.00    -0.504 OA
ATOM     21  H   UNL     1      10.603  23.908  31.501  1.00  0.00     0.293 HD
ENDBRANCH  17  20
ENDBRANCH   1  12
BRANCH   2  22
ATOM     22  O   UNL     1      16.890  26.237  32.546  1.00  0.00    -0.502 OA
ATOM     23  H   UNL     1      16.503  25.864  31.687  1.00  0.00     0.293 HD
ENDBRANCH   2  22
BRANCH   6  24
ATOM     24  O   UNL     1      17.603  28.059  37.501  1.00  0.00    -0.507 OA
ATOM     25  H   UNL     1      17.865  28.579  38.324  1.00  0.00     0.293 HD
ENDBRANCH   6  24
BRANCH   8  26
ATOM     26  O   UNL     1      13.546  26.574  39.559  1.00  0.00    -0.508 OA
ATOM     27  H   UNL     1      12.554  26.373  39.499  1.00  0.00     0.293 HD
ENDBRANCH   8  26
TORSDOF 6
ENDMDL
MODEL 5
REMARK VINA RESULT:    -5.597      3.200      5.400
REMARK INTER + INTRA:          -6.968
REMARK INTER:                  -6.848
REMARK INTRA:                  -0.120
REMARK UNBOUND:                -0.225
REMARK SMILES O=c1c(O)c(-c2ccc(O)c(O)c2)oc2cc(O)cc(O)c12
REMARK SMILES IDX 5 1 3 2 2 3 1 4 22 5 20 6 19 7 17 8 16 9 15 10 14 11 6 12
REMARK SMILES IDX 7 13 8 14 9 15 13 16 11 17 10 18 12 20 4 22 21 24 18 26
REMARK H PARENT 10 19 12 21 4 23 21 25 18 27
REMARK Flexibility Score: inf
ROOT
ATOM      1  C   UNL     1      16.520  27.823  36.847  1.00  0.00     0.180 A 
ATOM      2  C   UNL     1      15.846  28.987  37.255  1.00  0.00     0.208 A 
ATOM      3  C   UNL     1      16.234  29.615  38.449  1.00  0.00     0.238 A 
ATOM      4  O   UNL     1      15.592  30.626  38.837  1.00  0.00    -0.285 OA
ATOM      5  C   UNL     1      17.302  29.082  39.211  1.00  0.00     0.111 A 
ATOM      6  C   UNL     1      17.806  29.660  40.415  1.00  0.00     0.134 A 
ATOM      7  C   UNL     1      18.778  28.975  41.155  1.00  0.00     0.093 A 
ATOM      8  C   UNL     1      19.311  27.770  40.702  1.00  0.00     0.123 A 
ATOM      9  C   UNL     1      18.869  27.225  39.495  1.00  0.00     0.094 A 
ATOM     10  C   UNL     1      17.874  27.867  38.754  1.00  0.00     0.146 A 
ATOM     11  O   UNL     1      17.473  27.310  37.617  1.00  0.00    -0.452 OA
ENDROOT
BRANCH   1  12
ATOM     12  C   UNL     1      16.184  27.118  35.588  1.00  0.00     0.025 A 
ATOM     13  C   UNL     1      14.912  26.546  35.435  1.00  0.00     0.016 A 
ATOM     14  C   UNL     1      14.581  25.859  34.265  1.00  0.00     0.051 A 
ATOM     15  C   UNL     1      15.519  25.719  33.237  1.00  0.00     0.157 A 
ATOM     16  C   UNL     1      17.134  26.959  34.563  1.00  0.00     0.062 A 
ATOM     17  C   UNL     1      16.804  26.267  33.387  1.00  0.00     0.158 A 
BRANCH  15  18
ATOM     18  O   UNL     1      15.159  25.030  32.080  1.00  0.00    -0.504 OA
ATOM     19  H   UNL     1      15.790  24.935  31.292  1.00  0.00     0.293 HD
ENDBRANCH  15  18
BRANCH  17  20
ATOM     20  O   UNL     1      17.749  26.120  32.373  1.00  0.00    -0.504 OA
ATOM     21  H   UNL     1      18.741  26.074  32.575  1.00  0.00     0.293 HD
ENDBRANCH  17  20
ENDBRANCH   1  12
BRANCH   2  22
ATOM     22  O   UNL     1      14.781  29.484  36.498  1.00  0.00    -0.502 OA
ATOM     23  H   UNL     1      14.899  29.831  35.555  1.00  0.00     0.293 HD
ENDBRANCH   2  22
BRANCH   6  24
ATOM     24  O   UNL     1      17.408  30.906  40.909  1.00  0.00    -0.507 OA
ATOM     25  H   UNL     1      17.575  31.787  40.447  1.00  0.00     0.293 HD
ENDBRANCH   6  24
BRANCH   8  26
ATOM     26  O   UNL     1      20.288  27.124  41.456  1.00  0.00    -0.508 OA
ATOM     27  H   UNL     1      20.260  26.123  41.615  1.00  0.00     0.293 HD
ENDBRANCH   8  26
TORSDOF 6
ENDMDL
MODEL 6
REMARK VINA RESULT:    -5.579      3.076      8.204
REMARK INTER + INTRA:          -6.946
REMARK INTER:                  -6.650
REMARK INTRA:                  -0.296
REMARK UNBOUND:                -0.225
REMARK SMILES O=c1c(O)c(-c2ccc(O)c(O)c2)oc2cc(O)cc(O)c12
REMARK SMILES IDX 5 1 3 2 2 3 1 4 22 5 20 6 19 7 17 8 16 9 15 10 14 11 6 12
REMARK SMILES IDX 7 13 8 14 9 15 13 16 11 17 10 18 12 20 4 22 21 24 18 26
REMARK H PARENT 10 19 12 21 4 23 21 25 18 27
REMARK Flexibility Score: inf
ROOT
ATOM      1  C   UNL     1      16.350  28.293  37.767  1.00  0.00     0.180 A 
ATOM      2  C   UNL     1      15.004  27.897  37.857  1.00  0.00     0.208 A 
ATOM      3  C   UNL     1      14.446  27.144  36.811  1.00  0.00     0.238 A 
ATOM      4  O   UNL     1      13.226  26.838  36.872  1.00  0.00    -0.285 OA
ATOM      5  C   UNL     1      15.243  26.782  35.699  1.00  0.00     0.111 A 
ATOM      6  C   UNL     1      14.793  25.987  34.603  1.00  0.00     0.134 A 
ATOM      7  C   UNL     1      15.629  25.802  33.494  1.00  0.00     0.093 A 
ATOM      8  C   UNL     1      16.920  26.327  33.471  1.00  0.00     0.123 A 
ATOM      9  C   UNL     1      17.393  27.056  34.563  1.00  0.00     0.094 A 
ATOM     10  C   UNL     1      16.569  27.288  35.667  1.00  0.00     0.146 A 
ATOM     11  O   UNL     1      17.053  27.995  36.681  1.00  0.00    -0.452 OA
ENDROOT
BRANCH   1  12
ATOM     12  C   UNL     1      17.016  29.068  38.840  1.00  0.00     0.025 A 
ATOM     13  C   UNL     1      16.849  30.460  38.892  1.00  0.00     0.016 A 
ATOM     14  C   UNL     1      17.485  31.212  39.883  1.00  0.00     0.051 A 
ATOM     15  C   UNL     1      18.308  30.590  40.825  1.00  0.00     0.157 A 
ATOM     16  C   UNL     1      17.861  28.444  39.776  1.00  0.00     0.062 A 
ATOM     17  C   UNL     1      18.502  29.199  40.771  1.00  0.00     0.158 A 
BRANCH  15  18
ATOM     18  O   UNL     1      18.927  31.366  41.804  1.00  0.00    -0.504 OA
ATOM     19  H   UNL     1      19.353  32.261  41.592  1.00  0.00     0.293 HD
ENDBRANCH  15  18
BRANCH  17  20
ATOM     20  O   UNL     1      19.332  28.572  41.699  1.00  0.00    -0.504 OA
ATOM     21  H   UNL     1      19.077  27.690  42.127  1.00  0.00     0.293 HD
ENDBRANCH  17  20
ENDBRANCH   1  12
BRANCH   2  22
ATOM     22  O   UNL     1      14.229  28.283  38.954  1.00  0.00    -0.502 OA
ATOM     23  H   UNL     1      13.218  28.227  38.951  1.00  0.00     0.293 HD
ENDBRANCH   2  22
BRANCH   6  24
ATOM     24  O   UNL     1      13.554  25.339  34.565  1.00  0.00    -0.507 OA
ATOM     25  H   UNL     1      12.662  25.808  34.538  1.00  0.00     0.293 HD
ENDBRANCH   6  24
BRANCH   8  26
ATOM     26  O   UNL     1      17.729  26.109  32.358  1.00  0.00    -0.508 OA
ATOM     27  H   UNL     1      17.788  26.786  31.605  1.00  0.00     0.293 HD
ENDBRANCH   8  26
TORSDOF 6
ENDMDL
MODEL 7
REMARK VINA RESULT:    -5.560      1.775      6.680
REMARK INTER + INTRA:          -6.923
REMARK INTER:                  -6.803
REMARK INTRA:                  -0.120
REMARK UNBOUND:                -0.225
REMARK SMILES O=c1c(O)c(-c2ccc(O)c(O)c2)oc2cc(O)cc(O)c12
REMARK SMILES IDX 5 1 3 2 2 3 1 4 22 5 20 6 19 7 17 8 16 9 15 10 14 11 6 12
REMARK SMILES IDX 7 13 8 14 9 15 13 16 11 17 10 18 12 20 4 22 21 24 18 26
REMARK H PARENT 10 19 12 21 4 23 21 25 18 27
REMARK Flexibility Score: inf
ROOT
ATOM      1  C   UNL     1      13.918  25.613  34.085  1.00  0.00     0.180 A 
ATOM      2  C   UNL     1      12.900  25.181  34.952  1.00  0.00     0.208 A 
ATOM      3  C   UNL     1      12.069  24.123  34.550  1.00  0.00     0.238 A 
ATOM      4  O   UNL     1      11.124  23.776  35.307  1.00  0.00    -0.285 OA
ATOM      5  C   UNL     1      12.276  23.499  33.296  1.00  0.00     0.111 A 
ATOM      6  C   UNL     1      11.521  22.392  32.806  1.00  0.00     0.134 A 
ATOM      7  C   UNL     1      11.727  21.941  31.496  1.00  0.00     0.093 A 
ATOM      8  C   UNL     1      12.706  22.511  30.685  1.00  0.00     0.123 A 
ATOM      9  C   UNL     1      13.492  23.555  31.174  1.00  0.00     0.094 A 
ATOM     10  C   UNL     1      13.284  24.051  32.463  1.00  0.00     0.146 A 
ATOM     11  O   UNL     1      14.046  25.052  32.888  1.00  0.00    -0.452 OA
ENDROOT
BRANCH   1  12
ATOM     12  C   UNL     1      14.850  26.706  34.448  1.00  0.00     0.025 A 
ATOM     13  C   UNL     1      14.350  28.000  34.655  1.00  0.00     0.016 A 
ATOM     14  C   UNL     1      15.213  29.050  34.977  1.00  0.00     0.051 A 
ATOM     15  C   UNL     1      16.589  28.827  35.082  1.00  0.00     0.157 A 
ATOM     16  C   UNL     1      16.237  26.487  34.533  1.00  0.00     0.062 A 
ATOM     17  C   UNL     1      17.106  27.540  34.855  1.00  0.00     0.158 A 
BRANCH  15  18
ATOM     18  O   UNL     1      17.426  29.893  35.408  1.00  0.00    -0.504 OA
ATOM     19  H   UNL     1      17.145  30.858  35.277  1.00  0.00     0.293 HD
ENDBRANCH  15  18
BRANCH  17  20
ATOM     20  O   UNL     1      18.479  27.314  34.944  1.00  0.00    -0.504 OA
ATOM     21  H   UNL     1      19.059  27.826  35.598  1.00  0.00     0.293 HD
ENDBRANCH  17  20
ENDBRANCH   1  12
BRANCH   2  22
ATOM     22  O   UNL     1      12.698  25.824  36.176  1.00  0.00    -0.502 OA
ATOM     23  H   UNL     1      13.415  26.387  36.619  1.00  0.00     0.293 HD
ENDBRANCH   2  22
BRANCH   6  24
ATOM     24  O   UNL     1      10.582  21.690  33.568  1.00  0.00    -0.507 OA
ATOM     25  H   UNL     1      10.118  22.053  34.386  1.00  0.00     0.293 HD
ENDBRANCH   6  24
BRANCH   8  26
ATOM     26  O   UNL     1      12.895  22.026  29.392  1.00  0.00    -0.508 OA
ATOM     27  H   UNL     1      13.166  21.064  29.222  1.00  0.00     0.293 HD
ENDBRANCH   8  26
TORSDOF 6
ENDMDL
MODEL 8
REMARK VINA RESULT:    -5.477      3.182      5.331
REMARK INTER + INTRA:          -6.823
REMARK INTER:                  -6.556
REMARK INTRA:                  -0.267
REMARK UNBOUND:                -0.225
REMARK SMILES O=c1c(O)c(-c2ccc(O)c(O)c2)oc2cc(O)cc(O)c12
REMARK SMILES IDX 5 1 3 2 2 3 1 4 22 5 20 6 19 7 17 8 16 9 15 10 14 11 6 12
REMARK SMILES IDX 7 13 8 14 9 15 13 16 11 17 10 18 12 20 4 22 21 24 18 26
REMARK H PARENT 10 19 12 21 4 23 21 25 18 27
REMARK Flexibility Score: inf
ROOT
ATOM      1  C   UNL     1      16.867  27.997  37.068  1.00  0.00     0.180 A 
ATOM      2  C   UNL     1      17.732  27.385  37.991  1.00  0.00     0.208 A 
ATOM      3  C   UNL     1      18.096  28.088  39.151  1.00  0.00     0.238 A 
ATOM      4  O   UNL     1      18.913  27.558  39.948  1.00  0.00    -0.285 OA
ATOM      5  C   UNL     1      17.578  29.386  39.381  1.00  0.00     0.111 A 
ATOM      6  C   UNL     1      17.847  30.172  40.541  1.00  0.00     0.134 A 
ATOM      7  C   UNL     1      17.386  31.494  40.601  1.00  0.00     0.093 A 
ATOM      8  C   UNL     1      16.612  32.033  39.576  1.00  0.00     0.123 A 
ATOM      9  C   UNL     1      16.292  31.254  38.463  1.00  0.00     0.094 A 
ATOM     10  C   UNL     1      16.768  29.945  38.358  1.00  0.00     0.146 A 
ATOM     11  O   UNL     1      16.449  29.240  37.279  1.00  0.00    -0.452 OA
ENDROOT
BRANCH   1  12
ATOM     12  C   UNL     1      16.418  27.310  35.835  1.00  0.00     0.025 A 
ATOM     13  C   UNL     1      15.137  26.738  35.789  1.00  0.00     0.016 A 
ATOM     14  C   UNL     1      14.701  26.068  34.644  1.00  0.00     0.051 A 
ATOM     15  C   UNL     1      15.542  25.944  33.534  1.00  0.00     0.157 A 
ATOM     16  C   UNL     1      17.271  27.166  34.725  1.00  0.00     0.062 A 
ATOM     17  C   UNL     1      16.836  26.491  33.574  1.00  0.00     0.158 A 
BRANCH  15  18
ATOM     18  O   UNL     1      15.079  25.271  32.404  1.00  0.00    -0.504 OA
ATOM     19  H   UNL     1      15.707  24.801  31.762  1.00  0.00     0.293 HD
ENDBRANCH  15  18
BRANCH  17  20
ATOM     20  O   UNL     1      17.684  26.359  32.477  1.00  0.00    -0.504 OA
ATOM     21  H   UNL     1      18.661  26.625  32.527  1.00  0.00     0.293 HD
ENDBRANCH  17  20
ENDBRANCH   1  12
BRANCH   2  22
ATOM     22  O   UNL     1      18.249  26.112  37.734  1.00  0.00    -0.502 OA
ATOM     23  H   UNL     1      19.196  25.966  37.406  1.00  0.00     0.293 HD
ENDBRANCH   2  22
BRANCH   6  24
ATOM     24  O   UNL     1      18.533  29.699  41.663  1.00  0.00    -0.507 OA
ATOM     25  H   UNL     1      18.576  28.731  41.944  1.00  0.00     0.293 HD
ENDBRANCH   6  24
BRANCH   8  26
ATOM     26  O   UNL     1      16.158  33.347  39.677  1.00  0.00    -0.508 OA
ATOM     27  H   UNL     1      15.375  33.593  40.272  1.00  0.00     0.293 HD
ENDBRANCH   8  26
TORSDOF 6
ENDMDL
MODEL 9
REMARK VINA RESULT:    -5.378      2.141      7.224
REMARK INTER + INTRA:          -6.704
REMARK INTER:                  -6.375
REMARK INTRA:                  -0.329
REMARK UNBOUND:                -0.225
REMARK SMILES O=c1c(O)c(-c2ccc(O)c(O)c2)oc2cc(O)cc(O)c12
REMARK SMILES IDX 5 1 3 2 2 3 1 4 22 5 20 6 19 7 17 8 16 9 15 10 14 11 6 12
REMARK SMILES IDX 7 13 8 14 9 15 13 16 11 17 10 18 12 20 4 22 21 24 18 26
REMARK H PARENT 10 19 12 21 4 23 21 25 18 27
REMARK Flexibility Score: inf
ROOT
ATOM      1  C   UNL     1      15.161  26.299  37.139  1.00  0.00     0.180 A 
ATOM      2  C   UNL     1      14.335  25.342  37.752  1.00  0.00     0.208 A 
ATOM      3  C   UNL     1      13.656  24.414  36.947  1.00  0.00     0.238 A 
ATOM      4  O   UNL     1      12.876  23.593  37.497  1.00  0.00    -0.285 OA
ATOM      5  C   UNL     1      13.825  24.442  35.541  1.00  0.00     0.111 A 
ATOM      6  C   UNL     1      13.219  23.524  34.633  1.00  0.00     0.134 A 
ATOM      7  C   UNL     1      13.351  23.728  33.253  1.00  0.00     0.093 A 
ATOM      8  C   UNL     1      14.122  24.775  32.752  1.00  0.00     0.123 A 
ATOM      9  C   UNL     1      14.769  25.645  33.631  1.00  0.00     0.094 A 
ATOM     10  C   UNL     1      14.625  25.488  35.012  1.00  0.00     0.146 A 
ATOM     11  O   UNL     1      15.248  26.343  35.814  1.00  0.00    -0.452 OA
ENDROOT
BRANCH   1  12
ATOM     12  C   UNL     1      15.928  27.295  37.922  1.00  0.00     0.025 A 
ATOM     13  C   UNL     1      15.410  28.589  38.092  1.00  0.00     0.016 A 
ATOM     14  C   UNL     1      16.126  29.550  38.809  1.00  0.00     0.051 A 
ATOM     15  C   UNL     1      17.376  29.240  39.354  1.00  0.00     0.157 A 
ATOM     16  C   UNL     1      17.195  26.991  38.453  1.00  0.00     0.062 A 
ATOM     17  C   UNL     1      17.917  27.956  39.173  1.00  0.00     0.158 A 
BRANCH  15  18
ATOM     18  O   UNL     1      18.066  30.219  40.067  1.00  0.00    -0.504 OA
ATOM     19  H   UNL     1      18.714  30.856  39.618  1.00  0.00     0.293 HD
ENDBRANCH  15  18
BRANCH  17  20
ATOM     20  O   UNL     1      19.168  27.644  39.702  1.00  0.00    -0.504 OA
ATOM     21  H   UNL     1      19.378  26.719  40.057  1.00  0.00     0.293 HD
ENDBRANCH  17  20
ENDBRANCH   1  12
BRANCH   2  22
ATOM     22  O   UNL     1      14.165  25.345  39.139  1.00  0.00    -0.502 OA
ATOM     23  H   UNL     1      14.895  25.051  39.777  1.00  0.00     0.293 HD
ENDBRANCH   2  22
BRANCH   6  24
ATOM     24  O   UNL     1      12.505  22.389  35.030  1.00  0.00    -0.507 OA
ATOM     25  H   UNL     1      12.395  21.556  34.474  1.00  0.00     0.293 HD
ENDBRANCH   6  24
BRANCH   8  26
ATOM     26  O   UNL     1      14.244  24.939  31.373  1.00  0.00    -0.508 OA
ATOM     27  H   UNL     1      15.135  24.824  30.903  1.00  0.00     0.293 HD
ENDBRANCH   8  26
TORSDOF 6
ENDMDL
