MODEL 1
REMARK VINA RESULT:    -3.500      0.000      0.000
REMARK INTER + INTRA:          -7.948
REMARK INTER:                  -5.955
REMARK INTRA:                  -1.993
REMARK UNBOUND:                -1.993
REMARK SMILES CCCCCCCCCCCCCC(=O)[O-]
REMARK SMILES IDX 8 1 9 2 10 3 11 4 12 5 13 6 14 7 15 8 16 9 7 10 6 11 5 12
REMARK SMILES IDX 4 13 3 14 2 15 1 16
REMARK H PARENT
REMARK Flexibility Score: inf
ROOT
ATOM      1  C   UNL     1       6.999   1.192  48.726  1.00  0.00     0.000 C 
ENDROOT
BRANCH   1   2
ATOM      2  C   UNL     1       5.980   0.109  49.118  1.00  0.00     0.000 C 
BRANCH   2   3
ATOM      3  C   UNL     1       5.845  -0.050  50.643  1.00  0.00     0.000 C 
BRANCH   3   4
ATOM      4  C   UNL     1       4.402   0.154  51.133  1.00  0.00     0.000 C 
BRANCH   4   5
ATOM      5  C   UNL     1       3.949   1.623  51.046  1.00  0.00     0.006 C 
BRANCH   5   6
ATOM      6  C   UNL     1       2.856   1.829  49.990  1.00  0.00     0.053 C 
BRANCH   6   7
ATOM      7  C   UNL     1       1.666   0.956  50.242  1.00  0.00     0.041 C 
ATOM      8  O   UNL     1       0.982   1.102  51.288  1.00  0.00    -0.550 OA
ATOM      9  O   UNL     1       1.295  -0.000  49.305  1.00  0.00    -0.550 OA
ENDBRANCH   6   7
ENDBRANCH   5   6
ENDBRANCH   4   5
ENDBRANCH   3   4
ENDBRANCH   2   3
ENDBRANCH   1   2
BRANCH   1  10
ATOM     10  C   UNL     1       6.560   1.994  47.488  1.00  0.00     0.000 C 
BRANCH  10  11
ATOM     11  C   UNL     1       5.630   3.166  47.842  1.00  0.00    -0.000 C 
BRANCH  11  12
ATOM     12  C   UNL     1       6.328   4.244  48.685  1.00  0.00    -0.000 C 
BRANCH  12  13
ATOM     13  C   UNL     1       5.438   4.690  49.851  1.00  0.00    -0.000 C 
BRANCH  13  14
ATOM     14  C   UNL     1       6.274   4.951  51.113  1.00  0.00    -0.000 C 
BRANCH  14  15
ATOM     15  C   UNL     1       7.543   4.087  51.170  1.00  0.00    -0.003 C 
ATOM     16  C   UNL     1       7.389   2.869  52.081  1.00  0.00     0.004 C 
ENDBRANCH  14  15
ENDBRANCH  13  14
ENDBRANCH  12  13
ENDBRANCH  11  12
ENDBRANCH  10  11
ENDBRANCH   1  10
TORSDOF 12
ENDMDL
MODEL 2
REMARK VINA RESULT:    -3.486      3.813      5.598
REMARK INTER + INTRA:          -7.925
REMARK INTER:                  -5.999
REMARK INTRA:                  -1.926
REMARK UNBOUND:                -1.993
REMARK SMILES CCCCCCCCCCCCCC(=O)[O-]
REMARK SMILES IDX 8 1 9 2 10 3 11 4 12 5 13 6 14 7 15 8 16 9 7 10 6 11 5 12
REMARK SMILES IDX 4 13 3 14 2 15 1 16
REMARK H PARENT
REMARK Flexibility Score: inf
ROOT
ATOM      1  C   UNL     1       7.092   1.253  48.610  1.00  0.00     0.000 C 
ENDROOT
BRANCH   1   2
ATOM      2  C   UNL     1       6.415   2.056  47.487  1.00  0.00     0.000 C 
BRANCH   2   3
ATOM      3  C   UNL     1       5.759   3.350  47.999  1.00  0.00     0.000 C 
BRANCH   3   4
ATOM      4  C   UNL     1       6.786   4.454  48.298  1.00  0.00     0.000 C 
BRANCH   4   5
ATOM      5  C   UNL     1       6.382   5.331  49.497  1.00  0.00     0.006 C 
BRANCH   5   6
ATOM      6  C   UNL     1       7.558   6.159  50.030  1.00  0.00     0.053 C 
BRANCH   6   7
ATOM      7  C   UNL     1       7.844   7.344  49.159  1.00  0.00     0.041 C 
ATOM      8  O   UNL     1       7.303   8.454  49.400  1.00  0.00    -0.550 OA
ATOM      9  O   UNL     1       8.733   7.228  48.098  1.00  0.00    -0.550 OA
ENDBRANCH   6   7
ENDBRANCH   5   6
ENDBRANCH   4   5
ENDBRANCH   3   4
ENDBRANCH   2   3
ENDBRANCH   1   2
BRANCH   1  10
ATOM     10  C   UNL     1       6.097   0.376  49.391  1.00  0.00     0.000 C 
BRANCH  10  11
ATOM     11  C   UNL     1       6.225   0.550  50.914  1.00  0.00    -0.000 C 
BRANCH  11  12
ATOM     12  C   UNL     1       7.015   1.809  51.302  1.00  0.00    -0.000 C 
BRANCH  12  13
ATOM     13  C   UNL     1       6.113   2.826  52.012  1.00  0.00    -0.000 C 
BRANCH  13  14
ATOM     14  C   UNL     1       4.656   2.340  52.044  1.00  0.00    -0.000 C 
BRANCH  14  15
ATOM     15  C   UNL     1       3.737   3.169  51.133  1.00  0.00    -0.003 C 
ATOM     16  C   UNL     1       2.969   2.309  50.129  1.00  0.00     0.004 C 
ENDBRANCH  14  15
ENDBRANCH  13  14
ENDBRANCH  12  13
ENDBRANCH  11  12
ENDBRANCH  10  11
ENDBRANCH   1  10
TORSDOF 12
ENDMDL
MODEL 3
REMARK VINA RESULT:    -3.405      3.861      5.461
REMARK INTER + INTRA:          -7.787
REMARK INTER:                  -6.139
REMARK INTRA:                  -1.648
REMARK UNBOUND:                -1.993
REMARK SMILES CCCCCCCCCCCCCC(=O)[O-]
REMARK SMILES IDX 8 1 9 2 10 3 11 4 12 5 13 6 14 7 15 8 16 9 7 10 6 11 5 12
REMARK SMILES IDX 4 13 3 14 2 15 1 16
REMARK H PARENT
REMARK Flexibility Score: inf
ROOT
ATOM      1  C   UNL     1       6.879   1.230  48.781  1.00  0.00     0.000 C 
ENDROOT
BRANCH   1   2
ATOM      2  C   UNL     1       6.408   2.222  47.704  1.00  0.00     0.000 C 
BRANCH   2   3
ATOM      3  C   UNL     1       5.218   3.079  48.170  1.00  0.00     0.000 C 
BRANCH   3   4
ATOM      4  C   UNL     1       5.659   4.308  48.983  1.00  0.00     0.000 C 
BRANCH   4   5
ATOM      5  C   UNL     1       6.977   4.915  48.472  1.00  0.00     0.006 C 
BRANCH   5   6
ATOM      6  C   UNL     1       7.321   6.231  49.182  1.00  0.00     0.053 C 
BRANCH   6   7
ATOM      7  C   UNL     1       7.717   7.300  48.212  1.00  0.00     0.041 C 
ATOM      8  O   UNL     1       8.894   7.353  47.770  1.00  0.00    -0.550 OA
ATOM      9  O   UNL     1       6.775   8.222  47.772  1.00  0.00    -0.550 OA
ENDBRANCH   6   7
ENDBRANCH   5   6
ENDBRANCH   4   5
ENDBRANCH   3   4
ENDBRANCH   2   3
ENDBRANCH   1   2
BRANCH   1  10
ATOM     10  C   UNL     1       5.905   0.051  48.964  1.00  0.00     0.000 C 
BRANCH  10  11
ATOM     11  C   UNL     1       5.658  -0.286  50.443  1.00  0.00    -0.000 C 
BRANCH  11  12
ATOM     12  C   UNL     1       6.342   0.702  51.400  1.00  0.00    -0.000 C 
BRANCH  12  13
ATOM     13  C   UNL     1       5.325   1.683  51.994  1.00  0.00    -0.000 C 
BRANCH  13  14
ATOM     14  C   UNL     1       6.010   2.983  52.441  1.00  0.00    -0.000 C 
BRANCH  14  15
ATOM     15  C   UNL     1       7.496   3.032  52.053  1.00  0.00    -0.003 C 
ATOM     16  C   UNL     1       8.268   4.115  52.805  1.00  0.00     0.004 C 
ENDBRANCH  14  15
ENDBRANCH  13  14
ENDBRANCH  12  13
ENDBRANCH  11  12
ENDBRANCH  10  11
ENDBRANCH   1  10
TORSDOF 12
ENDMDL
MODEL 4
REMARK VINA RESULT:    -3.392      4.182      6.040
REMARK INTER + INTRA:          -7.765
REMARK INTER:                  -6.348
REMARK INTRA:                  -1.417
REMARK UNBOUND:                -1.993
REMARK SMILES CCCCCCCCCCCCCC(=O)[O-]
REMARK SMILES IDX 8 1 9 2 10 3 11 4 12 5 13 6 14 7 15 8 16 9 7 10 6 11 5 12
REMARK SMILES IDX 4 13 3 14 2 15 1 16
REMARK H PARENT
REMARK Flexibility Score: inf
ROOT
ATOM      1  C   UNL     1       5.761   3.288  47.869  1.00  0.00     0.000 C 
ENDROOT
BRANCH   1   2
ATOM      2  C   UNL     1       6.695   4.298  48.555  1.00  0.00     0.000 C 
BRANCH   2   3
ATOM      3  C   UNL     1       6.007   5.049  49.709  1.00  0.00     0.000 C 
BRANCH   3   4
ATOM      4  C   UNL     1       6.441   6.521  49.798  1.00  0.00     0.000 C 
BRANCH   4   5
ATOM      5  C   UNL     1       7.749   6.801  49.036  1.00  0.00     0.006 C 
BRANCH   5   6
ATOM      6  C   UNL     1       7.533   7.739  47.842  1.00  0.00     0.053 C 
BRANCH   6   7
ATOM      7  C   UNL     1       6.845   9.006  48.247  1.00  0.00     0.041 C 
ATOM      8  O   UNL     1       7.414   9.817  49.022  1.00  0.00    -0.550 OA
ATOM      9  O   UNL     1       5.585   9.305  47.744  1.00  0.00    -0.550 OA
ENDBRANCH   6   7
ENDBRANCH   5   6
ENDBRANCH   4   5
ENDBRANCH   3   4
ENDBRANCH   2   3
ENDBRANCH   1   2
BRANCH   1  10
ATOM     10  C   UNL     1       6.485   1.988  47.473  1.00  0.00     0.000 C 
BRANCH  10  11
ATOM     11  C   UNL     1       6.974   1.190  48.693  1.00  0.00    -0.000 C 
BRANCH  11  12
ATOM     12  C   UNL     1       5.820   0.596  49.515  1.00  0.00    -0.000 C 
BRANCH  12  13
ATOM     13  C   UNL     1       6.026   0.852  51.013  1.00  0.00    -0.000 C 
BRANCH  13  14
ATOM     14  C   UNL     1       7.176   1.843  51.249  1.00  0.00    -0.000 C 
BRANCH  14  15
ATOM     15  C   UNL     1       6.937   2.744  52.470  1.00  0.00    -0.003 C 
ATOM     16  C   UNL     1       7.979   3.855  52.598  1.00  0.00     0.004 C 
ENDBRANCH  14  15
ENDBRANCH  13  14
ENDBRANCH  12  13
ENDBRANCH  11  12
ENDBRANCH  10  11
ENDBRANCH   1  10
TORSDOF 12
ENDMDL
MODEL 5
REMARK VINA RESULT:    -3.384      2.984      5.550
REMARK INTER + INTRA:          -7.752
REMARK INTER:                  -5.984
REMARK INTRA:                  -1.768
REMARK UNBOUND:                -1.993
REMARK SMILES CCCCCCCCCCCCCC(=O)[O-]
REMARK SMILES IDX 8 1 9 2 10 3 11 4 12 5 13 6 14 7 15 8 16 9 7 10 6 11 5 12
REMARK SMILES IDX 4 13 3 14 2 15 1 16
REMARK H PARENT
REMARK Flexibility Score: inf
ROOT
ATOM      1  C   UNL     1       5.443   0.565  49.473  1.00  0.00     0.000 C 
ENDROOT
BRANCH   1   2
ATOM      2  C   UNL     1       6.811   1.021  48.937  1.00  0.00     0.000 C 
BRANCH   2   3
ATOM      3  C   UNL     1       6.692   1.864  47.655  1.00  0.00     0.000 C 
BRANCH   3   4
ATOM      4  C   UNL     1       5.837   3.125  47.856  1.00  0.00     0.000 C 
BRANCH   4   5
ATOM      5  C   UNL     1       6.668   4.341  48.305  1.00  0.00     0.006 C 
BRANCH   5   6
ATOM      6  C   UNL     1       6.163   4.930  49.628  1.00  0.00     0.053 C 
BRANCH   6   7
ATOM      7  C   UNL     1       7.181   4.802  50.718  1.00  0.00     0.041 C 
ATOM      8  O   UNL     1       7.616   3.669  51.052  1.00  0.00    -0.550 OA
ATOM      9  O   UNL     1       7.673   5.939  51.347  1.00  0.00    -0.550 OA
ENDBRANCH   6   7
ENDBRANCH   5   6
ENDBRANCH   4   5
ENDBRANCH   3   4
ENDBRANCH   2   3
ENDBRANCH   1   2
BRANCH   1  10
ATOM     10  C   UNL     1       5.201   1.010  50.927  1.00  0.00     0.000 C 
BRANCH  10  11
ATOM     11  C   UNL     1       4.191   2.165  51.030  1.00  0.00    -0.000 C 
BRANCH  11  12
ATOM     12  C   UNL     1       3.035   2.035  50.026  1.00  0.00    -0.000 C 
BRANCH  12  13
ATOM     13  C   UNL     1       1.883   1.216  50.621  1.00  0.00    -0.000 C 
BRANCH  13  14
ATOM     14  C   UNL     1       1.568  -0.007  49.745  1.00  0.00    -0.000 C 
BRANCH  14  15
ATOM     15  C   UNL     1       2.285  -1.278  50.225  1.00  0.00    -0.003 C 
ATOM     16  C   UNL     1       2.668  -2.210  49.075  1.00  0.00     0.004 C 
ENDBRANCH  14  15
ENDBRANCH  13  14
ENDBRANCH  12  13
ENDBRANCH  11  12
ENDBRANCH  10  11
ENDBRANCH   1  10
TORSDOF 12
ENDMDL
MODEL 6
REMARK VINA RESULT:    -3.341      1.365      3.279
REMARK INTER + INTRA:          -7.678
REMARK INTER:                  -5.904
REMARK INTRA:                  -1.774
REMARK UNBOUND:                -1.993
REMARK SMILES CCCCCCCCCCCCCC(=O)[O-]
REMARK SMILES IDX 8 1 9 2 10 3 11 4 12 5 13 6 14 7 15 8 16 9 7 10 6 11 5 12
REMARK SMILES IDX 4 13 3 14 2 15 1 16
REMARK H PARENT
REMARK Flexibility Score: inf
ROOT
ATOM      1  C   UNL     1       5.755   4.333  50.588  1.00  0.00     0.000 C 
ENDROOT
BRANCH   1   2
ATOM      2  C   UNL     1       4.298   4.293  50.097  1.00  0.00     0.000 C 
BRANCH   2   3
ATOM      3  C   UNL     1       3.450   3.253  50.850  1.00  0.00     0.000 C 
BRANCH   3   4
ATOM      4  C   UNL     1       2.895   2.160  49.922  1.00  0.00     0.000 C 
BRANCH   4   5
ATOM      5  C   UNL     1       1.954   1.184  50.651  1.00  0.00     0.006 C 
BRANCH   5   6
ATOM      6  C   UNL     1       1.981  -0.218  50.031  1.00  0.00     0.053 C 
BRANCH   6   7
ATOM      7  C   UNL     1       0.692  -0.547  49.342  1.00  0.00     0.041 C 
ATOM      8  O   UNL     1      -0.243  -1.100  49.977  1.00  0.00    -0.550 OA
ATOM      9  O   UNL     1       0.514  -0.215  48.005  1.00  0.00    -0.550 OA
ENDBRANCH   6   7
ENDBRANCH   5   6
ENDBRANCH   4   5
ENDBRANCH   3   4
ENDBRANCH   2   3
ENDBRANCH   1   2
BRANCH   1  10
ATOM     10  C   UNL     1       6.754   3.874  49.511  1.00  0.00     0.000 C 
BRANCH  10  11
ATOM     11  C   UNL     1       6.071   3.549  48.172  1.00  0.00    -0.000 C 
BRANCH  11  12
ATOM     12  C   UNL     1       6.409   2.140  47.660  1.00  0.00    -0.000 C 
BRANCH  12  13
ATOM     13  C   UNL     1       6.996   1.275  48.783  1.00  0.00    -0.000 C 
BRANCH  13  14
ATOM     14  C   UNL     1       5.922   0.360  49.390  1.00  0.00    -0.000 C 
BRANCH  14  15
ATOM     15  C   UNL     1       5.929   0.380  50.926  1.00  0.00    -0.003 C 
ATOM     16  C   UNL     1       5.626  -0.989  51.537  1.00  0.00     0.004 C 
ENDBRANCH  14  15
ENDBRANCH  13  14
ENDBRANCH  12  13
ENDBRANCH  11  12
ENDBRANCH  10  11
ENDBRANCH   1  10
TORSDOF 12
ENDMDL
MODEL 7
REMARK VINA RESULT:    -3.260      3.724      5.670
REMARK INTER + INTRA:          -7.541
REMARK INTER:                  -5.619
REMARK INTRA:                  -1.922
REMARK UNBOUND:                -1.993
REMARK SMILES CCCCCCCCCCCCCC(=O)[O-]
REMARK SMILES IDX 8 1 9 2 10 3 11 4 12 5 13 6 14 7 15 8 16 9 7 10 6 11 5 12
REMARK SMILES IDX 4 13 3 14 2 15 1 16
REMARK H PARENT
REMARK Flexibility Score: inf
ROOT
ATOM      1  C   UNL     1       5.565   2.931  52.585  1.00  0.00     0.000 C 
ENDROOT
BRANCH   1   2
ATOM      2  C   UNL     1       6.926   2.599  51.950  1.00  0.00     0.000 C 
BRANCH   2   3
ATOM      3  C   UNL     1       7.876   3.809  51.924  1.00  0.00     0.000 C 
BRANCH   3   4
ATOM      4  C   UNL     1       7.140   5.133  51.658  1.00  0.00     0.000 C 
BRANCH   4   5
ATOM      5  C   UNL     1       7.681   5.875  50.424  1.00  0.00     0.006 C 
BRANCH   5   6
ATOM      6  C   UNL     1       6.644   6.831  49.823  1.00  0.00     0.053 C 
BRANCH   6   7
ATOM      7  C   UNL     1       7.071   7.346  48.483  1.00  0.00     0.041 C 
ATOM      8  O   UNL     1       6.537   8.378  47.999  1.00  0.00    -0.550 OA
ATOM      9  O   UNL     1       8.081   6.700  47.780  1.00  0.00    -0.550 OA
ENDBRANCH   6   7
ENDBRANCH   5   6
ENDBRANCH   4   5
ENDBRANCH   3   4
ENDBRANCH   2   3
ENDBRANCH   1   2
BRANCH   1  10
ATOM     10  C   UNL     1       4.386   2.315  51.811  1.00  0.00     0.000 C 
BRANCH  10  11
ATOM     11  C   UNL     1       3.485   3.379  51.161  1.00  0.00    -0.000 C 
BRANCH  11  12
ATOM     12  C   UNL     1       4.131   4.031  49.929  1.00  0.00    -0.000 C 
BRANCH  12  13
ATOM     13  C   UNL     1       4.573   2.969  48.915  1.00  0.00    -0.000 C 
BRANCH  13  14
ATOM     14  C   UNL     1       5.855   3.403  48.188  1.00  0.00    -0.000 C 
BRANCH  14  15
ATOM     15  C   UNL     1       6.658   2.211  47.644  1.00  0.00    -0.003 C 
ATOM     16  C   UNL     1       6.817   1.089  48.669  1.00  0.00     0.004 C 
ENDBRANCH  14  15
ENDBRANCH  13  14
ENDBRANCH  12  13
ENDBRANCH  11  12
ENDBRANCH  10  11
ENDBRANCH   1  10
TORSDOF 12
ENDMDL
MODEL 8
REMARK VINA RESULT:    -3.199      4.358      6.621
REMARK INTER + INTRA:          -7.437
REMARK INTER:                  -6.456
REMARK INTRA:                  -0.981
REMARK UNBOUND:                -1.993
REMARK SMILES CCCCCCCCCCCCCC(=O)[O-]
REMARK SMILES IDX 8 1 9 2 10 3 11 4 12 5 13 6 14 7 15 8 16 9 7 10 6 11 5 12
REMARK SMILES IDX 4 13 3 14 2 15 1 16
REMARK H PARENT
REMARK Flexibility Score: inf
ROOT
ATOM      1  C   UNL     1       6.472   5.224  49.584  1.00  0.00     0.000 C 
ENDROOT
BRANCH   1   2
ATOM      2  C   UNL     1       7.462   6.376  49.829  1.00  0.00     0.000 C 
BRANCH   2   3
ATOM      3  C   UNL     1       8.057   6.930  48.523  1.00  0.00     0.000 C 
BRANCH   3   4
ATOM      4  C   UNL     1       7.132   7.948  47.837  1.00  0.00     0.000 C 
BRANCH   4   5
ATOM      5  C   UNL     1       6.653   9.054  48.794  1.00  0.00     0.006 C 
BRANCH   5   6
ATOM      6  C   UNL     1       5.505   9.879  48.197  1.00  0.00     0.053 C 
BRANCH   6   7
ATOM      7  C   UNL     1       4.359  10.008  49.152  1.00  0.00     0.041 C 
ATOM      8  O   UNL     1       3.502   9.091  49.244  1.00  0.00    -0.550 OA
ATOM      9  O   UNL     1       4.253  11.132  49.962  1.00  0.00    -0.550 OA
ENDBRANCH   6   7
ENDBRANCH   5   6
ENDBRANCH   4   5
ENDBRANCH   3   4
ENDBRANCH   2   3
ENDBRANCH   1   2
BRANCH   1  10
ATOM     10  C   UNL     1       6.776   4.450  48.289  1.00  0.00     0.000 C 
BRANCH  10  11
ATOM     11  C   UNL     1       5.771   3.316  48.029  1.00  0.00    -0.000 C 
BRANCH  11  12
ATOM     12  C   UNL     1       6.443   2.032  47.519  1.00  0.00    -0.000 C 
BRANCH  12  13
ATOM     13  C   UNL     1       7.064   1.241  48.677  1.00  0.00    -0.000 C 
BRANCH  13  14
ATOM     14  C   UNL     1       5.976   0.579  49.536  1.00  0.00    -0.000 C 
BRANCH  14  15
ATOM     15  C   UNL     1       6.174   0.831  51.038  1.00  0.00    -0.003 C 
ATOM     16  C   UNL     1       7.113   2.004  51.322  1.00  0.00     0.004 C 
ENDBRANCH  14  15
ENDBRANCH  13  14
ENDBRANCH  12  13
ENDBRANCH  11  12
ENDBRANCH  10  11
ENDBRANCH   1  10
TORSDOF 12
ENDMDL
MODEL 9
REMARK VINA RESULT:    -3.160      1.767      3.393
REMARK INTER + INTRA:          -7.371
REMARK INTER:                  -5.555
REMARK INTRA:                  -1.815
REMARK UNBOUND:                -1.993
REMARK SMILES CCCCCCCCCCCCCC(=O)[O-]
REMARK SMILES IDX 8 1 9 2 10 3 11 4 12 5 13 6 14 7 15 8 16 9 7 10 6 11 5 12
REMARK SMILES IDX 4 13 3 14 2 15 1 16
REMARK H PARENT
REMARK Flexibility Score: inf
ROOT
ATOM      1  C   UNL     1       5.828   3.458  48.347  1.00  0.00     0.000 C 
ENDROOT
BRANCH   1   2
ATOM      2  C   UNL     1       6.475   2.365  47.479  1.00  0.00     0.000 C 
BRANCH   2   3
ATOM      3  C   UNL     1       7.100   1.237  48.319  1.00  0.00     0.000 C 
BRANCH   3   4
ATOM      4  C   UNL     1       6.734   1.337  49.808  1.00  0.00     0.000 C 
BRANCH   4   5
ATOM      5  C   UNL     1       5.850   0.170  50.282  1.00  0.00     0.006 C 
BRANCH   5   6
ATOM      6  C   UNL     1       5.428  -0.743  49.124  1.00  0.00     0.053 C 
BRANCH   6   7
ATOM      7  C   UNL     1       4.444  -1.782  49.565  1.00  0.00     0.041 C 
ATOM      8  O   UNL     1       3.231  -1.484  49.717  1.00  0.00    -0.550 OA
ATOM      9  O   UNL     1       4.863  -3.089  49.780  1.00  0.00    -0.550 OA
ENDBRANCH   6   7
ENDBRANCH   5   6
ENDBRANCH   4   5
ENDBRANCH   3   4
ENDBRANCH   2   3
ENDBRANCH   1   2
BRANCH   1  10
ATOM     10  C   UNL     1       6.756   4.667  48.562  1.00  0.00     0.000 C 
BRANCH  10  11
ATOM     11  C   UNL     1       6.759   5.158  50.019  1.00  0.00    -0.000 C 
BRANCH  11  12
ATOM     12  C   UNL     1       5.391   5.002  50.701  1.00  0.00    -0.000 C 
BRANCH  12  13
ATOM     13  C   UNL     1       5.500   4.122  51.952  1.00  0.00    -0.000 C 
BRANCH  13  14
ATOM     14  C   UNL     1       4.312   3.152  52.047  1.00  0.00    -0.000 C 
BRANCH  14  15
ATOM     15  C   UNL     1       3.230   3.439  50.995  1.00  0.00    -0.003 C 
ATOM     16  C   UNL     1       2.947   2.235  50.095  1.00  0.00     0.004 C 
ENDBRANCH  14  15
ENDBRANCH  13  14
ENDBRANCH  12  13
ENDBRANCH  11  12
ENDBRANCH  10  11
ENDBRANCH   1  10
TORSDOF 12
ENDMDL
