MODEL 1
REMARK VINA RESULT:    -3.180      0.000      0.000
REMARK INTER + INTRA:         -12.471
REMARK INTER:                  -8.014
REMARK INTRA:                  -4.456
REMARK UNBOUND:                -4.456
REMARK SMILES CCCCCCCCCCCCCCCCCCCCCCCCCCCC(=O)[O-]
REMARK SMILES IDX 15 1 16 2 17 3 18 4 19 5 20 6 21 7 22 8 23 9 24 10 25 11
REMARK SMILES IDX 26 12 27 13 28 14 29 15 30 16 14 17 13 18 12 19 11 20 10 21
REMARK SMILES IDX 9 22 8 23 7 24 6 25 5 26 4 27 3 28 2 29 1 30
REMARK H PARENT
REMARK Flexibility Score: inf
ROOT
ATOM      1  C   UNL     1     -13.458 -19.167  18.865  1.00  0.00     0.000 C 
ENDROOT
BRANCH   1   2
ATOM      2  C   UNL     1     -12.371 -18.442  19.679  1.00  0.00     0.000 C 
BRANCH   2   3
ATOM      3  C   UNL     1     -11.683 -19.369  20.695  1.00  0.00     0.000 C 
BRANCH   3   4
ATOM      4  C   UNL     1     -10.228 -19.687  20.306  1.00  0.00     0.000 C 
BRANCH   4   5
ATOM      5  C   UNL     1      -9.894 -19.284  18.859  1.00  0.00     0.000 C 
BRANCH   5   6
ATOM      6  C   UNL     1      -9.267 -20.398  17.994  1.00  0.00     0.000 C 
BRANCH   6   7
ATOM      7  C   UNL     1      -7.897 -20.910  18.477  1.00  0.00     0.000 C 
BRANCH   7   8
ATOM      8  C   UNL     1      -6.704 -20.003  18.125  1.00  0.00     0.000 C 
BRANCH   8   9
ATOM      9  C   UNL     1      -5.911 -19.510  19.356  1.00  0.00     0.000 C 
BRANCH   9  10
ATOM     10  C   UNL     1      -6.784 -18.700  20.328  1.00  0.00     0.000 C 
BRANCH  10  11
ATOM     11  C   UNL     1      -6.231 -18.686  21.764  1.00  0.00     0.000 C 
BRANCH  11  12
ATOM     12  C   UNL     1      -5.325 -17.488  22.102  1.00  0.00     0.006 C 
BRANCH  12  13
ATOM     13  C   UNL     1      -5.608 -16.257  21.230  1.00  0.00     0.053 C 
BRANCH  13  14
ATOM     14  C   UNL     1      -5.969 -15.074  22.073  1.00  0.00     0.041 C 
ATOM     15  O   UNL     1      -5.803 -13.905  21.632  1.00  0.00    -0.550 OA
ATOM     16  O   UNL     1      -6.508 -15.261  23.340  1.00  0.00    -0.550 OA
ENDBRANCH  13  14
ENDBRANCH  12  13
ENDBRANCH  11  12
ENDBRANCH  10  11
ENDBRANCH   9  10
ENDBRANCH   8   9
ENDBRANCH   7   8
ENDBRANCH   6   7
ENDBRANCH   5   6
ENDBRANCH   4   5
ENDBRANCH   3   4
ENDBRANCH   2   3
ENDBRANCH   1   2
BRANCH   1  17
ATOM     17  C   UNL     1     -13.763 -20.573  19.407  1.00  0.00     0.000 C 
BRANCH  17  18
ATOM     18  C   UNL     1     -13.466 -21.680  18.385  1.00  0.00     0.000 C 
BRANCH  18  19
ATOM     19  C   UNL     1     -12.985 -22.956  19.091  1.00  0.00     0.000 C 
BRANCH  19  20
ATOM     20  C   UNL     1     -11.454 -23.035  19.196  1.00  0.00     0.000 C 
BRANCH  20  21
ATOM     21  C   UNL     1     -10.973 -23.217  20.643  1.00  0.00     0.000 C 
BRANCH  21  22
ATOM     22  C   UNL     1     -12.154 -23.211  21.625  1.00  0.00    -0.000 C 
BRANCH  22  23
ATOM     23  C   UNL     1     -11.950 -22.231  22.795  1.00  0.00    -0.000 C 
BRANCH  23  24
ATOM     24  C   UNL     1     -12.508 -22.706  24.153  1.00  0.00    -0.000 C 
BRANCH  24  25
ATOM     25  C   UNL     1     -13.315 -24.015  24.103  1.00  0.00    -0.000 C 
BRANCH  25  26
ATOM     26  C   UNL     1     -14.562 -23.979  24.997  1.00  0.00    -0.000 C 
BRANCH  26  27
ATOM     27  C   UNL     1     -15.722 -23.257  24.295  1.00  0.00    -0.000 C 
BRANCH  27  28
ATOM     28  C   UNL     1     -15.763 -23.555  22.782  1.00  0.00    -0.000 C 
BRANCH  28  29
ATOM     29  C   UNL     1     -15.789 -22.289  21.910  1.00  0.00    -0.003 C 
ATOM     30  C   UNL     1     -15.449 -21.021  22.691  1.00  0.00     0.004 C 
ENDBRANCH  28  29
ENDBRANCH  27  28
ENDBRANCH  26  27
ENDBRANCH  25  26
ENDBRANCH  24  25
ENDBRANCH  23  24
ENDBRANCH  22  23
ENDBRANCH  21  22
ENDBRANCH  20  21
ENDBRANCH  19  20
ENDBRANCH  18  19
ENDBRANCH  17  18
ENDBRANCH   1  17
TORSDOF 26
ENDMDL
MODEL 2
REMARK VINA RESULT:    -3.163      9.582     12.366
REMARK INTER + INTRA:         -12.426
REMARK INTER:                  -6.757
REMARK INTRA:                  -5.669
REMARK UNBOUND:                -4.456
REMARK SMILES CCCCCCCCCCCCCCCCCCCCCCCCCCCC(=O)[O-]
REMARK SMILES IDX 15 1 16 2 17 3 18 4 19 5 20 6 21 7 22 8 23 9 24 10 25 11
REMARK SMILES IDX 26 12 27 13 28 14 29 15 30 16 14 17 13 18 12 19 11 20 10 21
REMARK SMILES IDX 9 22 8 23 7 24 6 25 5 26 4 27 3 28 2 29 1 30
REMARK H PARENT
REMARK Flexibility Score: inf
ROOT
ATOM      1  C   UNL     1     -16.362 -13.991  25.863  1.00  0.00     0.000 C 
ENDROOT
BRANCH   1   2
ATOM      2  C   UNL     1     -17.136 -14.973  24.966  1.00  0.00     0.000 C 
BRANCH   2   3
ATOM      3  C   UNL     1     -18.581 -14.518  24.707  1.00  0.00     0.000 C 
BRANCH   3   4
ATOM      4  C   UNL     1     -19.572 -15.695  24.681  1.00  0.00     0.000 C 
BRANCH   4   5
ATOM      5  C   UNL     1     -18.876 -17.060  24.532  1.00  0.00     0.000 C 
BRANCH   5   6
ATOM      6  C   UNL     1     -19.228 -18.099  25.616  1.00  0.00     0.000 C 
BRANCH   6   7
ATOM      7  C   UNL     1     -18.391 -18.009  26.907  1.00  0.00     0.000 C 
BRANCH   7   8
ATOM      8  C   UNL     1     -19.200 -18.111  28.213  1.00  0.00     0.000 C 
BRANCH   8   9
ATOM      9  C   UNL     1     -19.134 -16.839  29.088  1.00  0.00     0.000 C 
BRANCH   9  10
ATOM     10  C   UNL     1     -18.905 -15.567  28.255  1.00  0.00     0.000 C 
BRANCH  10  11
ATOM     11  C   UNL     1     -18.709 -14.310  29.119  1.00  0.00     0.000 C 
BRANCH  11  12
ATOM     12  C   UNL     1     -18.818 -12.974  28.361  1.00  0.00     0.006 C 
BRANCH  12  13
ATOM     13  C   UNL     1     -17.679 -12.001  28.692  1.00  0.00     0.053 C 
BRANCH  13  14
ATOM     14  C   UNL     1     -17.639 -10.867  27.715  1.00  0.00     0.041 C 
ATOM     15  O   UNL     1     -17.051  -9.793  28.012  1.00  0.00    -0.550 OA
ATOM     16  O   UNL     1     -18.236 -11.003  26.468  1.00  0.00    -0.550 OA
ENDBRANCH  13  14
ENDBRANCH  12  13
ENDBRANCH  11  12
ENDBRANCH  10  11
ENDBRANCH   9  10
ENDBRANCH   8   9
ENDBRANCH   7   8
ENDBRANCH   6   7
ENDBRANCH   5   6
ENDBRANCH   4   5
ENDBRANCH   3   4
ENDBRANCH   2   3
ENDBRANCH   1   2
BRANCH   1  17
ATOM     17  C   UNL     1     -15.614 -14.698  27.005  1.00  0.00     0.000 C 
BRANCH  17  18
ATOM     18  C   UNL     1     -15.420 -16.199  26.747  1.00  0.00     0.000 C 
BRANCH  18  19
ATOM     19  C   UNL     1     -14.589 -16.841  27.868  1.00  0.00     0.000 C 
BRANCH  19  20
ATOM     20  C   UNL     1     -15.462 -17.431  28.988  1.00  0.00     0.000 C 
BRANCH  20  21
ATOM     21  C   UNL     1     -15.008 -16.982  30.385  1.00  0.00     0.000 C 
BRANCH  21  22
ATOM     22  C   UNL     1     -15.934 -15.891  30.945  1.00  0.00    -0.000 C 
BRANCH  22  23
ATOM     23  C   UNL     1     -15.398 -14.469  30.694  1.00  0.00    -0.000 C 
BRANCH  23  24
ATOM     24  C   UNL     1     -13.861 -14.345  30.661  1.00  0.00    -0.000 C 
BRANCH  24  25
ATOM     25  C   UNL     1     -13.312 -13.315  29.659  1.00  0.00    -0.000 C 
BRANCH  25  26
ATOM     26  C   UNL     1     -12.126 -13.851  28.846  1.00  0.00    -0.000 C 
BRANCH  26  27
ATOM     27  C   UNL     1     -11.976 -15.369  29.026  1.00  0.00    -0.000 C 
BRANCH  27  28
ATOM     28  C   UNL     1     -10.705 -15.738  29.819  1.00  0.00    -0.000 C 
BRANCH  28  29
ATOM     29  C   UNL     1     -10.871 -16.997  30.686  1.00  0.00    -0.003 C 
ATOM     30  C   UNL     1     -10.583 -16.744  32.165  1.00  0.00     0.004 C 
ENDBRANCH  28  29
ENDBRANCH  27  28
ENDBRANCH  26  27
ENDBRANCH  25  26
ENDBRANCH  24  25
ENDBRANCH  23  24
ENDBRANCH  22  23
ENDBRANCH  21  22
ENDBRANCH  20  21
ENDBRANCH  19  20
ENDBRANCH  18  19
ENDBRANCH  17  18
ENDBRANCH   1  17
TORSDOF 26
ENDMDL
MODEL 3
REMARK VINA RESULT:    -3.130      4.430      9.041
REMARK INTER + INTRA:         -12.343
REMARK INTER:                  -7.023
REMARK INTRA:                  -5.320
REMARK UNBOUND:                -4.456
REMARK SMILES CCCCCCCCCCCCCCCCCCCCCCCCCCCC(=O)[O-]
REMARK SMILES IDX 15 1 16 2 17 3 18 4 19 5 20 6 21 7 22 8 23 9 24 10 25 11
REMARK SMILES IDX 26 12 27 13 28 14 29 15 30 16 14 17 13 18 12 19 11 20 10 21
REMARK SMILES IDX 9 22 8 23 7 24 6 25 5 26 4 27 3 28 2 29 1 30
REMARK H PARENT
REMARK Flexibility Score: inf
ROOT
ATOM      1  C   UNL     1     -11.918 -24.469  21.037  1.00  0.00     0.000 C 
ENDROOT
BRANCH   1   2
ATOM      2  C   UNL     1     -10.645 -25.280  20.736  1.00  0.00     0.000 C 
BRANCH   2   3
ATOM      3  C   UNL     1     -10.754 -26.740  21.204  1.00  0.00     0.000 C 
BRANCH   3   4
ATOM      4  C   UNL     1     -10.639 -26.876  22.733  1.00  0.00     0.000 C 
BRANCH   4   5
ATOM      5  C   UNL     1     -11.728 -27.779  23.337  1.00  0.00     0.000 C 
BRANCH   5   6
ATOM      6  C   UNL     1     -12.932 -27.037  23.953  1.00  0.00     0.000 C 
BRANCH   6   7
ATOM      7  C   UNL     1     -14.128 -26.830  23.006  1.00  0.00     0.000 C 
BRANCH   7   8
ATOM      8  C   UNL     1     -14.776 -25.434  23.074  1.00  0.00     0.000 C 
BRANCH   8   9
ATOM      9  C   UNL     1     -16.226 -25.446  23.609  1.00  0.00     0.000 C 
BRANCH   9  10
ATOM     10  C   UNL     1     -16.343 -24.789  24.995  1.00  0.00     0.000 C 
BRANCH  10  11
ATOM     11  C   UNL     1     -14.976 -24.459  25.620  1.00  0.00     0.000 C 
BRANCH  11  12
ATOM     12  C   UNL     1     -14.756 -25.021  27.037  1.00  0.00     0.006 C 
BRANCH  12  13
ATOM     13  C   UNL     1     -14.100 -24.011  27.988  1.00  0.00     0.053 C 
BRANCH  13  14
ATOM     14  C   UNL     1     -14.468 -24.296  29.411  1.00  0.00     0.041 C 
ATOM     15  O   UNL     1     -15.301 -25.201  29.683  1.00  0.00    -0.550 OA
ATOM     16  O   UNL     1     -13.876 -23.573  30.439  1.00  0.00    -0.550 OA
ENDBRANCH  13  14
ENDBRANCH  12  13
ENDBRANCH  11  12
ENDBRANCH  10  11
ENDBRANCH   9  10
ENDBRANCH   8   9
ENDBRANCH   7   8
ENDBRANCH   6   7
ENDBRANCH   5   6
ENDBRANCH   4   5
ENDBRANCH   3   4
ENDBRANCH   2   3
ENDBRANCH   1   2
BRANCH   1  17
ATOM     17  C   UNL     1     -11.637 -23.229  21.900  1.00  0.00     0.000 C 
BRANCH  17  18
ATOM     18  C   UNL     1     -11.870 -23.481  23.397  1.00  0.00     0.000 C 
BRANCH  18  19
ATOM     19  C   UNL     1     -12.570 -22.280  24.049  1.00  0.00     0.000 C 
BRANCH  19  20
ATOM     20  C   UNL     1     -12.668 -21.069  23.107  1.00  0.00     0.000 C 
BRANCH  20  21
ATOM     21  C   UNL     1     -14.110 -20.564  22.948  1.00  0.00     0.000 C 
BRANCH  21  22
ATOM     22  C   UNL     1     -15.114 -21.725  23.013  1.00  0.00    -0.000 C 
BRANCH  22  23
ATOM     23  C   UNL     1     -15.844 -21.955  21.677  1.00  0.00    -0.000 C 
BRANCH  23  24
ATOM     24  C   UNL     1     -14.988 -22.596  20.565  1.00  0.00    -0.000 C 
BRANCH  24  25
ATOM     25  C   UNL     1     -14.694 -21.683  19.362  1.00  0.00    -0.000 C 
BRANCH  25  26
ATOM     26  C   UNL     1     -13.261 -21.133  19.369  1.00  0.00    -0.000 C 
BRANCH  26  27
ATOM     27  C   UNL     1     -13.257 -19.609  19.565  1.00  0.00    -0.000 C 
BRANCH  27  28
ATOM     28  C   UNL     1     -11.831 -19.051  19.756  1.00  0.00    -0.000 C 
BRANCH  28  29
ATOM     29  C   UNL     1     -10.763 -20.146  19.912  1.00  0.00    -0.003 C 
ATOM     30  C   UNL     1      -9.419 -19.602  20.394  1.00  0.00     0.004 C 
ENDBRANCH  28  29
ENDBRANCH  27  28
ENDBRANCH  26  27
ENDBRANCH  25  26
ENDBRANCH  24  25
ENDBRANCH  23  24
ENDBRANCH  22  23
ENDBRANCH  21  22
ENDBRANCH  20  21
ENDBRANCH  19  20
ENDBRANCH  18  19
ENDBRANCH  17  18
ENDBRANCH   1  17
TORSDOF 26
ENDMDL
MODEL 4
REMARK VINA RESULT:    -3.098      6.119      9.533
REMARK INTER + INTRA:         -12.264
REMARK INTER:                  -8.762
REMARK INTRA:                  -3.502
REMARK UNBOUND:                -4.456
REMARK SMILES CCCCCCCCCCCCCCCCCCCCCCCCCCCC(=O)[O-]
REMARK SMILES IDX 15 1 16 2 17 3 18 4 19 5 20 6 21 7 22 8 23 9 24 10 25 11
REMARK SMILES IDX 26 12 27 13 28 14 29 15 30 16 14 17 13 18 12 19 11 20 10 21
REMARK SMILES IDX 9 22 8 23 7 24 6 25 5 26 4 27 3 28 2 29 1 30
REMARK H PARENT
REMARK Flexibility Score: inf
ROOT
ATOM      1  C   UNL     1     -19.935 -14.778  23.060  1.00  0.00     0.000 C 
ENDROOT
BRANCH   1   2
ATOM      2  C   UNL     1     -18.646 -14.530  22.256  1.00  0.00     0.000 C 
BRANCH   2   3
ATOM      3  C   UNL     1     -17.949 -13.219  22.654  1.00  0.00     0.000 C 
BRANCH   3   4
ATOM      4  C   UNL     1     -18.635 -12.528  23.846  1.00  0.00     0.000 C 
BRANCH   4   5
ATOM      5  C   UNL     1     -17.804 -12.600  25.139  1.00  0.00     0.000 C 
BRANCH   5   6
ATOM      6  C   UNL     1     -16.644 -13.617  25.121  1.00  0.00     0.000 C 
BRANCH   6   7
ATOM      7  C   UNL     1     -16.556 -14.533  26.356  1.00  0.00     0.000 C 
BRANCH   7   8
ATOM      8  C   UNL     1     -17.896 -14.792  27.068  1.00  0.00     0.000 C 
BRANCH   8   9
ATOM      9  C   UNL     1     -18.155 -16.282  27.387  1.00  0.00     0.000 C 
BRANCH   9  10
ATOM     10  C   UNL     1     -16.857 -17.105  27.427  1.00  0.00     0.000 C 
BRANCH  10  11
ATOM     11  C   UNL     1     -16.696 -17.911  28.729  1.00  0.00     0.000 C 
BRANCH  11  12
ATOM     12  C   UNL     1     -15.281 -17.896  29.334  1.00  0.00     0.006 C 
BRANCH  12  13
ATOM     13  C   UNL     1     -14.508 -16.608  29.021  1.00  0.00     0.053 C 
BRANCH  13  14
ATOM     14  C   UNL     1     -13.033 -16.813  29.179  1.00  0.00     0.041 C 
ATOM     15  O   UNL     1     -12.219 -16.093  28.542  1.00  0.00    -0.550 OA
ATOM     16  O   UNL     1     -12.557 -17.788  30.047  1.00  0.00    -0.550 OA
ENDBRANCH  13  14
ENDBRANCH  12  13
ENDBRANCH  11  12
ENDBRANCH  10  11
ENDBRANCH   9  10
ENDBRANCH   8   9
ENDBRANCH   7   8
ENDBRANCH   6   7
ENDBRANCH   5   6
ENDBRANCH   4   5
ENDBRANCH   3   4
ENDBRANCH   2   3
ENDBRANCH   1   2
BRANCH   1  17
ATOM     17  C   UNL     1     -19.822 -15.993  23.995  1.00  0.00     0.000 C 
BRANCH  17  18
ATOM     18  C   UNL     1     -18.535 -16.800  23.766  1.00  0.00     0.000 C 
BRANCH  18  19
ATOM     19  C   UNL     1     -18.855 -18.173  23.157  1.00  0.00     0.000 C 
BRANCH  19  20
ATOM     20  C   UNL     1     -18.008 -19.303  23.764  1.00  0.00     0.000 C 
BRANCH  20  21
ATOM     21  C   UNL     1     -18.734 -20.656  23.747  1.00  0.00     0.000 C 
BRANCH  21  22
ATOM     22  C   UNL     1     -17.751 -21.810  23.496  1.00  0.00    -0.000 C 
BRANCH  22  23
ATOM     23  C   UNL     1     -16.324 -21.320  23.190  1.00  0.00    -0.000 C 
BRANCH  23  24
ATOM     24  C   UNL     1     -15.759 -21.763  21.824  1.00  0.00    -0.000 C 
BRANCH  24  25
ATOM     25  C   UNL     1     -14.322 -21.298  21.532  1.00  0.00    -0.000 C 
BRANCH  25  26
ATOM     26  C   UNL     1     -13.570 -20.860  22.796  1.00  0.00    -0.000 C 
BRANCH  26  27
ATOM     27  C   UNL     1     -12.342 -21.749  23.042  1.00  0.00    -0.000 C 
BRANCH  27  28
ATOM     28  C   UNL     1     -12.430 -22.506  24.383  1.00  0.00    -0.000 C 
BRANCH  28  29
ATOM     29  C   UNL     1     -13.673 -23.405  24.496  1.00  0.00    -0.003 C 
ATOM     30  C   UNL     1     -13.670 -24.555  23.490  1.00  0.00     0.004 C 
ENDBRANCH  28  29
ENDBRANCH  27  28
ENDBRANCH  26  27
ENDBRANCH  25  26
ENDBRANCH  24  25
ENDBRANCH  23  24
ENDBRANCH  22  23
ENDBRANCH  21  22
ENDBRANCH  20  21
ENDBRANCH  19  20
ENDBRANCH  18  19
ENDBRANCH  17  18
ENDBRANCH   1  17
TORSDOF 26
ENDMDL
MODEL 5
REMARK VINA RESULT:    -3.073      3.786      8.850
REMARK INTER + INTRA:         -12.199
REMARK INTER:                  -7.332
REMARK INTRA:                  -4.867
REMARK UNBOUND:                -4.456
REMARK SMILES CCCCCCCCCCCCCCCCCCCCCCCCCCCC(=O)[O-]
REMARK SMILES IDX 15 1 16 2 17 3 18 4 19 5 20 6 21 7 22 8 23 9 24 10 25 11
REMARK SMILES IDX 26 12 27 13 28 14 29 15 30 16 14 17 13 18 12 19 11 20 10 21
REMARK SMILES IDX 9 22 8 23 7 24 6 25 5 26 4 27 3 28 2 29 1 30
REMARK H PARENT
REMARK Flexibility Score: inf
ROOT
ATOM      1  C   UNL     1     -11.171 -20.040  21.029  1.00  0.00     0.000 C 
ENDROOT
BRANCH   1   2
ATOM      2  C   UNL     1     -10.794 -21.399  20.412  1.00  0.00     0.000 C 
BRANCH   2   3
ATOM      3  C   UNL     1     -11.819 -21.876  19.370  1.00  0.00     0.000 C 
BRANCH   3   4
ATOM      4  C   UNL     1     -12.497 -23.196  19.776  1.00  0.00     0.000 C 
BRANCH   4   5
ATOM      5  C   UNL     1     -11.654 -24.024  20.761  1.00  0.00     0.000 C 
BRANCH   5   6
ATOM      6  C   UNL     1     -12.452 -24.988  21.663  1.00  0.00     0.000 C 
BRANCH   6   7
ATOM      7  C   UNL     1     -12.469 -24.622  23.159  1.00  0.00     0.000 C 
BRANCH   7   8
ATOM      8  C   UNL     1     -11.886 -23.236  23.495  1.00  0.00     0.000 C 
BRANCH   8   9
ATOM      9  C   UNL     1     -12.883 -22.297  24.209  1.00  0.00     0.000 C 
BRANCH   9  10
ATOM     10  C   UNL     1     -13.615 -21.367  23.227  1.00  0.00     0.000 C 
BRANCH  10  11
ATOM     11  C   UNL     1     -15.112 -21.698  23.088  1.00  0.00     0.000 C 
BRANCH  11  12
ATOM     12  C   UNL     1     -15.532 -22.251  21.714  1.00  0.00     0.006 C 
BRANCH  12  13
ATOM     13  C   UNL     1     -15.934 -23.731  21.761  1.00  0.00     0.053 C 
BRANCH  13  14
ATOM     14  C   UNL     1     -15.972 -24.322  20.385  1.00  0.00     0.041 C 
ATOM     15  O   UNL     1     -16.067 -23.574  19.375  1.00  0.00    -0.550 OA
ATOM     16  O   UNL     1     -15.884 -25.697  20.217  1.00  0.00    -0.550 OA
ENDBRANCH  13  14
ENDBRANCH  12  13
ENDBRANCH  11  12
ENDBRANCH  10  11
ENDBRANCH   9  10
ENDBRANCH   8   9
ENDBRANCH   7   8
ENDBRANCH   6   7
ENDBRANCH   5   6
ENDBRANCH   4   5
ENDBRANCH   3   4
ENDBRANCH   2   3
ENDBRANCH   1   2
BRANCH   1  17
ATOM     17  C   UNL     1     -12.494 -19.487  20.476  1.00  0.00     0.000 C 
BRANCH  17  18
ATOM     18  C   UNL     1     -12.294 -18.254  19.583  1.00  0.00     0.000 C 
BRANCH  18  19
ATOM     19  C   UNL     1     -12.926 -18.474  18.201  1.00  0.00     0.000 C 
BRANCH  19  20
ATOM     20  C   UNL     1     -11.879 -18.733  17.105  1.00  0.00     0.000 C 
BRANCH  20  21
ATOM     21  C   UNL     1     -10.441 -18.552  17.612  1.00  0.00     0.000 C 
BRANCH  21  22
ATOM     22  C   UNL     1      -9.589 -19.798  17.323  1.00  0.00    -0.000 C 
BRANCH  22  23
ATOM     23  C   UNL     1      -8.291 -19.836  18.151  1.00  0.00    -0.000 C 
BRANCH  23  24
ATOM     24  C   UNL     1      -8.108 -18.664  19.137  1.00  0.00    -0.000 C 
BRANCH  24  25
ATOM     25  C   UNL     1      -7.841 -19.075  20.595  1.00  0.00    -0.000 C 
BRANCH  25  26
ATOM     26  C   UNL     1      -6.468 -18.613  21.101  1.00  0.00    -0.000 C 
BRANCH  26  27
ATOM     27  C   UNL     1      -5.759 -17.742  20.052  1.00  0.00    -0.000 C 
BRANCH  27  28
ATOM     28  C   UNL     1      -5.602 -16.281  20.519  1.00  0.00    -0.000 C 
BRANCH  28  29
ATOM     29  C   UNL     1      -6.131 -16.033  21.941  1.00  0.00    -0.003 C 
ATOM     30  C   UNL     1      -5.726 -14.669  22.498  1.00  0.00     0.004 C 
ENDBRANCH  28  29
ENDBRANCH  27  28
ENDBRANCH  26  27
ENDBRANCH  25  26
ENDBRANCH  24  25
ENDBRANCH  23  24
ENDBRANCH  22  23
ENDBRANCH  21  22
ENDBRANCH  20  21
ENDBRANCH  19  20
ENDBRANCH  18  19
ENDBRANCH  17  18
ENDBRANCH   1  17
TORSDOF 26
ENDMDL
MODEL 6
REMARK VINA RESULT:    -3.044      3.950      6.267
REMARK INTER + INTRA:         -12.128
REMARK INTER:                  -6.848
REMARK INTRA:                  -5.280
REMARK UNBOUND:                -4.456
REMARK SMILES CCCCCCCCCCCCCCCCCCCCCCCCCCCC(=O)[O-]
REMARK SMILES IDX 15 1 16 2 17 3 18 4 19 5 20 6 21 7 22 8 23 9 24 10 25 11
REMARK SMILES IDX 26 12 27 13 28 14 29 15 30 16 14 17 13 18 12 19 11 20 10 21
REMARK SMILES IDX 9 22 8 23 7 24 6 25 5 26 4 27 3 28 2 29 1 30
REMARK H PARENT
REMARK Flexibility Score: inf
ROOT
ATOM      1  C   UNL     1     -13.261 -21.014  20.531  1.00  0.00     0.000 C 
ENDROOT
BRANCH   1   2
ATOM      2  C   UNL     1     -13.055 -19.613  19.929  1.00  0.00     0.000 C 
BRANCH   2   3
ATOM      3  C   UNL     1     -11.737 -18.966  20.383  1.00  0.00     0.000 C 
BRANCH   3   4
ATOM      4  C   UNL     1     -10.607 -19.996  20.556  1.00  0.00     0.000 C 
BRANCH   4   5
ATOM      5  C   UNL     1      -9.237 -19.466  20.096  1.00  0.00     0.000 C 
BRANCH   5   6
ATOM      6  C   UNL     1      -8.885 -19.747  18.621  1.00  0.00     0.000 C 
BRANCH   6   7
ATOM      7  C   UNL     1      -9.013 -18.538  17.675  1.00  0.00     0.000 C 
BRANCH   7   8
ATOM      8  C   UNL     1      -9.902 -18.772  16.440  1.00  0.00     0.000 C 
BRANCH   8   9
ATOM      9  C   UNL     1     -11.188 -19.574  16.740  1.00  0.00     0.000 C 
BRANCH   9  10
ATOM     10  C   UNL     1     -12.459 -18.821  16.315  1.00  0.00     0.000 C 
BRANCH  10  11
ATOM     11  C   UNL     1     -12.577 -17.428  16.959  1.00  0.00     0.000 C 
BRANCH  11  12
ATOM     12  C   UNL     1     -13.997 -17.037  17.409  1.00  0.00     0.006 C 
BRANCH  12  13
ATOM     13  C   UNL     1     -14.991 -18.204  17.339  1.00  0.00     0.053 C 
BRANCH  13  14
ATOM     14  C   UNL     1     -16.219 -17.819  16.573  1.00  0.00     0.041 C 
ATOM     15  O   UNL     1     -16.383 -18.221  15.391  1.00  0.00    -0.550 OA
ATOM     16  O   UNL     1     -17.193 -17.030  17.173  1.00  0.00    -0.550 OA
ENDBRANCH  13  14
ENDBRANCH  12  13
ENDBRANCH  11  12
ENDBRANCH  10  11
ENDBRANCH   9  10
ENDBRANCH   8   9
ENDBRANCH   7   8
ENDBRANCH   6   7
ENDBRANCH   5   6
ENDBRANCH   4   5
ENDBRANCH   3   4
ENDBRANCH   2   3
ENDBRANCH   1   2
BRANCH   1  17
ATOM     17  C   UNL     1     -14.303 -21.024  21.661  1.00  0.00     0.000 C 
BRANCH  17  18
ATOM     18  C   UNL     1     -13.666 -20.971  23.056  1.00  0.00     0.000 C 
BRANCH  18  19
ATOM     19  C   UNL     1     -12.341 -21.749  23.079  1.00  0.00     0.000 C 
BRANCH  19  20
ATOM     20  C   UNL     1     -12.280 -22.781  24.217  1.00  0.00     0.000 C 
BRANCH  20  21
ATOM     21  C   UNL     1     -13.674 -23.195  24.710  1.00  0.00     0.000 C 
BRANCH  21  22
ATOM     22  C   UNL     1     -14.025 -24.619  24.251  1.00  0.00    -0.000 C 
BRANCH  22  23
ATOM     23  C   UNL     1     -15.350 -24.682  23.470  1.00  0.00    -0.000 C 
BRANCH  23  24
ATOM     24  C   UNL     1     -15.210 -24.601  21.936  1.00  0.00    -0.000 C 
BRANCH  24  25
ATOM     25  C   UNL     1     -14.044 -25.412  21.344  1.00  0.00    -0.000 C 
BRANCH  25  26
ATOM     26  C   UNL     1     -13.115 -24.563  20.466  1.00  0.00    -0.000 C 
BRANCH  26  27
ATOM     27  C   UNL     1     -11.640 -24.876  20.762  1.00  0.00    -0.000 C 
BRANCH  27  28
ATOM     28  C   UNL     1     -10.734 -23.644  20.566  1.00  0.00    -0.000 C 
BRANCH  28  29
ATOM     29  C   UNL     1     -10.030 -23.614  19.199  1.00  0.00    -0.003 C 
ATOM     30  C   UNL     1     -10.851 -22.907  18.121  1.00  0.00     0.004 C 
ENDBRANCH  28  29
ENDBRANCH  27  28
ENDBRANCH  26  27
ENDBRANCH  25  26
ENDBRANCH  24  25
ENDBRANCH  23  24
ENDBRANCH  22  23
ENDBRANCH  21  22
ENDBRANCH  20  21
ENDBRANCH  19  20
ENDBRANCH  18  19
ENDBRANCH  17  18
ENDBRANCH   1  17
TORSDOF 26
ENDMDL
MODEL 7
REMARK VINA RESULT:    -3.040      1.980      2.685
REMARK INTER + INTRA:         -12.117
REMARK INTER:                  -7.247
REMARK INTRA:                  -4.871
REMARK UNBOUND:                -4.456
REMARK SMILES CCCCCCCCCCCCCCCCCCCCCCCCCCCC(=O)[O-]
REMARK SMILES IDX 15 1 16 2 17 3 18 4 19 5 20 6 21 7 22 8 23 9 24 10 25 11
REMARK SMILES IDX 26 12 27 13 28 14 29 15 30 16 14 17 13 18 12 19 11 20 10 21
REMARK SMILES IDX 9 22 8 23 7 24 6 25 5 26 4 27 3 28 2 29 1 30
REMARK H PARENT
REMARK Flexibility Score: inf
ROOT
ATOM      1  C   UNL     1     -13.315 -18.349  18.586  1.00  0.00     0.000 C 
ENDROOT
BRANCH   1   2
ATOM      2  C   UNL     1     -12.601 -18.706  19.902  1.00  0.00     0.000 C 
BRANCH   2   3
ATOM      3  C   UNL     1     -11.114 -19.035  19.693  1.00  0.00     0.000 C 
BRANCH   3   4
ATOM      4  C   UNL     1     -10.606 -20.105  20.676  1.00  0.00     0.000 C 
BRANCH   4   5
ATOM      5  C   UNL     1     -10.423 -21.484  20.017  1.00  0.00     0.000 C 
BRANCH   5   6
ATOM      6  C   UNL     1      -9.974 -21.454  18.542  1.00  0.00     0.000 C 
BRANCH   6   7
ATOM      7  C   UNL     1      -8.452 -21.367  18.322  1.00  0.00     0.000 C 
BRANCH   7   8
ATOM      8  C   UNL     1      -7.989 -20.179  17.458  1.00  0.00     0.000 C 
BRANCH   8   9
ATOM      9  C   UNL     1      -7.637 -18.915  18.272  1.00  0.00     0.000 C 
BRANCH   9  10
ATOM     10  C   UNL     1      -6.674 -19.216  19.433  1.00  0.00     0.000 C 
BRANCH  10  11
ATOM     11  C   UNL     1      -7.232 -18.790  20.802  1.00  0.00     0.000 C 
BRANCH  11  12
ATOM     12  C   UNL     1      -6.248 -18.931  21.978  1.00  0.00     0.006 C 
BRANCH  12  13
ATOM     13  C   UNL     1      -4.858 -18.358  21.670  1.00  0.00     0.053 C 
BRANCH  13  14
ATOM     14  C   UNL     1      -3.782 -19.334  22.032  1.00  0.00     0.041 C 
ATOM     15  O   UNL     1      -2.790 -18.962  22.714  1.00  0.00    -0.550 OA
ATOM     16  O   UNL     1      -3.883 -20.660  21.631  1.00  0.00    -0.550 OA
ENDBRANCH  13  14
ENDBRANCH  12  13
ENDBRANCH  11  12
ENDBRANCH  10  11
ENDBRANCH   9  10
ENDBRANCH   8   9
ENDBRANCH   7   8
ENDBRANCH   6   7
ENDBRANCH   5   6
ENDBRANCH   4   5
ENDBRANCH   3   4
ENDBRANCH   2   3
ENDBRANCH   1   2
BRANCH   1  17
ATOM     17  C   UNL     1     -13.848 -19.588  17.849  1.00  0.00     0.000 C 
BRANCH  17  18
ATOM     18  C   UNL     1     -14.078 -20.783  18.786  1.00  0.00     0.000 C 
BRANCH  18  19
ATOM     19  C   UNL     1     -13.650 -22.094  18.110  1.00  0.00     0.000 C 
BRANCH  19  20
ATOM     20  C   UNL     1     -13.356 -23.214  19.122  1.00  0.00     0.000 C 
BRANCH  20  21
ATOM     21  C   UNL     1     -14.636 -23.841  19.693  1.00  0.00     0.000 C 
BRANCH  21  22
ATOM     22  C   UNL     1     -14.349 -24.598  20.999  1.00  0.00    -0.000 C 
BRANCH  22  23
ATOM     23  C   UNL     1     -12.849 -24.883  21.204  1.00  0.00    -0.000 C 
BRANCH  23  24
ATOM     24  C   UNL     1     -12.397 -24.980  22.675  1.00  0.00    -0.000 C 
BRANCH  24  25
ATOM     25  C   UNL     1     -12.783 -23.779  23.556  1.00  0.00    -0.000 C 
BRANCH  25  26
ATOM     26  C   UNL     1     -12.048 -22.491  23.160  1.00  0.00    -0.000 C 
BRANCH  26  27
ATOM     27  C   UNL     1     -12.952 -21.263  23.346  1.00  0.00    -0.000 C 
BRANCH  27  28
ATOM     28  C   UNL     1     -14.049 -21.178  22.264  1.00  0.00    -0.000 C 
BRANCH  28  29
ATOM     29  C   UNL     1     -15.460 -20.970  22.838  1.00  0.00    -0.003 C 
ATOM     30  C   UNL     1     -16.222 -22.279  23.036  1.00  0.00     0.004 C 
ENDBRANCH  28  29
ENDBRANCH  27  28
ENDBRANCH  26  27
ENDBRANCH  25  26
ENDBRANCH  24  25
ENDBRANCH  23  24
ENDBRANCH  22  23
ENDBRANCH  21  22
ENDBRANCH  20  21
ENDBRANCH  19  20
ENDBRANCH  18  19
ENDBRANCH  17  18
ENDBRANCH   1  17
TORSDOF 26
ENDMDL
MODEL 8
REMARK VINA RESULT:    -3.039      9.375     11.811
REMARK INTER + INTRA:         -12.113
REMARK INTER:                  -7.350
REMARK INTRA:                  -4.763
REMARK UNBOUND:                -4.456
REMARK SMILES CCCCCCCCCCCCCCCCCCCCCCCCCCCC(=O)[O-]
REMARK SMILES IDX 15 1 16 2 17 3 18 4 19 5 20 6 21 7 22 8 23 9 24 10 25 11
REMARK SMILES IDX 26 12 27 13 28 14 29 15 30 16 14 17 13 18 12 19 11 20 10 21
REMARK SMILES IDX 9 22 8 23 7 24 6 25 5 26 4 27 3 28 2 29 1 30
REMARK H PARENT
REMARK Flexibility Score: inf
ROOT
ATOM      1  C   UNL     1     -13.197 -16.170  28.592  1.00  0.00     0.000 C 
ENDROOT
BRANCH   1   2
ATOM      2  C   UNL     1     -13.607 -14.723  28.918  1.00  0.00     0.000 C 
BRANCH   2   3
ATOM      3  C   UNL     1     -12.398 -13.777  29.012  1.00  0.00     0.000 C 
BRANCH   3   4
ATOM      4  C   UNL     1     -12.350 -13.018  30.350  1.00  0.00     0.000 C 
BRANCH   4   5
ATOM      5  C   UNL     1     -12.739 -13.897  31.551  1.00  0.00     0.000 C 
BRANCH   5   6
ATOM      6  C   UNL     1     -11.696 -13.962  32.685  1.00  0.00     0.000 C 
BRANCH   6   7
ATOM      7  C   UNL     1     -10.847 -15.246  32.723  1.00  0.00     0.000 C 
BRANCH   7   8
ATOM      8  C   UNL     1     -11.391 -16.409  31.873  1.00  0.00     0.000 C 
BRANCH   8   9
ATOM      9  C   UNL     1     -10.406 -16.908  30.793  1.00  0.00     0.000 C 
BRANCH   9  10
ATOM     10  C   UNL     1      -9.625 -15.756  30.139  1.00  0.00     0.000 C 
BRANCH  10  11
ATOM     11  C   UNL     1      -8.104 -15.866  30.349  1.00  0.00     0.000 C 
BRANCH  11  12
ATOM     12  C   UNL     1      -7.625 -17.196  30.959  1.00  0.00     0.006 C 
BRANCH  12  13
ATOM     13  C   UNL     1      -6.206 -17.581  30.519  1.00  0.00     0.053 C 
BRANCH  13  14
ATOM     14  C   UNL     1      -5.410 -18.108  31.673  1.00  0.00     0.041 C 
ATOM     15  O   UNL     1      -5.166 -17.371  32.665  1.00  0.00    -0.550 OA
ATOM     16  O   UNL     1      -4.954 -19.420  31.661  1.00  0.00    -0.550 OA
ENDBRANCH  13  14
ENDBRANCH  12  13
ENDBRANCH  11  12
ENDBRANCH  10  11
ENDBRANCH   9  10
ENDBRANCH   8   9
ENDBRANCH   7   8
ENDBRANCH   6   7
ENDBRANCH   5   6
ENDBRANCH   4   5
ENDBRANCH   3   4
ENDBRANCH   2   3
ENDBRANCH   1   2
BRANCH   1  17
ATOM     17  C   UNL     1     -14.039 -17.207  29.354  1.00  0.00     0.000 C 
BRANCH  17  18
ATOM     18  C   UNL     1     -14.954 -16.569  30.408  1.00  0.00     0.000 C 
BRANCH  18  19
ATOM     19  C   UNL     1     -16.417 -16.970  30.172  1.00  0.00     0.000 C 
BRANCH  19  20
ATOM     20  C   UNL     1     -17.376 -15.769  30.221  1.00  0.00     0.000 C 
BRANCH  20  21
ATOM     21  C   UNL     1     -16.726 -14.524  30.844  1.00  0.00     0.000 C 
BRANCH  21  22
ATOM     22  C   UNL     1     -16.644 -13.374  29.829  1.00  0.00    -0.000 C 
BRANCH  22  23
ATOM     23  C   UNL     1     -18.027 -12.807  29.458  1.00  0.00    -0.000 C 
BRANCH  23  24
ATOM     24  C   UNL     1     -18.299 -12.680  27.945  1.00  0.00    -0.000 C 
BRANCH  24  25
ATOM     25  C   UNL     1     -17.078 -12.288  27.095  1.00  0.00    -0.000 C 
BRANCH  25  26
ATOM     26  C   UNL     1     -17.280 -12.569  25.600  1.00  0.00    -0.000 C 
BRANCH  26  27
ATOM     27  C   UNL     1     -16.965 -14.036  25.269  1.00  0.00    -0.000 C 
BRANCH  27  28
ATOM     28  C   UNL     1     -15.988 -14.665  26.283  1.00  0.00    -0.000 C 
BRANCH  28  29
ATOM     29  C   UNL     1     -15.934 -16.200  26.208  1.00  0.00    -0.003 C 
ATOM     30  C   UNL     1     -17.243 -16.864  26.632  1.00  0.00     0.004 C 
ENDBRANCH  28  29
ENDBRANCH  27  28
ENDBRANCH  26  27
ENDBRANCH  25  26
ENDBRANCH  24  25
ENDBRANCH  23  24
ENDBRANCH  22  23
ENDBRANCH  21  22
ENDBRANCH  20  21
ENDBRANCH  19  20
ENDBRANCH  18  19
ENDBRANCH  17  18
ENDBRANCH   1  17
TORSDOF 26
ENDMDL
MODEL 9
REMARK VINA RESULT:    -3.036      2.088      3.725
REMARK INTER + INTRA:         -12.106
REMARK INTER:                  -6.624
REMARK INTRA:                  -5.482
REMARK UNBOUND:                -4.456
REMARK SMILES CCCCCCCCCCCCCCCCCCCCCCCCCCCC(=O)[O-]
REMARK SMILES IDX 15 1 16 2 17 3 18 4 19 5 20 6 21 7 22 8 23 9 24 10 25 11
REMARK SMILES IDX 26 12 27 13 28 14 29 15 30 16 14 17 13 18 12 19 11 20 10 21
REMARK SMILES IDX 9 22 8 23 7 24 6 25 5 26 4 27 3 28 2 29 1 30
REMARK H PARENT
REMARK Flexibility Score: inf
ROOT
ATOM      1  C   UNL     1     -13.320 -18.244  18.171  1.00  0.00     0.000 C 
ENDROOT
BRANCH   1   2
ATOM      2  C   UNL     1     -12.740 -17.608  16.895  1.00  0.00     0.000 C 
BRANCH   2   3
ATOM      3  C   UNL     1     -11.203 -17.597  16.891  1.00  0.00     0.000 C 
BRANCH   3   4
ATOM      4  C   UNL     1     -10.616 -18.215  15.609  1.00  0.00     0.000 C 
BRANCH   4   5
ATOM      5  C   UNL     1     -11.550 -19.252  14.962  1.00  0.00     0.000 C 
BRANCH   5   6
ATOM      6  C   UNL     1     -11.192 -20.726  15.242  1.00  0.00     0.000 C 
BRANCH   6   7
ATOM      7  C   UNL     1     -11.875 -21.343  16.477  1.00  0.00     0.000 C 
BRANCH   7   8
ATOM      8  C   UNL     1     -11.043 -21.292  17.771  1.00  0.00     0.000 C 
BRANCH   8   9
ATOM      9  C   UNL     1      -9.520 -21.402  17.539  1.00  0.00     0.000 C 
BRANCH   9  10
ATOM     10  C   UNL     1      -8.709 -20.661  18.614  1.00  0.00     0.000 C 
BRANCH  10  11
ATOM     11  C   UNL     1      -8.121 -19.330  18.113  1.00  0.00     0.000 C 
BRANCH  11  12
ATOM     12  C   UNL     1      -7.697 -18.347  19.220  1.00  0.00     0.006 C 
BRANCH  12  13
ATOM     13  C   UNL     1      -7.673 -18.988  20.614  1.00  0.00     0.053 C 
BRANCH  13  14
ATOM     14  C   UNL     1      -6.376 -18.712  21.310  1.00  0.00     0.041 C 
ATOM     15  O   UNL     1      -6.152 -17.577  21.810  1.00  0.00    -0.550 OA
ATOM     16  O   UNL     1      -5.421 -19.714  21.423  1.00  0.00    -0.550 OA
ENDBRANCH  13  14
ENDBRANCH  12  13
ENDBRANCH  11  12
ENDBRANCH  10  11
ENDBRANCH   9  10
ENDBRANCH   8   9
ENDBRANCH   7   8
ENDBRANCH   6   7
ENDBRANCH   5   6
ENDBRANCH   4   5
ENDBRANCH   3   4
ENDBRANCH   2   3
ENDBRANCH   1   2
BRANCH   1  17
ATOM     17  C   UNL     1     -12.333 -18.209  19.349  1.00  0.00     0.000 C 
BRANCH  17  18
ATOM     18  C   UNL     1     -12.603 -19.311  20.383  1.00  0.00     0.000 C 
BRANCH  18  19
ATOM     19  C   UNL     1     -11.301 -19.738  21.076  1.00  0.00     0.000 C 
BRANCH  19  20
ATOM     20  C   UNL     1     -11.473 -21.002  21.934  1.00  0.00     0.000 C 
BRANCH  20  21
ATOM     21  C   UNL     1     -12.830 -21.045  22.651  1.00  0.00     0.000 C 
BRANCH  21  22
ATOM     22  C   UNL     1     -12.777 -21.959  23.885  1.00  0.00    -0.000 C 
BRANCH  22  23
ATOM     23  C   UNL     1     -12.030 -23.278  23.617  1.00  0.00    -0.000 C 
BRANCH  23  24
ATOM     24  C   UNL     1     -12.932 -24.510  23.401  1.00  0.00    -0.000 C 
BRANCH  24  25
ATOM     25  C   UNL     1     -12.786 -25.193  22.030  1.00  0.00    -0.000 C 
BRANCH  25  26
ATOM     26  C   UNL     1     -11.653 -24.594  21.186  1.00  0.00    -0.000 C 
BRANCH  26  27
ATOM     27  C   UNL     1     -12.206 -23.919  19.921  1.00  0.00    -0.000 C 
BRANCH  27  28
ATOM     28  C   UNL     1     -13.701 -23.563  20.059  1.00  0.00    -0.000 C 
BRANCH  28  29
ATOM     29  C   UNL     1     -14.221 -22.660  18.928  1.00  0.00    -0.003 C 
ATOM     30  C   UNL     1     -15.240 -21.629  19.409  1.00  0.00     0.004 C 
ENDBRANCH  28  29
ENDBRANCH  27  28
ENDBRANCH  26  27
ENDBRANCH  25  26
ENDBRANCH  24  25
ENDBRANCH  23  24
ENDBRANCH  22  23
ENDBRANCH  21  22
ENDBRANCH  20  21
ENDBRANCH  19  20
ENDBRANCH  18  19
ENDBRANCH  17  18
ENDBRANCH   1  17
TORSDOF 26
ENDMDL
