MODEL 1
REMARK VINA RESULT:    -5.207      0.000      0.000
REMARK INTER + INTRA:         -13.080
REMARK INTER:                 -11.296
REMARK INTRA:                  -1.784
REMARK UNBOUND:                -1.784
REMARK SMILES CCCCCCCCCCCCCCCCCCCCCC(=O)[O-]
REMARK SMILES IDX 12 1 11 2 10 3 9 4 8 5 7 6 6 7 5 8 4 9 3 10 2 11 1 12 13 13
REMARK SMILES IDX 14 14 15 15 16 16 17 17 18 18 19 19 20 20 21 21 22 22 23 23
REMARK SMILES IDX 24 24
REMARK H PARENT
REMARK Flexibility Score: inf
ROOT
ATOM      1  C   UNL     1      41.296 116.376  12.781  1.00  0.00     0.000 C 
ENDROOT
BRANCH   1   2
ATOM      2  C   UNL     1      41.198 116.662  14.292  1.00  0.00     0.000 C 
BRANCH   2   3
ATOM      3  C   UNL     1      40.082 117.668  14.620  1.00  0.00     0.000 C 
BRANCH   3   4
ATOM      4  C   UNL     1      39.186 117.201  15.779  1.00  0.00    -0.000 C 
BRANCH   4   5
ATOM      5  C   UNL     1      37.697 117.468  15.521  1.00  0.00    -0.000 C 
BRANCH   5   6
ATOM      6  C   UNL     1      37.241 116.786  14.223  1.00  0.00    -0.000 C 
BRANCH   6   7
ATOM      7  C   UNL     1      36.994 117.781  13.077  1.00  0.00    -0.000 C 
BRANCH   7   8
ATOM      8  C   UNL     1      36.362 119.109  13.549  1.00  0.00    -0.000 C 
BRANCH   8   9
ATOM      9  C   UNL     1      37.344 120.289  13.448  1.00  0.00    -0.000 C 
BRANCH   9  10
ATOM     10  C   UNL     1      37.082 121.381  14.502  1.00  0.00    -0.000 C 
BRANCH  10  11
ATOM     11  C   UNL     1      36.434 120.878  15.805  1.00  0.00    -0.003 C 
ATOM     12  C   UNL     1      36.516 121.895  16.943  1.00  0.00     0.004 C 
ENDBRANCH  10  11
ENDBRANCH   9  10
ENDBRANCH   8   9
ENDBRANCH   7   8
ENDBRANCH   6   7
ENDBRANCH   5   6
ENDBRANCH   4   5
ENDBRANCH   3   4
ENDBRANCH   2   3
ENDBRANCH   1   2
BRANCH   1  13
ATOM     13  C   UNL     1      40.407 117.306  11.934  1.00  0.00     0.000 C 
BRANCH  13  14
ATOM     14  C   UNL     1      41.173 117.915  10.746  1.00  0.00     0.000 C 
BRANCH  14  15
ATOM     15  C   UNL     1      42.450 117.126  10.401  1.00  0.00     0.000 C 
BRANCH  15  16
ATOM     16  C   UNL     1      42.759 117.017   8.892  1.00  0.00     0.000 C 
BRANCH  16  17
ATOM     17  C   UNL     1      44.062 116.274   8.535  1.00  0.00     0.000 C 
BRANCH  17  18
ATOM     18  C   UNL     1      44.683 115.462   9.686  1.00  0.00     0.000 C 
BRANCH  18  19
ATOM     19  C   UNL     1      44.864 113.977   9.329  1.00  0.00     0.000 C 
BRANCH  19  20
ATOM     20  C   UNL     1      45.340 113.769   7.879  1.00  0.00     0.006 C 
BRANCH  20  21
ATOM     21  C   UNL     1      45.721 112.318   7.542  1.00  0.00     0.053 C 
BRANCH  21  22
ATOM     22  C   UNL     1      46.895 112.243   6.614  1.00  0.00     0.041 C 
ATOM     23  O   UNL     1      47.239 113.251   5.943  1.00  0.00    -0.550 OA
ATOM     24  O   UNL     1      47.596 111.052   6.471  1.00  0.00    -0.550 OA
ENDBRANCH  21  22
ENDBRANCH  20  21
ENDBRANCH  19  20
ENDBRANCH  18  19
ENDBRANCH  17  18
ENDBRANCH  16  17
ENDBRANCH  15  16
ENDBRANCH  14  15
ENDBRANCH  13  14
ENDBRANCH   1  13
TORSDOF 20
ENDMDL
MODEL 2
REMARK VINA RESULT:    -5.158      2.960      4.196
REMARK INTER + INTRA:         -12.973
REMARK INTER:                 -10.728
REMARK INTRA:                  -2.245
REMARK UNBOUND:                -1.784
REMARK SMILES CCCCCCCCCCCCCCCCCCCCCC(=O)[O-]
REMARK SMILES IDX 12 1 11 2 10 3 9 4 8 5 7 6 6 7 5 8 4 9 3 10 2 11 1 12 13 13
REMARK SMILES IDX 14 14 15 15 16 16 17 17 18 18 19 19 20 20 21 21 22 22 23 23
REMARK SMILES IDX 24 24
REMARK H PARENT
REMARK Flexibility Score: inf
ROOT
ATOM      1  C   UNL     1      41.494 117.907  10.481  1.00  0.00     0.000 C 
ENDROOT
BRANCH   1   2
ATOM      2  C   UNL     1      40.664 117.504  11.715  1.00  0.00     0.000 C 
BRANCH   2   3
ATOM      3  C   UNL     1      41.333 116.377  12.521  1.00  0.00     0.000 C 
BRANCH   3   4
ATOM      4  C   UNL     1      41.091 116.507  14.033  1.00  0.00    -0.000 C 
BRANCH   4   5
ATOM      5  C   UNL     1      39.935 117.460  14.369  1.00  0.00    -0.000 C 
BRANCH   5   6
ATOM      6  C   UNL     1      38.853 116.734  15.181  1.00  0.00    -0.000 C 
BRANCH   6   7
ATOM      7  C   UNL     1      37.443 117.302  14.945  1.00  0.00    -0.000 C 
BRANCH   7   8
ATOM      8  C   UNL     1      36.961 117.148  13.486  1.00  0.00    -0.000 C 
BRANCH   8   9
ATOM      9  C   UNL     1      36.388 118.460  12.921  1.00  0.00    -0.000 C 
BRANCH   9  10
ATOM     10  C   UNL     1      36.235 119.558  13.989  1.00  0.00    -0.000 C 
BRANCH  10  11
ATOM     11  C   UNL     1      37.312 120.656  13.946  1.00  0.00    -0.003 C 
ATOM     12  C   UNL     1      37.025 121.812  14.904  1.00  0.00     0.004 C 
ENDBRANCH  10  11
ENDBRANCH   9  10
ENDBRANCH   8   9
ENDBRANCH   7   8
ENDBRANCH   6   7
ENDBRANCH   5   6
ENDBRANCH   4   5
ENDBRANCH   3   4
ENDBRANCH   2   3
ENDBRANCH   1   2
BRANCH   1  13
ATOM     13  C   UNL     1      42.720 117.002  10.259  1.00  0.00     0.000 C 
BRANCH  13  14
ATOM     14  C   UNL     1      42.956 116.704   8.768  1.00  0.00     0.000 C 
BRANCH  14  15
ATOM     15  C   UNL     1      44.300 115.996   8.514  1.00  0.00     0.000 C 
BRANCH  15  16
ATOM     16  C   UNL     1      44.936 115.343   9.759  1.00  0.00     0.000 C 
BRANCH  16  17
ATOM     17  C   UNL     1      44.472 113.904  10.063  1.00  0.00     0.000 C 
BRANCH  17  18
ATOM     18  C   UNL     1      43.875 113.696  11.466  1.00  0.00     0.000 C 
BRANCH  18  19
ATOM     19  C   UNL     1      44.880 113.069  12.447  1.00  0.00     0.000 C 
BRANCH  19  20
ATOM     20  C   UNL     1      45.459 114.094  13.440  1.00  0.00     0.006 C 
BRANCH  20  21
ATOM     21  C   UNL     1      44.727 115.446  13.450  1.00  0.00     0.053 C 
BRANCH  21  22
ATOM     22  C   UNL     1      45.674 116.602  13.334  1.00  0.00     0.041 C 
ATOM     23  O   UNL     1      45.531 117.449  12.414  1.00  0.00    -0.550 OA
ATOM     24  O   UNL     1      46.730 116.730  14.228  1.00  0.00    -0.550 OA
ENDBRANCH  21  22
ENDBRANCH  20  21
ENDBRANCH  19  20
ENDBRANCH  18  19
ENDBRANCH  17  18
ENDBRANCH  16  17
ENDBRANCH  15  16
ENDBRANCH  14  15
ENDBRANCH  13  14
ENDBRANCH   1  13
TORSDOF 20
ENDMDL
MODEL 3
REMARK VINA RESULT:    -5.103      2.902      4.432
REMARK INTER + INTRA:         -12.853
REMARK INTER:                 -10.530
REMARK INTRA:                  -2.324
REMARK UNBOUND:                -1.784
REMARK SMILES CCCCCCCCCCCCCCCCCCCCCC(=O)[O-]
REMARK SMILES IDX 12 1 11 2 10 3 9 4 8 5 7 6 6 7 5 8 4 9 3 10 2 11 1 12 13 13
REMARK SMILES IDX 14 14 15 15 16 16 17 17 18 18 19 19 20 20 21 21 22 22 23 23
REMARK SMILES IDX 24 24
REMARK H PARENT
REMARK Flexibility Score: inf
ROOT
ATOM      1  C   UNL     1      40.733 117.944  11.453  1.00  0.00     0.000 C 
ENDROOT
BRANCH   1   2
ATOM      2  C   UNL     1      39.738 117.084  12.255  1.00  0.00     0.000 C 
BRANCH   2   3
ATOM      3  C   UNL     1      38.601 117.925  12.861  1.00  0.00     0.000 C 
BRANCH   3   4
ATOM      4  C   UNL     1      37.212 117.329  12.583  1.00  0.00    -0.000 C 
BRANCH   4   5
ATOM      5  C   UNL     1      36.077 118.337  12.813  1.00  0.00    -0.000 C 
BRANCH   5   6
ATOM      6  C   UNL     1      36.636 119.677  13.311  1.00  0.00    -0.000 C 
BRANCH   6   7
ATOM      7  C   UNL     1      36.292 119.962  14.783  1.00  0.00    -0.000 C 
BRANCH   7   8
ATOM      8  C   UNL     1      35.389 118.883  15.417  1.00  0.00    -0.000 C 
BRANCH   8   9
ATOM      9  C   UNL     1      36.037 118.234  16.654  1.00  0.00    -0.000 C 
BRANCH   9  10
ATOM     10  C   UNL     1      37.418 117.622  16.357  1.00  0.00    -0.000 C 
BRANCH  10  11
ATOM     11  C   UNL     1      37.528 116.112  16.636  1.00  0.00    -0.003 C 
ATOM     12  C   UNL     1      36.876 115.254  15.552  1.00  0.00     0.004 C 
ENDBRANCH  10  11
ENDBRANCH   9  10
ENDBRANCH   8   9
ENDBRANCH   7   8
ENDBRANCH   6   7
ENDBRANCH   5   6
ENDBRANCH   4   5
ENDBRANCH   3   4
ENDBRANCH   2   3
ENDBRANCH   1   2
BRANCH   1  13
ATOM     13  C   UNL     1      41.936 117.140  10.928  1.00  0.00     0.000 C 
BRANCH  13  14
ATOM     14  C   UNL     1      42.283 117.503   9.473  1.00  0.00     0.000 C 
BRANCH  14  15
ATOM     15  C   UNL     1      43.540 116.771   8.967  1.00  0.00     0.000 C 
BRANCH  15  16
ATOM     16  C   UNL     1      43.477 115.231   9.059  1.00  0.00     0.000 C 
BRANCH  16  17
ATOM     17  C   UNL     1      44.814 114.499   8.825  1.00  0.00     0.000 C 
BRANCH  17  18
ATOM     18  C   UNL     1      45.245 113.555   9.962  1.00  0.00     0.000 C 
BRANCH  18  19
ATOM     19  C   UNL     1      44.317 113.646  11.186  1.00  0.00     0.000 C 
BRANCH  19  20
ATOM     20  C   UNL     1      45.006 114.286  12.406  1.00  0.00     0.006 C 
BRANCH  20  21
ATOM     21  C   UNL     1      44.305 115.548  12.936  1.00  0.00     0.053 C 
BRANCH  21  22
ATOM     22  C   UNL     1      45.190 116.756  12.867  1.00  0.00     0.041 C 
ATOM     23  O   UNL     1      45.575 117.197  11.753  1.00  0.00    -0.550 OA
ATOM     24  O   UNL     1      45.610 117.380  14.036  1.00  0.00    -0.550 OA
ENDBRANCH  21  22
ENDBRANCH  20  21
ENDBRANCH  19  20
ENDBRANCH  18  19
ENDBRANCH  17  18
ENDBRANCH  16  17
ENDBRANCH  15  16
ENDBRANCH  14  15
ENDBRANCH  13  14
ENDBRANCH   1  13
TORSDOF 20
ENDMDL
MODEL 4
REMARK VINA RESULT:    -5.032      1.141      2.075
REMARK INTER + INTRA:         -12.699
REMARK INTER:                 -10.612
REMARK INTRA:                  -2.088
REMARK UNBOUND:                -1.784
REMARK SMILES CCCCCCCCCCCCCCCCCCCCCC(=O)[O-]
REMARK SMILES IDX 12 1 11 2 10 3 9 4 8 5 7 6 6 7 5 8 4 9 3 10 2 11 1 12 13 13
REMARK SMILES IDX 14 14 15 15 16 16 17 17 18 18 19 19 20 20 21 21 22 22 23 23
REMARK SMILES IDX 24 24
REMARK H PARENT
REMARK Flexibility Score: inf
ROOT
ATOM      1  C   UNL     1      40.734 117.919  11.089  1.00  0.00     0.000 C 
ENDROOT
BRANCH   1   2
ATOM      2  C   UNL     1      39.926 117.506  12.334  1.00  0.00     0.000 C 
BRANCH   2   3
ATOM      3  C   UNL     1      39.987 118.570  13.443  1.00  0.00     0.000 C 
BRANCH   3   4
ATOM      4  C   UNL     1      39.978 117.957  14.853  1.00  0.00    -0.000 C 
BRANCH   4   5
ATOM      5  C   UNL     1      39.284 116.589  14.900  1.00  0.00    -0.000 C 
BRANCH   5   6
ATOM      6  C   UNL     1      38.261 116.540  16.045  1.00  0.00    -0.000 C 
BRANCH   6   7
ATOM      7  C   UNL     1      36.805 116.600  15.552  1.00  0.00    -0.000 C 
BRANCH   7   8
ATOM      8  C   UNL     1      36.686 116.825  14.030  1.00  0.00    -0.000 C 
BRANCH   8   9
ATOM      9  C   UNL     1      36.239 118.257  13.685  1.00  0.00    -0.000 C 
BRANCH   9  10
ATOM     10  C   UNL     1      35.689 119.023  14.902  1.00  0.00    -0.000 C 
BRANCH  10  11
ATOM     11  C   UNL     1      36.474 120.293  15.275  1.00  0.00    -0.003 C 
ATOM     12  C   UNL     1      37.192 120.924  14.082  1.00  0.00     0.004 C 
ENDBRANCH  10  11
ENDBRANCH   9  10
ENDBRANCH   8   9
ENDBRANCH   7   8
ENDBRANCH   6   7
ENDBRANCH   5   6
ENDBRANCH   4   5
ENDBRANCH   3   4
ENDBRANCH   2   3
ENDBRANCH   1   2
BRANCH   1  13
ATOM     13  C   UNL     1      42.053 117.138  10.941  1.00  0.00     0.000 C 
BRANCH  13  14
ATOM     14  C   UNL     1      42.650 117.272   9.529  1.00  0.00     0.000 C 
BRANCH  14  15
ATOM     15  C   UNL     1      43.456 116.029   9.109  1.00  0.00     0.000 C 
BRANCH  15  16
ATOM     16  C   UNL     1      44.903 115.982   9.643  1.00  0.00     0.000 C 
BRANCH  16  17
ATOM     17  C   UNL     1      45.219 114.812  10.597  1.00  0.00     0.000 C 
BRANCH  17  18
ATOM     18  C   UNL     1      45.058 113.410   9.981  1.00  0.00     0.000 C 
BRANCH  18  19
ATOM     19  C   UNL     1      45.995 113.183   8.782  1.00  0.00     0.000 C 
BRANCH  19  20
ATOM     20  C   UNL     1      45.228 112.951   7.466  1.00  0.00     0.006 C 
BRANCH  20  21
ATOM     21  C   UNL     1      46.090 112.390   6.323  1.00  0.00     0.053 C 
BRANCH  21  22
ATOM     22  C   UNL     1      47.204 113.321   5.948  1.00  0.00     0.041 C 
ATOM     23  O   UNL     1      46.953 114.407   5.363  1.00  0.00    -0.550 OA
ATOM     24  O   UNL     1      48.522 112.977   6.223  1.00  0.00    -0.550 OA
ENDBRANCH  21  22
ENDBRANCH  20  21
ENDBRANCH  19  20
ENDBRANCH  18  19
ENDBRANCH  17  18
ENDBRANCH  16  17
ENDBRANCH  15  16
ENDBRANCH  14  15
ENDBRANCH  13  14
ENDBRANCH   1  13
TORSDOF 20
ENDMDL
MODEL 5
REMARK VINA RESULT:    -5.012      2.910      3.797
REMARK INTER + INTRA:         -12.656
REMARK INTER:                 -10.141
REMARK INTRA:                  -2.514
REMARK UNBOUND:                -1.784
REMARK SMILES CCCCCCCCCCCCCCCCCCCCCC(=O)[O-]
REMARK SMILES IDX 12 1 11 2 10 3 9 4 8 5 7 6 6 7 5 8 4 9 3 10 2 11 1 12 13 13
REMARK SMILES IDX 14 14 15 15 16 16 17 17 18 18 19 19 20 20 21 21 22 22 23 23
REMARK SMILES IDX 24 24
REMARK H PARENT
REMARK Flexibility Score: inf
ROOT
ATOM      1  C   UNL     1      40.140 117.728  11.608  1.00  0.00     0.000 C 
ENDROOT
BRANCH   1   2
ATOM      2  C   UNL     1      40.026 118.884  12.620  1.00  0.00     0.000 C 
BRANCH   2   3
ATOM      3  C   UNL     1      39.949 118.377  14.071  1.00  0.00     0.000 C 
BRANCH   3   4
ATOM      4  C   UNL     1      39.165 117.062  14.198  1.00  0.00    -0.000 C 
BRANCH   4   5
ATOM      5  C   UNL     1      39.207 116.480  15.617  1.00  0.00    -0.000 C 
BRANCH   5   6
ATOM      6  C   UNL     1      37.913 115.715  15.928  1.00  0.00    -0.000 C 
BRANCH   6   7
ATOM      7  C   UNL     1      36.649 116.457  15.462  1.00  0.00    -0.000 C 
BRANCH   7   8
ATOM      8  C   UNL     1      36.196 117.562  16.442  1.00  0.00    -0.000 C 
BRANCH   8   9
ATOM      9  C   UNL     1      35.857 118.878  15.719  1.00  0.00    -0.000 C 
BRANCH   9  10
ATOM     10  C   UNL     1      35.687 118.702  14.200  1.00  0.00    -0.000 C 
BRANCH  10  11
ATOM     11  C   UNL     1      36.504 119.683  13.340  1.00  0.00    -0.003 C 
ATOM     12  C   UNL     1      37.150 120.801  14.159  1.00  0.00     0.004 C 
ENDBRANCH  10  11
ENDBRANCH   9  10
ENDBRANCH   8   9
ENDBRANCH   7   8
ENDBRANCH   6   7
ENDBRANCH   5   6
ENDBRANCH   4   5
ENDBRANCH   3   4
ENDBRANCH   2   3
ENDBRANCH   1   2
BRANCH   1  13
ATOM     13  C   UNL     1      41.282 117.927  10.594  1.00  0.00     0.000 C 
BRANCH  13  14
ATOM     14  C   UNL     1      42.453 116.960  10.844  1.00  0.00     0.000 C 
BRANCH  14  15
ATOM     15  C   UNL     1      43.455 116.933   9.675  1.00  0.00     0.000 C 
BRANCH  15  16
ATOM     16  C   UNL     1      43.446 115.634   8.841  1.00  0.00     0.000 C 
BRANCH  16  17
ATOM     17  C   UNL     1      44.769 114.841   8.837  1.00  0.00     0.000 C 
BRANCH  17  18
ATOM     18  C   UNL     1      45.192 114.275  10.205  1.00  0.00     0.000 C 
BRANCH  18  19
ATOM     19  C   UNL     1      44.053 113.513  10.905  1.00  0.00     0.000 C 
BRANCH  19  20
ATOM     20  C   UNL     1      44.028 113.751  12.427  1.00  0.00     0.006 C 
BRANCH  20  21
ATOM     21  C   UNL     1      44.866 114.953  12.892  1.00  0.00     0.053 C 
BRANCH  21  22
ATOM     22  C   UNL     1      46.044 114.534  13.717  1.00  0.00     0.041 C 
ATOM     23  O   UNL     1      46.877 115.390  14.114  1.00  0.00    -0.550 OA
ATOM     24  O   UNL     1      46.236 113.193  14.028  1.00  0.00    -0.550 OA
ENDBRANCH  21  22
ENDBRANCH  20  21
ENDBRANCH  19  20
ENDBRANCH  18  19
ENDBRANCH  17  18
ENDBRANCH  16  17
ENDBRANCH  15  16
ENDBRANCH  14  15
ENDBRANCH  13  14
ENDBRANCH   1  13
TORSDOF 20
ENDMDL
MODEL 6
REMARK VINA RESULT:    -5.005      3.897     10.032
REMARK INTER + INTRA:         -12.640
REMARK INTER:                 -10.378
REMARK INTRA:                  -2.261
REMARK UNBOUND:                -1.784
REMARK SMILES CCCCCCCCCCCCCCCCCCCCCC(=O)[O-]
REMARK SMILES IDX 12 1 11 2 10 3 9 4 8 5 7 6 6 7 5 8 4 9 3 10 2 11 1 12 13 13
REMARK SMILES IDX 14 14 15 15 16 16 17 17 18 18 19 19 20 20 21 21 22 22 23 23
REMARK SMILES IDX 24 24
REMARK H PARENT
REMARK Flexibility Score: inf
ROOT
ATOM      1  C   UNL     1      44.651 116.322   9.486  1.00  0.00     0.000 C 
ENDROOT
BRANCH   1   2
ATOM      2  C   UNL     1      45.491 115.033   9.565  1.00  0.00     0.000 C 
BRANCH   2   3
ATOM      3  C   UNL     1      44.939 113.925   8.651  1.00  0.00     0.000 C 
BRANCH   3   4
ATOM      4  C   UNL     1      45.799 112.651   8.680  1.00  0.00    -0.000 C 
BRANCH   4   5
ATOM      5  C   UNL     1      45.631 111.794   7.418  1.00  0.00    -0.000 C 
BRANCH   5   6
ATOM      6  C   UNL     1      46.060 112.578   6.169  1.00  0.00    -0.000 C 
BRANCH   6   7
ATOM      7  C   UNL     1      47.581 112.556   5.940  1.00  0.00    -0.000 C 
BRANCH   7   8
ATOM      8  C   UNL     1      48.115 113.843   5.275  1.00  0.00    -0.000 C 
BRANCH   8   9
ATOM      9  C   UNL     1      46.997 114.865   5.003  1.00  0.00    -0.000 C 
BRANCH   9  10
ATOM     10  C   UNL     1      47.224 115.674   3.713  1.00  0.00    -0.000 C 
BRANCH  10  11
ATOM     11  C   UNL     1      45.962 115.897   2.860  1.00  0.00    -0.003 C 
ATOM     12  C   UNL     1      46.244 115.870   1.358  1.00  0.00     0.004 C 
ENDBRANCH  10  11
ENDBRANCH   9  10
ENDBRANCH   8   9
ENDBRANCH   7   8
ENDBRANCH   6   7
ENDBRANCH   5   6
ENDBRANCH   4   5
ENDBRANCH   3   4
ENDBRANCH   2   3
ENDBRANCH   1   2
BRANCH   1  13
ATOM     13  C   UNL     1      43.468 116.210   8.508  1.00  0.00     0.000 C 
BRANCH  13  14
ATOM     14  C   UNL     1      42.249 117.024   8.978  1.00  0.00     0.000 C 
BRANCH  14  15
ATOM     15  C   UNL     1      42.371 117.474  10.446  1.00  0.00     0.000 C 
BRANCH  15  16
ATOM     16  C   UNL     1      41.028 117.749  11.156  1.00  0.00     0.000 C 
BRANCH  16  17
ATOM     17  C   UNL     1      40.703 116.817  12.341  1.00  0.00     0.000 C 
BRANCH  17  18
ATOM     18  C   UNL     1      41.919 116.383  13.179  1.00  0.00     0.000 C 
BRANCH  18  19
ATOM     19  C   UNL     1      42.075 114.854  13.243  1.00  0.00     0.000 C 
BRANCH  19  20
ATOM     20  C   UNL     1      43.221 114.336  12.353  1.00  0.00     0.006 C 
BRANCH  20  21
ATOM     21  C   UNL     1      44.626 114.586  12.925  1.00  0.00     0.053 C 
BRANCH  21  22
ATOM     22  C   UNL     1      45.463 113.342  12.928  1.00  0.00     0.041 C 
ATOM     23  O   UNL     1      45.111 112.339  12.254  1.00  0.00    -0.550 OA
ATOM     24  O   UNL     1      46.622 113.284  13.694  1.00  0.00    -0.550 OA
ENDBRANCH  21  22
ENDBRANCH  20  21
ENDBRANCH  19  20
ENDBRANCH  18  19
ENDBRANCH  17  18
ENDBRANCH  16  17
ENDBRANCH  15  16
ENDBRANCH  14  15
ENDBRANCH  13  14
ENDBRANCH   1  13
TORSDOF 20
ENDMDL
MODEL 7
REMARK VINA RESULT:    -4.969      2.285      6.607
REMARK INTER + INTRA:         -12.562
REMARK INTER:                 -10.551
REMARK INTRA:                  -2.012
REMARK UNBOUND:                -1.784
REMARK SMILES CCCCCCCCCCCCCCCCCCCCCC(=O)[O-]
REMARK SMILES IDX 12 1 11 2 10 3 9 4 8 5 7 6 6 7 5 8 4 9 3 10 2 11 1 12 13 13
REMARK SMILES IDX 14 14 15 15 16 16 17 17 18 18 19 19 20 20 21 21 22 22 23 23
REMARK SMILES IDX 24 24
REMARK H PARENT
REMARK Flexibility Score: inf
ROOT
ATOM      1  C   UNL     1      45.613 113.419   7.391  1.00  0.00     0.000 C 
ENDROOT
BRANCH   1   2
ATOM      2  C   UNL     1      45.573 113.633   8.916  1.00  0.00     0.000 C 
BRANCH   2   3
ATOM      3  C   UNL     1      44.202 114.143   9.394  1.00  0.00     0.000 C 
BRANCH   3   4
ATOM      4  C   UNL     1      43.866 115.539   8.848  1.00  0.00    -0.000 C 
BRANCH   4   5
ATOM      5  C   UNL     1      43.503 116.538   9.955  1.00  0.00    -0.000 C 
BRANCH   5   6
ATOM      6  C   UNL     1      42.445 117.535   9.460  1.00  0.00    -0.000 C 
BRANCH   6   7
ATOM      7  C   UNL     1      41.302 117.748  10.467  1.00  0.00    -0.000 C 
BRANCH   7   8
ATOM      8  C   UNL     1      41.494 116.959  11.781  1.00  0.00    -0.000 C 
BRANCH   8   9
ATOM      9  C   UNL     1      40.412 117.293  12.824  1.00  0.00    -0.000 C 
BRANCH   9  10
ATOM     10  C   UNL     1      40.017 118.781  12.823  1.00  0.00    -0.000 C 
BRANCH  10  11
ATOM     11  C   UNL     1      38.563 119.063  13.242  1.00  0.00    -0.003 C 
ATOM     12  C   UNL     1      37.753 117.790  13.484  1.00  0.00     0.004 C 
ENDBRANCH  10  11
ENDBRANCH   9  10
ENDBRANCH   8   9
ENDBRANCH   7   8
ENDBRANCH   6   7
ENDBRANCH   5   6
ENDBRANCH   4   5
ENDBRANCH   3   4
ENDBRANCH   2   3
ENDBRANCH   1   2
BRANCH   1  13
ATOM     13  C   UNL     1      45.583 111.932   6.992  1.00  0.00     0.000 C 
BRANCH  13  14
ATOM     14  C   UNL     1      46.119 111.022   8.111  1.00  0.00     0.000 C 
BRANCH  14  15
ATOM     15  C   UNL     1      47.437 110.325   7.725  1.00  0.00     0.000 C 
BRANCH  15  16
ATOM     16  C   UNL     1      48.677 110.796   8.516  1.00  0.00     0.000 C 
BRANCH  16  17
ATOM     17  C   UNL     1      49.697 111.628   7.713  1.00  0.00     0.000 C 
BRANCH  17  18
ATOM     18  C   UNL     1      49.308 111.896   6.248  1.00  0.00     0.000 C 
BRANCH  18  19
ATOM     19  C   UNL     1      49.109 113.393   5.956  1.00  0.00     0.000 C 
BRANCH  19  20
ATOM     20  C   UNL     1      48.256 113.644   4.697  1.00  0.00     0.006 C 
BRANCH  20  21
ATOM     21  C   UNL     1      48.285 115.096   4.194  1.00  0.00     0.053 C 
BRANCH  21  22
ATOM     22  C   UNL     1      46.924 115.725   4.206  1.00  0.00     0.041 C 
ATOM     23  O   UNL     1      46.279 115.861   3.133  1.00  0.00    -0.550 OA
ATOM     24  O   UNL     1      46.378 116.182   5.399  1.00  0.00    -0.550 OA
ENDBRANCH  21  22
ENDBRANCH  20  21
ENDBRANCH  19  20
ENDBRANCH  18  19
ENDBRANCH  17  18
ENDBRANCH  16  17
ENDBRANCH  15  16
ENDBRANCH  14  15
ENDBRANCH  13  14
ENDBRANCH   1  13
TORSDOF 20
ENDMDL
MODEL 8
REMARK VINA RESULT:    -4.932      1.614      3.970
REMARK INTER + INTRA:         -12.483
REMARK INTER:                 -10.821
REMARK INTRA:                  -1.662
REMARK UNBOUND:                -1.784
REMARK SMILES CCCCCCCCCCCCCCCCCCCCCC(=O)[O-]
REMARK SMILES IDX 12 1 11 2 10 3 9 4 8 5 7 6 6 7 5 8 4 9 3 10 2 11 1 12 13 13
REMARK SMILES IDX 14 14 15 15 16 16 17 17 18 18 19 19 20 20 21 21 22 22 23 23
REMARK SMILES IDX 24 24
REMARK H PARENT
REMARK Flexibility Score: inf
ROOT
ATOM      1  C   UNL     1      42.951 116.843   8.656  1.00  0.00     0.000 C 
ENDROOT
BRANCH   1   2
ATOM      2  C   UNL     1      42.711 117.264  10.118  1.00  0.00     0.000 C 
BRANCH   2   3
ATOM      3  C   UNL     1      41.265 117.735  10.355  1.00  0.00     0.000 C 
BRANCH   3   4
ATOM      4  C   UNL     1      40.830 117.594  11.823  1.00  0.00    -0.000 C 
BRANCH   4   5
ATOM      5  C   UNL     1      41.608 116.502  12.570  1.00  0.00    -0.000 C 
BRANCH   5   6
ATOM      6  C   UNL     1      41.032 116.293  13.978  1.00  0.00    -0.000 C 
BRANCH   6   7
ATOM      7  C   UNL     1      40.258 117.517  14.498  1.00  0.00    -0.000 C 
BRANCH   7   8
ATOM      8  C   UNL     1      38.810 117.188  14.918  1.00  0.00    -0.000 C 
BRANCH   8   9
ATOM      9  C   UNL     1      37.943 118.452  15.058  1.00  0.00    -0.000 C 
BRANCH   9  10
ATOM     10  C   UNL     1      36.768 118.488  14.064  1.00  0.00    -0.000 C 
BRANCH  10  11
ATOM     11  C   UNL     1      36.458 119.878  13.480  1.00  0.00    -0.003 C 
ATOM     12  C   UNL     1      37.186 121.008  14.208  1.00  0.00     0.004 C 
ENDBRANCH  10  11
ENDBRANCH   9  10
ENDBRANCH   8   9
ENDBRANCH   7   8
ENDBRANCH   6   7
ENDBRANCH   5   6
ENDBRANCH   4   5
ENDBRANCH   3   4
ENDBRANCH   2   3
ENDBRANCH   1   2
BRANCH   1  13
ATOM     13  C   UNL     1      44.185 115.937   8.486  1.00  0.00     0.000 C 
BRANCH  13  14
ATOM     14  C   UNL     1      44.018 114.590   9.211  1.00  0.00     0.000 C 
BRANCH  14  15
ATOM     15  C   UNL     1      45.279 114.181   9.995  1.00  0.00     0.000 C 
BRANCH  15  16
ATOM     16  C   UNL     1      45.647 112.685   9.900  1.00  0.00     0.000 C 
BRANCH  16  17
ATOM     17  C   UNL     1      46.531 112.296   8.696  1.00  0.00     0.000 C 
BRANCH  17  18
ATOM     18  C   UNL     1      45.814 111.489   7.599  1.00  0.00     0.000 C 
BRANCH  18  19
ATOM     19  C   UNL     1      45.430 112.356   6.387  1.00  0.00     0.000 C 
BRANCH  19  20
ATOM     20  C   UNL     1      46.228 113.672   6.322  1.00  0.00     0.006 C 
BRANCH  20  21
ATOM     21  C   UNL     1      47.506 113.593   5.471  1.00  0.00     0.053 C 
BRANCH  21  22
ATOM     22  C   UNL     1      47.617 114.739   4.511  1.00  0.00     0.041 C 
ATOM     23  O   UNL     1      46.615 115.106   3.844  1.00  0.00    -0.550 OA
ATOM     24  O   UNL     1      48.834 115.386   4.335  1.00  0.00    -0.550 OA
ENDBRANCH  21  22
ENDBRANCH  20  21
ENDBRANCH  19  20
ENDBRANCH  18  19
ENDBRANCH  17  18
ENDBRANCH  16  17
ENDBRANCH  15  16
ENDBRANCH  14  15
ENDBRANCH  13  14
ENDBRANCH   1  13
TORSDOF 20
ENDMDL
MODEL 9
REMARK VINA RESULT:    -4.862      4.941      9.956
REMARK INTER + INTRA:         -12.331
REMARK INTER:                  -9.914
REMARK INTRA:                  -2.417
REMARK UNBOUND:                -1.784
REMARK SMILES CCCCCCCCCCCCCCCCCCCCCC(=O)[O-]
REMARK SMILES IDX 12 1 11 2 10 3 9 4 8 5 7 6 6 7 5 8 4 9 3 10 2 11 1 12 13 13
REMARK SMILES IDX 14 14 15 15 16 16 17 17 18 18 19 19 20 20 21 21 22 22 23 23
REMARK SMILES IDX 24 24
REMARK H PARENT
REMARK Flexibility Score: inf
ROOT
ATOM      1  C   UNL     1      42.549 117.171  10.833  1.00  0.00     0.000 C 
ENDROOT
BRANCH   1   2
ATOM      2  C   UNL     1      42.596 117.229   9.294  1.00  0.00     0.000 C 
BRANCH   2   3
ATOM      3  C   UNL     1      43.385 116.052   8.694  1.00  0.00     0.000 C 
BRANCH   3   4
ATOM      4  C   UNL     1      44.696 115.774   9.446  1.00  0.00    -0.000 C 
BRANCH   4   5
ATOM      5  C   UNL     1      44.912 114.281   9.729  1.00  0.00    -0.000 C 
BRANCH   5   6
ATOM      6  C   UNL     1      43.984 113.804  10.856  1.00  0.00    -0.000 C 
BRANCH   6   7
ATOM      7  C   UNL     1      44.699 112.913  11.886  1.00  0.00    -0.000 C 
BRANCH   7   8
ATOM      8  C   UNL     1      44.861 113.587  13.266  1.00  0.00    -0.000 C 
BRANCH   8   9
ATOM      9  C   UNL     1      43.880 114.756  13.462  1.00  0.00    -0.000 C 
BRANCH   9  10
ATOM     10  C   UNL     1      44.349 115.762  14.528  1.00  0.00    -0.000 C 
BRANCH  10  11
ATOM     11  C   UNL     1      45.598 116.575  14.142  1.00  0.00    -0.003 C 
ATOM     12  C   UNL     1      45.624 116.966  12.665  1.00  0.00     0.004 C 
ENDBRANCH  10  11
ENDBRANCH   9  10
ENDBRANCH   8   9
ENDBRANCH   7   8
ENDBRANCH   6   7
ENDBRANCH   5   6
ENDBRANCH   4   5
ENDBRANCH   3   4
ENDBRANCH   2   3
ENDBRANCH   1   2
BRANCH   1  13
ATOM     13  C   UNL     1      41.125 117.324  11.398  1.00  0.00     0.000 C 
BRANCH  13  14
ATOM     14  C   UNL     1      40.881 116.406  12.609  1.00  0.00     0.000 C 
BRANCH  14  15
ATOM     15  C   UNL     1      40.680 117.195  13.916  1.00  0.00     0.000 C 
BRANCH  15  16
ATOM     16  C   UNL     1      39.463 118.145  13.921  1.00  0.00     0.000 C 
BRANCH  16  17
ATOM     17  C   UNL     1      38.159 117.552  13.350  1.00  0.00     0.000 C 
BRANCH  17  18
ATOM     18  C   UNL     1      37.324 116.735  14.353  1.00  0.00     0.000 C 
BRANCH  18  19
ATOM     19  C   UNL     1      36.869 117.572  15.561  1.00  0.00     0.000 C 
BRANCH  19  20
ATOM     20  C   UNL     1      35.936 118.731  15.161  1.00  0.00     0.006 C 
BRANCH  20  21
ATOM     21  C   UNL     1      36.244 120.061  15.868  1.00  0.00     0.053 C 
BRANCH  21  22
ATOM     22  C   UNL     1      36.795 121.087  14.925  1.00  0.00     0.041 C 
ATOM     23  O   UNL     1      37.093 120.769  13.745  1.00  0.00    -0.550 OA
ATOM     24  O   UNL     1      37.003 122.392  15.358  1.00  0.00    -0.550 OA
ENDBRANCH  21  22
ENDBRANCH  20  21
ENDBRANCH  19  20
ENDBRANCH  18  19
ENDBRANCH  17  18
ENDBRANCH  16  17
ENDBRANCH  15  16
ENDBRANCH  14  15
ENDBRANCH  13  14
ENDBRANCH   1  13
TORSDOF 20
ENDMDL
