MODEL 1
REMARK VINA RESULT:    -6.578      0.000      0.000
REMARK INTER + INTRA:          -8.039
REMARK INTER:                  -7.924
REMARK INTRA:                  -0.115
REMARK UNBOUND:                -0.115
REMARK SMILES O=c1c(O)c(-c2ccc(O)c(O)c2)oc2cc(O)cc(O)c12
REMARK SMILES IDX 5 1 3 2 2 3 1 4 22 5 20 6 19 7 17 8 16 9 15 10 14 11 6 12
REMARK SMILES IDX 7 13 8 14 9 15 13 16 11 17 10 18 12 20 4 22 21 24 18 26
REMARK H PARENT 10 19 12 21 4 23 21 25 18 27
REMARK Flexibility Score: inf
ROOT
ATOM      1  C   UNL     1      20.611   0.409 -17.531  1.00  0.00     0.180 A 
ATOM      2  C   UNL     1      19.414   0.279 -16.808  1.00  0.00     0.208 A 
ATOM      3  C   UNL     1      19.391   0.653 -15.454  1.00  0.00     0.238 A 
ATOM      4  O   UNL     1      18.302   0.587 -14.827  1.00  0.00    -0.285 OA
ATOM      5  C   UNL     1      20.569   1.137 -14.838  1.00  0.00     0.111 A 
ATOM      6  C   UNL     1      20.672   1.507 -13.464  1.00  0.00     0.134 A 
ATOM      7  C   UNL     1      21.852   2.097 -12.992  1.00  0.00     0.093 A 
ATOM      8  C   UNL     1      22.954   2.268 -13.829  1.00  0.00     0.123 A 
ATOM      9  C   UNL     1      22.886   1.855 -15.160  1.00  0.00     0.094 A 
ATOM     10  C   UNL     1      21.710   1.297 -15.667  1.00  0.00     0.146 A 
ATOM     11  O   UNL     1      21.683   0.926 -16.943  1.00  0.00    -0.452 OA
ENDROOT
BRANCH   1  12
ATOM     12  C   UNL     1      20.719   0.012 -18.954  1.00  0.00     0.025 A 
ATOM     13  C   UNL     1      20.422  -1.295 -19.372  1.00  0.00     0.016 A 
ATOM     14  C   UNL     1      20.554  -1.653 -20.715  1.00  0.00     0.051 A 
ATOM     15  C   UNL     1      20.997  -0.723 -21.663  1.00  0.00     0.157 A 
ATOM     16  C   UNL     1      21.184   0.940 -19.897  1.00  0.00     0.062 A 
ATOM     17  C   UNL     1      21.320   0.590 -21.247  1.00  0.00     0.158 A 
BRANCH  15  18
ATOM     18  O   UNL     1      21.104  -1.143 -22.990  1.00  0.00    -0.504 OA
ATOM     19  H   UNL     1      21.032  -2.107 -23.285  1.00  0.00     0.293 HD
ENDBRANCH  15  18
BRANCH  17  20
ATOM     20  O   UNL     1      21.777   1.570 -22.132  1.00  0.00    -0.504 OA
ATOM     21  H   UNL     1      21.174   2.220 -22.615  1.00  0.00     0.293 HD
ENDBRANCH  17  20
ENDBRANCH   1  12
BRANCH   2  22
ATOM     22  O   UNL     1      18.255  -0.181 -17.441  1.00  0.00    -0.502 OA
ATOM     23  H   UNL     1      18.280  -0.834 -18.215  1.00  0.00     0.293 HD
ENDBRANCH   2  22
BRANCH   6  24
ATOM     24  O   UNL     1      19.662   1.295 -12.520  1.00  0.00    -0.507 OA
ATOM     25  H   UNL     1      19.256   2.015 -11.943  1.00  0.00     0.293 HD
ENDBRANCH   6  24
BRANCH   8  26
ATOM     26  O   UNL     1      24.118   2.842 -13.323  1.00  0.00    -0.508 OA
ATOM     27  H   UNL     1      25.034   2.469 -13.545  1.00  0.00     0.293 HD
ENDBRANCH   8  26
TORSDOF 6
ENDMDL
MODEL 2
REMARK VINA RESULT:    -6.419      3.409      5.095
REMARK INTER + INTRA:          -7.847
REMARK INTER:                  -7.655
REMARK INTRA:                  -0.192
REMARK UNBOUND:                -0.115
REMARK SMILES O=c1c(O)c(-c2ccc(O)c(O)c2)oc2cc(O)cc(O)c12
REMARK SMILES IDX 5 1 3 2 2 3 1 4 22 5 20 6 19 7 17 8 16 9 15 10 14 11 6 12
REMARK SMILES IDX 7 13 8 14 9 15 13 16 11 17 10 18 12 20 4 22 21 24 18 26
REMARK H PARENT 10 19 12 21 4 23 21 25 18 27
REMARK Flexibility Score: inf
ROOT
ATOM      1  C   UNL     1      18.512  -0.997 -16.702  1.00  0.00     0.180 A 
ATOM      2  C   UNL     1      17.916  -0.108 -15.791  1.00  0.00     0.208 A 
ATOM      3  C   UNL     1      17.164  -0.628 -14.725  1.00  0.00     0.238 A 
ATOM      4  O   UNL     1      16.679   0.171 -13.881  1.00  0.00    -0.285 OA
ATOM      5  C   UNL     1      17.005  -2.028 -14.592  1.00  0.00     0.111 A 
ATOM      6  C   UNL     1      16.232  -2.663 -13.574  1.00  0.00     0.134 A 
ATOM      7  C   UNL     1      16.252  -4.059 -13.461  1.00  0.00     0.093 A 
ATOM      8  C   UNL     1      16.962  -4.844 -14.368  1.00  0.00     0.123 A 
ATOM      9  C   UNL     1      17.673  -4.237 -15.403  1.00  0.00     0.094 A 
ATOM     10  C   UNL     1      17.702  -2.845 -15.520  1.00  0.00     0.146 A 
ATOM     11  O   UNL     1      18.399  -2.306 -16.514  1.00  0.00    -0.452 OA
ENDROOT
BRANCH   1  12
ATOM     12  C   UNL     1      19.298  -0.523 -17.864  1.00  0.00     0.025 A 
ATOM     13  C   UNL     1      18.850  -0.725 -19.180  1.00  0.00     0.016 A 
ATOM     14  C   UNL     1      19.619  -0.291 -20.261  1.00  0.00     0.051 A 
ATOM     15  C   UNL     1      20.853   0.337 -20.055  1.00  0.00     0.157 A 
ATOM     16  C   UNL     1      20.544   0.086 -17.655  1.00  0.00     0.062 A 
ATOM     17  C   UNL     1      21.323   0.524 -18.734  1.00  0.00     0.158 A 
BRANCH  15  18
ATOM     18  O   UNL     1      21.572   0.749 -21.179  1.00  0.00    -0.504 OA
ATOM     19  H   UNL     1      22.459   0.356 -21.457  1.00  0.00     0.293 HD
ENDBRANCH  15  18
BRANCH  17  20
ATOM     20  O   UNL     1      22.548   1.133 -18.449  1.00  0.00    -0.504 OA
ATOM     21  H   UNL     1      22.864   1.992 -18.876  1.00  0.00     0.293 HD
ENDBRANCH  17  20
ENDBRANCH   1  12
BRANCH   2  22
ATOM     22  O   UNL     1      18.103   1.271 -15.928  1.00  0.00    -0.502 OA
ATOM     23  H   UNL     1      18.670   1.810 -15.285  1.00  0.00     0.293 HD
ENDBRANCH   2  22
BRANCH   6  24
ATOM     24  O   UNL     1      15.414  -1.976 -12.672  1.00  0.00    -0.507 OA
ATOM     25  H   UNL     1      15.145  -2.321 -11.763  1.00  0.00     0.293 HD
ENDBRANCH   6  24
BRANCH   8  26
ATOM     26  O   UNL     1      16.946  -6.231 -14.236  1.00  0.00    -0.508 OA
ATOM     27  H   UNL     1      17.577  -6.711 -13.604  1.00  0.00     0.293 HD
ENDBRANCH   8  26
TORSDOF 6
ENDMDL
MODEL 3
REMARK VINA RESULT:    -6.229     13.438     15.587
REMARK INTER + INTRA:          -7.618
REMARK INTER:                  -8.016
REMARK INTRA:                   0.398
REMARK UNBOUND:                -0.115
REMARK SMILES O=c1c(O)c(-c2ccc(O)c(O)c2)oc2cc(O)cc(O)c12
REMARK SMILES IDX 5 1 3 2 2 3 1 4 22 5 20 6 19 7 17 8 16 9 15 10 14 11 6 12
REMARK SMILES IDX 7 13 8 14 9 15 13 16 11 17 10 18 12 20 4 22 21 24 18 26
REMARK H PARENT 10 19 12 21 4 23 21 25 18 27
REMARK Flexibility Score: inf
ROOT
ATOM      1  C   UNL     1      10.690  -6.921  -9.333  1.00  0.00     0.180 A 
ATOM      2  C   UNL     1       9.776  -7.968  -9.540  1.00  0.00     0.208 A 
ATOM      3  C   UNL     1       8.730  -8.151  -8.622  1.00  0.00     0.238 A 
ATOM      4  O   UNL     1       7.882  -9.056  -8.843  1.00  0.00    -0.285 OA
ATOM      5  C   UNL     1       8.620  -7.296  -7.500  1.00  0.00     0.111 A 
ATOM      6  C   UNL     1       7.624  -7.415  -6.485  1.00  0.00     0.134 A 
ATOM      7  C   UNL     1       7.532  -6.433  -5.489  1.00  0.00     0.093 A 
ATOM      8  C   UNL     1       8.439  -5.376  -5.435  1.00  0.00     0.123 A 
ATOM      9  C   UNL     1       9.453  -5.283  -6.387  1.00  0.00     0.094 A 
ATOM     10  C   UNL     1       9.549  -6.226  -7.413  1.00  0.00     0.146 A 
ATOM     11  O   UNL     1      10.523  -6.096  -8.306  1.00  0.00    -0.452 OA
ENDROOT
BRANCH   1  12
ATOM     12  C   UNL     1      11.833  -6.681 -10.244  1.00  0.00     0.025 A 
ATOM     13  C   UNL     1      12.252  -7.656 -11.162  1.00  0.00     0.016 A 
ATOM     14  C   UNL     1      13.347  -7.417 -11.995  1.00  0.00     0.051 A 
ATOM     15  C   UNL     1      14.052  -6.210 -11.919  1.00  0.00     0.157 A 
ATOM     16  C   UNL     1      12.552  -5.480 -10.149  1.00  0.00     0.062 A 
ATOM     17  C   UNL     1      13.652  -5.230 -10.980  1.00  0.00     0.158 A 
BRANCH  15  18
ATOM     18  O   UNL     1      15.136  -6.032 -12.781  1.00  0.00    -0.504 OA
ATOM     19  H   UNL     1      15.243  -6.515 -13.662  1.00  0.00     0.293 HD
ENDBRANCH  15  18
BRANCH  17  20
ATOM     20  O   UNL     1      14.312  -4.007 -10.838  1.00  0.00    -0.504 OA
ATOM     21  H   UNL     1      15.202  -3.897 -10.374  1.00  0.00     0.293 HD
ENDBRANCH  17  20
ENDBRANCH   1  12
BRANCH   2  22
ATOM     22  O   UNL     1       9.889  -8.788 -10.667  1.00  0.00    -0.502 OA
ATOM     23  H   UNL     1      10.402  -8.509 -11.495  1.00  0.00     0.293 HD
ENDBRANCH   2  22
BRANCH   6  24
ATOM     24  O   UNL     1       6.726  -8.482  -6.393  1.00  0.00    -0.507 OA
ATOM     25  H   UNL     1       5.722  -8.391  -6.429  1.00  0.00     0.293 HD
ENDBRANCH   6  24
BRANCH   8  26
ATOM     26  O   UNL     1       8.328  -4.427  -4.421  1.00  0.00    -0.508 OA
ATOM     27  H   UNL     1       8.791  -3.527  -4.484  1.00  0.00     0.293 HD
ENDBRANCH   8  26
TORSDOF 6
ENDMDL
MODEL 4
REMARK VINA RESULT:    -6.109     10.636     13.159
REMARK INTER + INTRA:          -7.474
REMARK INTER:                  -7.174
REMARK INTRA:                  -0.299
REMARK UNBOUND:                -0.115
REMARK SMILES O=c1c(O)c(-c2ccc(O)c(O)c2)oc2cc(O)cc(O)c12
REMARK SMILES IDX 5 1 3 2 2 3 1 4 22 5 20 6 19 7 17 8 16 9 15 10 14 11 6 12
REMARK SMILES IDX 7 13 8 14 9 15 13 16 11 17 10 18 12 20 4 22 21 24 18 26
REMARK H PARENT 10 19 12 21 4 23 21 25 18 27
REMARK Flexibility Score: inf
ROOT
ATOM      1  C   UNL     1      13.048  -5.205 -10.779  1.00  0.00     0.180 A 
ATOM      2  C   UNL     1      12.036  -4.457 -11.403  1.00  0.00     0.208 A 
ATOM      3  C   UNL     1      10.696  -4.709 -11.065  1.00  0.00     0.238 A 
ATOM      4  O   UNL     1       9.797  -3.998 -11.586  1.00  0.00    -0.285 OA
ATOM      5  C   UNL     1      10.386  -5.716 -10.121  1.00  0.00     0.111 A 
ATOM      6  C   UNL     1       9.062  -6.084  -9.733  1.00  0.00     0.134 A 
ATOM      7  C   UNL     1       8.877  -7.004  -8.694  1.00  0.00     0.093 A 
ATOM      8  C   UNL     1       9.964  -7.618  -8.074  1.00  0.00     0.123 A 
ATOM      9  C   UNL     1      11.261  -7.311  -8.485  1.00  0.00     0.094 A 
ATOM     10  C   UNL     1      11.479  -6.370  -9.495  1.00  0.00     0.146 A 
ATOM     11  O   UNL     1      12.730  -6.098  -9.850  1.00  0.00    -0.452 OA
ENDROOT
BRANCH   1  12
ATOM     12  C   UNL     1      14.481  -5.013 -11.101  1.00  0.00     0.025 A 
ATOM     13  C   UNL     1      15.048  -5.559 -12.264  1.00  0.00     0.016 A 
ATOM     14  C   UNL     1      16.406  -5.385 -12.535  1.00  0.00     0.051 A 
ATOM     15  C   UNL     1      17.228  -4.680 -11.648  1.00  0.00     0.157 A 
ATOM     16  C   UNL     1      15.307  -4.325 -10.199  1.00  0.00     0.062 A 
ATOM     17  C   UNL     1      16.671  -4.146 -10.462  1.00  0.00     0.158 A 
BRANCH  15  18
ATOM     18  O   UNL     1      18.577  -4.539 -11.979  1.00  0.00    -0.504 OA
ATOM     19  H   UNL     1      18.908  -4.236 -12.884  1.00  0.00     0.293 HD
ENDBRANCH  15  18
BRANCH  17  20
ATOM     20  O   UNL     1      17.428  -3.439  -9.525  1.00  0.00    -0.504 OA
ATOM     21  H   UNL     1      18.428  -3.536  -9.419  1.00  0.00     0.293 HD
ENDBRANCH  17  20
ENDBRANCH   1  12
BRANCH   2  22
ATOM     22  O   UNL     1      12.365  -3.451 -12.317  1.00  0.00    -0.502 OA
ATOM     23  H   UNL     1      13.230  -3.456 -12.843  1.00  0.00     0.293 HD
ENDBRANCH   2  22
BRANCH   6  24
ATOM     24  O   UNL     1       7.905  -5.599 -10.350  1.00  0.00    -0.507 OA
ATOM     25  H   UNL     1       7.037  -5.410  -9.873  1.00  0.00     0.293 HD
ENDBRANCH   6  24
BRANCH   8  26
ATOM     26  O   UNL     1       9.743  -8.542  -7.054  1.00  0.00    -0.508 OA
ATOM     27  H   UNL     1      10.095  -8.390  -6.116  1.00  0.00     0.293 HD
ENDBRANCH   8  26
TORSDOF 6
ENDMDL
MODEL 5
REMARK VINA RESULT:    -6.022      9.137     10.412
REMARK INTER + INTRA:          -7.369
REMARK INTER:                  -7.069
REMARK INTRA:                  -0.300
REMARK UNBOUND:                -0.115
REMARK SMILES O=c1c(O)c(-c2ccc(O)c(O)c2)oc2cc(O)cc(O)c12
REMARK SMILES IDX 5 1 3 2 2 3 1 4 22 5 20 6 19 7 17 8 16 9 15 10 14 11 6 12
REMARK SMILES IDX 7 13 8 14 9 15 13 16 11 17 10 18 12 20 4 22 21 24 18 26
REMARK H PARENT 10 19 12 21 4 23 21 25 18 27
REMARK Flexibility Score: inf
ROOT
ATOM      1  C   UNL     1      18.940  -1.850  -8.056  1.00  0.00     0.180 A 
ATOM      2  C   UNL     1      18.826  -2.502  -6.817  1.00  0.00     0.208 A 
ATOM      3  C   UNL     1      19.993  -2.928  -6.161  1.00  0.00     0.238 A 
ATOM      4  O   UNL     1      19.888  -3.462  -5.026  1.00  0.00    -0.285 OA
ATOM      5  C   UNL     1      21.256  -2.711  -6.760  1.00  0.00     0.111 A 
ATOM      6  C   UNL     1      22.500  -3.136  -6.205  1.00  0.00     0.134 A 
ATOM      7  C   UNL     1      23.699  -2.752  -6.821  1.00  0.00     0.093 A 
ATOM      8  C   UNL     1      23.696  -2.016  -8.005  1.00  0.00     0.123 A 
ATOM      9  C   UNL     1      22.485  -1.646  -8.589  1.00  0.00     0.094 A 
ATOM     10  C   UNL     1      21.274  -1.983  -7.979  1.00  0.00     0.146 A 
ATOM     11  O   UNL     1      20.142  -1.603  -8.562  1.00  0.00    -0.452 OA
ENDROOT
BRANCH   1  12
ATOM     12  C   UNL     1      17.755  -1.394  -8.818  1.00  0.00     0.025 A 
ATOM     13  C   UNL     1      17.305  -0.066  -8.744  1.00  0.00     0.016 A 
ATOM     14  C   UNL     1      16.171   0.336  -9.453  1.00  0.00     0.051 A 
ATOM     15  C   UNL     1      15.457  -0.578 -10.236  1.00  0.00     0.157 A 
ATOM     16  C   UNL     1      17.028  -2.317  -9.584  1.00  0.00     0.062 A 
ATOM     17  C   UNL     1      15.889  -1.924 -10.299  1.00  0.00     0.158 A 
BRANCH  15  18
ATOM     18  O   UNL     1      14.334  -0.112 -10.922  1.00  0.00    -0.504 OA
ATOM     19  H   UNL     1      14.246   0.823 -11.293  1.00  0.00     0.293 HD
ENDBRANCH  15  18
BRANCH  17  20
ATOM     20  O   UNL     1      15.223  -2.896 -11.050  1.00  0.00    -0.504 OA
ATOM     21  H   UNL     1      15.624  -3.365 -11.849  1.00  0.00     0.293 HD
ENDBRANCH  17  20
ENDBRANCH   1  12
BRANCH   2  22
ATOM     22  O   UNL     1      17.570  -2.687  -6.232  1.00  0.00    -0.502 OA
ATOM     23  H   UNL     1      16.706  -2.467  -6.713  1.00  0.00     0.293 HD
ENDBRANCH   2  22
BRANCH   6  24
ATOM     24  O   UNL     1      22.613  -3.952  -5.075  1.00  0.00    -0.507 OA
ATOM     25  H   UNL     1      21.974  -4.696  -4.839  1.00  0.00     0.293 HD
ENDBRANCH   6  24
BRANCH   8  26
ATOM     26  O   UNL     1      24.907  -1.666  -8.599  1.00  0.00    -0.508 OA
ATOM     27  H   UNL     1      24.945  -1.040  -9.395  1.00  0.00     0.293 HD
ENDBRANCH   8  26
TORSDOF 6
ENDMDL
MODEL 6
REMARK VINA RESULT:    -5.994      3.115      7.195
REMARK INTER + INTRA:          -7.335
REMARK INTER:                  -7.016
REMARK INTRA:                  -0.319
REMARK UNBOUND:                -0.115
REMARK SMILES O=c1c(O)c(-c2ccc(O)c(O)c2)oc2cc(O)cc(O)c12
REMARK SMILES IDX 5 1 3 2 2 3 1 4 22 5 20 6 19 7 17 8 16 9 15 10 14 11 6 12
REMARK SMILES IDX 7 13 8 14 9 15 13 16 11 17 10 18 12 20 4 22 21 24 18 26
REMARK H PARENT 10 19 12 21 4 23 21 25 18 27
REMARK Flexibility Score: inf
ROOT
ATOM      1  C   UNL     1      18.003  -0.419 -15.553  1.00  0.00     0.180 A 
ATOM      2  C   UNL     1      19.066   0.334 -15.027  1.00  0.00     0.208 A 
ATOM      3  C   UNL     1      20.137   0.682 -15.867  1.00  0.00     0.238 A 
ATOM      4  O   UNL     1      21.058   1.403 -15.404  1.00  0.00    -0.285 OA
ATOM      5  C   UNL     1      20.138   0.259 -17.217  1.00  0.00     0.111 A 
ATOM      6  C   UNL     1      21.188   0.519 -18.147  1.00  0.00     0.134 A 
ATOM      7  C   UNL     1      21.024   0.165 -19.492  1.00  0.00     0.093 A 
ATOM      8  C   UNL     1      19.878  -0.498 -19.927  1.00  0.00     0.123 A 
ATOM      9  C   UNL     1      18.870  -0.811 -19.015  1.00  0.00     0.094 A 
ATOM     10  C   UNL     1      18.989  -0.439 -17.674  1.00  0.00     0.146 A 
ATOM     11  O   UNL     1      18.002  -0.746 -16.840  1.00  0.00    -0.452 OA
ENDROOT
BRANCH   1  12
ATOM     12  C   UNL     1      16.852  -0.845 -14.723  1.00  0.00     0.025 A 
ATOM     13  C   UNL     1      15.740  -0.010 -14.534  1.00  0.00     0.016 A 
ATOM     14  C   UNL     1      14.677  -0.422 -13.729  1.00  0.00     0.051 A 
ATOM     15  C   UNL     1      14.708  -1.665 -13.086  1.00  0.00     0.157 A 
ATOM     16  C   UNL     1      16.896  -2.082 -14.063  1.00  0.00     0.062 A 
ATOM     17  C   UNL     1      15.834  -2.504 -13.252  1.00  0.00     0.158 A 
BRANCH  15  18
ATOM     18  O   UNL     1      13.611  -2.019 -12.297  1.00  0.00    -0.504 OA
ATOM     19  H   UNL     1      13.655  -2.677 -11.532  1.00  0.00     0.293 HD
ENDBRANCH  15  18
BRANCH  17  20
ATOM     20  O   UNL     1      15.942  -3.753 -12.636  1.00  0.00    -0.504 OA
ATOM     21  H   UNL     1      16.820  -4.204 -12.424  1.00  0.00     0.293 HD
ENDBRANCH  17  20
ENDBRANCH   1  12
BRANCH   2  22
ATOM     22  O   UNL     1      19.035   0.761 -13.696  1.00  0.00    -0.502 OA
ATOM     23  H   UNL     1      18.481   1.552 -13.390  1.00  0.00     0.293 HD
ENDBRANCH   2  22
BRANCH   6  24
ATOM     24  O   UNL     1      22.415   1.094 -17.799  1.00  0.00    -0.507 OA
ATOM     25  H   UNL     1      22.520   1.989 -17.345  1.00  0.00     0.293 HD
ENDBRANCH   6  24
BRANCH   8  26
ATOM     26  O   UNL     1      19.755  -0.850 -21.270  1.00  0.00    -0.508 OA
ATOM     27  H   UNL     1      19.139  -1.599 -21.567  1.00  0.00     0.293 HD
ENDBRANCH   8  26
TORSDOF 6
ENDMDL
MODEL 7
REMARK VINA RESULT:    -5.923     10.187     10.969
REMARK INTER + INTRA:          -7.250
REMARK INTER:                  -6.918
REMARK INTRA:                  -0.332
REMARK UNBOUND:                -0.115
REMARK SMILES O=c1c(O)c(-c2ccc(O)c(O)c2)oc2cc(O)cc(O)c12
REMARK SMILES IDX 5 1 3 2 2 3 1 4 22 5 20 6 19 7 17 8 16 9 15 10 14 11 6 12
REMARK SMILES IDX 7 13 8 14 9 15 13 16 11 17 10 18 12 20 4 22 21 24 18 26
REMARK H PARENT 10 19 12 21 4 23 21 25 18 27
REMARK Flexibility Score: inf
ROOT
ATOM      1  C   UNL     1      20.671  -1.480  -7.246  1.00  0.00     0.180 A 
ATOM      2  C   UNL     1      19.360  -1.856  -7.583  1.00  0.00     0.208 A 
ATOM      3  C   UNL     1      18.399  -0.856  -7.800  1.00  0.00     0.238 A 
ATOM      4  O   UNL     1      17.240  -1.197  -8.156  1.00  0.00    -0.285 OA
ATOM      5  C   UNL     1      18.757   0.506  -7.663  1.00  0.00     0.111 A 
ATOM      6  C   UNL     1      17.855   1.601  -7.820  1.00  0.00     0.134 A 
ATOM      7  C   UNL     1      18.348   2.912  -7.790  1.00  0.00     0.093 A 
ATOM      8  C   UNL     1      19.696   3.169  -7.543  1.00  0.00     0.123 A 
ATOM      9  C   UNL     1      20.576   2.108  -7.328  1.00  0.00     0.094 A 
ATOM     10  C   UNL     1      20.120   0.788  -7.388  1.00  0.00     0.146 A 
ATOM     11  O   UNL     1      20.993  -0.193  -7.188  1.00  0.00    -0.452 OA
ENDROOT
BRANCH   1  12
ATOM     12  C   UNL     1      21.733  -2.477  -6.978  1.00  0.00     0.025 A 
ATOM     13  C   UNL     1      21.911  -3.029  -5.699  1.00  0.00     0.016 A 
ATOM     14  C   UNL     1      22.933  -3.950  -5.464  1.00  0.00     0.051 A 
ATOM     15  C   UNL     1      23.805  -4.328  -6.492  1.00  0.00     0.157 A 
ATOM     16  C   UNL     1      22.619  -2.838  -8.005  1.00  0.00     0.062 A 
ATOM     17  C   UNL     1      23.648  -3.761  -7.778  1.00  0.00     0.158 A 
BRANCH  15  18
ATOM     18  O   UNL     1      24.805  -5.256  -6.192  1.00  0.00    -0.504 OA
ATOM     19  H   UNL     1      25.632  -5.396  -6.754  1.00  0.00     0.293 HD
ENDBRANCH  15  18
BRANCH  17  20
ATOM     20  O   UNL     1      24.485  -4.080  -8.851  1.00  0.00    -0.504 OA
ATOM     21  H   UNL     1      24.152  -4.377  -9.757  1.00  0.00     0.293 HD
ENDBRANCH  17  20
ENDBRANCH   1  12
BRANCH   2  22
ATOM     22  O   UNL     1      19.032  -3.207  -7.735  1.00  0.00    -0.502 OA
ATOM     23  H   UNL     1      18.691  -3.590  -8.609  1.00  0.00     0.293 HD
ENDBRANCH   2  22
BRANCH   6  24
ATOM     24  O   UNL     1      16.474   1.458  -7.981  1.00  0.00    -0.507 OA
ATOM     25  H   UNL     1      15.923   1.945  -8.672  1.00  0.00     0.293 HD
ENDBRANCH   6  24
BRANCH   8  26
ATOM     26  O   UNL     1      20.149   4.486  -7.503  1.00  0.00    -0.508 OA
ATOM     27  H   UNL     1      20.285   4.973  -6.625  1.00  0.00     0.293 HD
ENDBRANCH   8  26
TORSDOF 6
ENDMDL
MODEL 8
REMARK VINA RESULT:    -5.887     11.830     14.693
REMARK INTER + INTRA:          -7.207
REMARK INTER:                  -7.159
REMARK INTRA:                  -0.048
REMARK UNBOUND:                -0.115
REMARK SMILES O=c1c(O)c(-c2ccc(O)c(O)c2)oc2cc(O)cc(O)c12
REMARK SMILES IDX 5 1 3 2 2 3 1 4 22 5 20 6 19 7 17 8 16 9 15 10 14 11 6 12
REMARK SMILES IDX 7 13 8 14 9 15 13 16 11 17 10 18 12 20 4 22 21 24 18 26
REMARK H PARENT 10 19 12 21 4 23 21 25 18 27
REMARK Flexibility Score: inf
ROOT
ATOM      1  C   UNL     1      11.692  -6.722  -9.743  1.00  0.00     0.180 A 
ATOM      2  C   UNL     1      11.797  -7.674 -10.771  1.00  0.00     0.208 A 
ATOM      3  C   UNL     1      12.828  -7.545 -11.716  1.00  0.00     0.238 A 
ATOM      4  O   UNL     1      12.950  -8.432 -12.602  1.00  0.00    -0.285 OA
ATOM      5  C   UNL     1      13.730  -6.459 -11.630  1.00  0.00     0.111 A 
ATOM      6  C   UNL     1      14.786  -6.207 -12.555  1.00  0.00     0.134 A 
ATOM      7  C   UNL     1      15.700  -5.176 -12.299  1.00  0.00     0.093 A 
ATOM      8  C   UNL     1      15.555  -4.347 -11.187  1.00  0.00     0.123 A 
ATOM      9  C   UNL     1      14.491  -4.546 -10.307  1.00  0.00     0.094 A 
ATOM     10  C   UNL     1      13.585  -5.589 -10.517  1.00  0.00     0.146 A 
ATOM     11  O   UNL     1      12.592  -5.751  -9.650  1.00  0.00    -0.452 OA
ENDROOT
BRANCH   1  12
ATOM     12  C   UNL     1      10.618  -6.778  -8.725  1.00  0.00     0.025 A 
ATOM     13  C   UNL     1      10.409  -7.926  -7.944  1.00  0.00     0.016 A 
ATOM     14  C   UNL     1       9.375  -7.964  -7.007  1.00  0.00     0.051 A 
ATOM     15  C   UNL     1       8.522  -6.867  -6.839  1.00  0.00     0.157 A 
ATOM     16  C   UNL     1       9.751  -5.685  -8.574  1.00  0.00     0.062 A 
ATOM     17  C   UNL     1       8.710  -5.714  -7.636  1.00  0.00     0.158 A 
BRANCH  15  18
ATOM     18  O   UNL     1       7.509  -6.968  -5.883  1.00  0.00    -0.504 OA
ATOM     19  H   UNL     1       7.444  -7.715  -5.207  1.00  0.00     0.293 HD
ENDBRANCH  15  18
BRANCH  17  20
ATOM     20  O   UNL     1       7.894  -4.584  -7.534  1.00  0.00    -0.504 OA
ATOM     21  H   UNL     1       7.225  -4.306  -8.237  1.00  0.00     0.293 HD
ENDBRANCH  17  20
ENDBRANCH   1  12
BRANCH   2  22
ATOM     22  O   UNL     1      10.908  -8.752 -10.825  1.00  0.00    -0.502 OA
ATOM     23  H   UNL     1      10.077  -8.803 -10.249  1.00  0.00     0.293 HD
ENDBRANCH   2  22
BRANCH   6  24
ATOM     24  O   UNL     1      14.967  -6.918 -13.746  1.00  0.00    -0.507 OA
ATOM     25  H   UNL     1      15.350  -6.529 -14.594  1.00  0.00     0.293 HD
ENDBRANCH   6  24
BRANCH   8  26
ATOM     26  O   UNL     1      16.472  -3.321 -10.972  1.00  0.00    -0.508 OA
ATOM     27  H   UNL     1      17.248  -3.162 -11.604  1.00  0.00     0.293 HD
ENDBRANCH   8  26
TORSDOF 6
ENDMDL
MODEL 9
REMARK VINA RESULT:    -5.753      6.482      8.178
REMARK INTER + INTRA:          -7.045
REMARK INTER:                  -6.766
REMARK INTRA:                  -0.279
REMARK UNBOUND:                -0.115
REMARK SMILES O=c1c(O)c(-c2ccc(O)c(O)c2)oc2cc(O)cc(O)c12
REMARK SMILES IDX 5 1 3 2 2 3 1 4 22 5 20 6 19 7 17 8 16 9 15 10 14 11 6 12
REMARK SMILES IDX 7 13 8 14 9 15 13 16 11 17 10 18 12 20 4 22 21 24 18 26
REMARK H PARENT 10 19 12 21 4 23 21 25 18 27
REMARK Flexibility Score: inf
ROOT
ATOM      1  C   UNL     1      16.009  -1.133 -11.829  1.00  0.00     0.180 A 
ATOM      2  C   UNL     1      15.689  -2.452 -11.467  1.00  0.00     0.208 A 
ATOM      3  C   UNL     1      16.195  -2.971 -10.264  1.00  0.00     0.238 A 
ATOM      4  O   UNL     1      15.860  -4.134  -9.919  1.00  0.00    -0.285 OA
ATOM      5  C   UNL     1      17.026  -2.169  -9.447  1.00  0.00     0.111 A 
ATOM      6  C   UNL     1      17.627  -2.605  -8.228  1.00  0.00     0.134 A 
ATOM      7  C   UNL     1      18.325  -1.685  -7.434  1.00  0.00     0.093 A 
ATOM      8  C   UNL     1      18.500  -0.365  -7.847  1.00  0.00     0.123 A 
ATOM      9  C   UNL     1      17.968   0.057  -9.065  1.00  0.00     0.094 A 
ATOM     10  C   UNL     1      17.236  -0.828  -9.861  1.00  0.00     0.146 A 
ATOM     11  O   UNL     1      16.737  -0.384 -11.010  1.00  0.00    -0.452 OA
ENDROOT
BRANCH   1  12
ATOM     12  C   UNL     1      15.533  -0.525 -13.093  1.00  0.00     0.025 A 
ATOM     13  C   UNL     1      16.390  -0.364 -14.194  1.00  0.00     0.016 A 
ATOM     14  C   UNL     1      15.926   0.233 -15.367  1.00  0.00     0.051 A 
ATOM     15  C   UNL     1      14.608   0.694 -15.462  1.00  0.00     0.157 A 
ATOM     16  C   UNL     1      14.218  -0.043 -13.177  1.00  0.00     0.062 A 
ATOM     17  C   UNL     1      13.744   0.558 -14.351  1.00  0.00     0.158 A 
BRANCH  15  18
ATOM     18  O   UNL     1      14.206   1.279 -16.665  1.00  0.00    -0.504 OA
ATOM     19  H   UNL     1      14.142   2.276 -16.814  1.00  0.00     0.293 HD
ENDBRANCH  15  18
BRANCH  17  20
ATOM     20  O   UNL     1      12.419   1.002 -14.366  1.00  0.00    -0.504 OA
ATOM     21  H   UNL     1      11.624   0.401 -14.529  1.00  0.00     0.293 HD
ENDBRANCH  17  20
ENDBRANCH   1  12
BRANCH   2  22
ATOM     22  O   UNL     1      14.848  -3.220 -12.279  1.00  0.00    -0.502 OA
ATOM     23  H   UNL     1      14.960  -4.221 -12.387  1.00  0.00     0.293 HD
ENDBRANCH   2  22
BRANCH   6  24
ATOM     24  O   UNL     1      17.590  -3.924  -7.767  1.00  0.00    -0.507 OA
ATOM     25  H   UNL     1      17.303  -4.201  -6.841  1.00  0.00     0.293 HD
ENDBRANCH   6  24
BRANCH   8  26
ATOM     26  O   UNL     1      19.214   0.518  -7.040  1.00  0.00    -0.508 OA
ATOM     27  H   UNL     1      20.016   0.213  -6.500  1.00  0.00     0.293 HD
ENDBRANCH   8  26
TORSDOF 6
ENDMDL
