MODEL 1
REMARK VINA RESULT:    -5.458      0.000      0.000
REMARK INTER + INTRA:         -11.323
REMARK INTER:                 -10.243
REMARK INTRA:                  -1.079
REMARK UNBOUND:                -1.079
REMARK SMILES CCCCCCCCC=CCCCCCCCC(=O)[O-]
REMARK SMILES IDX 10 1 9 2 11 3 12 4 13 5 14 6 15 7 16 8 17 9 18 10 19 11
REMARK SMILES IDX 20 12 8 13 7 14 6 15 5 16 4 17 3 18 2 19 1 20
REMARK H PARENT
REMARK Flexibility Score: inf
ROOT
ATOM      1  C   UNL     1    -129.425 110.721  43.105  1.00  0.00    -0.031 C 
ATOM      2  C   UNL     1    -129.260 111.678  44.032  1.00  0.00    -0.031 C 
ENDROOT
BRANCH   1   3
ATOM      3  C   UNL     1    -129.691 109.291  43.485  1.00  0.00     0.027 C 
BRANCH   3   4
ATOM      4  C   UNL     1    -129.943 108.449  42.228  1.00  0.00     0.004 C 
BRANCH   4   5
ATOM      5  C   UNL     1    -129.353 109.085  40.960  1.00  0.00     0.000 C 
BRANCH   5   6
ATOM      6  C   UNL     1    -130.427 109.433  39.914  1.00  0.00     0.000 C 
BRANCH   6   7
ATOM      7  C   UNL     1    -130.842 108.206  39.073  1.00  0.00     0.000 C 
BRANCH   7   8
ATOM      8  C   UNL     1    -129.698 107.204  38.833  1.00  0.00     0.006 C 
BRANCH   8   9
ATOM      9  C   UNL     1    -130.137 105.744  38.998  1.00  0.00     0.053 C 
BRANCH   9  10
ATOM     10  C   UNL     1    -129.180 105.008  39.879  1.00  0.00     0.041 C 
ATOM     11  O   UNL     1    -129.127 103.750  39.846  1.00  0.00    -0.550 OA
ATOM     12  O   UNL     1    -128.378 105.706  40.773  1.00  0.00    -0.550 OA
ENDBRANCH   9  10
ENDBRANCH   8   9
ENDBRANCH   7   8
ENDBRANCH   6   7
ENDBRANCH   5   6
ENDBRANCH   4   5
ENDBRANCH   3   4
ENDBRANCH   1   3
BRANCH   2  13
ATOM     13  C   UNL     1    -129.048 113.120  43.653  1.00  0.00     0.027 C 
BRANCH  13  14
ATOM     14  C   UNL     1    -130.028 113.560  42.558  1.00  0.00     0.004 C 
BRANCH  14  15
ATOM     15  C   UNL     1    -130.192 115.089  42.508  1.00  0.00     0.000 C 
BRANCH  15  16
ATOM     16  C   UNL     1    -129.399 115.805  43.614  1.00  0.00     0.000 C 
BRANCH  16  17
ATOM     17  C   UNL     1    -129.369 117.333  43.428  1.00  0.00    -0.000 C 
BRANCH  17  18
ATOM     18  C   UNL     1    -129.638 118.086  44.749  1.00  0.00    -0.000 C 
BRANCH  18  19
ATOM     19  C   UNL     1    -130.328 117.225  45.820  1.00  0.00    -0.003 C 
ATOM     20  C   UNL     1    -130.998 118.055  46.914  1.00  0.00     0.004 C 
ENDBRANCH  18  19
ENDBRANCH  17  18
ENDBRANCH  16  17
ENDBRANCH  15  16
ENDBRANCH  14  15
ENDBRANCH  13  14
ENDBRANCH   2  13
TORSDOF 15
ENDMDL
MODEL 2
REMARK VINA RESULT:    -5.415      2.188      3.034
REMARK INTER + INTRA:         -11.242
REMARK INTER:                  -9.906
REMARK INTRA:                  -1.336
REMARK UNBOUND:                -1.079
REMARK SMILES CCCCCCCCC=CCCCCCCCC(=O)[O-]
REMARK SMILES IDX 10 1 9 2 11 3 12 4 13 5 14 6 15 7 16 8 17 9 18 10 19 11
REMARK SMILES IDX 20 12 8 13 7 14 6 15 5 16 4 17 3 18 2 19 1 20
REMARK H PARENT
REMARK Flexibility Score: inf
ROOT
ATOM      1  C   UNL     1    -129.739 109.824  43.565  1.00  0.00    -0.031 C 
ATOM      2  C   UNL     1    -129.132 110.931  43.111  1.00  0.00    -0.031 C 
ENDROOT
BRANCH   1   3
ATOM      3  C   UNL     1    -129.589 108.499  42.869  1.00  0.00     0.027 C 
BRANCH   3   4
ATOM      4  C   UNL     1    -128.122 108.268  42.485  1.00  0.00     0.004 C 
BRANCH   4   5
ATOM      5  C   UNL     1    -127.914 106.967  41.694  1.00  0.00     0.000 C 
BRANCH   5   6
ATOM      6  C   UNL     1    -129.234 106.364  41.183  1.00  0.00     0.000 C 
BRANCH   6   7
ATOM      7  C   UNL     1    -129.323 106.376  39.641  1.00  0.00     0.000 C 
BRANCH   7   8
ATOM      8  C   UNL     1    -130.191 107.517  39.079  1.00  0.00     0.006 C 
BRANCH   8   9
ATOM      9  C   UNL     1    -129.484 108.877  39.111  1.00  0.00     0.053 C 
BRANCH   9  10
ATOM     10  C   UNL     1    -130.433 109.948  39.544  1.00  0.00     0.041 C 
ATOM     11  O   UNL     1    -131.676 109.765  39.461  1.00  0.00    -0.550 OA
ATOM     12  O   UNL     1    -129.947 111.170  39.994  1.00  0.00    -0.550 OA
ENDBRANCH   9  10
ENDBRANCH   8   9
ENDBRANCH   7   8
ENDBRANCH   6   7
ENDBRANCH   5   6
ENDBRANCH   4   5
ENDBRANCH   3   4
ENDBRANCH   1   3
BRANCH   2  13
ATOM     13  C   UNL     1    -129.237 112.247  43.837  1.00  0.00     0.027 C 
BRANCH  13  14
ATOM     14  C   UNL     1    -129.782 113.349  42.920  1.00  0.00     0.004 C 
BRANCH  14  15
ATOM     15  C   UNL     1    -129.522 114.756  43.488  1.00  0.00     0.000 C 
BRANCH  15  16
ATOM     16  C   UNL     1    -129.514 114.780  45.026  1.00  0.00     0.000 C 
BRANCH  16  17
ATOM     17  C   UNL     1    -129.870 116.162  45.600  1.00  0.00    -0.000 C 
BRANCH  17  18
ATOM     18  C   UNL     1    -130.078 117.218  44.493  1.00  0.00    -0.000 C 
BRANCH  18  19
ATOM     19  C   UNL     1    -128.978 118.293  44.452  1.00  0.00    -0.003 C 
ATOM     20  C   UNL     1    -128.585 118.694  43.031  1.00  0.00     0.004 C 
ENDBRANCH  18  19
ENDBRANCH  17  18
ENDBRANCH  16  17
ENDBRANCH  15  16
ENDBRANCH  14  15
ENDBRANCH  13  14
ENDBRANCH   2  13
TORSDOF 15
ENDMDL
MODEL 3
REMARK VINA RESULT:    -5.332      4.495      9.659
REMARK INTER + INTRA:         -11.087
REMARK INTER:                  -9.405
REMARK INTRA:                  -1.683
REMARK UNBOUND:                -1.079
REMARK SMILES CCCCCCCCC=CCCCCCCCC(=O)[O-]
REMARK SMILES IDX 10 1 9 2 11 3 12 4 13 5 14 6 15 7 16 8 17 9 18 10 19 11
REMARK SMILES IDX 20 12 8 13 7 14 6 15 5 16 4 17 3 18 2 19 1 20
REMARK H PARENT
REMARK Flexibility Score: inf
ROOT
ATOM      1  C   UNL     1    -130.047 111.612  40.912  1.00  0.00    -0.031 C 
ATOM      2  C   UNL     1    -129.382 111.327  39.781  1.00  0.00    -0.031 C 
ENDROOT
BRANCH   1   3
ATOM      3  C   UNL     1    -130.038 112.992  41.507  1.00  0.00     0.027 C 
BRANCH   3   4
ATOM      4  C   UNL     1    -129.724 112.918  43.007  1.00  0.00     0.004 C 
BRANCH   4   5
ATOM      5  C   UNL     1    -129.467 114.300  43.628  1.00  0.00     0.000 C 
BRANCH   5   6
ATOM      6  C   UNL     1    -129.659 115.449  42.623  1.00  0.00     0.000 C 
BRANCH   6   7
ATOM      7  C   UNL     1    -129.763 116.823  43.320  1.00  0.00     0.000 C 
BRANCH   7   8
ATOM      8  C   UNL     1    -129.538 116.764  44.842  1.00  0.00     0.006 C 
BRANCH   8   9
ATOM      9  C   UNL     1    -130.109 117.981  45.579  1.00  0.00     0.053 C 
BRANCH   9  10
ATOM     10  C   UNL     1    -131.047 117.544  46.658  1.00  0.00     0.041 C 
ATOM     11  O   UNL     1    -131.970 118.309  47.044  1.00  0.00    -0.550 OA
ATOM     12  O   UNL     1    -130.874 116.311  47.274  1.00  0.00    -0.550 OA
ENDBRANCH   9  10
ENDBRANCH   8   9
ENDBRANCH   7   8
ENDBRANCH   6   7
ENDBRANCH   5   6
ENDBRANCH   4   5
ENDBRANCH   3   4
ENDBRANCH   1   3
BRANCH   2  13
ATOM     13  C   UNL     1    -129.435 109.959  39.154  1.00  0.00     0.027 C 
BRANCH  13  14
ATOM     14  C   UNL     1    -130.787 109.280  39.408  1.00  0.00     0.004 C 
BRANCH  14  15
ATOM     15  C   UNL     1    -130.750 107.777  39.077  1.00  0.00     0.000 C 
BRANCH  15  16
ATOM     16  C   UNL     1    -129.408 107.123  39.443  1.00  0.00     0.000 C 
BRANCH  16  17
ATOM     17  C   UNL     1    -129.399 106.546  40.870  1.00  0.00    -0.000 C 
BRANCH  17  18
ATOM     18  C   UNL     1    -128.220 107.084  41.709  1.00  0.00    -0.000 C 
BRANCH  18  19
ATOM     19  C   UNL     1    -128.477 108.477  42.309  1.00  0.00    -0.003 C 
ATOM     20  C   UNL     1    -129.821 108.579  43.030  1.00  0.00     0.004 C 
ENDBRANCH  18  19
ENDBRANCH  17  18
ENDBRANCH  16  17
ENDBRANCH  15  16
ENDBRANCH  14  15
ENDBRANCH  13  14
ENDBRANCH   2  13
TORSDOF 15
ENDMDL
MODEL 4
REMARK VINA RESULT:    -5.200      4.368      9.962
REMARK INTER + INTRA:         -10.840
REMARK INTER:                  -9.618
REMARK INTRA:                  -1.223
REMARK UNBOUND:                -1.079
REMARK SMILES CCCCCCCCC=CCCCCCCCC(=O)[O-]
REMARK SMILES IDX 10 1 9 2 11 3 12 4 13 5 14 6 15 7 16 8 17 9 18 10 19 11
REMARK SMILES IDX 20 12 8 13 7 14 6 15 5 16 4 17 3 18 2 19 1 20
REMARK H PARENT
REMARK Flexibility Score: inf
ROOT
ATOM      1  C   UNL     1    -129.325 111.864  44.116  1.00  0.00    -0.031 C 
ATOM      2  C   UNL     1    -129.376 110.888  43.196  1.00  0.00    -0.031 C 
ENDROOT
BRANCH   1   3
ATOM      3  C   UNL     1    -129.001 113.284  43.745  1.00  0.00     0.027 C 
BRANCH   3   4
ATOM      4  C   UNL     1    -130.091 113.851  42.826  1.00  0.00     0.004 C 
BRANCH   4   5
ATOM      5  C   UNL     1    -129.644 115.125  42.092  1.00  0.00     0.000 C 
BRANCH   5   6
ATOM      6  C   UNL     1    -130.268 116.402  42.682  1.00  0.00     0.000 C 
BRANCH   6   7
ATOM      7  C   UNL     1    -129.199 117.408  43.160  1.00  0.00     0.000 C 
BRANCH   7   8
ATOM      8  C   UNL     1    -129.346 117.813  44.638  1.00  0.00     0.006 C 
BRANCH   8   9
ATOM      9  C   UNL     1    -129.725 116.636  45.545  1.00  0.00     0.053 C 
BRANCH   9  10
ATOM     10  C   UNL     1    -130.707 117.074  46.584  1.00  0.00     0.041 C 
ATOM     11  O   UNL     1    -130.790 118.288  46.906  1.00  0.00    -0.550 OA
ATOM     12  O   UNL     1    -131.499 116.135  47.234  1.00  0.00    -0.550 OA
ENDBRANCH   9  10
ENDBRANCH   8   9
ENDBRANCH   7   8
ENDBRANCH   6   7
ENDBRANCH   5   6
ENDBRANCH   4   5
ENDBRANCH   3   4
ENDBRANCH   1   3
BRANCH   2  13
ATOM     13  C   UNL     1    -129.754 109.476  43.558  1.00  0.00     0.027 C 
BRANCH  13  14
ATOM     14  C   UNL     1    -129.647 108.541  42.347  1.00  0.00     0.004 C 
BRANCH  14  15
ATOM     15  C   UNL     1    -129.348 109.310  41.047  1.00  0.00     0.000 C 
BRANCH  15  16
ATOM     16  C   UNL     1    -130.328 108.960  39.915  1.00  0.00     0.000 C 
BRANCH  16  17
ATOM     17  C   UNL     1    -129.760 107.912  38.941  1.00  0.00    -0.000 C 
BRANCH  17  18
ATOM     18  C   UNL     1    -130.639 106.645  38.870  1.00  0.00    -0.000 C 
BRANCH  18  19
ATOM     19  C   UNL     1    -129.843 105.336  39.004  1.00  0.00    -0.003 C 
ATOM     20  C   UNL     1    -129.041 105.254  40.303  1.00  0.00     0.004 C 
ENDBRANCH  18  19
ENDBRANCH  17  18
ENDBRANCH  16  17
ENDBRANCH  15  16
ENDBRANCH  14  15
ENDBRANCH  13  14
ENDBRANCH   2  13
TORSDOF 15
ENDMDL
MODEL 5
REMARK VINA RESULT:    -5.185      4.411      9.447
REMARK INTER + INTRA:         -10.810
REMARK INTER:                  -9.186
REMARK INTRA:                  -1.625
REMARK UNBOUND:                -1.079
REMARK SMILES CCCCCCCCC=CCCCCCCCC(=O)[O-]
REMARK SMILES IDX 10 1 9 2 11 3 12 4 13 5 14 6 15 7 16 8 17 9 18 10 19 11
REMARK SMILES IDX 20 12 8 13 7 14 6 15 5 16 4 17 3 18 2 19 1 20
REMARK H PARENT
REMARK Flexibility Score: inf
ROOT
ATOM      1  C   UNL     1    -129.390 108.610  43.117  1.00  0.00    -0.031 C 
ATOM      2  C   UNL     1    -128.181 108.403  42.573  1.00  0.00    -0.031 C 
ENDROOT
BRANCH   1   3
ATOM      3  C   UNL     1    -129.710 109.868  43.877  1.00  0.00     0.027 C 
BRANCH   3   4
ATOM      4  C   UNL     1    -129.273 111.098  43.070  1.00  0.00     0.004 C 
BRANCH   4   5
ATOM      5  C   UNL     1    -129.039 112.334  43.952  1.00  0.00     0.000 C 
BRANCH   5   6
ATOM      6  C   UNL     1    -129.315 113.654  43.211  1.00  0.00     0.000 C 
BRANCH   6   7
ATOM      7  C   UNL     1    -130.191 114.617  44.042  1.00  0.00     0.000 C 
BRANCH   7   8
ATOM      8  C   UNL     1    -129.406 115.401  45.111  1.00  0.00     0.006 C 
BRANCH   8   9
ATOM      9  C   UNL     1    -129.778 116.888  45.155  1.00  0.00     0.053 C 
BRANCH   9  10
ATOM     10  C   UNL     1    -130.596 117.184  46.371  1.00  0.00     0.041 C 
ATOM     11  O   UNL     1    -130.899 118.373  46.657  1.00  0.00    -0.550 OA
ATOM     12  O   UNL     1    -130.986 116.154  47.217  1.00  0.00    -0.550 OA
ENDBRANCH   9  10
ENDBRANCH   8   9
ENDBRANCH   7   8
ENDBRANCH   6   7
ENDBRANCH   5   6
ENDBRANCH   4   5
ENDBRANCH   3   4
ENDBRANCH   1   3
BRANCH   2  13
ATOM     13  C   UNL     1    -127.877 107.169  41.766  1.00  0.00     0.027 C 
BRANCH  13  14
ATOM     14  C   UNL     1    -129.160 106.421  41.382  1.00  0.00     0.004 C 
BRANCH  14  15
ATOM     15  C   UNL     1    -128.990 105.607  40.087  1.00  0.00     0.000 C 
BRANCH  15  16
ATOM     16  C   UNL     1    -129.874 106.126  38.941  1.00  0.00     0.000 C 
BRANCH  16  17
ATOM     17  C   UNL     1    -129.757 107.648  38.743  1.00  0.00    -0.000 C 
BRANCH  17  18
ATOM     18  C   UNL     1    -131.086 108.378  39.030  1.00  0.00    -0.000 C 
BRANCH  18  19
ATOM     19  C   UNL     1    -130.913 109.688  39.817  1.00  0.00    -0.003 C 
ATOM     20  C   UNL     1    -129.573 110.372  39.550  1.00  0.00     0.004 C 
ENDBRANCH  18  19
ENDBRANCH  17  18
ENDBRANCH  16  17
ENDBRANCH  15  16
ENDBRANCH  14  15
ENDBRANCH  13  14
ENDBRANCH   2  13
TORSDOF 15
ENDMDL
MODEL 6
REMARK VINA RESULT:    -5.184      4.507      9.312
REMARK INTER + INTRA:         -10.809
REMARK INTER:                  -9.430
REMARK INTRA:                  -1.379
REMARK UNBOUND:                -1.079
REMARK SMILES CCCCCCCCC=CCCCCCCCC(=O)[O-]
REMARK SMILES IDX 10 1 9 2 11 3 12 4 13 5 14 6 15 7 16 8 17 9 18 10 19 11
REMARK SMILES IDX 20 12 8 13 7 14 6 15 5 16 4 17 3 18 2 19 1 20
REMARK H PARENT
REMARK Flexibility Score: inf
ROOT
ATOM      1  C   UNL     1    -129.014 111.305  43.954  1.00  0.00    -0.031 C 
ATOM      2  C   UNL     1    -129.395 110.454  42.989  1.00  0.00    -0.031 C 
ENDROOT
BRANCH   1   3
ATOM      3  C   UNL     1    -129.091 112.795  43.768  1.00  0.00     0.027 C 
BRANCH   3   4
ATOM      4  C   UNL     1    -129.783 113.127  42.440  1.00  0.00     0.004 C 
BRANCH   4   5
ATOM      5  C   UNL     1    -130.409 114.531  42.432  1.00  0.00     0.000 C 
BRANCH   5   6
ATOM      6  C   UNL     1    -129.354 115.651  42.402  1.00  0.00     0.000 C 
BRANCH   6   7
ATOM      7  C   UNL     1    -129.777 116.873  43.246  1.00  0.00     0.000 C 
BRANCH   7   8
ATOM      8  C   UNL     1    -129.697 116.634  44.765  1.00  0.00     0.006 C 
BRANCH   8   9
ATOM      9  C   UNL     1    -130.083 117.870  45.586  1.00  0.00     0.053 C 
BRANCH   9  10
ATOM     10  C   UNL     1    -131.048 117.498  46.666  1.00  0.00     0.041 C 
ATOM     11  O   UNL     1    -131.967 118.293  46.996  1.00  0.00    -0.550 OA
ATOM     12  O   UNL     1    -130.904 116.294  47.344  1.00  0.00    -0.550 OA
ENDBRANCH   9  10
ENDBRANCH   8   9
ENDBRANCH   7   8
ENDBRANCH   6   7
ENDBRANCH   5   6
ENDBRANCH   4   5
ENDBRANCH   3   4
ENDBRANCH   1   3
BRANCH   2  13
ATOM     13  C   UNL     1    -129.371 108.962  43.194  1.00  0.00     0.027 C 
BRANCH  13  14
ATOM     14  C   UNL     1    -128.541 108.262  42.110  1.00  0.00     0.004 C 
BRANCH  14  15
ATOM     15  C   UNL     1    -129.420 107.457  41.136  1.00  0.00     0.000 C 
BRANCH  15  16
ATOM     16  C   UNL     1    -129.450 108.066  39.725  1.00  0.00     0.000 C 
BRANCH  16  17
ATOM     17  C   UNL     1    -130.487 109.194  39.587  1.00  0.00    -0.000 C 
BRANCH  17  18
ATOM     18  C   UNL     1    -129.828 110.590  39.535  1.00  0.00    -0.000 C 
BRANCH  18  19
ATOM     19  C   UNL     1    -128.512 110.620  38.739  1.00  0.00    -0.003 C 
ATOM     20  C   UNL     1    -128.288 111.941  38.004  1.00  0.00     0.004 C 
ENDBRANCH  18  19
ENDBRANCH  17  18
ENDBRANCH  16  17
ENDBRANCH  15  16
ENDBRANCH  14  15
ENDBRANCH  13  14
ENDBRANCH   2  13
TORSDOF 15
ENDMDL
MODEL 7
REMARK VINA RESULT:    -5.123      2.610      4.921
REMARK INTER + INTRA:         -10.696
REMARK INTER:                  -8.820
REMARK INTRA:                  -1.876
REMARK UNBOUND:                -1.079
REMARK SMILES CCCCCCCCC=CCCCCCCCC(=O)[O-]
REMARK SMILES IDX 10 1 9 2 11 3 12 4 13 5 14 6 15 7 16 8 17 9 18 10 19 11
REMARK SMILES IDX 20 12 8 13 7 14 6 15 5 16 4 17 3 18 2 19 1 20
REMARK H PARENT
REMARK Flexibility Score: inf
ROOT
ATOM      1  C   UNL     1    -130.008 107.934  39.147  1.00  0.00    -0.031 C 
ATOM      2  C   UNL     1    -131.132 108.667  39.139  1.00  0.00    -0.031 C 
ENDROOT
BRANCH   1   3
ATOM      3  C   UNL     1    -130.002 106.492  38.721  1.00  0.00     0.027 C 
BRANCH   3   4
ATOM      4  C   UNL     1    -129.034 105.686  39.598  1.00  0.00     0.004 C 
BRANCH   4   5
ATOM      5  C   UNL     1    -129.106 106.084  41.080  1.00  0.00     0.000 C 
BRANCH   5   6
ATOM      6  C   UNL     1    -127.876 106.884  41.542  1.00  0.00     0.000 C 
BRANCH   6   7
ATOM      7  C   UNL     1    -128.259 108.075  42.447  1.00  0.00     0.000 C 
BRANCH   7   8
ATOM      8  C   UNL     1    -129.760 108.135  42.787  1.00  0.00     0.006 C 
BRANCH   8   9
ATOM      9  C   UNL     1    -130.080 109.138  43.903  1.00  0.00     0.053 C 
BRANCH   9  10
ATOM     10  C   UNL     1    -131.080 108.560  44.852  1.00  0.00     0.041 C 
ATOM     11  O   UNL     1    -132.205 108.178  44.433  1.00  0.00    -0.550 OA
ATOM     12  O   UNL     1    -130.791 108.488  46.209  1.00  0.00    -0.550 OA
ENDBRANCH   9  10
ENDBRANCH   8   9
ENDBRANCH   7   8
ENDBRANCH   6   7
ENDBRANCH   5   6
ENDBRANCH   4   5
ENDBRANCH   3   4
ENDBRANCH   1   3
BRANCH   2  13
ATOM     13  C   UNL     1    -131.130 110.126  39.513  1.00  0.00     0.027 C 
BRANCH  13  14
ATOM     14  C   UNL     1    -129.724 110.602  39.899  1.00  0.00     0.004 C 
BRANCH  14  15
ATOM     15  C   UNL     1    -129.730 111.441  41.189  1.00  0.00     0.000 C 
BRANCH  15  16
ATOM     16  C   UNL     1    -130.113 112.909  40.937  1.00  0.00     0.000 C 
BRANCH  16  17
ATOM     17  C   UNL     1    -129.889 113.801  42.171  1.00  0.00    -0.000 C 
BRANCH  17  18
ATOM     18  C   UNL     1    -129.350 113.003  43.378  1.00  0.00    -0.000 C 
BRANCH  18  19
ATOM     19  C   UNL     1    -129.528 113.726  44.724  1.00  0.00    -0.003 C 
ATOM     20  C   UNL     1    -129.690 115.238  44.572  1.00  0.00     0.004 C 
ENDBRANCH  18  19
ENDBRANCH  17  18
ENDBRANCH  16  17
ENDBRANCH  15  16
ENDBRANCH  14  15
ENDBRANCH  13  14
ENDBRANCH   2  13
TORSDOF 15
ENDMDL
MODEL 8
REMARK VINA RESULT:    -5.081      0.907      2.228
REMARK INTER + INTRA:         -10.615
REMARK INTER:                  -9.618
REMARK INTRA:                  -0.998
REMARK UNBOUND:                -1.079
REMARK SMILES CCCCCCCCC=CCCCCCCCC(=O)[O-]
REMARK SMILES IDX 10 1 9 2 11 3 12 4 13 5 14 6 15 7 16 8 17 9 18 10 19 11
REMARK SMILES IDX 20 12 8 13 7 14 6 15 5 16 4 17 3 18 2 19 1 20
REMARK H PARENT
REMARK Flexibility Score: inf
ROOT
ATOM      1  C   UNL     1    -129.345 113.207  43.601  1.00  0.00    -0.031 C 
ATOM      2  C   UNL     1    -130.092 113.592  42.555  1.00  0.00    -0.031 C 
ENDROOT
BRANCH   1   3
ATOM      3  C   UNL     1    -129.225 111.761  43.997  1.00  0.00     0.027 C 
BRANCH   3   4
ATOM      4  C   UNL     1    -129.296 110.865  42.754  1.00  0.00     0.004 C 
BRANCH   4   5
ATOM      5  C   UNL     1    -129.500 109.383  43.102  1.00  0.00     0.000 C 
BRANCH   5   6
ATOM      6  C   UNL     1    -128.861 108.436  42.070  1.00  0.00     0.000 C 
BRANCH   6   7
ATOM      7  C   UNL     1    -129.376 108.700  40.638  1.00  0.00     0.000 C 
BRANCH   7   8
ATOM      8  C   UNL     1    -129.677 107.417  39.842  1.00  0.00     0.006 C 
BRANCH   8   9
ATOM      9  C   UNL     1    -129.046 106.166  40.464  1.00  0.00     0.053 C 
BRANCH   9  10
ATOM     10  C   UNL     1    -129.425 104.948  39.685  1.00  0.00     0.041 C 
ATOM     11  O   UNL     1    -129.171 103.801  40.138  1.00  0.00    -0.550 OA
ATOM     12  O   UNL     1    -130.018 105.077  38.434  1.00  0.00    -0.550 OA
ENDBRANCH   9  10
ENDBRANCH   8   9
ENDBRANCH   7   8
ENDBRANCH   6   7
ENDBRANCH   5   6
ENDBRANCH   4   5
ENDBRANCH   3   4
ENDBRANCH   1   3
BRANCH   2  13
ATOM     13  C   UNL     1    -130.170 115.033  42.123  1.00  0.00     0.027 C 
BRANCH  13  14
ATOM     14  C   UNL     1    -129.062 115.871  42.774  1.00  0.00     0.004 C 
BRANCH  14  15
ATOM     15  C   UNL     1    -129.555 117.276  43.166  1.00  0.00     0.000 C 
BRANCH  15  16
ATOM     16  C   UNL     1    -129.479 117.527  44.681  1.00  0.00     0.000 C 
BRANCH  16  17
ATOM     17  C   UNL     1    -130.232 116.462  45.498  1.00  0.00    -0.000 C 
BRANCH  17  18
ATOM     18  C   UNL     1    -130.633 116.976  46.898  1.00  0.00    -0.000 C 
BRANCH  18  19
ATOM     19  C   UNL     1    -131.157 118.422  46.896  1.00  0.00    -0.003 C 
ATOM     20  C   UNL     1    -132.636 118.521  47.269  1.00  0.00     0.004 C 
ENDBRANCH  18  19
ENDBRANCH  17  18
ENDBRANCH  16  17
ENDBRANCH  15  16
ENDBRANCH  14  15
ENDBRANCH  13  14
ENDBRANCH   2  13
TORSDOF 15
ENDMDL
MODEL 9
REMARK VINA RESULT:    -5.063      1.959      2.917
REMARK INTER + INTRA:         -10.583
REMARK INTER:                  -9.294
REMARK INTRA:                  -1.288
REMARK UNBOUND:                -1.079
REMARK SMILES CCCCCCCCC=CCCCCCCCC(=O)[O-]
REMARK SMILES IDX 10 1 9 2 11 3 12 4 13 5 14 6 15 7 16 8 17 9 18 10 19 11
REMARK SMILES IDX 20 12 8 13 7 14 6 15 5 16 4 17 3 18 2 19 1 20
REMARK H PARENT
REMARK Flexibility Score: inf
ROOT
ATOM      1  C   UNL     1    -129.337 113.058  43.484  1.00  0.00    -0.031 C 
ATOM      2  C   UNL     1    -130.140 113.457  42.484  1.00  0.00    -0.031 C 
ENDROOT
BRANCH   1   3
ATOM      3  C   UNL     1    -129.314 111.632  43.958  1.00  0.00     0.027 C 
BRANCH   3   4
ATOM      4  C   UNL     1    -129.308 110.676  42.758  1.00  0.00     0.004 C 
BRANCH   4   5
ATOM      5  C   UNL     1    -129.405 109.200  43.174  1.00  0.00     0.000 C 
BRANCH   5   6
ATOM      6  C   UNL     1    -128.502 108.284  42.329  1.00  0.00     0.000 C 
BRANCH   6   7
ATOM      7  C   UNL     1    -129.307 107.191  41.592  1.00  0.00     0.000 C 
BRANCH   7   8
ATOM      8  C   UNL     1    -128.969 107.078  40.094  1.00  0.00     0.006 C 
BRANCH   8   9
ATOM      9  C   UNL     1    -130.123 107.521  39.187  1.00  0.00     0.053 C 
BRANCH   9  10
ATOM     10  C   UNL     1    -130.379 108.985  39.346  1.00  0.00     0.041 C 
ATOM     11  O   UNL     1    -131.552 109.408  39.520  1.00  0.00    -0.550 OA
ATOM     12  O   UNL     1    -129.329 109.890  39.252  1.00  0.00    -0.550 OA
ENDBRANCH   9  10
ENDBRANCH   8   9
ENDBRANCH   7   8
ENDBRANCH   6   7
ENDBRANCH   5   6
ENDBRANCH   4   5
ENDBRANCH   3   4
ENDBRANCH   1   3
BRANCH   2  13
ATOM     13  C   UNL     1    -130.125 114.872  41.972  1.00  0.00     0.027 C 
BRANCH  13  14
ATOM     14  C   UNL     1    -129.153 115.747  42.774  1.00  0.00     0.004 C 
BRANCH  14  15
ATOM     15  C   UNL     1    -129.773 117.104  43.151  1.00  0.00     0.000 C 
BRANCH  15  16
ATOM     16  C   UNL     1    -129.653 117.412  44.653  1.00  0.00     0.000 C 
BRANCH  16  17
ATOM     17  C   UNL     1    -129.947 116.186  45.535  1.00  0.00    -0.000 C 
BRANCH  17  18
ATOM     18  C   UNL     1    -130.763 116.555  46.793  1.00  0.00    -0.000 C 
BRANCH  18  19
ATOM     19  C   UNL     1    -130.950 118.070  46.984  1.00  0.00    -0.003 C 
ATOM     20  C   UNL     1    -132.413 118.475  47.153  1.00  0.00     0.004 C 
ENDBRANCH  18  19
ENDBRANCH  17  18
ENDBRANCH  16  17
ENDBRANCH  15  16
ENDBRANCH  14  15
ENDBRANCH  13  14
ENDBRANCH   2  13
TORSDOF 15
ENDMDL
