MODEL 1
REMARK VINA RESULT:    -3.520      0.000      0.000
REMARK INTER + INTRA:          -7.310
REMARK INTER:                  -5.990
REMARK INTRA:                  -1.320
REMARK UNBOUND:                -1.320
REMARK SMILES CCCCCCCCCCCCCC(=O)[O-]
REMARK SMILES IDX 8 1 9 2 10 3 11 4 12 5 13 6 14 7 15 8 16 9 7 10 6 11 5 12
REMARK SMILES IDX 4 13 3 14 2 15 1 16
REMARK H PARENT
REMARK Flexibility Score: inf
ROOT
ATOM      1  C   UNL     1      13.551   4.138  17.925  1.00  0.00     0.000 C 
ENDROOT
BRANCH   1   2
ATOM      2  C   UNL     1      14.300   3.888  16.604  1.00  0.00     0.000 C 
BRANCH   2   3
ATOM      3  C   UNL     1      15.616   4.690  16.520  1.00  0.00     0.000 C 
BRANCH   3   4
ATOM      4  C   UNL     1      16.316   4.876  17.877  1.00  0.00     0.000 C 
BRANCH   4   5
ATOM      5  C   UNL     1      17.114   6.187  17.964  1.00  0.00     0.006 C 
BRANCH   5   6
ATOM      6  C   UNL     1      16.777   6.989  19.229  1.00  0.00     0.053 C 
BRANCH   6   7
ATOM      7  C   UNL     1      17.828   6.832  20.285  1.00  0.00     0.041 C 
ATOM      8  O   UNL     1      18.040   7.760  21.108  1.00  0.00    -0.550 OA
ATOM      9  O   UNL     1      18.590   5.673  20.343  1.00  0.00    -0.550 OA
ENDBRANCH   6   7
ENDBRANCH   5   6
ENDBRANCH   4   5
ENDBRANCH   3   4
ENDBRANCH   2   3
ENDBRANCH   1   2
BRANCH   1  10
ATOM     10  C   UNL     1      12.476   5.229  17.799  1.00  0.00     0.000 C 
BRANCH  10  11
ATOM     11  C   UNL     1      12.788   6.468  18.650  1.00  0.00    -0.000 C 
BRANCH  11  12
ATOM     12  C   UNL     1      12.810   6.119  20.144  1.00  0.00    -0.000 C 
BRANCH  12  13
ATOM     13  C   UNL     1      11.389   6.120  20.729  1.00  0.00    -0.000 C 
BRANCH  13  14
ATOM     14  C   UNL     1      10.505   7.233  20.143  1.00  0.00    -0.000 C 
BRANCH  14  15
ATOM     15  C   UNL     1       9.070   6.763  19.857  1.00  0.00    -0.003 C 
ATOM     16  C   UNL     1       9.039   5.277  19.511  1.00  0.00     0.004 C 
ENDBRANCH  14  15
ENDBRANCH  13  14
ENDBRANCH  12  13
ENDBRANCH  11  12
ENDBRANCH  10  11
ENDBRANCH   1  10
TORSDOF 12
ENDMDL
MODEL 2
REMARK VINA RESULT:    -3.445      1.029      1.560
REMARK INTER + INTRA:          -7.182
REMARK INTER:                  -5.992
REMARK INTRA:                  -1.189
REMARK UNBOUND:                -1.320
REMARK SMILES CCCCCCCCCCCCCC(=O)[O-]
REMARK SMILES IDX 8 1 9 2 10 3 11 4 12 5 13 6 14 7 15 8 16 9 7 10 6 11 5 12
REMARK SMILES IDX 4 13 3 14 2 15 1 16
REMARK H PARENT
REMARK Flexibility Score: inf
ROOT
ATOM      1  C   UNL     1      14.553   3.905  17.299  1.00  0.00     0.000 C 
ENDROOT
BRANCH   1   2
ATOM      2  C   UNL     1      16.069   4.079  17.097  1.00  0.00     0.000 C 
BRANCH   2   3
ATOM      3  C   UNL     1      16.443   5.526  16.712  1.00  0.00     0.000 C 
BRANCH   3   4
ATOM      4  C   UNL     1      17.465   6.175  17.662  1.00  0.00     0.000 C 
BRANCH   4   5
ATOM      5  C   UNL     1      16.807   7.056  18.737  1.00  0.00     0.006 C 
BRANCH   5   6
ATOM      6  C   UNL     1      17.174   6.608  20.159  1.00  0.00     0.053 C 
BRANCH   6   7
ATOM      7  C   UNL     1      18.171   7.530  20.792  1.00  0.00     0.041 C 
ATOM      8  O   UNL     1      19.180   7.911  20.143  1.00  0.00    -0.550 OA
ATOM      9  O   UNL     1      18.000   7.946  22.106  1.00  0.00    -0.550 OA
ENDBRANCH   6   7
ENDBRANCH   5   6
ENDBRANCH   4   5
ENDBRANCH   3   4
ENDBRANCH   2   3
ENDBRANCH   1   2
BRANCH   1  10
ATOM     10  C   UNL     1      14.036   4.624  18.553  1.00  0.00     0.000 C 
BRANCH  10  11
ATOM     11  C   UNL     1      12.926   5.638  18.239  1.00  0.00    -0.000 C 
BRANCH  11  12
ATOM     12  C   UNL     1      13.078   6.904  19.091  1.00  0.00    -0.000 C 
BRANCH  12  13
ATOM     13  C   UNL     1      11.787   7.200  19.870  1.00  0.00    -0.000 C 
BRANCH  13  14
ATOM     14  C   UNL     1      11.034   5.924  20.282  1.00  0.00    -0.000 C 
BRANCH  14  15
ATOM     15  C   UNL     1       9.590   5.893  19.760  1.00  0.00    -0.003 C 
ATOM     16  C   UNL     1       8.935   7.266  19.875  1.00  0.00     0.004 C 
ENDBRANCH  14  15
ENDBRANCH  13  14
ENDBRANCH  12  13
ENDBRANCH  11  12
ENDBRANCH  10  11
ENDBRANCH   1  10
TORSDOF 12
ENDMDL
MODEL 3
REMARK VINA RESULT:    -3.283     22.071     23.189
REMARK INTER + INTRA:          -6.906
REMARK INTER:                  -5.542
REMARK INTRA:                  -1.364
REMARK UNBOUND:                -1.320
REMARK SMILES CCCCCCCCCCCCCC(=O)[O-]
REMARK SMILES IDX 8 1 9 2 10 3 11 4 12 5 13 6 14 7 15 8 16 9 7 10 6 11 5 12
REMARK SMILES IDX 4 13 3 14 2 15 1 16
REMARK H PARENT
REMARK Flexibility Score: inf
ROOT
ATOM      1  C   UNL     1       2.438  17.717   5.191  1.00  0.00     0.000 C 
ENDROOT
BRANCH   1   2
ATOM      2  C   UNL     1       3.684  18.616   5.111  1.00  0.00     0.000 C 
BRANCH   2   3
ATOM      3  C   UNL     1       4.419  18.476   3.762  1.00  0.00     0.000 C 
BRANCH   3   4
ATOM      4  C   UNL     1       4.565  19.803   2.996  1.00  0.00     0.000 C 
BRANCH   4   5
ATOM      5  C   UNL     1       4.265  21.033   3.868  1.00  0.00     0.006 C 
BRANCH   5   6
ATOM      6  C   UNL     1       4.624  22.347   3.160  1.00  0.00     0.053 C 
BRANCH   6   7
ATOM      7  C   UNL     1       5.760  23.052   3.836  1.00  0.00     0.041 C 
ATOM      8  O   UNL     1       5.534  23.843   4.790  1.00  0.00    -0.550 OA
ATOM      9  O   UNL     1       7.062  22.857   3.397  1.00  0.00    -0.550 OA
ENDBRANCH   6   7
ENDBRANCH   5   6
ENDBRANCH   4   5
ENDBRANCH   3   4
ENDBRANCH   2   3
ENDBRANCH   1   2
BRANCH   1  10
ATOM     10  C   UNL     1       1.364  18.276   6.136  1.00  0.00     0.000 C 
BRANCH  10  11
ATOM     11  C   UNL     1       1.208  19.799   6.018  1.00  0.00    -0.000 C 
BRANCH  11  12
ATOM     12  C   UNL     1       0.691  20.404   7.329  1.00  0.00    -0.000 C 
BRANCH  12  13
ATOM     13  C   UNL     1       1.832  21.065   8.118  1.00  0.00    -0.000 C 
BRANCH  13  14
ATOM     14  C   UNL     1       2.947  21.607   7.208  1.00  0.00    -0.000 C 
BRANCH  14  15
ATOM     15  C   UNL     1       2.916  23.137   7.079  1.00  0.00    -0.003 C 
ATOM     16  C   UNL     1       2.049  23.762   8.168  1.00  0.00     0.004 C 
ENDBRANCH  14  15
ENDBRANCH  13  14
ENDBRANCH  12  13
ENDBRANCH  11  12
ENDBRANCH  10  11
ENDBRANCH   1  10
TORSDOF 12
ENDMDL
MODEL 4
REMARK VINA RESULT:    -3.235      3.531      6.595
REMARK INTER + INTRA:          -6.824
REMARK INTER:                  -5.542
REMARK INTRA:                  -1.282
REMARK UNBOUND:                -1.320
REMARK SMILES CCCCCCCCCCCCCC(=O)[O-]
REMARK SMILES IDX 8 1 9 2 10 3 11 4 12 5 13 6 14 7 15 8 16 9 7 10 6 11 5 12
REMARK SMILES IDX 4 13 3 14 2 15 1 16
REMARK H PARENT
REMARK Flexibility Score: inf
ROOT
ATOM      1  C   UNL     1      15.119   4.941  17.669  1.00  0.00     0.000 C 
ENDROOT
BRANCH   1   2
ATOM      2  C   UNL     1      13.688   4.408  17.482  1.00  0.00     0.000 C 
BRANCH   2   3
ATOM      3  C   UNL     1      12.622   5.420  17.954  1.00  0.00     0.000 C 
BRANCH   3   4
ATOM      4  C   UNL     1      12.916   6.028  19.337  1.00  0.00     0.000 C 
BRANCH   4   5
ATOM      5  C   UNL     1      11.860   7.056  19.775  1.00  0.00     0.006 C 
BRANCH   5   6
ATOM      6  C   UNL     1      10.777   6.431  20.664  1.00  0.00     0.053 C 
BRANCH   6   7
ATOM      7  C   UNL     1       9.491   6.235  19.920  1.00  0.00     0.041 C 
ATOM      8  O   UNL     1       9.214   5.111  19.425  1.00  0.00    -0.550 OA
ATOM      9  O   UNL     1       8.613   7.297  19.752  1.00  0.00    -0.550 OA
ENDBRANCH   6   7
ENDBRANCH   5   6
ENDBRANCH   4   5
ENDBRANCH   3   4
ENDBRANCH   2   3
ENDBRANCH   1   2
BRANCH   1  10
ATOM     10  C   UNL     1      16.070   3.890  18.259  1.00  0.00     0.000 C 
BRANCH  10  11
ATOM     11  C   UNL     1      16.842   4.410  19.480  1.00  0.00    -0.000 C 
BRANCH  11  12
ATOM     12  C   UNL     1      16.346   5.801  19.895  1.00  0.00    -0.000 C 
BRANCH  12  13
ATOM     13  C   UNL     1      17.502   6.813  19.919  1.00  0.00    -0.000 C 
BRANCH  13  14
ATOM     14  C   UNL     1      17.623   7.609  18.609  1.00  0.00    -0.000 C 
BRANCH  14  15
ATOM     15  C   UNL     1      18.749   7.092  17.701  1.00  0.00    -0.003 C 
ATOM     16  C   UNL     1      18.194   6.593  16.370  1.00  0.00     0.004 C 
ENDBRANCH  14  15
ENDBRANCH  13  14
ENDBRANCH  12  13
ENDBRANCH  11  12
ENDBRANCH  10  11
ENDBRANCH   1  10
TORSDOF 12
ENDMDL
MODEL 5
REMARK VINA RESULT:    -3.233      3.462      6.159
REMARK INTER + INTRA:          -6.821
REMARK INTER:                  -5.498
REMARK INTRA:                  -1.324
REMARK UNBOUND:                -1.320
REMARK SMILES CCCCCCCCCCCCCC(=O)[O-]
REMARK SMILES IDX 8 1 9 2 10 3 11 4 12 5 13 6 14 7 15 8 16 9 7 10 6 11 5 12
REMARK SMILES IDX 4 13 3 14 2 15 1 16
REMARK H PARENT
REMARK Flexibility Score: inf
ROOT
ATOM      1  C   UNL     1      15.260   4.930  16.851  1.00  0.00     0.000 C 
ENDROOT
BRANCH   1   2
ATOM      2  C   UNL     1      14.289   4.299  17.865  1.00  0.00     0.000 C 
BRANCH   2   3
ATOM      3  C   UNL     1      12.975   5.098  17.988  1.00  0.00     0.000 C 
BRANCH   3   4
ATOM      4  C   UNL     1      13.043   6.247  19.010  1.00  0.00     0.000 C 
BRANCH   4   5
ATOM      5  C   UNL     1      12.100   6.040  20.207  1.00  0.00     0.006 C 
BRANCH   5   6
ATOM      6  C   UNL     1      10.937   7.041  20.208  1.00  0.00     0.053 C 
BRANCH   6   7
ATOM      7  C   UNL     1       9.638   6.386  19.851  1.00  0.00     0.041 C 
ATOM      8  O   UNL     1       8.562   7.037  19.916  1.00  0.00    -0.550 OA
ATOM      9  O   UNL     1       9.612   5.050  19.471  1.00  0.00    -0.550 OA
ENDBRANCH   6   7
ENDBRANCH   5   6
ENDBRANCH   4   5
ENDBRANCH   3   4
ENDBRANCH   2   3
ENDBRANCH   1   2
BRANCH   1  10
ATOM     10  C   UNL     1      16.720   4.890  17.326  1.00  0.00     0.000 C 
BRANCH  10  11
ATOM     11  C   UNL     1      17.315   6.291  17.529  1.00  0.00    -0.000 C 
BRANCH  11  12
ATOM     12  C   UNL     1      16.589   7.040  18.653  1.00  0.00    -0.000 C 
BRANCH  12  13
ATOM     13  C   UNL     1      17.525   7.279  19.848  1.00  0.00    -0.000 C 
BRANCH  13  14
ATOM     14  C   UNL     1      17.912   5.977  20.569  1.00  0.00    -0.000 C 
BRANCH  14  15
ATOM     15  C   UNL     1      16.921   5.597  21.679  1.00  0.00    -0.003 C 
ATOM     16  C   UNL     1      15.924   4.550  21.190  1.00  0.00     0.004 C 
ENDBRANCH  14  15
ENDBRANCH  13  14
ENDBRANCH  12  13
ENDBRANCH  11  12
ENDBRANCH  10  11
ENDBRANCH   1  10
TORSDOF 12
ENDMDL
MODEL 6
REMARK VINA RESULT:    -3.225     21.865     23.391
REMARK INTER + INTRA:          -6.807
REMARK INTER:                  -5.369
REMARK INTRA:                  -1.438
REMARK UNBOUND:                -1.320
REMARK SMILES CCCCCCCCCCCCCC(=O)[O-]
REMARK SMILES IDX 8 1 9 2 10 3 11 4 12 5 13 6 14 7 15 8 16 9 7 10 6 11 5 12
REMARK SMILES IDX 4 13 3 14 2 15 1 16
REMARK H PARENT
REMARK Flexibility Score: inf
ROOT
ATOM      1  C   UNL     1       2.423  17.741   5.267  1.00  0.00     0.000 C 
ENDROOT
BRANCH   1   2
ATOM      2  C   UNL     1       1.119  18.402   5.747  1.00  0.00     0.000 C 
BRANCH   2   3
ATOM      3  C   UNL     1       0.969  19.845   5.222  1.00  0.00     0.000 C 
BRANCH   3   4
ATOM      4  C   UNL     1       0.504  20.848   6.292  1.00  0.00     0.000 C 
BRANCH   4   5
ATOM      5  C   UNL     1       0.829  20.390   7.724  1.00  0.00     0.006 C 
BRANCH   5   6
ATOM      6  C   UNL     1       1.855  21.305   8.407  1.00  0.00     0.053 C 
BRANCH   6   7
ATOM      7  C   UNL     1       1.321  21.885   9.681  1.00  0.00     0.041 C 
ATOM      8  O   UNL     1       0.912  21.126  10.598  1.00  0.00    -0.550 OA
ATOM      9  O   UNL     1       1.251  23.262   9.845  1.00  0.00    -0.550 OA
ENDBRANCH   6   7
ENDBRANCH   5   6
ENDBRANCH   4   5
ENDBRANCH   3   4
ENDBRANCH   2   3
ENDBRANCH   1   2
BRANCH   1  10
ATOM     10  C   UNL     1       3.572  18.748   5.107  1.00  0.00     0.000 C 
BRANCH  10  11
ATOM     11  C   UNL     1       4.550  18.356   3.990  1.00  0.00    -0.000 C 
BRANCH  11  12
ATOM     12  C   UNL     1       4.579  19.420   2.885  1.00  0.00    -0.000 C 
BRANCH  12  13
ATOM     13  C   UNL     1       4.036  20.762   3.400  1.00  0.00    -0.000 C 
BRANCH  13  14
ATOM     14  C   UNL     1       5.070  21.896   3.309  1.00  0.00    -0.000 C 
BRANCH  14  15
ATOM     15  C   UNL     1       4.830  23.002   4.347  1.00  0.00    -0.003 C 
ATOM     16  C   UNL     1       3.685  22.634   5.286  1.00  0.00     0.004 C 
ENDBRANCH  14  15
ENDBRANCH  13  14
ENDBRANCH  12  13
ENDBRANCH  11  12
ENDBRANCH  10  11
ENDBRANCH   1  10
TORSDOF 12
ENDMDL
MODEL 7
REMARK VINA RESULT:    -3.210      2.106      3.047
REMARK INTER + INTRA:          -6.782
REMARK INTER:                  -5.535
REMARK INTRA:                  -1.246
REMARK UNBOUND:                -1.320
REMARK SMILES CCCCCCCCCCCCCC(=O)[O-]
REMARK SMILES IDX 8 1 9 2 10 3 11 4 12 5 13 6 14 7 15 8 16 9 7 10 6 11 5 12
REMARK SMILES IDX 4 13 3 14 2 15 1 16
REMARK H PARENT
REMARK Flexibility Score: inf
ROOT
ATOM      1  C   UNL     1      14.830   4.136  20.202  1.00  0.00     0.000 C 
ENDROOT
BRANCH   1   2
ATOM      2  C   UNL     1      16.020   4.719  20.986  1.00  0.00     0.000 C 
BRANCH   2   3
ATOM      3  C   UNL     1      17.164   5.174  20.056  1.00  0.00     0.000 C 
BRANCH   3   4
ATOM      4  C   UNL     1      17.336   6.702  19.989  1.00  0.00     0.000 C 
BRANCH   4   5
ATOM      5  C   UNL     1      16.989   7.283  18.609  1.00  0.00     0.006 C 
BRANCH   5   6
ATOM      6  C   UNL     1      16.987   6.211  17.511  1.00  0.00     0.053 C 
BRANCH   6   7
ATOM      7  C   UNL     1      18.104   6.413  16.533  1.00  0.00     0.041 C 
ATOM      8  O   UNL     1      18.892   7.385  16.667  1.00  0.00    -0.550 OA
ATOM      9  O   UNL     1      18.259   5.543  15.462  1.00  0.00    -0.550 OA
ENDBRANCH   6   7
ENDBRANCH   5   6
ENDBRANCH   4   5
ENDBRANCH   3   4
ENDBRANCH   2   3
ENDBRANCH   1   2
BRANCH   1  10
ATOM     10  C   UNL     1      13.618   5.080  20.178  1.00  0.00     0.000 C 
BRANCH  10  11
ATOM     11  C   UNL     1      13.540   5.908  18.887  1.00  0.00    -0.000 C 
BRANCH  11  12
ATOM     12  C   UNL     1      12.510   5.318  17.916  1.00  0.00    -0.000 C 
BRANCH  12  13
ATOM     13  C   UNL     1      11.407   4.565  18.675  1.00  0.00    -0.000 C 
BRANCH  13  14
ATOM     14  C   UNL     1      10.093   5.360  18.757  1.00  0.00    -0.000 C 
BRANCH  14  15
ATOM     15  C   UNL     1      10.062   6.332  19.946  1.00  0.00    -0.003 C 
ATOM     16  C   UNL     1       8.777   7.156  19.948  1.00  0.00     0.004 C 
ENDBRANCH  14  15
ENDBRANCH  13  14
ENDBRANCH  12  13
ENDBRANCH  11  12
ENDBRANCH  10  11
ENDBRANCH   1  10
TORSDOF 12
ENDMDL
MODEL 8
REMARK VINA RESULT:    -3.139      3.495      6.776
REMARK INTER + INTRA:          -6.661
REMARK INTER:                  -5.393
REMARK INTRA:                  -1.268
REMARK UNBOUND:                -1.320
REMARK SMILES CCCCCCCCCCCCCC(=O)[O-]
REMARK SMILES IDX 8 1 9 2 10 3 11 4 12 5 13 6 14 7 15 8 16 9 7 10 6 11 5 12
REMARK SMILES IDX 4 13 3 14 2 15 1 16
REMARK H PARENT
REMARK Flexibility Score: inf
ROOT
ATOM      1  C   UNL     1      14.509   5.037  17.738  1.00  0.00     0.000 C 
ENDROOT
BRANCH   1   2
ATOM      2  C   UNL     1      13.380   5.671  18.571  1.00  0.00     0.000 C 
BRANCH   2   3
ATOM      3  C   UNL     1      13.301   5.077  19.993  1.00  0.00     0.000 C 
BRANCH   3   4
ATOM      4  C   UNL     1      12.286   5.789  20.904  1.00  0.00     0.000 C 
BRANCH   4   5
ATOM      5  C   UNL     1      11.488   6.881  20.174  1.00  0.00     0.006 C 
BRANCH   5   6
ATOM      6  C   UNL     1       9.979   6.599  20.178  1.00  0.00     0.053 C 
BRANCH   6   7
ATOM      7  C   UNL     1       9.627   5.442  19.294  1.00  0.00     0.041 C 
ATOM      8  O   UNL     1      10.082   5.382  18.121  1.00  0.00    -0.550 OA
ATOM      9  O   UNL     1       8.778   4.445  19.755  1.00  0.00    -0.550 OA
ENDBRANCH   6   7
ENDBRANCH   5   6
ENDBRANCH   4   5
ENDBRANCH   3   4
ENDBRANCH   2   3
ENDBRANCH   1   2
BRANCH   1  10
ATOM     10  C   UNL     1      15.457   4.175  18.585  1.00  0.00     0.000 C 
BRANCH  10  11
ATOM     11  C   UNL     1      16.857   4.052  17.966  1.00  0.00    -0.000 C 
BRANCH  11  12
ATOM     12  C   UNL     1      16.878   4.609  16.537  1.00  0.00    -0.000 C 
BRANCH  12  13
ATOM     13  C   UNL     1      17.760   5.865  16.450  1.00  0.00    -0.000 C 
BRANCH  13  14
ATOM     14  C   UNL     1      18.543   6.132  17.747  1.00  0.00    -0.000 C 
BRANCH  14  15
ATOM     15  C   UNL     1      18.271   7.529  18.326  1.00  0.00    -0.003 C 
ATOM     16  C   UNL     1      16.895   7.592  18.983  1.00  0.00     0.004 C 
ENDBRANCH  14  15
ENDBRANCH  13  14
ENDBRANCH  12  13
ENDBRANCH  11  12
ENDBRANCH  10  11
ENDBRANCH   1  10
TORSDOF 12
ENDMDL
MODEL 9
REMARK VINA RESULT:    -3.128      2.503      2.935
REMARK INTER + INTRA:          -6.642
REMARK INTER:                  -5.959
REMARK INTRA:                  -0.682
REMARK UNBOUND:                -1.320
REMARK SMILES CCCCCCCCCCCCCC(=O)[O-]
REMARK SMILES IDX 8 1 9 2 10 3 11 4 12 5 13 6 14 7 15 8 16 9 7 10 6 11 5 12
REMARK SMILES IDX 4 13 3 14 2 15 1 16
REMARK H PARENT
REMARK Flexibility Score: inf
ROOT
ATOM      1  C   UNL     1      13.443   4.760  17.939  1.00  0.00     0.000 C 
ENDROOT
BRANCH   1   2
ATOM      2  C   UNL     1      14.733   4.627  17.110  1.00  0.00     0.000 C 
BRANCH   2   3
ATOM      3  C   UNL     1      15.917   5.381  17.750  1.00  0.00     0.000 C 
BRANCH   3   4
ATOM      4  C   UNL     1      17.051   5.705  16.761  1.00  0.00     0.000 C 
BRANCH   4   5
ATOM      5  C   UNL     1      18.351   6.138  17.461  1.00  0.00     0.006 C 
BRANCH   5   6
ATOM      6  C   UNL     1      18.942   7.414  16.847  1.00  0.00     0.053 C 
BRANCH   6   7
ATOM      7  C   UNL     1      19.341   7.211  15.417  1.00  0.00     0.041 C 
ATOM      8  O   UNL     1      18.969   8.028  14.535  1.00  0.00    -0.550 OA
ATOM      9  O   UNL     1      20.102   6.107  15.056  1.00  0.00    -0.550 OA
ENDBRANCH   6   7
ENDBRANCH   5   6
ENDBRANCH   4   5
ENDBRANCH   3   4
ENDBRANCH   2   3
ENDBRANCH   1   2
BRANCH   1  10
ATOM     10  C   UNL     1      13.647   5.577  19.224  1.00  0.00     0.000 C 
BRANCH  10  11
ATOM     11  C   UNL     1      12.651   6.740  19.350  1.00  0.00    -0.000 C 
BRANCH  11  12
ATOM     12  C   UNL     1      11.616   6.462  20.447  1.00  0.00    -0.000 C 
BRANCH  12  13
ATOM     13  C   UNL     1      10.271   7.126  20.113  1.00  0.00    -0.000 C 
BRANCH  13  14
ATOM     14  C   UNL     1       9.148   6.104  19.869  1.00  0.00    -0.000 C 
BRANCH  14  15
ATOM     15  C   UNL     1       9.677   4.748  19.377  1.00  0.00    -0.003 C 
ATOM     16  C   UNL     1       8.542   3.877  18.845  1.00  0.00     0.004 C 
ENDBRANCH  14  15
ENDBRANCH  13  14
ENDBRANCH  12  13
ENDBRANCH  11  12
ENDBRANCH  10  11
ENDBRANCH   1  10
TORSDOF 12
ENDMDL
