MODEL 1
REMARK VINA RESULT:    -4.342      0.000      0.000
REMARK INTER + INTRA:         -16.737
REMARK INTER:                 -11.449
REMARK INTRA:                  -5.288
REMARK UNBOUND:                -5.288
REMARK SMILES CCCCCCCCCCCCCCCCCCCCCCCCCCCCCC(=O)[O-]
REMARK SMILES IDX 16 1 17 2 18 3 19 4 20 5 21 6 22 7 23 8 24 9 25 10 26 11
REMARK SMILES IDX 27 12 28 13 29 14 30 15 31 16 32 17 15 18 14 19 13 20 12 21
REMARK SMILES IDX 11 22 10 23 9 24 8 25 7 26 6 27 5 28 4 29 3 30 2 31 1 32
REMARK H PARENT
REMARK Flexibility Score: inf
ROOT
ATOM      1  C   UNL     1     -12.913   4.194  18.993  1.00  0.00     0.000 C 
ENDROOT
BRANCH   1   2
ATOM      2  C   UNL     1     -12.146   5.492  18.664  1.00  0.00     0.000 C 
BRANCH   2   3
ATOM      3  C   UNL     1     -11.476   6.165  19.879  1.00  0.00     0.000 C 
BRANCH   3   4
ATOM      4  C   UNL     1      -9.952   6.363  19.780  1.00  0.00     0.000 C 
BRANCH   4   5
ATOM      5  C   UNL     1      -9.149   5.915  21.016  1.00  0.00     0.000 C 
BRANCH   5   6
ATOM      6  C   UNL     1      -8.302   4.658  20.757  1.00  0.00     0.000 C 
BRANCH   6   7
ATOM      7  C   UNL     1      -7.530   4.729  19.428  1.00  0.00     0.000 C 
BRANCH   7   8
ATOM      8  C   UNL     1      -7.697   3.503  18.509  1.00  0.00     0.000 C 
BRANCH   8   9
ATOM      9  C   UNL     1      -8.807   2.530  18.959  1.00  0.00     0.000 C 
BRANCH   9  10
ATOM     10  C   UNL     1      -9.993   2.497  17.979  1.00  0.00     0.000 C 
BRANCH  10  11
ATOM     11  C   UNL     1      -9.770   3.380  16.738  1.00  0.00     0.000 C 
BRANCH  11  12
ATOM     12  C   UNL     1     -10.034   2.690  15.387  1.00  0.00     0.000 C 
BRANCH  12  13
ATOM     13  C   UNL     1      -9.926   1.157  15.464  1.00  0.00     0.006 C 
BRANCH  13  14
ATOM     14  C   UNL     1     -10.452   0.473  14.195  1.00  0.00     0.053 C 
BRANCH  14  15
ATOM     15  C   UNL     1     -11.947   0.362  14.200  1.00  0.00     0.041 C 
ATOM     16  O   UNL     1     -12.574   0.193  13.120  1.00  0.00    -0.550 OA
ATOM     17  O   UNL     1     -12.649   0.472  15.394  1.00  0.00    -0.550 OA
ENDBRANCH  14  15
ENDBRANCH  13  14
ENDBRANCH  12  13
ENDBRANCH  11  12
ENDBRANCH  10  11
ENDBRANCH   9  10
ENDBRANCH   8   9
ENDBRANCH   7   8
ENDBRANCH   6   7
ENDBRANCH   5   6
ENDBRANCH   4   5
ENDBRANCH   3   4
ENDBRANCH   2   3
ENDBRANCH   1   2
BRANCH   1  18
ATOM     18  C   UNL     1     -13.841   4.340  20.211  1.00  0.00     0.000 C 
BRANCH  18  19
ATOM     19  C   UNL     1     -13.617   3.213  21.231  1.00  0.00     0.000 C 
BRANCH  19  20
ATOM     20  C   UNL     1     -12.241   3.296  21.919  1.00  0.00     0.000 C 
BRANCH  20  21
ATOM     21  C   UNL     1     -11.225   2.225  21.481  1.00  0.00     0.000 C 
BRANCH  21  22
ATOM     22  C   UNL     1     -11.847   0.965  20.852  1.00  0.00     0.000 C 
BRANCH  22  23
ATOM     23  C   UNL     1     -10.952  -0.289  20.966  1.00  0.00     0.000 C 
BRANCH  23  24
ATOM     24  C   UNL     1      -9.493   0.056  21.309  1.00  0.00    -0.000 C 
BRANCH  24  25
ATOM     25  C   UNL     1      -8.845  -0.996  22.237  1.00  0.00    -0.000 C 
BRANCH  25  26
ATOM     26  C   UNL     1      -8.281  -0.408  23.544  1.00  0.00    -0.000 C 
BRANCH  26  27
ATOM     27  C   UNL     1      -8.905   0.934  23.971  1.00  0.00    -0.000 C 
BRANCH  27  28
ATOM     28  C   UNL     1      -9.668   0.904  25.310  1.00  0.00    -0.000 C 
BRANCH  28  29
ATOM     29  C   UNL     1     -10.481  -0.377  25.572  1.00  0.00    -0.000 C 
BRANCH  29  30
ATOM     30  C   UNL     1     -11.992  -0.120  25.664  1.00  0.00    -0.000 C 
BRANCH  30  31
ATOM     31  C   UNL     1     -12.583   0.182  24.282  1.00  0.00    -0.003 C 
ATOM     32  C   UNL     1     -13.867   0.998  24.397  1.00  0.00     0.004 C 
ENDBRANCH  30  31
ENDBRANCH  29  30
ENDBRANCH  28  29
ENDBRANCH  27  28
ENDBRANCH  26  27
ENDBRANCH  25  26
ENDBRANCH  24  25
ENDBRANCH  23  24
ENDBRANCH  22  23
ENDBRANCH  21  22
ENDBRANCH  20  21
ENDBRANCH  19  20
ENDBRANCH  18  19
ENDBRANCH   1  18
TORSDOF 28
ENDMDL
MODEL 2
REMARK VINA RESULT:    -4.263      1.542      5.413
REMARK INTER + INTRA:         -16.529
REMARK INTER:                 -11.475
REMARK INTRA:                  -5.054
REMARK UNBOUND:                -5.288
REMARK SMILES CCCCCCCCCCCCCCCCCCCCCCCCCCCCCC(=O)[O-]
REMARK SMILES IDX 16 1 17 2 18 3 19 4 20 5 21 6 22 7 23 8 24 9 25 10 26 11
REMARK SMILES IDX 27 12 28 13 29 14 30 15 31 16 32 17 15 18 14 19 13 20 12 21
REMARK SMILES IDX 11 22 10 23 9 24 8 25 7 26 6 27 5 28 4 29 3 30 2 31 1 32
REMARK H PARENT
REMARK Flexibility Score: inf
ROOT
ATOM      1  C   UNL     1      -9.831   0.947  20.009  1.00  0.00     0.000 C 
ENDROOT
BRANCH   1   2
ATOM      2  C   UNL     1     -10.873   2.086  20.036  1.00  0.00     0.000 C 
BRANCH   2   3
ATOM      3  C   UNL     1     -12.120   1.791  20.893  1.00  0.00     0.000 C 
BRANCH   3   4
ATOM      4  C   UNL     1     -12.923   3.022  21.355  1.00  0.00     0.000 C 
BRANCH   4   5
ATOM      5  C   UNL     1     -13.676   3.771  20.239  1.00  0.00     0.000 C 
BRANCH   5   6
ATOM      6  C   UNL     1     -13.484   5.295  20.304  1.00  0.00     0.000 C 
BRANCH   6   7
ATOM      7  C   UNL     1     -12.014   5.697  20.513  1.00  0.00     0.000 C 
BRANCH   7   8
ATOM      8  C   UNL     1     -11.141   5.666  19.243  1.00  0.00     0.000 C 
BRANCH   8   9
ATOM      9  C   UNL     1     -11.712   6.491  18.071  1.00  0.00     0.000 C 
BRANCH   9  10
ATOM     10  C   UNL     1     -11.631   5.741  16.730  1.00  0.00     0.000 C 
BRANCH  10  11
ATOM     11  C   UNL     1     -11.940   4.238  16.863  1.00  0.00     0.000 C 
BRANCH  11  12
ATOM     12  C   UNL     1     -10.999   3.305  16.080  1.00  0.00     0.000 C 
BRANCH  12  13
ATOM     13  C   UNL     1     -11.239   1.816  16.384  1.00  0.00     0.006 C 
BRANCH  13  14
ATOM     14  C   UNL     1     -12.421   1.243  15.591  1.00  0.00     0.053 C 
BRANCH  14  15
ATOM     15  C   UNL     1     -11.965   0.351  14.477  1.00  0.00     0.041 C 
ATOM     16  O   UNL     1     -12.744  -0.516  13.999  1.00  0.00    -0.550 OA
ATOM     17  O   UNL     1     -10.670   0.459  13.984  1.00  0.00    -0.550 OA
ENDBRANCH  14  15
ENDBRANCH  13  14
ENDBRANCH  12  13
ENDBRANCH  11  12
ENDBRANCH  10  11
ENDBRANCH   9  10
ENDBRANCH   8   9
ENDBRANCH   7   8
ENDBRANCH   6   7
ENDBRANCH   5   6
ENDBRANCH   4   5
ENDBRANCH   3   4
ENDBRANCH   2   3
ENDBRANCH   1   2
BRANCH   1  18
ATOM     18  C   UNL     1     -10.063  -0.102  21.110  1.00  0.00     0.000 C 
BRANCH  18  19
ATOM     19  C   UNL     1      -8.739  -0.707  21.601  1.00  0.00     0.000 C 
BRANCH  19  20
ATOM     20  C   UNL     1      -8.712  -0.925  23.126  1.00  0.00     0.000 C 
BRANCH  20  21
ATOM     21  C   UNL     1      -8.646   0.362  23.970  1.00  0.00     0.000 C 
BRANCH  21  22
ATOM     22  C   UNL     1      -9.985   0.794  24.594  1.00  0.00     0.000 C 
BRANCH  22  23
ATOM     23  C   UNL     1     -10.461   2.190  24.136  1.00  0.00     0.000 C 
BRANCH  23  24
ATOM     24  C   UNL     1      -9.428   2.902  23.246  1.00  0.00    -0.000 C 
BRANCH  24  25
ATOM     25  C   UNL     1      -9.680   4.424  23.159  1.00  0.00    -0.000 C 
BRANCH  25  26
ATOM     26  C   UNL     1      -8.394   5.258  23.009  1.00  0.00    -0.000 C 
BRANCH  26  27
ATOM     27  C   UNL     1      -8.311   6.092  21.717  1.00  0.00    -0.000 C 
BRANCH  27  28
ATOM     28  C   UNL     1      -7.328   5.558  20.656  1.00  0.00    -0.000 C 
BRANCH  28  29
ATOM     29  C   UNL     1      -7.855   4.387  19.806  1.00  0.00    -0.000 C 
BRANCH  29  30
ATOM     30  C   UNL     1      -6.844   3.907  18.755  1.00  0.00    -0.000 C 
BRANCH  30  31
ATOM     31  C   UNL     1      -5.572   4.762  18.786  1.00  0.00    -0.003 C 
ATOM     32  C   UNL     1      -4.365   3.975  18.284  1.00  0.00     0.004 C 
ENDBRANCH  30  31
ENDBRANCH  29  30
ENDBRANCH  28  29
ENDBRANCH  27  28
ENDBRANCH  26  27
ENDBRANCH  25  26
ENDBRANCH  24  25
ENDBRANCH  23  24
ENDBRANCH  22  23
ENDBRANCH  21  22
ENDBRANCH  20  21
ENDBRANCH  19  20
ENDBRANCH  18  19
ENDBRANCH   1  18
TORSDOF 28
ENDMDL
MODEL 3
REMARK VINA RESULT:    -4.234      1.626      5.789
REMARK INTER + INTRA:         -16.454
REMARK INTER:                 -10.694
REMARK INTRA:                  -5.759
REMARK UNBOUND:                -5.288
REMARK SMILES CCCCCCCCCCCCCCCCCCCCCCCCCCCCCC(=O)[O-]
REMARK SMILES IDX 16 1 17 2 18 3 19 4 20 5 21 6 22 7 23 8 24 9 25 10 26 11
REMARK SMILES IDX 27 12 28 13 29 14 30 15 31 16 32 17 15 18 14 19 13 20 12 21
REMARK SMILES IDX 11 22 10 23 9 24 8 25 7 26 6 27 5 28 4 29 3 30 2 31 1 32
REMARK H PARENT
REMARK Flexibility Score: inf
ROOT
ATOM      1  C   UNL     1      -8.783   0.237  23.595  1.00  0.00     0.000 C 
ENDROOT
BRANCH   1   2
ATOM      2  C   UNL     1      -8.442  -0.880  22.586  1.00  0.00     0.000 C 
BRANCH   2   3
ATOM      3  C   UNL     1      -9.352  -0.918  21.342  1.00  0.00     0.000 C 
BRANCH   3   4
ATOM      4  C   UNL     1      -9.958   0.431  20.912  1.00  0.00     0.000 C 
BRANCH   4   5
ATOM      5  C   UNL     1     -11.457   0.605  21.220  1.00  0.00     0.000 C 
BRANCH   5   6
ATOM      6  C   UNL     1     -11.793   1.986  21.804  1.00  0.00     0.000 C 
BRANCH   6   7
ATOM      7  C   UNL     1     -13.276   2.356  21.633  1.00  0.00     0.000 C 
BRANCH   7   8
ATOM      8  C   UNL     1     -13.555   3.492  20.628  1.00  0.00     0.000 C 
BRANCH   8   9
ATOM      9  C   UNL     1     -12.299   3.988  19.881  1.00  0.00     0.000 C 
BRANCH   9  10
ATOM     10  C   UNL     1     -12.350   3.679  18.375  1.00  0.00     0.000 C 
BRANCH  10  11
ATOM     11  C   UNL     1     -11.742   2.309  18.023  1.00  0.00     0.000 C 
BRANCH  11  12
ATOM     12  C   UNL     1     -10.301   2.352  17.483  1.00  0.00     0.000 C 
BRANCH  12  13
ATOM     13  C   UNL     1     -10.230   2.694  15.984  1.00  0.00     0.006 C 
BRANCH  13  14
ATOM     14  C   UNL     1      -9.387   1.683  15.196  1.00  0.00     0.053 C 
BRANCH  14  15
ATOM     15  C   UNL     1     -10.236   0.628  14.556  1.00  0.00     0.041 C 
ATOM     16  O   UNL     1     -11.490   0.660  14.681  1.00  0.00    -0.550 OA
ATOM     17  O   UNL     1      -9.642  -0.406  13.843  1.00  0.00    -0.550 OA
ENDBRANCH  14  15
ENDBRANCH  13  14
ENDBRANCH  12  13
ENDBRANCH  11  12
ENDBRANCH  10  11
ENDBRANCH   9  10
ENDBRANCH   8   9
ENDBRANCH   7   8
ENDBRANCH   6   7
ENDBRANCH   5   6
ENDBRANCH   4   5
ENDBRANCH   3   4
ENDBRANCH   2   3
ENDBRANCH   1   2
BRANCH   1  18
ATOM     18  C   UNL     1      -9.446  -0.298  24.876  1.00  0.00     0.000 C 
BRANCH  18  19
ATOM     19  C   UNL     1     -10.974  -0.132  24.832  1.00  0.00     0.000 C 
BRANCH  19  20
ATOM     20  C   UNL     1     -11.435   1.269  25.279  1.00  0.00     0.000 C 
BRANCH  20  21
ATOM     21  C   UNL     1     -12.959   1.443  25.410  1.00  0.00     0.000 C 
BRANCH  21  22
ATOM     22  C   UNL     1     -13.454   2.897  25.298  1.00  0.00     0.000 C 
BRANCH  22  23
ATOM     23  C   UNL     1     -12.313   3.936  25.238  1.00  0.00     0.000 C 
BRANCH  23  24
ATOM     24  C   UNL     1     -12.497   4.949  24.096  1.00  0.00    -0.000 C 
BRANCH  24  25
ATOM     25  C   UNL     1     -11.172   5.248  23.359  1.00  0.00    -0.000 C 
BRANCH  25  26
ATOM     26  C   UNL     1      -9.949   4.538  23.968  1.00  0.00    -0.000 C 
BRANCH  26  27
ATOM     27  C   UNL     1      -8.997   3.895  22.942  1.00  0.00    -0.000 C 
BRANCH  27  28
ATOM     28  C   UNL     1      -8.748   4.729  21.669  1.00  0.00    -0.000 C 
BRANCH  28  29
ATOM     29  C   UNL     1      -8.782   3.935  20.350  1.00  0.00    -0.000 C 
BRANCH  29  30
ATOM     30  C   UNL     1      -8.085   4.666  19.193  1.00  0.00    -0.000 C 
BRANCH  30  31
ATOM     31  C   UNL     1      -6.763   3.980  18.828  1.00  0.00    -0.003 C 
ATOM     32  C   UNL     1      -5.570   4.744  19.393  1.00  0.00     0.004 C 
ENDBRANCH  30  31
ENDBRANCH  29  30
ENDBRANCH  28  29
ENDBRANCH  27  28
ENDBRANCH  26  27
ENDBRANCH  25  26
ENDBRANCH  24  25
ENDBRANCH  23  24
ENDBRANCH  22  23
ENDBRANCH  21  22
ENDBRANCH  20  21
ENDBRANCH  19  20
ENDBRANCH  18  19
ENDBRANCH   1  18
TORSDOF 28
ENDMDL
MODEL 4
REMARK VINA RESULT:    -4.227      2.794      7.198
REMARK INTER + INTRA:         -16.434
REMARK INTER:                 -11.373
REMARK INTRA:                  -5.061
REMARK UNBOUND:                -5.288
REMARK SMILES CCCCCCCCCCCCCCCCCCCCCCCCCCCCCC(=O)[O-]
REMARK SMILES IDX 16 1 17 2 18 3 19 4 20 5 21 6 22 7 23 8 24 9 25 10 26 11
REMARK SMILES IDX 27 12 28 13 29 14 30 15 31 16 32 17 15 18 14 19 13 20 12 21
REMARK SMILES IDX 11 22 10 23 9 24 8 25 7 26 6 27 5 28 4 29 3 30 2 31 1 32
REMARK H PARENT
REMARK Flexibility Score: inf
ROOT
ATOM      1  C   UNL     1     -12.402   1.478  24.311  1.00  0.00     0.000 C 
ENDROOT
BRANCH   1   2
ATOM      2  C   UNL     1     -11.824   0.115  24.745  1.00  0.00     0.000 C 
BRANCH   2   3
ATOM      3  C   UNL     1     -10.441   0.191  25.421  1.00  0.00     0.000 C 
BRANCH   3   4
ATOM      4  C   UNL     1      -9.282  -0.475  24.655  1.00  0.00     0.000 C 
BRANCH   4   5
ATOM      5  C   UNL     1      -8.979   0.126  23.270  1.00  0.00     0.000 C 
BRANCH   5   6
ATOM      6  C   UNL     1      -8.737  -0.943  22.192  1.00  0.00     0.000 C 
BRANCH   6   7
ATOM      7  C   UNL     1      -9.727  -0.835  21.020  1.00  0.00     0.000 C 
BRANCH   7   8
ATOM      8  C   UNL     1     -10.838   0.219  21.198  1.00  0.00     0.000 C 
BRANCH   8   9
ATOM      9  C   UNL     1     -10.842   1.313  20.110  1.00  0.00     0.000 C 
BRANCH   9  10
ATOM     10  C   UNL     1      -9.462   1.497  19.456  1.00  0.00     0.000 C 
BRANCH  10  11
ATOM     11  C   UNL     1      -9.130   2.972  19.160  1.00  0.00     0.000 C 
BRANCH  11  12
ATOM     12  C   UNL     1      -8.588   3.774  20.357  1.00  0.00     0.000 C 
BRANCH  12  13
ATOM     13  C   UNL     1      -7.545   4.830  19.951  1.00  0.00     0.006 C 
BRANCH  13  14
ATOM     14  C   UNL     1      -6.729   4.399  18.725  1.00  0.00     0.053 C 
BRANCH  14  15
ATOM     15  C   UNL     1      -5.257   4.410  19.004  1.00  0.00     0.041 C 
ATOM     16  O   UNL     1      -4.471   3.730  18.291  1.00  0.00    -0.550 OA
ATOM     17  O   UNL     1      -4.755   5.151  20.066  1.00  0.00    -0.550 OA
ENDBRANCH  14  15
ENDBRANCH  13  14
ENDBRANCH  12  13
ENDBRANCH  11  12
ENDBRANCH  10  11
ENDBRANCH   9  10
ENDBRANCH   8   9
ENDBRANCH   7   8
ENDBRANCH   6   7
ENDBRANCH   5   6
ENDBRANCH   4   5
ENDBRANCH   3   4
ENDBRANCH   2   3
ENDBRANCH   1   2
BRANCH   1  18
ATOM     18  C   UNL     1     -11.418   2.640  24.527  1.00  0.00     0.000 C 
BRANCH  18  19
ATOM     19  C   UNL     1     -11.044   3.318  23.199  1.00  0.00     0.000 C 
BRANCH  19  20
ATOM     20  C   UNL     1     -11.522   4.781  23.121  1.00  0.00     0.000 C 
BRANCH  20  21
ATOM     21  C   UNL     1     -12.776   5.013  22.258  1.00  0.00     0.000 C 
BRANCH  21  22
ATOM     22  C   UNL     1     -13.337   3.749  21.581  1.00  0.00     0.000 C 
BRANCH  22  23
ATOM     23  C   UNL     1     -13.615   3.926  20.072  1.00  0.00     0.000 C 
BRANCH  23  24
ATOM     24  C   UNL     1     -13.015   5.225  19.510  1.00  0.00    -0.000 C 
BRANCH  24  25
ATOM     25  C   UNL     1     -11.687   4.981  18.760  1.00  0.00    -0.000 C 
BRANCH  25  26
ATOM     26  C   UNL     1     -11.743   5.342  17.264  1.00  0.00    -0.000 C 
BRANCH  26  27
ATOM     27  C   UNL     1     -12.135   4.180  16.332  1.00  0.00    -0.000 C 
BRANCH  27  28
ATOM     28  C   UNL     1     -12.147   2.787  16.993  1.00  0.00    -0.000 C 
BRANCH  28  29
ATOM     29  C   UNL     1     -11.495   1.664  16.166  1.00  0.00    -0.000 C 
BRANCH  29  30
ATOM     30  C   UNL     1     -10.030   1.955  15.809  1.00  0.00    -0.000 C 
BRANCH  30  31
ATOM     31  C   UNL     1      -9.570   1.090  14.630  1.00  0.00    -0.003 C 
ATOM     32  C   UNL     1     -10.742   0.337  14.007  1.00  0.00     0.004 C 
ENDBRANCH  30  31
ENDBRANCH  29  30
ENDBRANCH  28  29
ENDBRANCH  27  28
ENDBRANCH  26  27
ENDBRANCH  25  26
ENDBRANCH  24  25
ENDBRANCH  23  24
ENDBRANCH  22  23
ENDBRANCH  21  22
ENDBRANCH  20  21
ENDBRANCH  19  20
ENDBRANCH  18  19
ENDBRANCH   1  18
TORSDOF 28
ENDMDL
MODEL 5
REMARK VINA RESULT:    -4.194      2.767      7.701
REMARK INTER + INTRA:         -16.347
REMARK INTER:                 -11.061
REMARK INTRA:                  -5.285
REMARK UNBOUND:                -5.288
REMARK SMILES CCCCCCCCCCCCCCCCCCCCCCCCCCCCCC(=O)[O-]
REMARK SMILES IDX 16 1 17 2 18 3 19 4 20 5 21 6 22 7 23 8 24 9 25 10 26 11
REMARK SMILES IDX 27 12 28 13 29 14 30 15 31 16 32 17 15 18 14 19 13 20 12 21
REMARK SMILES IDX 11 22 10 23 9 24 8 25 7 26 6 27 5 28 4 29 3 30 2 31 1 32
REMARK H PARENT
REMARK Flexibility Score: inf
ROOT
ATOM      1  C   UNL     1     -10.775   2.408  15.652  1.00  0.00     0.000 C 
ENDROOT
BRANCH   1   2
ATOM      2  C   UNL     1      -9.601   2.655  16.623  1.00  0.00     0.000 C 
BRANCH   2   3
ATOM      3  C   UNL     1      -9.635   1.794  17.902  1.00  0.00     0.000 C 
BRANCH   3   4
ATOM      4  C   UNL     1      -9.139   2.482  19.188  1.00  0.00     0.000 C 
BRANCH   4   5
ATOM      5  C   UNL     1     -10.047   2.304  20.419  1.00  0.00     0.000 C 
BRANCH   5   6
ATOM      6  C   UNL     1     -11.062   1.161  20.256  1.00  0.00     0.000 C 
BRANCH   6   7
ATOM      7  C   UNL     1     -10.851   0.032  21.279  1.00  0.00     0.000 C 
BRANCH   7   8
ATOM      8  C   UNL     1      -9.453  -0.617  21.256  1.00  0.00     0.000 C 
BRANCH   8   9
ATOM      9  C   UNL     1      -8.800  -0.746  22.649  1.00  0.00     0.000 C 
BRANCH   9  10
ATOM     10  C   UNL     1      -9.083   0.472  23.545  1.00  0.00     0.000 C 
BRANCH  10  11
ATOM     11  C   UNL     1      -9.764   0.095  24.874  1.00  0.00     0.000 C 
BRANCH  11  12
ATOM     12  C   UNL     1     -11.294  -0.065  24.803  1.00  0.00     0.000 C 
BRANCH  12  13
ATOM     13  C   UNL     1     -12.048   1.247  25.080  1.00  0.00     0.006 C 
BRANCH  13  14
ATOM     14  C   UNL     1     -12.833   1.736  23.856  1.00  0.00     0.053 C 
BRANCH  14  15
ATOM     15  C   UNL     1     -12.262   3.004  23.297  1.00  0.00     0.041 C 
ATOM     16  O   UNL     1     -11.106   3.379  23.629  1.00  0.00    -0.550 OA
ATOM     17  O   UNL     1     -13.017   3.785  22.431  1.00  0.00    -0.550 OA
ENDBRANCH  14  15
ENDBRANCH  13  14
ENDBRANCH  12  13
ENDBRANCH  11  12
ENDBRANCH  10  11
ENDBRANCH   9  10
ENDBRANCH   8   9
ENDBRANCH   7   8
ENDBRANCH   6   7
ENDBRANCH   5   6
ENDBRANCH   4   5
ENDBRANCH   3   4
ENDBRANCH   2   3
ENDBRANCH   1   2
BRANCH   1  18
ATOM     18  C   UNL     1     -12.109   2.164  16.378  1.00  0.00     0.000 C 
BRANCH  18  19
ATOM     19  C   UNL     1     -12.807   3.486  16.736  1.00  0.00     0.000 C 
BRANCH  19  20
ATOM     20  C   UNL     1     -13.041   3.647  18.251  1.00  0.00     0.000 C 
BRANCH  20  21
ATOM     21  C   UNL     1     -12.288   4.819  18.907  1.00  0.00     0.000 C 
BRANCH  21  22
ATOM     22  C   UNL     1     -11.321   5.570  17.973  1.00  0.00     0.000 C 
BRANCH  22  23
ATOM     23  C   UNL     1     -10.298   6.452  18.721  1.00  0.00     0.000 C 
BRANCH  23  24
ATOM     24  C   UNL     1     -10.310   6.212  20.240  1.00  0.00    -0.000 C 
BRANCH  24  25
ATOM     25  C   UNL     1      -8.903   5.897  20.795  1.00  0.00    -0.000 C 
BRANCH  25  26
ATOM     26  C   UNL     1      -7.795   5.917  19.725  1.00  0.00    -0.000 C 
BRANCH  26  27
ATOM     27  C   UNL     1      -6.580   5.023  20.035  1.00  0.00    -0.000 C 
BRANCH  27  28
ATOM     28  C   UNL     1      -5.938   4.342  18.810  1.00  0.00    -0.000 C 
BRANCH  28  29
ATOM     29  C   UNL     1      -4.402   4.422  18.747  1.00  0.00    -0.000 C 
BRANCH  29  30
ATOM     30  C   UNL     1      -3.896   5.625  17.938  1.00  0.00    -0.000 C 
BRANCH  30  31
ATOM     31  C   UNL     1      -4.957   6.100  16.939  1.00  0.00    -0.003 C 
ATOM     32  C   UNL     1      -4.315   6.608  15.651  1.00  0.00     0.004 C 
ENDBRANCH  30  31
ENDBRANCH  29  30
ENDBRANCH  28  29
ENDBRANCH  27  28
ENDBRANCH  26  27
ENDBRANCH  25  26
ENDBRANCH  24  25
ENDBRANCH  23  24
ENDBRANCH  22  23
ENDBRANCH  21  22
ENDBRANCH  20  21
ENDBRANCH  19  20
ENDBRANCH  18  19
ENDBRANCH   1  18
TORSDOF 28
ENDMDL
MODEL 6
REMARK VINA RESULT:    -4.191      1.447      3.392
REMARK INTER + INTRA:         -16.338
REMARK INTER:                 -10.480
REMARK INTRA:                  -5.858
REMARK UNBOUND:                -5.288
REMARK SMILES CCCCCCCCCCCCCCCCCCCCCCCCCCCCCC(=O)[O-]
REMARK SMILES IDX 16 1 17 2 18 3 19 4 20 5 21 6 22 7 23 8 24 9 25 10 26 11
REMARK SMILES IDX 27 12 28 13 29 14 30 15 31 16 32 17 15 18 14 19 13 20 12 21
REMARK SMILES IDX 11 22 10 23 9 24 8 25 7 26 6 27 5 28 4 29 3 30 2 31 1 32
REMARK H PARENT
REMARK Flexibility Score: inf
ROOT
ATOM      1  C   UNL     1      -8.185   3.499  18.924  1.00  0.00     0.000 C 
ENDROOT
BRANCH   1   2
ATOM      2  C   UNL     1      -7.426   4.682  19.562  1.00  0.00     0.000 C 
BRANCH   2   3
ATOM      3  C   UNL     1      -7.103   5.834  18.590  1.00  0.00     0.000 C 
BRANCH   3   4
ATOM      4  C   UNL     1      -8.105   6.043  17.439  1.00  0.00     0.000 C 
BRANCH   4   5
ATOM      5  C   UNL     1      -9.081   7.221  17.624  1.00  0.00     0.000 C 
BRANCH   5   6
ATOM      6  C   UNL     1     -10.514   6.768  17.945  1.00  0.00     0.000 C 
BRANCH   6   7
ATOM      7  C   UNL     1     -10.705   6.416  19.430  1.00  0.00     0.000 C 
BRANCH   7   8
ATOM      8  C   UNL     1     -11.730   5.299  19.711  1.00  0.00     0.000 C 
BRANCH   8   9
ATOM      9  C   UNL     1     -12.481   4.809  18.454  1.00  0.00     0.000 C 
BRANCH   9  10
ATOM     10  C   UNL     1     -12.598   3.276  18.401  1.00  0.00     0.000 C 
BRANCH  10  11
ATOM     11  C   UNL     1     -12.099   2.681  17.071  1.00  0.00     0.000 C 
BRANCH  11  12
ATOM     12  C   UNL     1     -11.155   3.590  16.262  1.00  0.00     0.000 C 
BRANCH  12  13
ATOM     13  C   UNL     1     -10.029   2.812  15.559  1.00  0.00     0.006 C 
BRANCH  13  14
ATOM     14  C   UNL     1     -10.122   1.301  15.808  1.00  0.00     0.053 C 
BRANCH  14  15
ATOM     15  C   UNL     1     -10.366   0.541  14.539  1.00  0.00     0.041 C 
ATOM     16  O   UNL     1     -11.506   0.554  14.002  1.00  0.00    -0.550 OA
ATOM     17  O   UNL     1      -9.342  -0.201  13.965  1.00  0.00    -0.550 OA
ENDBRANCH  14  15
ENDBRANCH  13  14
ENDBRANCH  12  13
ENDBRANCH  11  12
ENDBRANCH  10  11
ENDBRANCH   9  10
ENDBRANCH   8   9
ENDBRANCH   7   8
ENDBRANCH   6   7
ENDBRANCH   5   6
ENDBRANCH   4   5
ENDBRANCH   3   4
ENDBRANCH   2   3
ENDBRANCH   1   2
BRANCH   1  18
ATOM     18  C   UNL     1      -9.160   2.819  19.901  1.00  0.00     0.000 C 
BRANCH  18  19
ATOM     19  C   UNL     1      -9.487   1.383  19.463  1.00  0.00     0.000 C 
BRANCH  19  20
ATOM     20  C   UNL     1     -10.749   0.823  20.148  1.00  0.00     0.000 C 
BRANCH  20  21
ATOM     21  C   UNL     1     -10.484  -0.197  21.271  1.00  0.00     0.000 C 
BRANCH  21  22
ATOM     22  C   UNL     1      -9.091  -0.852  21.234  1.00  0.00     0.000 C 
BRANCH  22  23
ATOM     23  C   UNL     1      -8.384  -0.879  22.607  1.00  0.00     0.000 C 
BRANCH  23  24
ATOM     24  C   UNL     1      -9.234  -0.248  23.722  1.00  0.00    -0.000 C 
BRANCH  24  25
ATOM     25  C   UNL     1      -8.777   1.187  24.066  1.00  0.00    -0.000 C 
BRANCH  25  26
ATOM     26  C   UNL     1      -9.680   1.896  25.093  1.00  0.00    -0.000 C 
BRANCH  26  27
ATOM     27  C   UNL     1     -10.345   3.188  24.584  1.00  0.00    -0.000 C 
BRANCH  27  28
ATOM     28  C   UNL     1     -10.649   3.217  23.073  1.00  0.00    -0.000 C 
BRANCH  28  29
ATOM     29  C   UNL     1     -12.115   2.936  22.694  1.00  0.00    -0.000 C 
BRANCH  29  30
ATOM     30  C   UNL     1     -13.010   2.674  23.914  1.00  0.00    -0.000 C 
BRANCH  30  31
ATOM     31  C   UNL     1     -13.769   1.351  23.763  1.00  0.00    -0.003 C 
ATOM     32  C   UNL     1     -12.867   0.158  24.064  1.00  0.00     0.004 C 
ENDBRANCH  30  31
ENDBRANCH  29  30
ENDBRANCH  28  29
ENDBRANCH  27  28
ENDBRANCH  26  27
ENDBRANCH  25  26
ENDBRANCH  24  25
ENDBRANCH  23  24
ENDBRANCH  22  23
ENDBRANCH  21  22
ENDBRANCH  20  21
ENDBRANCH  19  20
ENDBRANCH  18  19
ENDBRANCH   1  18
TORSDOF 28
ENDMDL
MODEL 7
REMARK VINA RESULT:    -4.178      2.902      7.166
REMARK INTER + INTRA:         -16.305
REMARK INTER:                 -10.596
REMARK INTRA:                  -5.709
REMARK UNBOUND:                -5.288
REMARK SMILES CCCCCCCCCCCCCCCCCCCCCCCCCCCCCC(=O)[O-]
REMARK SMILES IDX 16 1 17 2 18 3 19 4 20 5 21 6 22 7 23 8 24 9 25 10 26 11
REMARK SMILES IDX 27 12 28 13 29 14 30 15 31 16 32 17 15 18 14 19 13 20 12 21
REMARK SMILES IDX 11 22 10 23 9 24 8 25 7 26 6 27 5 28 4 29 3 30 2 31 1 32
REMARK H PARENT
REMARK Flexibility Score: inf
ROOT
ATOM      1  C   UNL     1      -8.374  -0.844  22.731  1.00  0.00     0.000 C 
ENDROOT
BRANCH   1   2
ATOM      2  C   UNL     1      -8.954   0.176  23.733  1.00  0.00     0.000 C 
BRANCH   2   3
ATOM      3  C   UNL     1      -9.468  -0.441  25.050  1.00  0.00     0.000 C 
BRANCH   3   4
ATOM      4  C   UNL     1     -10.965  -0.233  25.349  1.00  0.00     0.000 C 
BRANCH   4   5
ATOM      5  C   UNL     1     -11.481   1.205  25.148  1.00  0.00     0.000 C 
BRANCH   5   6
ATOM      6  C   UNL     1     -12.543   1.312  24.042  1.00  0.00     0.000 C 
BRANCH   6   7
ATOM      7  C   UNL     1     -12.454   2.634  23.262  1.00  0.00     0.000 C 
BRANCH   7   8
ATOM      8  C   UNL     1     -12.103   3.872  24.111  1.00  0.00     0.000 C 
BRANCH   8   9
ATOM      9  C   UNL     1     -10.779   4.553  23.707  1.00  0.00     0.000 C 
BRANCH   9  10
ATOM     10  C   UNL     1     -10.112   3.873  22.499  1.00  0.00     0.000 C 
BRANCH  10  11
ATOM     11  C   UNL     1      -8.645   4.297  22.305  1.00  0.00     0.000 C 
BRANCH  11  12
ATOM     12  C   UNL     1      -8.373   5.164  21.063  1.00  0.00     0.000 C 
BRANCH  12  13
ATOM     13  C   UNL     1      -6.873   5.333  20.764  1.00  0.00     0.006 C 
BRANCH  13  14
ATOM     14  C   UNL     1      -6.493   4.798  19.377  1.00  0.00     0.053 C 
BRANCH  14  15
ATOM     15  C   UNL     1      -5.008   4.668  19.218  1.00  0.00     0.041 C 
ATOM     16  O   UNL     1      -4.528   3.832  18.406  1.00  0.00    -0.550 OA
ATOM     17  O   UNL     1      -4.155   5.452  19.984  1.00  0.00    -0.550 OA
ENDBRANCH  14  15
ENDBRANCH  13  14
ENDBRANCH  12  13
ENDBRANCH  11  12
ENDBRANCH  10  11
ENDBRANCH   9  10
ENDBRANCH   8   9
ENDBRANCH   7   8
ENDBRANCH   6   7
ENDBRANCH   5   6
ENDBRANCH   4   5
ENDBRANCH   3   4
ENDBRANCH   2   3
ENDBRANCH   1   2
BRANCH   1  18
ATOM     18  C   UNL     1      -9.176  -0.918  21.421  1.00  0.00     0.000 C 
BRANCH  18  19
ATOM     19  C   UNL     1     -10.507  -0.157  21.531  1.00  0.00     0.000 C 
BRANCH  19  20
ATOM     20  C   UNL     1     -10.686   0.897  20.422  1.00  0.00     0.000 C 
BRANCH  20  21
ATOM     21  C   UNL     1      -9.479   1.064  19.479  1.00  0.00     0.000 C 
BRANCH  21  22
ATOM     22  C   UNL     1      -9.207   2.511  19.028  1.00  0.00     0.000 C 
BRANCH  22  23
ATOM     23  C   UNL     1      -9.043   2.663  17.500  1.00  0.00     0.000 C 
BRANCH  23  24
ATOM     24  C   UNL     1      -9.811   1.588  16.714  1.00  0.00    -0.000 C 
BRANCH  24  25
ATOM     25  C   UNL     1     -11.284   1.983  16.467  1.00  0.00    -0.000 C 
BRANCH  25  26
ATOM     26  C   UNL     1     -11.465   3.434  15.981  1.00  0.00    -0.000 C 
BRANCH  26  27
ATOM     27  C   UNL     1     -12.318   4.324  16.904  1.00  0.00    -0.000 C 
BRANCH  27  28
ATOM     28  C   UNL     1     -13.182   3.564  17.930  1.00  0.00    -0.000 C 
BRANCH  28  29
ATOM     29  C   UNL     1     -12.817   3.811  19.405  1.00  0.00    -0.000 C 
BRANCH  29  30
ATOM     30  C   UNL     1     -11.852   4.990  19.594  1.00  0.00    -0.000 C 
BRANCH  30  31
ATOM     31  C   UNL     1     -12.439   6.031  20.555  1.00  0.00    -0.003 C 
ATOM     32  C   UNL     1     -13.702   5.508  21.232  1.00  0.00     0.004 C 
ENDBRANCH  30  31
ENDBRANCH  29  30
ENDBRANCH  28  29
ENDBRANCH  27  28
ENDBRANCH  26  27
ENDBRANCH  25  26
ENDBRANCH  24  25
ENDBRANCH  23  24
ENDBRANCH  22  23
ENDBRANCH  21  22
ENDBRANCH  20  21
ENDBRANCH  19  20
ENDBRANCH  18  19
ENDBRANCH   1  18
TORSDOF 28
ENDMDL
MODEL 8
REMARK VINA RESULT:    -4.156      2.899      7.322
REMARK INTER + INTRA:         -16.247
REMARK INTER:                  -9.783
REMARK INTRA:                  -6.464
REMARK UNBOUND:                -5.288
REMARK SMILES CCCCCCCCCCCCCCCCCCCCCCCCCCCCCC(=O)[O-]
REMARK SMILES IDX 16 1 17 2 18 3 19 4 20 5 21 6 22 7 23 8 24 9 25 10 26 11
REMARK SMILES IDX 27 12 28 13 29 14 30 15 31 16 32 17 15 18 14 19 13 20 12 21
REMARK SMILES IDX 11 22 10 23 9 24 8 25 7 26 6 27 5 28 4 29 3 30 2 31 1 32
REMARK H PARENT
REMARK Flexibility Score: inf
ROOT
ATOM      1  C   UNL     1     -11.578   1.749  17.177  1.00  0.00     0.000 C 
ENDROOT
BRANCH   1   2
ATOM      2  C   UNL     1     -10.127   1.787  16.652  1.00  0.00     0.000 C 
BRANCH   2   3
ATOM      3  C   UNL     1      -9.157   2.624  17.509  1.00  0.00     0.000 C 
BRANCH   3   4
ATOM      4  C   UNL     1      -9.301   2.464  19.034  1.00  0.00     0.000 C 
BRANCH   4   5
ATOM      5  C   UNL     1      -9.621   3.761  19.802  1.00  0.00     0.000 C 
BRANCH   5   6
ATOM      6  C   UNL     1      -9.138   3.728  21.262  1.00  0.00     0.000 C 
BRANCH   6   7
ATOM      7  C   UNL     1      -9.756   4.849  22.114  1.00  0.00     0.000 C 
BRANCH   7   8
ATOM      8  C   UNL     1     -10.710   5.795  21.358  1.00  0.00     0.000 C 
BRANCH   8   9
ATOM      9  C   UNL     1     -12.189   5.660  21.780  1.00  0.00     0.000 C 
BRANCH   9  10
ATOM     10  C   UNL     1     -13.067   5.063  20.667  1.00  0.00     0.000 C 
BRANCH  10  11
ATOM     11  C   UNL     1     -13.619   3.670  21.019  1.00  0.00     0.000 C 
BRANCH  11  12
ATOM     12  C   UNL     1     -12.695   2.491  20.664  1.00  0.00     0.000 C 
BRANCH  12  13
ATOM     13  C   UNL     1     -12.096   1.802  21.902  1.00  0.00     0.006 C 
BRANCH  13  14
ATOM     14  C   UNL     1     -11.670   0.356  21.614  1.00  0.00     0.053 C 
BRANCH  14  15
ATOM     15  C   UNL     1     -10.205   0.149  21.848  1.00  0.00     0.041 C 
ATOM     16  O   UNL     1      -9.662   0.589  22.897  1.00  0.00    -0.550 OA
ATOM     17  O   UNL     1      -9.433  -0.507  20.897  1.00  0.00    -0.550 OA
ENDBRANCH  14  15
ENDBRANCH  13  14
ENDBRANCH  12  13
ENDBRANCH  11  12
ENDBRANCH  10  11
ENDBRANCH   9  10
ENDBRANCH   8   9
ENDBRANCH   7   8
ENDBRANCH   6   7
ENDBRANCH   5   6
ENDBRANCH   4   5
ENDBRANCH   3   4
ENDBRANCH   2   3
ENDBRANCH   1   2
BRANCH   1  18
ATOM     18  C   UNL     1     -12.522   2.674  16.391  1.00  0.00     0.000 C 
BRANCH  18  19
ATOM     19  C   UNL     1     -12.731   4.014  17.115  1.00  0.00     0.000 C 
BRANCH  19  20
ATOM     20  C   UNL     1     -11.777   5.117  16.615  1.00  0.00     0.000 C 
BRANCH  20  21
ATOM     21  C   UNL     1     -11.363   6.152  17.678  1.00  0.00     0.000 C 
BRANCH  21  22
ATOM     22  C   UNL     1     -10.139   7.008  17.302  1.00  0.00     0.000 C 
BRANCH  22  23
ATOM     23  C   UNL     1      -8.810   6.221  17.305  1.00  0.00     0.000 C 
BRANCH  23  24
ATOM     24  C   UNL     1      -7.583   7.133  17.138  1.00  0.00    -0.000 C 
BRANCH  24  25
ATOM     25  C   UNL     1      -6.925   7.483  18.491  1.00  0.00    -0.000 C 
BRANCH  25  26
ATOM     26  C   UNL     1      -7.258   6.490  19.619  1.00  0.00    -0.000 C 
BRANCH  26  27
ATOM     27  C   UNL     1      -6.143   5.477  19.939  1.00  0.00    -0.000 C 
BRANCH  27  28
ATOM     28  C   UNL     1      -6.057   4.274  18.978  1.00  0.00    -0.000 C 
BRANCH  28  29
ATOM     29  C   UNL     1      -4.665   4.019  18.372  1.00  0.00    -0.000 C 
BRANCH  29  30
ATOM     30  C   UNL     1      -3.873   5.310  18.124  1.00  0.00    -0.000 C 
BRANCH  30  31
ATOM     31  C   UNL     1      -4.076   5.813  16.691  1.00  0.00    -0.003 C 
ATOM     32  C   UNL     1      -3.680   7.281  16.558  1.00  0.00     0.004 C 
ENDBRANCH  30  31
ENDBRANCH  29  30
ENDBRANCH  28  29
ENDBRANCH  27  28
ENDBRANCH  26  27
ENDBRANCH  25  26
ENDBRANCH  24  25
ENDBRANCH  23  24
ENDBRANCH  22  23
ENDBRANCH  21  22
ENDBRANCH  20  21
ENDBRANCH  19  20
ENDBRANCH  18  19
ENDBRANCH   1  18
TORSDOF 28
ENDMDL
MODEL 9
REMARK VINA RESULT:    -4.141      1.601      4.879
REMARK INTER + INTRA:         -16.207
REMARK INTER:                 -10.462
REMARK INTRA:                  -5.745
REMARK UNBOUND:                -5.288
REMARK SMILES CCCCCCCCCCCCCCCCCCCCCCCCCCCCCC(=O)[O-]
REMARK SMILES IDX 16 1 17 2 18 3 19 4 20 5 21 6 22 7 23 8 24 9 25 10 26 11
REMARK SMILES IDX 27 12 28 13 29 14 30 15 31 16 32 17 15 18 14 19 13 20 12 21
REMARK SMILES IDX 11 22 10 23 9 24 8 25 7 26 6 27 5 28 4 29 3 30 2 31 1 32
REMARK H PARENT
REMARK Flexibility Score: inf
ROOT
ATOM      1  C   UNL     1      -9.646   2.664  19.830  1.00  0.00     0.000 C 
ENDROOT
BRANCH   1   2
ATOM      2  C   UNL     1      -8.458   3.401  19.176  1.00  0.00     0.000 C 
BRANCH   2   3
ATOM      3  C   UNL     1      -8.854   4.620  18.319  1.00  0.00     0.000 C 
BRANCH   3   4
ATOM      4  C   UNL     1      -9.677   5.706  19.037  1.00  0.00     0.000 C 
BRANCH   4   5
ATOM      5  C   UNL     1     -10.691   6.454  18.151  1.00  0.00     0.000 C 
BRANCH   5   6
ATOM      6  C   UNL     1     -12.145   6.260  18.609  1.00  0.00     0.000 C 
BRANCH   6   7
ATOM      7  C   UNL     1     -12.291   5.144  19.658  1.00  0.00     0.000 C 
BRANCH   7   8
ATOM      8  C   UNL     1     -13.069   3.900  19.186  1.00  0.00     0.000 C 
BRANCH   8   9
ATOM      9  C   UNL     1     -13.107   3.731  17.652  1.00  0.00     0.000 C 
BRANCH   9  10
ATOM     10  C   UNL     1     -12.004   2.791  17.136  1.00  0.00     0.000 C 
BRANCH  10  11
ATOM     11  C   UNL     1     -11.198   3.393  15.971  1.00  0.00     0.000 C 
BRANCH  11  12
ATOM     12  C   UNL     1      -9.938   2.605  15.570  1.00  0.00     0.000 C 
BRANCH  12  13
ATOM     13  C   UNL     1     -10.168   1.085  15.527  1.00  0.00     0.006 C 
BRANCH  13  14
ATOM     14  C   UNL     1     -10.603   0.602  14.137  1.00  0.00     0.053 C 
BRANCH  14  15
ATOM     15  C   UNL     1     -11.947  -0.060  14.172  1.00  0.00     0.041 C 
ATOM     16  O   UNL     1     -12.869   0.416  14.886  1.00  0.00    -0.550 OA
ATOM     17  O   UNL     1     -12.173  -1.216  13.435  1.00  0.00    -0.550 OA
ENDBRANCH  14  15
ENDBRANCH  13  14
ENDBRANCH  12  13
ENDBRANCH  11  12
ENDBRANCH  10  11
ENDBRANCH   9  10
ENDBRANCH   8   9
ENDBRANCH   7   8
ENDBRANCH   6   7
ENDBRANCH   5   6
ENDBRANCH   4   5
ENDBRANCH   3   4
ENDBRANCH   2   3
ENDBRANCH   1   2
BRANCH   1  18
ATOM     18  C   UNL     1      -9.629   1.149  19.563  1.00  0.00     0.000 C 
BRANCH  18  19
ATOM     19  C   UNL     1     -10.521   0.391  20.559  1.00  0.00     0.000 C 
BRANCH  19  20
ATOM     20  C   UNL     1     -11.433   1.327  21.376  1.00  0.00     0.000 C 
BRANCH  20  21
ATOM     21  C   UNL     1     -12.235   0.642  22.498  1.00  0.00     0.000 C 
BRANCH  21  22
ATOM     22  C   UNL     1     -11.543   0.634  23.873  1.00  0.00     0.000 C 
BRANCH  22  23
ATOM     23  C   UNL     1     -10.930   1.996  24.266  1.00  0.00     0.000 C 
BRANCH  23  24
ATOM     24  C   UNL     1      -9.394   1.961  24.313  1.00  0.00    -0.000 C 
BRANCH  24  25
ATOM     25  C   UNL     1      -8.762   3.291  23.845  1.00  0.00    -0.000 C 
BRANCH  25  26
ATOM     26  C   UNL     1      -9.771   4.268  23.212  1.00  0.00    -0.000 C 
BRANCH  26  27
ATOM     27  C   UNL     1      -9.145   5.352  22.315  1.00  0.00    -0.000 C 
BRANCH  27  28
ATOM     28  C   UNL     1      -7.671   5.685  22.621  1.00  0.00    -0.000 C 
BRANCH  28  29
ATOM     29  C   UNL     1      -6.909   6.391  21.484  1.00  0.00    -0.000 C 
BRANCH  29  30
ATOM     30  C   UNL     1      -5.700   5.588  20.983  1.00  0.00    -0.000 C 
BRANCH  30  31
ATOM     31  C   UNL     1      -5.577   5.677  19.457  1.00  0.00    -0.003 C 
ATOM     32  C   UNL     1      -4.788   4.497  18.897  1.00  0.00     0.004 C 
ENDBRANCH  30  31
ENDBRANCH  29  30
ENDBRANCH  28  29
ENDBRANCH  27  28
ENDBRANCH  26  27
ENDBRANCH  25  26
ENDBRANCH  24  25
ENDBRANCH  23  24
ENDBRANCH  22  23
ENDBRANCH  21  22
ENDBRANCH  20  21
ENDBRANCH  19  20
ENDBRANCH  18  19
ENDBRANCH   1  18
TORSDOF 28
ENDMDL
