MODEL 1
REMARK VINA RESULT:    -4.687      0.000      0.000
REMARK INTER + INTRA:         -11.719
REMARK INTER:                  -9.072
REMARK INTRA:                  -2.647
REMARK UNBOUND:                -2.647
REMARK SMILES CCCCCCCCCCCCCCCCCC(=O)[O-]
REMARK SMILES IDX 10 1 11 2 12 3 13 4 14 5 15 6 16 7 17 8 18 9 19 10 20 11
REMARK SMILES IDX 9 12 8 13 7 14 6 15 5 16 4 17 3 18 2 19 1 20
REMARK H PARENT
REMARK Flexibility Score: inf
ROOT
ATOM      1  C   UNL     1      17.355 -31.048  23.500  1.00  0.00     0.000 C 
ENDROOT
BRANCH   1   2
ATOM      2  C   UNL     1      18.463 -30.964  22.436  1.00  0.00     0.000 C 
BRANCH   2   3
ATOM      3  C   UNL     1      17.907 -30.857  21.007  1.00  0.00     0.000 C 
BRANCH   3   4
ATOM      4  C   UNL     1      17.326 -32.189  20.500  1.00  0.00     0.000 C 
BRANCH   4   5
ATOM      5  C   UNL     1      18.416 -33.202  20.117  1.00  0.00     0.000 C 
BRANCH   5   6
ATOM      6  C   UNL     1      17.893 -34.319  19.201  1.00  0.00     0.000 C 
BRANCH   6   7
ATOM      7  C   UNL     1      16.371 -34.477  19.341  1.00  0.00     0.006 C 
BRANCH   7   8
ATOM      8  C   UNL     1      15.970 -35.888  19.785  1.00  0.00     0.053 C 
BRANCH   8   9
ATOM      9  C   UNL     1      17.157 -36.697  20.211  1.00  0.00     0.041 C 
ATOM     10  O   UNL     1      17.592 -36.612  21.390  1.00  0.00    -0.550 OA
ATOM     11  O   UNL     1      17.756 -37.576  19.318  1.00  0.00    -0.550 OA
ENDBRANCH   8   9
ENDBRANCH   7   8
ENDBRANCH   6   7
ENDBRANCH   5   6
ENDBRANCH   4   5
ENDBRANCH   3   4
ENDBRANCH   2   3
ENDBRANCH   1   2
BRANCH   1  12
ATOM     12  C   UNL     1      17.523 -32.260  24.430  1.00  0.00     0.000 C 
BRANCH  12  13
ATOM     13  C   UNL     1      17.531 -33.595  23.664  1.00  0.00    -0.000 C 
BRANCH  13  14
ATOM     14  C   UNL     1      16.212 -34.369  23.812  1.00  0.00    -0.000 C 
BRANCH  14  15
ATOM     15  C   UNL     1      15.063 -33.735  23.013  1.00  0.00    -0.000 C 
BRANCH  15  16
ATOM     16  C   UNL     1      14.085 -33.006  23.943  1.00  0.00    -0.000 C 
BRANCH  16  17
ATOM     17  C   UNL     1      13.609 -31.687  23.319  1.00  0.00    -0.000 C 
BRANCH  17  18
ATOM     18  C   UNL     1      13.807 -31.660  21.788  1.00  0.00    -0.000 C 
BRANCH  18  19
ATOM     19  C   UNL     1      14.242 -30.288  21.247  1.00  0.00    -0.003 C 
ATOM     20  C   UNL     1      14.381 -29.231  22.340  1.00  0.00     0.004 C 
ENDBRANCH  18  19
ENDBRANCH  17  18
ENDBRANCH  16  17
ENDBRANCH  15  16
ENDBRANCH  14  15
ENDBRANCH  13  14
ENDBRANCH  12  13
ENDBRANCH   1  12
TORSDOF 16
ENDMDL
MODEL 2
REMARK VINA RESULT:    -4.571      1.889      3.930
REMARK INTER + INTRA:         -11.494
REMARK INTER:                  -9.018
REMARK INTRA:                  -2.476
REMARK UNBOUND:                -2.647
REMARK SMILES CCCCCCCCCCCCCCCCCC(=O)[O-]
REMARK SMILES IDX 10 1 11 2 12 3 13 4 14 5 15 6 16 7 17 8 18 9 19 10 20 11
REMARK SMILES IDX 9 12 8 13 7 14 6 15 5 16 4 17 3 18 2 19 1 20
REMARK H PARENT
REMARK Flexibility Score: inf
ROOT
ATOM      1  C   UNL     1      17.436 -34.044  19.190  1.00  0.00     0.000 C 
ENDROOT
BRANCH   1   2
ATOM      2  C   UNL     1      18.380 -33.688  20.351  1.00  0.00     0.000 C 
BRANCH   2   3
ATOM      3  C   UNL     1      18.460 -32.174  20.609  1.00  0.00     0.000 C 
BRANCH   3   4
ATOM      4  C   UNL     1      17.393 -31.691  21.608  1.00  0.00     0.000 C 
BRANCH   4   5
ATOM      5  C   UNL     1      17.575 -32.298  23.008  1.00  0.00     0.000 C 
BRANCH   5   6
ATOM      6  C   UNL     1      16.272 -32.317  23.821  1.00  0.00     0.000 C 
BRANCH   6   7
ATOM      7  C   UNL     1      15.817 -33.758  24.097  1.00  0.00     0.006 C 
BRANCH   7   8
ATOM      8  C   UNL     1      16.797 -34.796  23.535  1.00  0.00     0.053 C 
BRANCH   8   9
ATOM      9  C   UNL     1      17.466 -35.578  24.624  1.00  0.00     0.041 C 
ATOM     10  O   UNL     1      18.704 -35.805  24.572  1.00  0.00    -0.550 OA
ATOM     11  O   UNL     1      16.730 -36.020  25.716  1.00  0.00    -0.550 OA
ENDBRANCH   8   9
ENDBRANCH   7   8
ENDBRANCH   6   7
ENDBRANCH   5   6
ENDBRANCH   4   5
ENDBRANCH   3   4
ENDBRANCH   2   3
ENDBRANCH   1   2
BRANCH   1  12
ATOM     12  C   UNL     1      16.735 -35.395  19.395  1.00  0.00     0.000 C 
BRANCH  12  13
ATOM     13  C   UNL     1      15.388 -35.256  20.127  1.00  0.00    -0.000 C 
BRANCH  13  14
ATOM     14  C   UNL     1      14.639 -33.969  19.745  1.00  0.00    -0.000 C 
BRANCH  14  15
ATOM     15  C   UNL     1      14.199 -33.156  20.972  1.00  0.00    -0.000 C 
BRANCH  15  16
ATOM     16  C   UNL     1      13.429 -31.899  20.548  1.00  0.00    -0.000 C 
BRANCH  16  17
ATOM     17  C   UNL     1      13.768 -30.710  21.459  1.00  0.00    -0.000 C 
BRANCH  17  18
ATOM     18  C   UNL     1      12.995 -30.758  22.794  1.00  0.00    -0.000 C 
BRANCH  18  19
ATOM     19  C   UNL     1      12.316 -29.427  23.161  1.00  0.00    -0.003 C 
ATOM     20  C   UNL     1      13.311 -28.290  23.386  1.00  0.00     0.004 C 
ENDBRANCH  18  19
ENDBRANCH  17  18
ENDBRANCH  16  17
ENDBRANCH  15  16
ENDBRANCH  14  15
ENDBRANCH  13  14
ENDBRANCH  12  13
ENDBRANCH   1  12
TORSDOF 16
ENDMDL
MODEL 3
REMARK VINA RESULT:    -4.569      2.175      3.822
REMARK INTER + INTRA:         -11.490
REMARK INTER:                  -8.923
REMARK INTRA:                  -2.568
REMARK UNBOUND:                -2.647
REMARK SMILES CCCCCCCCCCCCCCCCCC(=O)[O-]
REMARK SMILES IDX 10 1 11 2 12 3 13 4 14 5 15 6 16 7 17 8 18 9 19 10 20 11
REMARK SMILES IDX 9 12 8 13 7 14 6 15 5 16 4 17 3 18 2 19 1 20
REMARK H PARENT
REMARK Flexibility Score: inf
ROOT
ATOM      1  C   UNL     1      15.023 -34.024  22.263  1.00  0.00     0.000 C 
ENDROOT
BRANCH   1   2
ATOM      2  C   UNL     1      14.590 -33.455  20.901  1.00  0.00     0.000 C 
BRANCH   2   3
ATOM      3  C   UNL     1      14.958 -34.378  19.728  1.00  0.00     0.000 C 
BRANCH   3   4
ATOM      4  C   UNL     1      15.874 -35.538  20.157  1.00  0.00     0.000 C 
BRANCH   4   5
ATOM      5  C   UNL     1      17.033 -35.771  19.175  1.00  0.00     0.000 C 
BRANCH   5   6
ATOM      6  C   UNL     1      17.958 -34.551  19.047  1.00  0.00     0.000 C 
BRANCH   6   7
ATOM      7  C   UNL     1      18.475 -34.107  20.424  1.00  0.00     0.006 C 
BRANCH   7   8
ATOM      8  C   UNL     1      18.625 -32.585  20.527  1.00  0.00     0.053 C 
BRANCH   8   9
ATOM      9  C   UNL     1      19.880 -32.195  21.246  1.00  0.00     0.041 C 
ATOM     10  O   UNL     1      20.213 -32.788  22.306  1.00  0.00    -0.550 OA
ATOM     11  O   UNL     1      20.704 -31.207  20.722  1.00  0.00    -0.550 OA
ENDBRANCH   8   9
ENDBRANCH   7   8
ENDBRANCH   6   7
ENDBRANCH   5   6
ENDBRANCH   4   5
ENDBRANCH   3   4
ENDBRANCH   2   3
ENDBRANCH   1   2
BRANCH   1  12
ATOM     12  C   UNL     1      14.647 -33.101  23.433  1.00  0.00     0.000 C 
BRANCH  12  13
ATOM     13  C   UNL     1      15.872 -32.663  24.256  1.00  0.00    -0.000 C 
BRANCH  13  14
ATOM     14  C   UNL     1      16.910 -31.907  23.412  1.00  0.00    -0.000 C 
BRANCH  14  15
ATOM     15  C   UNL     1      16.549 -30.427  23.218  1.00  0.00    -0.000 C 
BRANCH  15  16
ATOM     16  C   UNL     1      16.020 -30.173  21.801  1.00  0.00    -0.000 C 
BRANCH  16  17
ATOM     17  C   UNL     1      14.817 -29.218  21.823  1.00  0.00    -0.000 C 
BRANCH  17  18
ATOM     18  C   UNL     1      13.959 -29.389  23.095  1.00  0.00    -0.000 C 
BRANCH  18  19
ATOM     19  C   UNL     1      12.462 -29.586  22.805  1.00  0.00    -0.003 C 
ATOM     20  C   UNL     1      12.174 -30.820  21.952  1.00  0.00     0.004 C 
ENDBRANCH  18  19
ENDBRANCH  17  18
ENDBRANCH  16  17
ENDBRANCH  15  16
ENDBRANCH  14  15
ENDBRANCH  13  14
ENDBRANCH  12  13
ENDBRANCH   1  12
TORSDOF 16
ENDMDL
MODEL 4
REMARK VINA RESULT:    -4.536      3.110      5.635
REMARK INTER + INTRA:         -11.426
REMARK INTER:                  -8.547
REMARK INTRA:                  -2.880
REMARK UNBOUND:                -2.647
REMARK SMILES CCCCCCCCCCCCCCCCCC(=O)[O-]
REMARK SMILES IDX 10 1 11 2 12 3 13 4 14 5 15 6 16 7 17 8 18 9 19 10 20 11
REMARK SMILES IDX 9 12 8 13 7 14 6 15 5 16 4 17 3 18 2 19 1 20
REMARK H PARENT
REMARK Flexibility Score: inf
ROOT
ATOM      1  C   UNL     1      17.691 -35.751  20.406  1.00  0.00     0.000 C 
ENDROOT
BRANCH   1   2
ATOM      2  C   UNL     1      18.249 -34.608  21.273  1.00  0.00     0.000 C 
BRANCH   2   3
ATOM      3  C   UNL     1      18.665 -33.383  20.443  1.00  0.00     0.000 C 
BRANCH   3   4
ATOM      4  C   UNL     1      18.598 -32.074  21.251  1.00  0.00     0.000 C 
BRANCH   4   5
ATOM      5  C   UNL     1      17.353 -31.237  20.919  1.00  0.00     0.000 C 
BRANCH   5   6
ATOM      6  C   UNL     1      17.282 -29.932  21.727  1.00  0.00     0.000 C 
BRANCH   6   7
ATOM      7  C   UNL     1      16.075 -29.938  22.676  1.00  0.00     0.006 C 
BRANCH   7   8
ATOM      8  C   UNL     1      14.810 -29.381  22.012  1.00  0.00     0.053 C 
BRANCH   8   9
ATOM      9  C   UNL     1      13.682 -29.245  22.989  1.00  0.00     0.041 C 
ATOM     10  O   UNL     1      13.191 -30.267  23.537  1.00  0.00    -0.550 OA
ATOM     11  O   UNL     1      13.201 -27.986  23.326  1.00  0.00    -0.550 OA
ENDBRANCH   8   9
ENDBRANCH   7   8
ENDBRANCH   6   7
ENDBRANCH   5   6
ENDBRANCH   4   5
ENDBRANCH   3   4
ENDBRANCH   2   3
ENDBRANCH   1   2
BRANCH   1  12
ATOM     12  C   UNL     1      16.606 -35.273  19.429  1.00  0.00     0.000 C 
BRANCH  12  13
ATOM     13  C   UNL     1      15.226 -35.142  20.098  1.00  0.00    -0.000 C 
BRANCH  13  14
ATOM     14  C   UNL     1      14.654 -33.720  19.997  1.00  0.00    -0.000 C 
BRANCH  14  15
ATOM     15  C   UNL     1      14.396 -33.088  21.373  1.00  0.00    -0.000 C 
BRANCH  15  16
ATOM     16  C   UNL     1      14.906 -33.998  22.498  1.00  0.00    -0.000 C 
BRANCH  16  17
ATOM     17  C   UNL     1      15.170 -33.196  23.781  1.00  0.00    -0.000 C 
BRANCH  17  18
ATOM     18  C   UNL     1      16.642 -33.291  24.237  1.00  0.00    -0.000 C 
BRANCH  18  19
ATOM     19  C   UNL     1      16.880 -34.343  25.332  1.00  0.00    -0.003 C 
ATOM     20  C   UNL     1      17.623 -35.577  24.824  1.00  0.00     0.004 C 
ENDBRANCH  18  19
ENDBRANCH  17  18
ENDBRANCH  16  17
ENDBRANCH  15  16
ENDBRANCH  14  15
ENDBRANCH  13  14
ENDBRANCH  12  13
ENDBRANCH   1  12
TORSDOF 16
ENDMDL
MODEL 5
REMARK VINA RESULT:    -4.526      2.000      4.048
REMARK INTER + INTRA:         -11.407
REMARK INTER:                  -8.828
REMARK INTRA:                  -2.579
REMARK UNBOUND:                -2.647
REMARK SMILES CCCCCCCCCCCCCCCCCC(=O)[O-]
REMARK SMILES IDX 10 1 11 2 12 3 13 4 14 5 15 6 16 7 17 8 18 9 19 10 20 11
REMARK SMILES IDX 9 12 8 13 7 14 6 15 5 16 4 17 3 18 2 19 1 20
REMARK H PARENT
REMARK Flexibility Score: inf
ROOT
ATOM      1  C   UNL     1      14.692 -33.478  21.384  1.00  0.00     0.000 C 
ENDROOT
BRANCH   1   2
ATOM      2  C   UNL     1      15.058 -34.710  20.538  1.00  0.00     0.000 C 
BRANCH   2   3
ATOM      3  C   UNL     1      16.063 -34.386  19.420  1.00  0.00     0.000 C 
BRANCH   3   4
ATOM      4  C   UNL     1      17.372 -35.184  19.556  1.00  0.00     0.000 C 
BRANCH   4   5
ATOM      5  C   UNL     1      17.135 -36.643  19.977  1.00  0.00     0.000 C 
BRANCH   5   6
ATOM      6  C   UNL     1      17.884 -37.019  21.264  1.00  0.00     0.000 C 
BRANCH   6   7
ATOM      7  C   UNL     1      18.334 -35.763  22.025  1.00  0.00     0.006 C 
BRANCH   7   8
ATOM      8  C   UNL     1      17.917 -35.794  23.501  1.00  0.00     0.053 C 
BRANCH   8   9
ATOM      9  C   UNL     1      18.376 -34.573  24.236  1.00  0.00     0.041 C 
ATOM     10  O   UNL     1      19.378 -33.927  23.829  1.00  0.00    -0.550 OA
ATOM     11  O   UNL     1      17.673 -34.124  25.347  1.00  0.00    -0.550 OA
ENDBRANCH   8   9
ENDBRANCH   7   8
ENDBRANCH   6   7
ENDBRANCH   5   6
ENDBRANCH   4   5
ENDBRANCH   3   4
ENDBRANCH   2   3
ENDBRANCH   1   2
BRANCH   1  12
ATOM     12  C   UNL     1      14.955 -33.694  22.882  1.00  0.00     0.000 C 
BRANCH  12  13
ATOM     13  C   UNL     1      14.105 -32.768  23.770  1.00  0.00    -0.000 C 
BRANCH  13  14
ATOM     14  C   UNL     1      13.415 -31.653  22.968  1.00  0.00    -0.000 C 
BRANCH  14  15
ATOM     15  C   UNL     1      13.379 -30.317  23.724  1.00  0.00    -0.000 C 
BRANCH  15  16
ATOM     16  C   UNL     1      13.988 -29.192  22.878  1.00  0.00    -0.000 C 
BRANCH  16  17
ATOM     17  C   UNL     1      14.748 -29.759  21.670  1.00  0.00    -0.000 C 
BRANCH  17  18
ATOM     18  C   UNL     1      16.263 -29.471  21.746  1.00  0.00    -0.000 C 
BRANCH  18  19
ATOM     19  C   UNL     1      17.111 -30.718  22.048  1.00  0.00    -0.003 C 
ATOM     20  C   UNL     1      17.245 -31.002  23.543  1.00  0.00     0.004 C 
ENDBRANCH  18  19
ENDBRANCH  17  18
ENDBRANCH  16  17
ENDBRANCH  15  16
ENDBRANCH  14  15
ENDBRANCH  13  14
ENDBRANCH  12  13
ENDBRANCH   1  12
TORSDOF 16
ENDMDL
MODEL 6
REMARK VINA RESULT:    -4.516      1.352      4.346
REMARK INTER + INTRA:         -11.387
REMARK INTER:                  -8.664
REMARK INTRA:                  -2.723
REMARK UNBOUND:                -2.647
REMARK SMILES CCCCCCCCCCCCCCCCCC(=O)[O-]
REMARK SMILES IDX 10 1 11 2 12 3 13 4 14 5 15 6 16 7 17 8 18 9 19 10 20 11
REMARK SMILES IDX 9 12 8 13 7 14 6 15 5 16 4 17 3 18 2 19 1 20
REMARK H PARENT
REMARK Flexibility Score: inf
ROOT
ATOM      1  C   UNL     1      13.683 -29.446  22.832  1.00  0.00     0.000 C 
ENDROOT
BRANCH   1   2
ATOM      2  C   UNL     1      13.564 -30.652  23.780  1.00  0.00     0.000 C 
BRANCH   2   3
ATOM      3  C   UNL     1      13.385 -31.982  23.029  1.00  0.00     0.000 C 
BRANCH   3   4
ATOM      4  C   UNL     1      14.403 -33.049  23.471  1.00  0.00     0.000 C 
BRANCH   4   5
ATOM      5  C   UNL     1      14.989 -33.833  22.287  1.00  0.00     0.000 C 
BRANCH   5   6
ATOM      6  C   UNL     1      14.469 -33.336  20.929  1.00  0.00     0.000 C 
BRANCH   6   7
ATOM      7  C   UNL     1      14.935 -34.257  19.792  1.00  0.00     0.006 C 
BRANCH   7   8
ATOM      8  C   UNL     1      15.860 -35.375  20.289  1.00  0.00     0.053 C 
BRANCH   8   9
ATOM      9  C   UNL     1      16.987 -35.631  19.336  1.00  0.00     0.041 C 
ATOM     10  O   UNL     1      17.680 -34.673  18.901  1.00  0.00    -0.550 OA
ATOM     11  O   UNL     1      17.299 -36.931  18.960  1.00  0.00    -0.550 OA
ENDBRANCH   8   9
ENDBRANCH   7   8
ENDBRANCH   6   7
ENDBRANCH   5   6
ENDBRANCH   4   5
ENDBRANCH   3   4
ENDBRANCH   2   3
ENDBRANCH   1   2
BRANCH   1  12
ATOM     12  C   UNL     1      14.727 -29.668  21.727  1.00  0.00     0.000 C 
BRANCH  12  13
ATOM     13  C   UNL     1      16.157 -29.791  22.282  1.00  0.00    -0.000 C 
BRANCH  13  14
ATOM     14  C   UNL     1      17.016 -30.784  21.484  1.00  0.00    -0.000 C 
BRANCH  14  15
ATOM     15  C   UNL     1      17.904 -31.653  22.387  1.00  0.00    -0.000 C 
BRANCH  15  16
ATOM     16  C   UNL     1      17.524 -31.478  23.863  1.00  0.00    -0.000 C 
BRANCH  16  17
ATOM     17  C   UNL     1      18.352 -32.409  24.761  1.00  0.00    -0.000 C 
BRANCH  17  18
ATOM     18  C   UNL     1      18.746 -33.716  24.040  1.00  0.00    -0.000 C 
BRANCH  18  19
ATOM     19  C   UNL     1      18.310 -34.987  24.788  1.00  0.00    -0.003 C 
ATOM     20  C   UNL     1      16.889 -34.898  25.341  1.00  0.00     0.004 C 
ENDBRANCH  18  19
ENDBRANCH  17  18
ENDBRANCH  16  17
ENDBRANCH  15  16
ENDBRANCH  14  15
ENDBRANCH  13  14
ENDBRANCH  12  13
ENDBRANCH   1  12
TORSDOF 16
ENDMDL
MODEL 7
REMARK VINA RESULT:    -4.492      3.361      6.075
REMARK INTER + INTRA:         -11.341
REMARK INTER:                  -8.717
REMARK INTRA:                  -2.624
REMARK UNBOUND:                -2.647
REMARK SMILES CCCCCCCCCCCCCCCCCC(=O)[O-]
REMARK SMILES IDX 10 1 11 2 12 3 13 4 14 5 15 6 16 7 17 8 18 9 19 10 20 11
REMARK SMILES IDX 9 12 8 13 7 14 6 15 5 16 4 17 3 18 2 19 1 20
REMARK H PARENT
REMARK Flexibility Score: inf
ROOT
ATOM      1  C   UNL     1      17.358 -34.407  19.383  1.00  0.00     0.000 C 
ENDROOT
BRANCH   1   2
ATOM      2  C   UNL     1      16.139 -35.287  19.710  1.00  0.00     0.000 C 
BRANCH   2   3
ATOM      3  C   UNL     1      15.260 -34.694  20.823  1.00  0.00     0.000 C 
BRANCH   3   4
ATOM      4  C   UNL     1      14.306 -33.604  20.302  1.00  0.00     0.000 C 
BRANCH   4   5
ATOM      5  C   UNL     1      14.265 -32.368  21.213  1.00  0.00     0.000 C 
BRANCH   5   6
ATOM      6  C   UNL     1      14.372 -32.725  22.704  1.00  0.00     0.000 C 
BRANCH   6   7
ATOM      7  C   UNL     1      13.910 -31.555  23.584  1.00  0.00     0.006 C 
BRANCH   7   8
ATOM      8  C   UNL     1      13.718 -30.262  22.781  1.00  0.00     0.053 C 
BRANCH   8   9
ATOM      9  C   UNL     1      12.508 -29.502  23.230  1.00  0.00     0.041 C 
ATOM     10  O   UNL     1      11.459 -29.511  22.532  1.00  0.00    -0.550 OA
ATOM     11  O   UNL     1      12.525 -28.816  24.438  1.00  0.00    -0.550 OA
ENDBRANCH   8   9
ENDBRANCH   7   8
ENDBRANCH   6   7
ENDBRANCH   5   6
ENDBRANCH   4   5
ENDBRANCH   3   4
ENDBRANCH   2   3
ENDBRANCH   1   2
BRANCH   1  12
ATOM     12  C   UNL     1      18.128 -33.977  20.641  1.00  0.00     0.000 C 
BRANCH  12  13
ATOM     13  C   UNL     1      18.595 -32.512  20.575  1.00  0.00    -0.000 C 
BRANCH  13  14
ATOM     14  C   UNL     1      17.737 -31.579  21.444  1.00  0.00    -0.000 C 
BRANCH  14  15
ATOM     15  C   UNL     1      18.441 -31.173  22.747  1.00  0.00    -0.000 C 
BRANCH  15  16
ATOM     16  C   UNL     1      17.515 -31.371  23.955  1.00  0.00    -0.000 C 
BRANCH  16  17
ATOM     17  C   UNL     1      18.305 -31.845  25.184  1.00  0.00    -0.000 C 
BRANCH  17  18
ATOM     18  C   UNL     1      18.199 -33.371  25.393  1.00  0.00    -0.000 C 
BRANCH  18  19
ATOM     19  C   UNL     1      16.912 -33.984  24.815  1.00  0.00    -0.003 C 
ATOM     20  C   UNL     1      17.167 -35.247  23.996  1.00  0.00     0.004 C 
ENDBRANCH  18  19
ENDBRANCH  17  18
ENDBRANCH  16  17
ENDBRANCH  15  16
ENDBRANCH  14  15
ENDBRANCH  13  14
ENDBRANCH  12  13
ENDBRANCH   1  12
TORSDOF 16
ENDMDL
MODEL 8
REMARK VINA RESULT:    -4.427      2.123      4.429
REMARK INTER + INTRA:         -11.215
REMARK INTER:                  -8.326
REMARK INTRA:                  -2.889
REMARK UNBOUND:                -2.647
REMARK SMILES CCCCCCCCCCCCCCCCCC(=O)[O-]
REMARK SMILES IDX 10 1 11 2 12 3 13 4 14 5 15 6 16 7 17 8 18 9 19 10 20 11
REMARK SMILES IDX 9 12 8 13 7 14 6 15 5 16 4 17 3 18 2 19 1 20
REMARK H PARENT
REMARK Flexibility Score: inf
ROOT
ATOM      1  C   UNL     1      17.762 -34.482  19.277  1.00  0.00     0.000 C 
ENDROOT
BRANCH   1   2
ATOM      2  C   UNL     1      16.400 -35.039  19.727  1.00  0.00     0.000 C 
BRANCH   2   3
ATOM      3  C   UNL     1      15.258 -34.023  19.558  1.00  0.00     0.000 C 
BRANCH   3   4
ATOM      4  C   UNL     1      14.602 -33.646  20.898  1.00  0.00     0.000 C 
BRANCH   4   5
ATOM      5  C   UNL     1      15.292 -34.308  22.101  1.00  0.00     0.000 C 
BRANCH   5   6
ATOM      6  C   UNL     1      15.163 -33.480  23.389  1.00  0.00     0.000 C 
BRANCH   6   7
ATOM      7  C   UNL     1      15.946 -34.129  24.540  1.00  0.00     0.006 C 
BRANCH   7   8
ATOM      8  C   UNL     1      17.292 -34.700  24.080  1.00  0.00     0.053 C 
BRANCH   8   9
ATOM      9  C   UNL     1      18.414 -34.277  24.978  1.00  0.00     0.041 C 
ATOM     10  O   UNL     1      19.442 -34.996  25.090  1.00  0.00    -0.550 OA
ATOM     11  O   UNL     1      18.342 -33.068  25.659  1.00  0.00    -0.550 OA
ENDBRANCH   8   9
ENDBRANCH   7   8
ENDBRANCH   6   7
ENDBRANCH   5   6
ENDBRANCH   4   5
ENDBRANCH   3   4
ENDBRANCH   2   3
ENDBRANCH   1   2
BRANCH   1  12
ATOM     12  C   UNL     1      18.001 -33.046  19.768  1.00  0.00     0.000 C 
BRANCH  12  13
ATOM     13  C   UNL     1      18.700 -33.000  21.138  1.00  0.00    -0.000 C 
BRANCH  13  14
ATOM     14  C   UNL     1      18.354 -31.731  21.934  1.00  0.00    -0.000 C 
BRANCH  14  15
ATOM     15  C   UNL     1      17.219 -30.921  21.291  1.00  0.00    -0.000 C 
BRANCH  15  16
ATOM     16  C   UNL     1      16.263 -30.374  22.358  1.00  0.00    -0.000 C 
BRANCH  16  17
ATOM     17  C   UNL     1      15.219 -29.435  21.735  1.00  0.00    -0.000 C 
BRANCH  17  18
ATOM     18  C   UNL     1      14.131 -29.019  22.747  1.00  0.00    -0.000 C 
BRANCH  18  19
ATOM     19  C   UNL     1      13.335 -30.205  23.318  1.00  0.00    -0.003 C 
ATOM     20  C   UNL     1      12.485 -30.916  22.266  1.00  0.00     0.004 C 
ENDBRANCH  18  19
ENDBRANCH  17  18
ENDBRANCH  16  17
ENDBRANCH  15  16
ENDBRANCH  14  15
ENDBRANCH  13  14
ENDBRANCH  12  13
ENDBRANCH   1  12
TORSDOF 16
ENDMDL
MODEL 9
REMARK VINA RESULT:    -4.419      2.162      3.753
REMARK INTER + INTRA:         -11.200
REMARK INTER:                  -8.536
REMARK INTRA:                  -2.663
REMARK UNBOUND:                -2.647
REMARK SMILES CCCCCCCCCCCCCCCCCC(=O)[O-]
REMARK SMILES IDX 10 1 11 2 12 3 13 4 14 5 15 6 16 7 17 8 18 9 19 10 20 11
REMARK SMILES IDX 9 12 8 13 7 14 6 15 5 16 4 17 3 18 2 19 1 20
REMARK H PARENT
REMARK Flexibility Score: inf
ROOT
ATOM      1  C   UNL     1      15.122 -33.970  22.573  1.00  0.00     0.000 C 
ENDROOT
BRANCH   1   2
ATOM      2  C   UNL     1      14.602 -33.541  21.190  1.00  0.00     0.000 C 
BRANCH   2   3
ATOM      3  C   UNL     1      15.252 -34.330  20.041  1.00  0.00     0.000 C 
BRANCH   3   4
ATOM      4  C   UNL     1      16.772 -34.102  19.957  1.00  0.00     0.000 C 
BRANCH   4   5
ATOM      5  C   UNL     1      17.563 -35.416  19.861  1.00  0.00     0.000 C 
BRANCH   5   6
ATOM      6  C   UNL     1      17.589 -36.192  21.187  1.00  0.00     0.000 C 
BRANCH   6   7
ATOM      7  C   UNL     1      18.399 -35.435  22.250  1.00  0.00     0.006 C 
BRANCH   7   8
ATOM      8  C   UNL     1      18.494 -36.210  23.570  1.00  0.00     0.053 C 
BRANCH   8   9
ATOM      9  C   UNL     1      17.930 -35.428  24.717  1.00  0.00     0.041 C 
ATOM     10  O   UNL     1      16.779 -35.689  25.157  1.00  0.00    -0.550 OA
ATOM     11  O   UNL     1      18.692 -34.438  25.326  1.00  0.00    -0.550 OA
ENDBRANCH   8   9
ENDBRANCH   7   8
ENDBRANCH   6   7
ENDBRANCH   5   6
ENDBRANCH   4   5
ENDBRANCH   3   4
ENDBRANCH   2   3
ENDBRANCH   1   2
BRANCH   1  12
ATOM     12  C   UNL     1      15.293 -32.780  23.532  1.00  0.00     0.000 C 
BRANCH  12  13
ATOM     13  C   UNL     1      16.684 -32.132  23.423  1.00  0.00    -0.000 C 
BRANCH  13  14
ATOM     14  C   UNL     1      16.611 -30.614  23.193  1.00  0.00    -0.000 C 
BRANCH  14  15
ATOM     15  C   UNL     1      16.310 -30.252  21.731  1.00  0.00    -0.000 C 
BRANCH  15  16
ATOM     16  C   UNL     1      14.853 -29.802  21.567  1.00  0.00    -0.000 C 
BRANCH  16  17
ATOM     17  C   UNL     1      14.315 -29.188  22.868  1.00  0.00    -0.000 C 
BRANCH  17  18
ATOM     18  C   UNL     1      12.838 -29.559  23.122  1.00  0.00    -0.000 C 
BRANCH  18  19
ATOM     19  C   UNL     1      12.406 -30.869  22.441  1.00  0.00    -0.003 C 
ATOM     20  C   UNL     1      11.238 -30.684  21.474  1.00  0.00     0.004 C 
ENDBRANCH  18  19
ENDBRANCH  17  18
ENDBRANCH  16  17
ENDBRANCH  15  16
ENDBRANCH  14  15
ENDBRANCH  13  14
ENDBRANCH  12  13
ENDBRANCH   1  12
TORSDOF 16
ENDMDL
