MODEL 1
REMARK VINA RESULT:    -3.610      0.000      0.000
REMARK INTER + INTRA:         -14.662
REMARK INTER:                  -9.097
REMARK INTRA:                  -5.566
REMARK UNBOUND:                -5.566
REMARK SMILES CCCCCCCCCCCCCCCCCCCCCCCCCCCC(=O)[O-]
REMARK SMILES IDX 15 1 16 2 17 3 18 4 19 5 20 6 21 7 22 8 23 9 24 10 25 11
REMARK SMILES IDX 26 12 27 13 28 14 29 15 30 16 14 17 13 18 12 19 11 20 10 21
REMARK SMILES IDX 9 22 8 23 7 24 6 25 5 26 4 27 3 28 2 29 1 30
REMARK H PARENT
REMARK Flexibility Score: inf
ROOT
ATOM      1  C   UNL     1      24.053  14.905  22.156  1.00  0.00     0.000 C 
ENDROOT
BRANCH   1   2
ATOM      2  C   UNL     1      22.590  15.290  21.880  1.00  0.00     0.000 C 
BRANCH   2   3
ATOM      3  C   UNL     1      22.207  15.130  20.400  1.00  0.00     0.000 C 
BRANCH   3   4
ATOM      4  C   UNL     1      23.441  14.810  19.542  1.00  0.00     0.000 C 
BRANCH   4   5
ATOM      5  C   UNL     1      23.772  15.920  18.524  1.00  0.00     0.000 C 
BRANCH   5   6
ATOM      6  C   UNL     1      22.821  17.131  18.538  1.00  0.00     0.000 C 
BRANCH   6   7
ATOM      7  C   UNL     1      23.488  18.414  19.061  1.00  0.00     0.000 C 
BRANCH   7   8
ATOM      8  C   UNL     1      24.843  18.149  19.739  1.00  0.00     0.000 C 
BRANCH   8   9
ATOM      9  C   UNL     1      24.863  18.473  21.249  1.00  0.00     0.000 C 
BRANCH   9  10
ATOM     10  C   UNL     1      23.629  19.281  21.688  1.00  0.00     0.000 C 
BRANCH  10  11
ATOM     11  C   UNL     1      23.445  19.317  23.215  1.00  0.00     0.000 C 
BRANCH  11  12
ATOM     12  C   UNL     1      24.063  18.128  23.979  1.00  0.00     0.006 C 
BRANCH  12  13
ATOM     13  C   UNL     1      24.311  18.386  25.473  1.00  0.00     0.053 C 
BRANCH  13  14
ATOM     14  C   UNL     1      25.069  19.655  25.714  1.00  0.00     0.041 C 
ATOM     15  O   UNL     1      26.322  19.682  25.583  1.00  0.00    -0.550 OA
ATOM     16  O   UNL     1      24.391  20.812  26.085  1.00  0.00    -0.550 OA
ENDBRANCH  13  14
ENDBRANCH  12  13
ENDBRANCH  11  12
ENDBRANCH  10  11
ENDBRANCH   9  10
ENDBRANCH   8   9
ENDBRANCH   7   8
ENDBRANCH   6   7
ENDBRANCH   5   6
ENDBRANCH   4   5
ENDBRANCH   3   4
ENDBRANCH   2   3
ENDBRANCH   1   2
BRANCH   1  17
ATOM     17  C   UNL     1      24.321  14.633  23.647  1.00  0.00     0.000 C 
BRANCH  17  18
ATOM     18  C   UNL     1      25.407  13.567  23.865  1.00  0.00     0.000 C 
BRANCH  18  19
ATOM     19  C   UNL     1      26.300  13.367  22.628  1.00  0.00     0.000 C 
BRANCH  19  20
ATOM     20  C   UNL     1      26.721  11.901  22.440  1.00  0.00     0.000 C 
BRANCH  20  21
ATOM     21  C   UNL     1      25.588  11.025  21.872  1.00  0.00     0.000 C 
BRANCH  21  22
ATOM     22  C   UNL     1      24.980  11.606  20.585  1.00  0.00    -0.000 C 
BRANCH  22  23
ATOM     23  C   UNL     1      23.486  11.265  20.437  1.00  0.00    -0.000 C 
BRANCH  23  24
ATOM     24  C   UNL     1      22.882  10.673  21.721  1.00  0.00    -0.000 C 
BRANCH  24  25
ATOM     25  C   UNL     1      21.964  11.660  22.458  1.00  0.00    -0.000 C 
BRANCH  25  26
ATOM     26  C   UNL     1      22.240  11.641  23.967  1.00  0.00    -0.000 C 
BRANCH  26  27
ATOM     27  C   UNL     1      22.874  10.312  24.397  1.00  0.00    -0.000 C 
BRANCH  27  28
ATOM     28  C   UNL     1      23.749  10.501  25.645  1.00  0.00    -0.000 C 
BRANCH  28  29
ATOM     29  C   UNL     1      25.225  10.157  25.388  1.00  0.00    -0.003 C 
ATOM     30  C   UNL     1      26.185  11.023  26.203  1.00  0.00     0.004 C 
ENDBRANCH  28  29
ENDBRANCH  27  28
ENDBRANCH  26  27
ENDBRANCH  25  26
ENDBRANCH  24  25
ENDBRANCH  23  24
ENDBRANCH  22  23
ENDBRANCH  21  22
ENDBRANCH  20  21
ENDBRANCH  19  20
ENDBRANCH  18  19
ENDBRANCH  17  18
ENDBRANCH   1  17
TORSDOF 26
ENDMDL
MODEL 2
REMARK VINA RESULT:    -3.396      1.599      3.546
REMARK INTER + INTRA:         -14.125
REMARK INTER:                  -9.436
REMARK INTRA:                  -4.688
REMARK UNBOUND:                -5.566
REMARK SMILES CCCCCCCCCCCCCCCCCCCCCCCCCCCC(=O)[O-]
REMARK SMILES IDX 15 1 16 2 17 3 18 4 19 5 20 6 21 7 22 8 23 9 24 10 25 11
REMARK SMILES IDX 26 12 27 13 28 14 29 15 30 16 14 17 13 18 12 19 11 20 10 21
REMARK SMILES IDX 9 22 8 23 7 24 6 25 5 26 4 27 3 28 2 29 1 30
REMARK H PARENT
REMARK Flexibility Score: inf
ROOT
ATOM      1  C   UNL     1      24.041  13.108  19.669  1.00  0.00     0.000 C 
ENDROOT
BRANCH   1   2
ATOM      2  C   UNL     1      22.508  13.151  19.547  1.00  0.00     0.000 C 
BRANCH   2   3
ATOM      3  C   UNL     1      22.039  13.614  18.159  1.00  0.00     0.000 C 
BRANCH   3   4
ATOM      4  C   UNL     1      22.631  14.987  17.806  1.00  0.00     0.000 C 
BRANCH   4   5
ATOM      5  C   UNL     1      21.995  16.142  18.604  1.00  0.00     0.000 C 
BRANCH   5   6
ATOM      6  C   UNL     1      22.889  17.381  18.796  1.00  0.00     0.000 C 
BRANCH   6   7
ATOM      7  C   UNL     1      23.993  17.171  19.845  1.00  0.00     0.000 C 
BRANCH   7   8
ATOM      8  C   UNL     1      23.491  16.443  21.104  1.00  0.00     0.000 C 
BRANCH   8   9
ATOM      9  C   UNL     1      23.136  17.386  22.274  1.00  0.00     0.000 C 
BRANCH   9  10
ATOM     10  C   UNL     1      24.209  17.374  23.378  1.00  0.00     0.000 C 
BRANCH  10  11
ATOM     11  C   UNL     1      23.614  17.280  24.794  1.00  0.00     0.000 C 
BRANCH  11  12
ATOM     12  C   UNL     1      24.328  18.133  25.862  1.00  0.00     0.006 C 
BRANCH  12  13
ATOM     13  C   UNL     1      25.089  19.348  25.308  1.00  0.00     0.053 C 
BRANCH  13  14
ATOM     14  C   UNL     1      24.227  20.570  25.221  1.00  0.00     0.041 C 
ATOM     15  O   UNL     1      23.686  20.889  24.129  1.00  0.00    -0.550 OA
ATOM     16  O   UNL     1      24.019  21.357  26.348  1.00  0.00    -0.550 OA
ENDBRANCH  13  14
ENDBRANCH  12  13
ENDBRANCH  11  12
ENDBRANCH  10  11
ENDBRANCH   9  10
ENDBRANCH   8   9
ENDBRANCH   7   8
ENDBRANCH   6   7
ENDBRANCH   5   6
ENDBRANCH   4   5
ENDBRANCH   3   4
ENDBRANCH   2   3
ENDBRANCH   1   2
BRANCH   1  17
ATOM     17  C   UNL     1      24.547  11.794  20.292  1.00  0.00     0.000 C 
BRANCH  17  18
ATOM     18  C   UNL     1      23.402  10.829  20.639  1.00  0.00     0.000 C 
BRANCH  18  19
ATOM     19  C   UNL     1      23.266  10.587  22.152  1.00  0.00     0.000 C 
BRANCH  19  20
ATOM     20  C   UNL     1      22.004  11.239  22.739  1.00  0.00     0.000 C 
BRANCH  20  21
ATOM     21  C   UNL     1      22.323  12.268  23.840  1.00  0.00     0.000 C 
BRANCH  21  22
ATOM     22  C   UNL     1      23.065  13.502  23.299  1.00  0.00    -0.000 C 
BRANCH  22  23
ATOM     23  C   UNL     1      24.414  13.731  24.004  1.00  0.00    -0.000 C 
BRANCH  23  24
ATOM     24  C   UNL     1      25.566  13.981  23.016  1.00  0.00    -0.000 C 
BRANCH  24  25
ATOM     25  C   UNL     1      26.616  12.860  23.031  1.00  0.00    -0.000 C 
BRANCH  25  26
ATOM     26  C   UNL     1      26.249  11.780  24.056  1.00  0.00    -0.000 C 
BRANCH  26  27
ATOM     27  C   UNL     1      26.812  10.414  23.646  1.00  0.00    -0.000 C 
BRANCH  27  28
ATOM     28  C   UNL     1      27.716  10.542  22.410  1.00  0.00    -0.000 C 
BRANCH  28  29
ATOM     29  C   UNL     1      28.294   9.191  21.959  1.00  0.00    -0.003 C 
ATOM     30  C   UNL     1      29.001   9.272  20.608  1.00  0.00     0.004 C 
ENDBRANCH  28  29
ENDBRANCH  27  28
ENDBRANCH  26  27
ENDBRANCH  25  26
ENDBRANCH  24  25
ENDBRANCH  23  24
ENDBRANCH  22  23
ENDBRANCH  21  22
ENDBRANCH  20  21
ENDBRANCH  19  20
ENDBRANCH  18  19
ENDBRANCH  17  18
ENDBRANCH   1  17
TORSDOF 26
ENDMDL
MODEL 3
REMARK VINA RESULT:    -3.356      7.867     12.705
REMARK INTER + INTRA:         -14.023
REMARK INTER:                  -9.064
REMARK INTRA:                  -4.959
REMARK UNBOUND:                -5.566
REMARK SMILES CCCCCCCCCCCCCCCCCCCCCCCCCCCC(=O)[O-]
REMARK SMILES IDX 15 1 16 2 17 3 18 4 19 5 20 6 21 7 22 8 23 9 24 10 25 11
REMARK SMILES IDX 26 12 27 13 28 14 29 15 30 16 14 17 13 18 12 19 11 20 10 21
REMARK SMILES IDX 9 22 8 23 7 24 6 25 5 26 4 27 3 28 2 29 1 30
REMARK H PARENT
REMARK Flexibility Score: inf
ROOT
ATOM      1  C   UNL     1      26.650  28.570  18.995  1.00  0.00     0.000 C 
ENDROOT
BRANCH   1   2
ATOM      2  C   UNL     1      25.533  28.124  19.953  1.00  0.00     0.000 C 
BRANCH   2   3
ATOM      3  C   UNL     1      24.388  27.398  19.228  1.00  0.00     0.000 C 
BRANCH   3   4
ATOM      4  C   UNL     1      23.360  26.851  20.231  1.00  0.00     0.000 C 
BRANCH   4   5
ATOM      5  C   UNL     1      23.475  27.495  21.626  1.00  0.00     0.000 C 
BRANCH   5   6
ATOM      6  C   UNL     1      22.711  26.772  22.751  1.00  0.00     0.000 C 
BRANCH   6   7
ATOM      7  C   UNL     1      22.863  27.457  24.119  1.00  0.00     0.000 C 
BRANCH   7   8
ATOM      8  C   UNL     1      23.651  26.605  25.130  1.00  0.00     0.000 C 
BRANCH   8   9
ATOM      9  C   UNL     1      22.864  25.394  25.677  1.00  0.00     0.000 C 
BRANCH   9  10
ATOM     10  C   UNL     1      23.748  24.456  26.516  1.00  0.00     0.000 C 
BRANCH  10  11
ATOM     11  C   UNL     1      22.956  23.668  27.574  1.00  0.00     0.000 C 
BRANCH  11  12
ATOM     12  C   UNL     1      22.674  22.193  27.219  1.00  0.00     0.006 C 
BRANCH  12  13
ATOM     13  C   UNL     1      23.917  21.383  26.819  1.00  0.00     0.053 C 
BRANCH  13  14
ATOM     14  C   UNL     1      23.837  20.873  25.412  1.00  0.00     0.041 C 
ATOM     15  O   UNL     1      23.644  19.648  25.191  1.00  0.00    -0.550 OA
ATOM     16  O   UNL     1      23.975  21.752  24.344  1.00  0.00    -0.550 OA
ENDBRANCH  13  14
ENDBRANCH  12  13
ENDBRANCH  11  12
ENDBRANCH  10  11
ENDBRANCH   9  10
ENDBRANCH   8   9
ENDBRANCH   7   8
ENDBRANCH   6   7
ENDBRANCH   5   6
ENDBRANCH   4   5
ENDBRANCH   3   4
ENDBRANCH   2   3
ENDBRANCH   1   2
BRANCH   1  17
ATOM     17  C   UNL     1      27.967  27.809  19.228  1.00  0.00     0.000 C 
BRANCH  17  18
ATOM     18  C   UNL     1      29.120  28.740  19.636  1.00  0.00     0.000 C 
BRANCH  18  19
ATOM     19  C   UNL     1      29.077  29.123  21.125  1.00  0.00     0.000 C 
BRANCH  19  20
ATOM     20  C   UNL     1      28.980  27.894  22.044  1.00  0.00     0.000 C 
BRANCH  20  21
ATOM     21  C   UNL     1      28.012  28.108  23.222  1.00  0.00     0.000 C 
BRANCH  21  22
ATOM     22  C   UNL     1      26.786  27.182  23.155  1.00  0.00    -0.000 C 
BRANCH  22  23
ATOM     23  C   UNL     1      27.132  25.788  22.601  1.00  0.00    -0.000 C 
BRANCH  23  24
ATOM     24  C   UNL     1      25.979  24.783  22.762  1.00  0.00    -0.000 C 
BRANCH  24  25
ATOM     25  C   UNL     1      25.534  24.171  21.425  1.00  0.00    -0.000 C 
BRANCH  25  26
ATOM     26  C   UNL     1      26.514  24.535  20.303  1.00  0.00    -0.000 C 
BRANCH  26  27
ATOM     27  C   UNL     1      26.051  23.964  18.957  1.00  0.00    -0.000 C 
BRANCH  27  28
ATOM     28  C   UNL     1      26.916  24.502  17.807  1.00  0.00    -0.000 C 
BRANCH  28  29
ATOM     29  C   UNL     1      26.090  25.240  16.742  1.00  0.00    -0.003 C 
ATOM     30  C   UNL     1      26.892  26.313  16.009  1.00  0.00     0.004 C 
ENDBRANCH  28  29
ENDBRANCH  27  28
ENDBRANCH  26  27
ENDBRANCH  25  26
ENDBRANCH  24  25
ENDBRANCH  23  24
ENDBRANCH  22  23
ENDBRANCH  21  22
ENDBRANCH  20  21
ENDBRANCH  19  20
ENDBRANCH  18  19
ENDBRANCH  17  18
ENDBRANCH   1  17
TORSDOF 26
ENDMDL
MODEL 4
REMARK VINA RESULT:    -3.282      8.091     12.609
REMARK INTER + INTRA:         -13.836
REMARK INTER:                  -9.167
REMARK INTRA:                  -4.669
REMARK UNBOUND:                -5.566
REMARK SMILES CCCCCCCCCCCCCCCCCCCCCCCCCCCC(=O)[O-]
REMARK SMILES IDX 15 1 16 2 17 3 18 4 19 5 20 6 21 7 22 8 23 9 24 10 25 11
REMARK SMILES IDX 26 12 27 13 28 14 29 15 30 16 14 17 13 18 12 19 11 20 10 21
REMARK SMILES IDX 9 22 8 23 7 24 6 25 5 26 4 27 3 28 2 29 1 30
REMARK H PARENT
REMARK Flexibility Score: inf
ROOT
ATOM      1  C   UNL     1      26.744  27.241  22.863  1.00  0.00     0.000 C 
ENDROOT
BRANCH   1   2
ATOM      2  C   UNL     1      26.631  25.715  23.004  1.00  0.00     0.000 C 
BRANCH   2   3
ATOM      3  C   UNL     1      25.312  25.279  23.661  1.00  0.00     0.000 C 
BRANCH   3   4
ATOM      4  C   UNL     1      25.027  26.105  24.925  1.00  0.00     0.000 C 
BRANCH   4   5
ATOM      5  C   UNL     1      23.526  26.390  25.134  1.00  0.00     0.000 C 
BRANCH   5   6
ATOM      6  C   UNL     1      22.999  27.671  24.462  1.00  0.00     0.000 C 
BRANCH   6   7
ATOM      7  C   UNL     1      22.066  27.388  23.274  1.00  0.00     0.000 C 
BRANCH   7   8
ATOM      8  C   UNL     1      22.618  27.920  21.940  1.00  0.00     0.000 C 
BRANCH   8   9
ATOM      9  C   UNL     1      23.488  26.903  21.171  1.00  0.00     0.000 C 
BRANCH   9  10
ATOM     10  C   UNL     1      24.031  27.480  19.851  1.00  0.00     0.000 C 
BRANCH  10  11
ATOM     11  C   UNL     1      23.277  26.962  18.613  1.00  0.00     0.000 C 
BRANCH  11  12
ATOM     12  C   UNL     1      24.174  26.493  17.449  1.00  0.00     0.006 C 
BRANCH  12  13
ATOM     13  C   UNL     1      24.985  27.611  16.775  1.00  0.00     0.053 C 
BRANCH  13  14
ATOM     14  C   UNL     1      25.439  27.233  15.398  1.00  0.00     0.041 C 
ATOM     15  O   UNL     1      24.764  27.574  14.390  1.00  0.00    -0.550 OA
ATOM     16  O   UNL     1      26.611  26.504  15.226  1.00  0.00    -0.550 OA
ENDBRANCH  13  14
ENDBRANCH  12  13
ENDBRANCH  11  12
ENDBRANCH  10  11
ENDBRANCH   9  10
ENDBRANCH   8   9
ENDBRANCH   7   8
ENDBRANCH   6   7
ENDBRANCH   5   6
ENDBRANCH   4   5
ENDBRANCH   3   4
ENDBRANCH   2   3
ENDBRANCH   1   2
BRANCH   1  17
ATOM     17  C   UNL     1      28.205  27.727  22.854  1.00  0.00     0.000 C 
BRANCH  17  18
ATOM     18  C   UNL     1      28.653  28.219  21.468  1.00  0.00     0.000 C 
BRANCH  18  19
ATOM     19  C   UNL     1      27.503  28.844  20.659  1.00  0.00     0.000 C 
BRANCH  19  20
ATOM     20  C   UNL     1      27.504  28.389  19.191  1.00  0.00     0.000 C 
BRANCH  20  21
ATOM     21  C   UNL     1      28.539  27.284  18.911  1.00  0.00     0.000 C 
BRANCH  21  22
ATOM     22  C   UNL     1      27.890  25.968  18.453  1.00  0.00    -0.000 C 
BRANCH  22  23
ATOM     23  C   UNL     1      27.092  25.284  19.578  1.00  0.00    -0.000 C 
BRANCH  23  24
ATOM     24  C   UNL     1      26.357  24.020  19.101  1.00  0.00    -0.000 C 
BRANCH  24  25
ATOM     25  C   UNL     1      25.035  23.783  19.846  1.00  0.00    -0.000 C 
BRANCH  25  26
ATOM     26  C   UNL     1      24.129  22.827  19.062  1.00  0.00    -0.000 C 
BRANCH  26  27
ATOM     27  C   UNL     1      24.887  21.558  18.652  1.00  0.00    -0.000 C 
BRANCH  27  28
ATOM     28  C   UNL     1      24.029  20.305  18.891  1.00  0.00    -0.000 C 
BRANCH  28  29
ATOM     29  C   UNL     1      24.465  19.522  20.140  1.00  0.00    -0.003 C 
ATOM     30  C   UNL     1      25.642  18.588  19.871  1.00  0.00     0.004 C 
ENDBRANCH  28  29
ENDBRANCH  27  28
ENDBRANCH  26  27
ENDBRANCH  25  26
ENDBRANCH  24  25
ENDBRANCH  23  24
ENDBRANCH  22  23
ENDBRANCH  21  22
ENDBRANCH  20  21
ENDBRANCH  19  20
ENDBRANCH  18  19
ENDBRANCH  17  18
ENDBRANCH   1  17
TORSDOF 26
ENDMDL
MODEL 5
REMARK VINA RESULT:    -3.282      7.235     12.242
REMARK INTER + INTRA:         -13.836
REMARK INTER:                  -8.995
REMARK INTRA:                  -4.840
REMARK UNBOUND:                -5.566
REMARK SMILES CCCCCCCCCCCCCCCCCCCCCCCCCCCC(=O)[O-]
REMARK SMILES IDX 15 1 16 2 17 3 18 4 19 5 20 6 21 7 22 8 23 9 24 10 25 11
REMARK SMILES IDX 26 12 27 13 28 14 29 15 30 16 14 17 13 18 12 19 11 20 10 21
REMARK SMILES IDX 9 22 8 23 7 24 6 25 5 26 4 27 3 28 2 29 1 30
REMARK H PARENT
REMARK Flexibility Score: inf
ROOT
ATOM      1  C   UNL     1      27.761  26.571  22.538  1.00  0.00     0.000 C 
ENDROOT
BRANCH   1   2
ATOM      2  C   UNL     1      26.483  25.863  23.016  1.00  0.00     0.000 C 
BRANCH   2   3
ATOM      3  C   UNL     1      25.606  26.762  23.902  1.00  0.00     0.000 C 
BRANCH   3   4
ATOM      4  C   UNL     1      24.879  25.937  24.976  1.00  0.00     0.000 C 
BRANCH   4   5
ATOM      5  C   UNL     1      23.457  26.451  25.272  1.00  0.00     0.000 C 
BRANCH   5   6
ATOM      6  C   UNL     1      23.024  27.691  24.469  1.00  0.00     0.000 C 
BRANCH   6   7
ATOM      7  C   UNL     1      22.017  27.364  23.353  1.00  0.00     0.000 C 
BRANCH   7   8
ATOM      8  C   UNL     1      22.577  27.634  21.945  1.00  0.00     0.000 C 
BRANCH   8   9
ATOM      9  C   UNL     1      22.916  26.354  21.150  1.00  0.00     0.000 C 
BRANCH   9  10
ATOM     10  C   UNL     1      22.577  25.074  21.934  1.00  0.00     0.000 C 
BRANCH  10  11
ATOM     11  C   UNL     1      23.676  24.000  21.837  1.00  0.00     0.000 C 
BRANCH  11  12
ATOM     12  C   UNL     1      23.362  22.674  22.559  1.00  0.00     0.006 C 
BRANCH  12  13
ATOM     13  C   UNL     1      23.706  22.663  24.057  1.00  0.00     0.053 C 
BRANCH  13  14
ATOM     14  C   UNL     1      23.748  21.276  24.622  1.00  0.00     0.041 C 
ATOM     15  O   UNL     1      23.197  21.024  25.726  1.00  0.00    -0.550 OA
ATOM     16  O   UNL     1      24.396  20.261  23.928  1.00  0.00    -0.550 OA
ENDBRANCH  13  14
ENDBRANCH  12  13
ENDBRANCH  11  12
ENDBRANCH  10  11
ENDBRANCH   9  10
ENDBRANCH   8   9
ENDBRANCH   7   8
ENDBRANCH   6   7
ENDBRANCH   5   6
ENDBRANCH   4   5
ENDBRANCH   3   4
ENDBRANCH   2   3
ENDBRANCH   1   2
BRANCH   1  17
ATOM     17  C   UNL     1      27.880  28.006  23.083  1.00  0.00     0.000 C 
BRANCH  17  18
ATOM     18  C   UNL     1      28.614  28.945  22.111  1.00  0.00     0.000 C 
BRANCH  18  19
ATOM     19  C   UNL     1      29.859  28.296  21.483  1.00  0.00     0.000 C 
BRANCH  19  20
ATOM     20  C   UNL     1      30.036  28.676  20.004  1.00  0.00     0.000 C 
BRANCH  20  21
ATOM     21  C   UNL     1      28.747  28.486  19.183  1.00  0.00     0.000 C 
BRANCH  21  22
ATOM     22  C   UNL     1      28.437  27.006  18.902  1.00  0.00    -0.000 C 
BRANCH  22  23
ATOM     23  C   UNL     1      27.011  26.798  18.361  1.00  0.00    -0.000 C 
BRANCH  23  24
ATOM     24  C   UNL     1      26.102  26.055  19.355  1.00  0.00    -0.000 C 
BRANCH  24  25
ATOM     25  C   UNL     1      26.444  24.563  19.473  1.00  0.00    -0.000 C 
BRANCH  25  26
ATOM     26  C   UNL     1      26.199  23.839  18.142  1.00  0.00    -0.000 C 
BRANCH  26  27
ATOM     27  C   UNL     1      24.724  23.921  17.730  1.00  0.00    -0.000 C 
BRANCH  27  28
ATOM     28  C   UNL     1      23.905  22.810  18.403  1.00  0.00    -0.000 C 
BRANCH  28  29
ATOM     29  C   UNL     1      24.597  21.439  18.331  1.00  0.00    -0.003 C 
ATOM     30  C   UNL     1      24.535  20.675  19.651  1.00  0.00     0.004 C 
ENDBRANCH  28  29
ENDBRANCH  27  28
ENDBRANCH  26  27
ENDBRANCH  25  26
ENDBRANCH  24  25
ENDBRANCH  23  24
ENDBRANCH  22  23
ENDBRANCH  21  22
ENDBRANCH  20  21
ENDBRANCH  19  20
ENDBRANCH  18  19
ENDBRANCH  17  18
ENDBRANCH   1  17
TORSDOF 26
ENDMDL
MODEL 6
REMARK VINA RESULT:    -3.206      2.223      6.101
REMARK INTER + INTRA:         -13.644
REMARK INTER:                  -8.164
REMARK INTRA:                  -5.480
REMARK UNBOUND:                -5.566
REMARK SMILES CCCCCCCCCCCCCCCCCCCCCCCCCCCC(=O)[O-]
REMARK SMILES IDX 15 1 16 2 17 3 18 4 19 5 20 6 21 7 22 8 23 9 24 10 25 11
REMARK SMILES IDX 26 12 27 13 28 14 29 15 30 16 14 17 13 18 12 19 11 20 10 21
REMARK SMILES IDX 9 22 8 23 7 24 6 25 5 26 4 27 3 28 2 29 1 30
REMARK H PARENT
REMARK Flexibility Score: inf
ROOT
ATOM      1  C   UNL     1      23.288  12.924  24.275  1.00  0.00     0.000 C 
ENDROOT
BRANCH   1   2
ATOM      2  C   UNL     1      23.408  14.060  23.246  1.00  0.00     0.000 C 
BRANCH   2   3
ATOM      3  C   UNL     1      24.866  14.467  22.982  1.00  0.00     0.000 C 
BRANCH   3   4
ATOM      4  C   UNL     1      25.842  13.491  23.657  1.00  0.00     0.000 C 
BRANCH   4   5
ATOM      5  C   UNL     1      26.734  12.737  22.652  1.00  0.00     0.000 C 
BRANCH   5   6
ATOM      6  C   UNL     1      26.115  11.462  22.049  1.00  0.00     0.000 C 
BRANCH   6   7
ATOM      7  C   UNL     1      25.495  11.692  20.661  1.00  0.00     0.000 C 
BRANCH   7   8
ATOM      8  C   UNL     1      23.986  11.397  20.624  1.00  0.00     0.000 C 
BRANCH   8   9
ATOM      9  C   UNL     1      23.152  12.482  19.907  1.00  0.00     0.000 C 
BRANCH   9  10
ATOM     10  C   UNL     1      24.019  13.658  19.424  1.00  0.00     0.000 C 
BRANCH  10  11
ATOM     11  C   UNL     1      23.210  14.739  18.685  1.00  0.00     0.000 C 
BRANCH  11  12
ATOM     12  C   UNL     1      23.820  16.155  18.723  1.00  0.00     0.006 C 
BRANCH  12  13
ATOM     13  C   UNL     1      23.897  16.782  20.124  1.00  0.00     0.053 C 
BRANCH  13  14
ATOM     14  C   UNL     1      24.412  18.189  20.091  1.00  0.00     0.041 C 
ATOM     15  O   UNL     1      23.612  19.159  20.163  1.00  0.00    -0.550 OA
ATOM     16  O   UNL     1      25.777  18.428  19.981  1.00  0.00    -0.550 OA
ENDBRANCH  13  14
ENDBRANCH  12  13
ENDBRANCH  11  12
ENDBRANCH  10  11
ENDBRANCH   9  10
ENDBRANCH   8   9
ENDBRANCH   7   8
ENDBRANCH   6   7
ENDBRANCH   5   6
ENDBRANCH   4   5
ENDBRANCH   3   4
ENDBRANCH   2   3
ENDBRANCH   1   2
BRANCH   1  17
ATOM     17  C   UNL     1      22.268  11.851  23.855  1.00  0.00     0.000 C 
BRANCH  17  18
ATOM     18  C   UNL     1      22.776  10.423  24.112  1.00  0.00     0.000 C 
BRANCH  18  19
ATOM     19  C   UNL     1      24.139  10.396  24.826  1.00  0.00     0.000 C 
BRANCH  19  20
ATOM     20  C   UNL     1      24.040   9.848  26.259  1.00  0.00     0.000 C 
BRANCH  20  21
ATOM     21  C   UNL     1      24.341  10.917  27.326  1.00  0.00     0.000 C 
BRANCH  21  22
ATOM     22  C   UNL     1      23.073  11.636  27.816  1.00  0.00    -0.000 C 
BRANCH  22  23
ATOM     23  C   UNL     1      23.280  13.155  27.962  1.00  0.00    -0.000 C 
BRANCH  23  24
ATOM     24  C   UNL     1      24.700  13.600  27.575  1.00  0.00    -0.000 C 
BRANCH  24  25
ATOM     25  C   UNL     1      24.749  15.042  27.049  1.00  0.00    -0.000 C 
BRANCH  25  26
ATOM     26  C   UNL     1      23.334  15.605  26.866  1.00  0.00    -0.000 C 
BRANCH  26  27
ATOM     27  C   UNL     1      23.316  16.728  25.821  1.00  0.00    -0.000 C 
BRANCH  27  28
ATOM     28  C   UNL     1      24.606  17.560  25.889  1.00  0.00    -0.000 C 
BRANCH  28  29
ATOM     29  C   UNL     1      24.440  18.959  25.276  1.00  0.00    -0.003 C 
ATOM     30  C   UNL     1      24.214  18.921  23.766  1.00  0.00     0.004 C 
ENDBRANCH  28  29
ENDBRANCH  27  28
ENDBRANCH  26  27
ENDBRANCH  25  26
ENDBRANCH  24  25
ENDBRANCH  23  24
ENDBRANCH  22  23
ENDBRANCH  21  22
ENDBRANCH  20  21
ENDBRANCH  19  20
ENDBRANCH  18  19
ENDBRANCH  17  18
ENDBRANCH   1  17
TORSDOF 26
ENDMDL
MODEL 7
REMARK VINA RESULT:    -3.185      2.147      5.773
REMARK INTER + INTRA:         -13.592
REMARK INTER:                  -8.624
REMARK INTRA:                  -4.968
REMARK UNBOUND:                -5.566
REMARK SMILES CCCCCCCCCCCCCCCCCCCCCCCCCCCC(=O)[O-]
REMARK SMILES IDX 15 1 16 2 17 3 18 4 19 5 20 6 21 7 22 8 23 9 24 10 25 11
REMARK SMILES IDX 26 12 27 13 28 14 29 15 30 16 14 17 13 18 12 19 11 20 10 21
REMARK SMILES IDX 9 22 8 23 7 24 6 25 5 26 4 27 3 28 2 29 1 30
REMARK H PARENT
REMARK Flexibility Score: inf
ROOT
ATOM      1  C   UNL     1      26.567  12.265  22.506  1.00  0.00     0.000 C 
ENDROOT
BRANCH   1   2
ATOM      2  C   UNL     1      25.624  12.896  21.468  1.00  0.00     0.000 C 
BRANCH   2   3
ATOM      3  C   UNL     1      25.129  11.881  20.426  1.00  0.00     0.000 C 
BRANCH   3   4
ATOM      4  C   UNL     1      23.596  11.775  20.443  1.00  0.00     0.000 C 
BRANCH   4   5
ATOM      5  C   UNL     1      23.093  10.356  20.772  1.00  0.00     0.000 C 
BRANCH   5   6
ATOM      6  C   UNL     1      22.290  10.228  22.079  1.00  0.00     0.000 C 
BRANCH   6   7
ATOM      7  C   UNL     1      23.077  10.690  23.317  1.00  0.00     0.000 C 
BRANCH   7   8
ATOM      8  C   UNL     1      22.166  11.092  24.489  1.00  0.00     0.000 C 
BRANCH   8   9
ATOM      9  C   UNL     1      22.059  12.617  24.706  1.00  0.00     0.000 C 
BRANCH   9  10
ATOM     10  C   UNL     1      23.020  13.404  23.797  1.00  0.00     0.000 C 
BRANCH  10  11
ATOM     11  C   UNL     1      22.293  14.370  22.844  1.00  0.00     0.000 C 
BRANCH  11  12
ATOM     12  C   UNL     1      22.799  15.826  22.875  1.00  0.00     0.006 C 
BRANCH  12  13
ATOM     13  C   UNL     1      24.152  16.049  22.182  1.00  0.00     0.053 C 
BRANCH  13  14
ATOM     14  C   UNL     1      24.209  17.355  21.450  1.00  0.00     0.041 C 
ATOM     15  O   UNL     1      24.122  17.383  20.193  1.00  0.00    -0.550 OA
ATOM     16  O   UNL     1      24.359  18.543  22.156  1.00  0.00    -0.550 OA
ENDBRANCH  13  14
ENDBRANCH  12  13
ENDBRANCH  11  12
ENDBRANCH  10  11
ENDBRANCH   9  10
ENDBRANCH   8   9
ENDBRANCH   7   8
ENDBRANCH   6   7
ENDBRANCH   5   6
ENDBRANCH   4   5
ENDBRANCH   3   4
ENDBRANCH   2   3
ENDBRANCH   1   2
BRANCH   1  17
ATOM     17  C   UNL     1      26.669  10.736  22.359  1.00  0.00     0.000 C 
BRANCH  17  18
ATOM     18  C   UNL     1      28.123  10.252  22.239  1.00  0.00     0.000 C 
BRANCH  18  19
ATOM     19  C   UNL     1      28.666   9.667  23.554  1.00  0.00     0.000 C 
BRANCH  19  20
ATOM     20  C   UNL     1      27.544   9.186  24.489  1.00  0.00     0.000 C 
BRANCH  20  21
ATOM     21  C   UNL     1      27.572   9.886  25.860  1.00  0.00     0.000 C 
BRANCH  21  22
ATOM     22  C   UNL     1      26.165  10.115  26.436  1.00  0.00    -0.000 C 
BRANCH  22  23
ATOM     23  C   UNL     1      25.532  11.427  25.936  1.00  0.00    -0.000 C 
BRANCH  23  24
ATOM     24  C   UNL     1      26.423  12.653  26.200  1.00  0.00    -0.000 C 
BRANCH  24  25
ATOM     25  C   UNL     1      25.738  13.706  27.084  1.00  0.00    -0.000 C 
BRANCH  25  26
ATOM     26  C   UNL     1      24.922  14.687  26.232  1.00  0.00    -0.000 C 
BRANCH  26  27
ATOM     27  C   UNL     1      23.747  15.267  27.029  1.00  0.00    -0.000 C 
BRANCH  27  28
ATOM     28  C   UNL     1      23.810  16.801  27.060  1.00  0.00    -0.000 C 
BRANCH  28  29
ATOM     29  C   UNL     1      24.518  17.388  25.829  1.00  0.00    -0.003 C 
ATOM     30  C   UNL     1      24.286  18.890  25.672  1.00  0.00     0.004 C 
ENDBRANCH  28  29
ENDBRANCH  27  28
ENDBRANCH  26  27
ENDBRANCH  25  26
ENDBRANCH  24  25
ENDBRANCH  23  24
ENDBRANCH  22  23
ENDBRANCH  21  22
ENDBRANCH  20  21
ENDBRANCH  19  20
ENDBRANCH  18  19
ENDBRANCH  17  18
ENDBRANCH   1  17
TORSDOF 26
ENDMDL
MODEL 8
REMARK VINA RESULT:    -3.171      2.020      5.320
REMARK INTER + INTRA:         -13.557
REMARK INTER:                  -8.014
REMARK INTRA:                  -5.543
REMARK UNBOUND:                -5.566
REMARK SMILES CCCCCCCCCCCCCCCCCCCCCCCCCCCC(=O)[O-]
REMARK SMILES IDX 15 1 16 2 17 3 18 4 19 5 20 6 21 7 22 8 23 9 24 10 25 11
REMARK SMILES IDX 26 12 27 13 28 14 29 15 30 16 14 17 13 18 12 19 11 20 10 21
REMARK SMILES IDX 9 22 8 23 7 24 6 25 5 26 4 27 3 28 2 29 1 30
REMARK H PARENT
REMARK Flexibility Score: inf
ROOT
ATOM      1  C   UNL     1      25.679  13.513  24.248  1.00  0.00     0.000 C 
ENDROOT
BRANCH   1   2
ATOM      2  C   UNL     1      26.182  13.384  22.801  1.00  0.00     0.000 C 
BRANCH   2   3
ATOM      3  C   UNL     1      27.088  12.160  22.597  1.00  0.00     0.000 C 
BRANCH   3   4
ATOM      4  C   UNL     1      26.351  11.050  21.830  1.00  0.00     0.000 C 
BRANCH   4   5
ATOM      5  C   UNL     1      25.105  11.560  21.079  1.00  0.00     0.000 C 
BRANCH   5   6
ATOM      6  C   UNL     1      23.795  10.815  21.395  1.00  0.00     0.000 C 
BRANCH   6   7
ATOM      7  C   UNL     1      22.552  11.714  21.295  1.00  0.00     0.000 C 
BRANCH   7   8
ATOM      8  C   UNL     1      22.748  12.901  20.336  1.00  0.00     0.000 C 
BRANCH   8   9
ATOM      9  C   UNL     1      22.444  14.276  20.969  1.00  0.00     0.000 C 
BRANCH   9  10
ATOM     10  C   UNL     1      23.701  15.158  21.079  1.00  0.00     0.000 C 
BRANCH  10  11
ATOM     11  C   UNL     1      23.653  16.129  22.272  1.00  0.00     0.000 C 
BRANCH  11  12
ATOM     12  C   UNL     1      24.033  17.588  21.945  1.00  0.00     0.006 C 
BRANCH  12  13
ATOM     13  C   UNL     1      23.162  18.647  22.639  1.00  0.00     0.053 C 
BRANCH  13  14
ATOM     14  C   UNL     1      23.758  20.019  22.555  1.00  0.00     0.041 C 
ATOM     15  O   UNL     1      23.933  20.567  21.435  1.00  0.00    -0.550 OA
ATOM     16  O   UNL     1      24.120  20.693  23.716  1.00  0.00    -0.550 OA
ENDBRANCH  13  14
ENDBRANCH  12  13
ENDBRANCH  11  12
ENDBRANCH  10  11
ENDBRANCH   9  10
ENDBRANCH   8   9
ENDBRANCH   7   8
ENDBRANCH   6   7
ENDBRANCH   5   6
ENDBRANCH   4   5
ENDBRANCH   3   4
ENDBRANCH   2   3
ENDBRANCH   1   2
BRANCH   1  17
ATOM     17  C   UNL     1      24.228  13.028  24.415  1.00  0.00     0.000 C 
BRANCH  17  18
ATOM     18  C   UNL     1      24.085  11.965  25.516  1.00  0.00     0.000 C 
BRANCH  18  19
ATOM     19  C   UNL     1      24.608  10.585  25.082  1.00  0.00     0.000 C 
BRANCH  19  20
ATOM     20  C   UNL     1      25.664  10.026  26.049  1.00  0.00     0.000 C 
BRANCH  20  21
ATOM     21  C   UNL     1      27.103  10.369  25.621  1.00  0.00     0.000 C 
BRANCH  21  22
ATOM     22  C   UNL     1      28.029  10.636  26.820  1.00  0.00    -0.000 C 
BRANCH  22  23
ATOM     23  C   UNL     1      27.314  11.390  27.956  1.00  0.00    -0.000 C 
BRANCH  23  24
ATOM     24  C   UNL     1      27.098  12.879  27.637  1.00  0.00    -0.000 C 
BRANCH  24  25
ATOM     25  C   UNL     1      25.877  13.471  28.355  1.00  0.00    -0.000 C 
BRANCH  25  26
ATOM     26  C   UNL     1      25.511  14.842  27.772  1.00  0.00    -0.000 C 
BRANCH  26  27
ATOM     27  C   UNL     1      24.049  15.198  28.070  1.00  0.00    -0.000 C 
BRANCH  27  28
ATOM     28  C   UNL     1      23.377  15.825  26.839  1.00  0.00    -0.000 C 
BRANCH  28  29
ATOM     29  C   UNL     1      24.379  16.535  25.916  1.00  0.00    -0.003 C 
ATOM     30  C   UNL     1      24.355  18.054  26.071  1.00  0.00     0.004 C 
ENDBRANCH  28  29
ENDBRANCH  27  28
ENDBRANCH  26  27
ENDBRANCH  25  26
ENDBRANCH  24  25
ENDBRANCH  23  24
ENDBRANCH  22  23
ENDBRANCH  21  22
ENDBRANCH  20  21
ENDBRANCH  19  20
ENDBRANCH  18  19
ENDBRANCH  17  18
ENDBRANCH   1  17
TORSDOF 26
ENDMDL
MODEL 9
REMARK VINA RESULT:    -3.165      8.512     12.745
REMARK INTER + INTRA:         -13.542
REMARK INTER:                  -8.270
REMARK INTRA:                  -5.272
REMARK UNBOUND:                -5.566
REMARK SMILES CCCCCCCCCCCCCCCCCCCCCCCCCCCC(=O)[O-]
REMARK SMILES IDX 15 1 16 2 17 3 18 4 19 5 20 6 21 7 22 8 23 9 24 10 25 11
REMARK SMILES IDX 26 12 27 13 28 14 29 15 30 16 14 17 13 18 12 19 11 20 10 21
REMARK SMILES IDX 9 22 8 23 7 24 6 25 5 26 4 27 3 28 2 29 1 30
REMARK H PARENT
REMARK Flexibility Score: inf
ROOT
ATOM      1  C   UNL     1      27.120  25.868  22.513  1.00  0.00     0.000 C 
ENDROOT
BRANCH   1   2
ATOM      2  C   UNL     1      25.810  25.458  21.820  1.00  0.00     0.000 C 
BRANCH   2   3
ATOM      3  C   UNL     1      25.323  24.067  22.255  1.00  0.00     0.000 C 
BRANCH   3   4
ATOM      4  C   UNL     1      23.866  23.834  21.824  1.00  0.00     0.000 C 
BRANCH   4   5
ATOM      5  C   UNL     1      22.996  23.228  22.943  1.00  0.00     0.000 C 
BRANCH   5   6
ATOM      6  C   UNL     1      23.772  22.560  24.093  1.00  0.00     0.000 C 
BRANCH   6   7
ATOM      7  C   UNL     1      23.346  23.066  25.481  1.00  0.00     0.000 C 
BRANCH   7   8
ATOM      8  C   UNL     1      22.964  24.556  25.483  1.00  0.00     0.000 C 
BRANCH   8   9
ATOM      9  C   UNL     1      24.175  25.514  25.498  1.00  0.00     0.000 C 
BRANCH   9  10
ATOM     10  C   UNL     1      23.898  26.816  24.725  1.00  0.00     0.000 C 
BRANCH  10  11
ATOM     11  C   UNL     1      22.530  26.817  24.019  1.00  0.00     0.000 C 
BRANCH  11  12
ATOM     12  C   UNL     1      22.399  27.810  22.846  1.00  0.00     0.006 C 
BRANCH  12  13
ATOM     13  C   UNL     1      22.395  27.160  21.454  1.00  0.00     0.053 C 
BRANCH  13  14
ATOM     14  C   UNL     1      22.925  28.078  20.395  1.00  0.00     0.041 C 
ATOM     15  O   UNL     1      22.133  28.674  19.617  1.00  0.00    -0.550 OA
ATOM     16  O   UNL     1      24.295  28.277  20.267  1.00  0.00    -0.550 OA
ENDBRANCH  13  14
ENDBRANCH  12  13
ENDBRANCH  11  12
ENDBRANCH  10  11
ENDBRANCH   9  10
ENDBRANCH   8   9
ENDBRANCH   7   8
ENDBRANCH   6   7
ENDBRANCH   5   6
ENDBRANCH   4   5
ENDBRANCH   3   4
ENDBRANCH   2   3
ENDBRANCH   1   2
BRANCH   1  17
ATOM     17  C   UNL     1      27.098  27.327  23.003  1.00  0.00     0.000 C 
BRANCH  17  18
ATOM     18  C   UNL     1      28.500  27.956  23.039  1.00  0.00     0.000 C 
BRANCH  18  19
ATOM     19  C   UNL     1      28.653  29.125  22.050  1.00  0.00     0.000 C 
BRANCH  19  20
ATOM     20  C   UNL     1      29.495  28.747  20.821  1.00  0.00     0.000 C 
BRANCH  20  21
ATOM     21  C   UNL     1      28.769  29.029  19.493  1.00  0.00     0.000 C 
BRANCH  21  22
ATOM     22  C   UNL     1      27.686  27.984  19.178  1.00  0.00    -0.000 C 
BRANCH  22  23
ATOM     23  C   UNL     1      28.277  26.586  18.921  1.00  0.00    -0.000 C 
BRANCH  23  24
ATOM     24  C   UNL     1      27.354  25.698  18.069  1.00  0.00    -0.000 C 
BRANCH  24  25
ATOM     25  C   UNL     1      26.444  26.510  17.135  1.00  0.00    -0.000 C 
BRANCH  25  26
ATOM     26  C   UNL     1      24.974  26.116  17.324  1.00  0.00    -0.000 C 
BRANCH  26  27
ATOM     27  C   UNL     1      24.806  25.160  18.512  1.00  0.00    -0.000 C 
BRANCH  27  28
ATOM     28  C   UNL     1      24.327  23.778  18.041  1.00  0.00    -0.000 C 
BRANCH  28  29
ATOM     29  C   UNL     1      25.257  22.643  18.498  1.00  0.00    -0.003 C 
ATOM     30  C   UNL     1      24.495  21.439  19.047  1.00  0.00     0.004 C 
ENDBRANCH  28  29
ENDBRANCH  27  28
ENDBRANCH  26  27
ENDBRANCH  25  26
ENDBRANCH  24  25
ENDBRANCH  23  24
ENDBRANCH  22  23
ENDBRANCH  21  22
ENDBRANCH  20  21
ENDBRANCH  19  20
ENDBRANCH  18  19
ENDBRANCH  17  18
ENDBRANCH   1  17
TORSDOF 26
ENDMDL
