MODEL 1
REMARK VINA RESULT:    -4.604      0.000      0.000
REMARK INTER + INTRA:          -7.858
REMARK INTER:                  -7.295
REMARK INTRA:                  -0.563
REMARK UNBOUND:                -0.563
REMARK SMILES CCCCCCCCCCCC(=O)[O-]
REMARK SMILES IDX 7 1 8 2 9 3 10 4 11 5 12 6 13 7 14 8 6 9 5 10 4 11 3 12 2 13
REMARK SMILES IDX 1 14
REMARK H PARENT
REMARK Flexibility Score: inf
ROOT
ATOM      1  C   UNL     1    -120.571 -37.007 -56.029  1.00  0.00     0.000 C 
ENDROOT
BRANCH   1   2
ATOM      2  C   UNL     1    -119.162 -36.442 -55.819  1.00  0.00     0.000 C 
BRANCH   2   3
ATOM      3  C   UNL     1    -118.104 -37.340 -56.477  1.00  0.00     0.000 C 
BRANCH   3   4
ATOM      4  C   UNL     1    -116.680 -36.780 -56.335  1.00  0.00     0.006 C 
BRANCH   4   5
ATOM      5  C   UNL     1    -116.537 -35.373 -56.926  1.00  0.00     0.053 C 
BRANCH   5   6
ATOM      6  C   UNL     1    -115.261 -35.258 -57.700  1.00  0.00     0.041 C 
ATOM      7  O   UNL     1    -115.289 -35.093 -58.948  1.00  0.00    -0.550 OA
ATOM      8  O   UNL     1    -114.041 -35.283 -57.036  1.00  0.00    -0.550 OA
ENDBRANCH   5   6
ENDBRANCH   4   5
ENDBRANCH   3   4
ENDBRANCH   2   3
ENDBRANCH   1   2
BRANCH   1   9
ATOM      9  C   UNL     1    -121.319 -36.233 -57.121  1.00  0.00     0.000 C 
BRANCH   9  10
ATOM     10  C   UNL     1    -120.862 -34.767 -57.167  1.00  0.00    -0.000 C 
BRANCH  10  11
ATOM     11  C   UNL     1    -122.016 -33.774 -56.944  1.00  0.00    -0.000 C 
BRANCH  11  12
ATOM     12  C   UNL     1    -122.819 -33.409 -58.209  1.00  0.00    -0.000 C 
BRANCH  12  13
ATOM     13  C   UNL     1    -121.980 -32.844 -59.370  1.00  0.00    -0.003 C 
ATOM     14  C   UNL     1    -122.323 -31.393 -59.702  1.00  0.00     0.004 C 
ENDBRANCH  12  13
ENDBRANCH  11  12
ENDBRANCH  10  11
ENDBRANCH   9  10
ENDBRANCH   1   9
TORSDOF 10
ENDMDL
MODEL 2
REMARK VINA RESULT:    -4.586      1.494      2.626
REMARK INTER + INTRA:          -7.830
REMARK INTER:                  -7.124
REMARK INTRA:                  -0.705
REMARK UNBOUND:                -0.563
REMARK SMILES CCCCCCCCCCCC(=O)[O-]
REMARK SMILES IDX 7 1 8 2 9 3 10 4 11 5 12 6 13 7 14 8 6 9 5 10 4 11 3 12 2 13
REMARK SMILES IDX 1 14
REMARK H PARENT
REMARK Flexibility Score: inf
ROOT
ATOM      1  C   UNL     1    -119.713 -35.331 -56.642  1.00  0.00     0.000 C 
ENDROOT
BRANCH   1   2
ATOM      2  C   UNL     1    -119.371 -36.703 -56.049  1.00  0.00     0.000 C 
BRANCH   2   3
ATOM      3  C   UNL     1    -117.877 -37.017 -56.212  1.00  0.00     0.000 C 
BRANCH   3   4
ATOM      4  C   UNL     1    -117.039 -35.769 -56.528  1.00  0.00     0.006 C 
BRANCH   4   5
ATOM      5  C   UNL     1    -115.531 -36.032 -56.446  1.00  0.00     0.053 C 
BRANCH   5   6
ATOM      6  C   UNL     1    -114.824 -35.388 -57.597  1.00  0.00     0.041 C 
ATOM      7  O   UNL     1    -115.444 -35.143 -58.665  1.00  0.00    -0.550 OA
ATOM      8  O   UNL     1    -113.493 -35.011 -57.471  1.00  0.00    -0.550 OA
ENDBRANCH   5   6
ENDBRANCH   4   5
ENDBRANCH   3   4
ENDBRANCH   2   3
ENDBRANCH   1   2
BRANCH   1   9
ATOM      9  C   UNL     1    -120.566 -34.507 -55.671  1.00  0.00     0.000 C 
BRANCH   9  10
ATOM     10  C   UNL     1    -121.815 -33.951 -56.371  1.00  0.00    -0.000 C 
BRANCH  10  11
ATOM     11  C   UNL     1    -122.015 -34.528 -57.784  1.00  0.00    -0.000 C 
BRANCH  11  12
ATOM     12  C   UNL     1    -123.093 -35.625 -57.896  1.00  0.00    -0.000 C 
BRANCH  12  13
ATOM     13  C   UNL     1    -123.095 -36.653 -56.751  1.00  0.00    -0.003 C 
ATOM     14  C   UNL     1    -123.124 -38.098 -57.246  1.00  0.00     0.004 C 
ENDBRANCH  12  13
ENDBRANCH  11  12
ENDBRANCH  10  11
ENDBRANCH   9  10
ENDBRANCH   1   9
TORSDOF 10
ENDMDL
MODEL 3
REMARK VINA RESULT:    -4.503      3.219      6.326
REMARK INTER + INTRA:          -7.698
REMARK INTER:                  -7.221
REMARK INTRA:                  -0.477
REMARK UNBOUND:                -0.563
REMARK SMILES CCCCCCCCCCCC(=O)[O-]
REMARK SMILES IDX 7 1 8 2 9 3 10 4 11 5 12 6 13 7 14 8 6 9 5 10 4 11 3 12 2 13
REMARK SMILES IDX 1 14
REMARK H PARENT
REMARK Flexibility Score: inf
ROOT
ATOM      1  C   UNL     1    -121.484 -35.746 -55.797  1.00  0.00     0.000 C 
ENDROOT
BRANCH   1   2
ATOM      2  C   UNL     1    -121.553 -34.281 -56.244  1.00  0.00     0.000 C 
BRANCH   2   3
ATOM      3  C   UNL     1    -121.439 -34.164 -57.771  1.00  0.00     0.000 C 
BRANCH   3   4
ATOM      4  C   UNL     1    -122.766 -33.763 -58.435  1.00  0.00     0.006 C 
BRANCH   4   5
ATOM      5  C   UNL     1    -123.061 -32.264 -58.306  1.00  0.00     0.053 C 
BRANCH   5   6
ATOM      6  C   UNL     1    -122.408 -31.505 -59.418  1.00  0.00     0.041 C 
ATOM      7  O   UNL     1    -122.276 -30.255 -59.340  1.00  0.00    -0.550 OA
ATOM      8  O   UNL     1    -121.900 -32.184 -60.518  1.00  0.00    -0.550 OA
ENDBRANCH   5   6
ENDBRANCH   4   5
ENDBRANCH   3   4
ENDBRANCH   2   3
ENDBRANCH   1   2
BRANCH   1   9
ATOM      9  C   UNL     1    -120.360 -36.493 -56.526  1.00  0.00     0.000 C 
BRANCH   9  10
ATOM     10  C   UNL     1    -118.997 -36.197 -55.883  1.00  0.00    -0.000 C 
BRANCH  10  11
ATOM     11  C   UNL     1    -117.885 -37.138 -56.380  1.00  0.00    -0.000 C 
BRANCH  11  12
ATOM     12  C   UNL     1    -116.486 -36.498 -56.488  1.00  0.00    -0.000 C 
BRANCH  12  13
ATOM     13  C   UNL     1    -116.451 -35.131 -57.193  1.00  0.00    -0.003 C 
ATOM     14  C   UNL     1    -115.255 -34.974 -58.132  1.00  0.00     0.004 C 
ENDBRANCH  12  13
ENDBRANCH  11  12
ENDBRANCH  10  11
ENDBRANCH   9  10
ENDBRANCH   1   9
TORSDOF 10
ENDMDL
MODEL 4
REMARK VINA RESULT:    -4.287      1.352      2.239
REMARK INTER + INTRA:          -7.355
REMARK INTER:                  -6.597
REMARK INTRA:                  -0.758
REMARK UNBOUND:                -0.563
REMARK SMILES CCCCCCCCCCCC(=O)[O-]
REMARK SMILES IDX 7 1 8 2 9 3 10 4 11 5 12 6 13 7 14 8 6 9 5 10 4 11 3 12 2 13
REMARK SMILES IDX 1 14
REMARK H PARENT
REMARK Flexibility Score: inf
ROOT
ATOM      1  C   UNL     1    -120.730 -36.766 -56.054  1.00  0.00     0.000 C 
ENDROOT
BRANCH   1   2
ATOM      2  C   UNL     1    -119.305 -36.359 -56.446  1.00  0.00     0.000 C 
BRANCH   2   3
ATOM      3  C   UNL     1    -118.279 -37.382 -55.936  1.00  0.00     0.000 C 
BRANCH   3   4
ATOM      4  C   UNL     1    -116.843 -37.043 -56.362  1.00  0.00     0.006 C 
BRANCH   4   5
ATOM      5  C   UNL     1    -116.679 -35.576 -56.777  1.00  0.00     0.053 C 
BRANCH   5   6
ATOM      6  C   UNL     1    -115.330 -35.352 -57.384  1.00  0.00     0.041 C 
ATOM      7  O   UNL     1    -114.288 -35.592 -56.720  1.00  0.00    -0.550 OA
ATOM      8  O   UNL     1    -115.224 -34.925 -58.702  1.00  0.00    -0.550 OA
ENDBRANCH   5   6
ENDBRANCH   4   5
ENDBRANCH   3   4
ENDBRANCH   2   3
ENDBRANCH   1   2
BRANCH   1   9
ATOM      9  C   UNL     1    -121.613 -36.947 -57.295  1.00  0.00     0.000 C 
BRANCH   9  10
ATOM     10  C   UNL     1    -122.913 -36.140 -57.167  1.00  0.00    -0.000 C 
BRANCH  10  11
ATOM     11  C   UNL     1    -122.833 -34.764 -57.853  1.00  0.00    -0.000 C 
BRANCH  11  12
ATOM     12  C   UNL     1    -122.163 -33.655 -57.017  1.00  0.00    -0.000 C 
BRANCH  12  13
ATOM     13  C   UNL     1    -122.863 -33.334 -55.684  1.00  0.00    -0.003 C 
ATOM     14  C   UNL     1    -122.014 -33.690 -54.464  1.00  0.00     0.004 C 
ENDBRANCH  12  13
ENDBRANCH  11  12
ENDBRANCH  10  11
ENDBRANCH   9  10
ENDBRANCH   1   9
TORSDOF 10
ENDMDL
MODEL 5
REMARK VINA RESULT:    -4.236     12.141     14.177
REMARK INTER + INTRA:          -7.276
REMARK INTER:                  -5.686
REMARK INTRA:                  -1.590
REMARK UNBOUND:                -0.563
REMARK SMILES CCCCCCCCCCCC(=O)[O-]
REMARK SMILES IDX 7 1 8 2 9 3 10 4 11 5 12 6 13 7 14 8 6 9 5 10 4 11 3 12 2 13
REMARK SMILES IDX 1 14
REMARK H PARENT
REMARK Flexibility Score: inf
ROOT
ATOM      1  C   UNL     1    -113.756 -41.079 -65.480  1.00  0.00     0.000 C 
ENDROOT
BRANCH   1   2
ATOM      2  C   UNL     1    -112.372 -41.684 -65.215  1.00  0.00     0.000 C 
BRANCH   2   3
ATOM      3  C   UNL     1    -111.260 -40.768 -65.748  1.00  0.00     0.000 C 
BRANCH   3   4
ATOM      4  C   UNL     1    -109.957 -41.527 -66.041  1.00  0.00     0.006 C 
BRANCH   4   5
ATOM      5  C   UNL     1    -110.046 -43.016 -65.682  1.00  0.00     0.053 C 
BRANCH   5   6
ATOM      6  C   UNL     1    -108.990 -43.378 -64.686  1.00  0.00     0.041 C 
ATOM      7  O   UNL     1    -109.181 -43.177 -63.458  1.00  0.00    -0.550 OA
ATOM      8  O   UNL     1    -107.814 -43.984 -65.110  1.00  0.00    -0.550 OA
ENDBRANCH   5   6
ENDBRANCH   4   5
ENDBRANCH   3   4
ENDBRANCH   2   3
ENDBRANCH   1   2
BRANCH   1   9
ATOM      9  C   UNL     1    -114.505 -41.868 -66.560  1.00  0.00     0.000 C 
BRANCH   9  10
ATOM     10  C   UNL     1    -113.694 -43.091 -67.011  1.00  0.00    -0.000 C 
BRANCH  10  11
ATOM     11  C   UNL     1    -113.390 -43.085 -68.519  1.00  0.00    -0.000 C 
BRANCH  11  12
ATOM     12  C   UNL     1    -111.916 -42.822 -68.889  1.00  0.00    -0.000 C 
BRANCH  12  13
ATOM     13  C   UNL     1    -111.674 -41.557 -69.732  1.00  0.00    -0.003 C 
ATOM     14  C   UNL     1    -112.398 -40.328 -69.186  1.00  0.00     0.004 C 
ENDBRANCH  12  13
ENDBRANCH  11  12
ENDBRANCH  10  11
ENDBRANCH   9  10
ENDBRANCH   1   9
TORSDOF 10
ENDMDL
MODEL 6
REMARK VINA RESULT:    -4.227     12.788     14.960
REMARK INTER + INTRA:          -7.261
REMARK INTER:                  -6.232
REMARK INTRA:                  -1.030
REMARK UNBOUND:                -0.563
REMARK SMILES CCCCCCCCCCCC(=O)[O-]
REMARK SMILES IDX 7 1 8 2 9 3 10 4 11 5 12 6 13 7 14 8 6 9 5 10 4 11 3 12 2 13
REMARK SMILES IDX 1 14
REMARK H PARENT
REMARK Flexibility Score: inf
ROOT
ATOM      1  C   UNL     1    -110.288 -41.395 -65.671  1.00  0.00     0.000 C 
ENDROOT
BRANCH   1   2
ATOM      2  C   UNL     1    -111.475 -40.432 -65.786  1.00  0.00     0.000 C 
BRANCH   2   3
ATOM      3  C   UNL     1    -112.781 -41.110 -65.345  1.00  0.00     0.000 C 
BRANCH   3   4
ATOM      4  C   UNL     1    -113.772 -41.298 -66.503  1.00  0.00     0.006 C 
BRANCH   4   5
ATOM      5  C   UNL     1    -113.893 -42.761 -66.947  1.00  0.00     0.053 C 
BRANCH   5   6
ATOM      6  C   UNL     1    -113.175 -42.974 -68.242  1.00  0.00     0.041 C 
ATOM      7  O   UNL     1    -111.931 -43.164 -68.254  1.00  0.00    -0.550 OA
ATOM      8  O   UNL     1    -113.889 -43.014 -69.434  1.00  0.00    -0.550 OA
ENDBRANCH   5   6
ENDBRANCH   4   5
ENDBRANCH   3   4
ENDBRANCH   2   3
ENDBRANCH   1   2
BRANCH   1   9
ATOM      9  C   UNL     1    -110.711 -42.717 -65.019  1.00  0.00     0.000 C 
BRANCH   9  10
ATOM     10  C   UNL     1    -109.608 -43.776 -65.156  1.00  0.00    -0.000 C 
BRANCH  10  11
ATOM     11  C   UNL     1    -108.322 -43.401 -64.399  1.00  0.00    -0.000 C 
BRANCH  11  12
ATOM     12  C   UNL     1    -108.491 -43.209 -62.878  1.00  0.00    -0.000 C 
BRANCH  12  13
ATOM     13  C   UNL     1    -107.554 -42.163 -62.248  1.00  0.00    -0.003 C 
ATOM     14  C   UNL     1    -107.440 -40.886 -63.079  1.00  0.00     0.004 C 
ENDBRANCH  12  13
ENDBRANCH  11  12
ENDBRANCH  10  11
ENDBRANCH   9  10
ENDBRANCH   1   9
TORSDOF 10
ENDMDL
MODEL 7
REMARK VINA RESULT:    -4.210     12.607     14.663
REMARK INTER + INTRA:          -7.234
REMARK INTER:                  -5.799
REMARK INTRA:                  -1.435
REMARK UNBOUND:                -0.563
REMARK SMILES CCCCCCCCCCCC(=O)[O-]
REMARK SMILES IDX 7 1 8 2 9 3 10 4 11 5 12 6 13 7 14 8 6 9 5 10 4 11 3 12 2 13
REMARK SMILES IDX 1 14
REMARK H PARENT
REMARK Flexibility Score: inf
ROOT
ATOM      1  C   UNL     1    -113.563 -41.136 -65.680  1.00  0.00     0.000 C 
ENDROOT
BRANCH   1   2
ATOM      2  C   UNL     1    -113.737 -40.946 -67.191  1.00  0.00     0.000 C 
BRANCH   2   3
ATOM      3  C   UNL     1    -114.044 -42.283 -67.883  1.00  0.00     0.000 C 
BRANCH   3   4
ATOM      4  C   UNL     1    -113.169 -42.524 -69.123  1.00  0.00     0.006 C 
BRANCH   4   5
ATOM      5  C   UNL     1    -112.017 -43.500 -68.852  1.00  0.00     0.053 C 
BRANCH   5   6
ATOM      6  C   UNL     1    -110.701 -42.797 -68.956  1.00  0.00     0.041 C 
ATOM      7  O   UNL     1    -110.660 -41.548 -69.114  1.00  0.00    -0.550 OA
ATOM      8  O   UNL     1    -109.518 -43.514 -68.828  1.00  0.00    -0.550 OA
ENDBRANCH   5   6
ENDBRANCH   4   5
ENDBRANCH   3   4
ENDBRANCH   2   3
ENDBRANCH   1   2
BRANCH   1   9
ATOM      9  C   UNL     1    -113.284 -42.604 -65.337  1.00  0.00     0.000 C 
BRANCH   9  10
ATOM     10  C   UNL     1    -112.668 -42.734 -63.936  1.00  0.00    -0.000 C 
BRANCH  10  11
ATOM     11  C   UNL     1    -111.279 -43.397 -63.953  1.00  0.00    -0.000 C 
BRANCH  11  12
ATOM     12  C   UNL     1    -110.520 -43.293 -65.292  1.00  0.00    -0.000 C 
BRANCH  12  13
ATOM     13  C   UNL     1    -109.423 -42.215 -65.333  1.00  0.00    -0.003 C 
ATOM     14  C   UNL     1    -109.951 -40.840 -65.739  1.00  0.00     0.004 C 
ENDBRANCH  12  13
ENDBRANCH  11  12
ENDBRANCH  10  11
ENDBRANCH   9  10
ENDBRANCH   1   9
TORSDOF 10
ENDMDL
MODEL 8
REMARK VINA RESULT:    -4.210     12.256     14.077
REMARK INTER + INTRA:          -7.233
REMARK INTER:                  -6.016
REMARK INTRA:                  -1.217
REMARK UNBOUND:                -0.563
REMARK SMILES CCCCCCCCCCCC(=O)[O-]
REMARK SMILES IDX 7 1 8 2 9 3 10 4 11 5 12 6 13 7 14 8 6 9 5 10 4 11 3 12 2 13
REMARK SMILES IDX 1 14
REMARK H PARENT
REMARK Flexibility Score: inf
ROOT
ATOM      1  C   UNL     1    -113.368 -41.883 -64.830  1.00  0.00     0.000 C 
ENDROOT
BRANCH   1   2
ATOM      2  C   UNL     1    -112.229 -42.810 -64.392  1.00  0.00     0.000 C 
BRANCH   2   3
ATOM      3  C   UNL     1    -110.944 -42.515 -65.181  1.00  0.00     0.000 C 
BRANCH   3   4
ATOM      4  C   UNL     1    -110.033 -43.746 -65.311  1.00  0.00     0.006 C 
BRANCH   4   5
ATOM      5  C   UNL     1    -108.552 -43.409 -65.102  1.00  0.00     0.053 C 
BRANCH   5   6
ATOM      6  C   UNL     1    -108.346 -42.767 -63.767  1.00  0.00     0.041 C 
ATOM      7  O   UNL     1    -107.862 -41.607 -63.689  1.00  0.00    -0.550 OA
ATOM      8  O   UNL     1    -108.735 -43.429 -62.609  1.00  0.00    -0.550 OA
ENDBRANCH   5   6
ENDBRANCH   4   5
ENDBRANCH   3   4
ENDBRANCH   2   3
ENDBRANCH   1   2
BRANCH   1   9
ATOM      9  C   UNL     1    -112.853 -40.773 -65.754  1.00  0.00     0.000 C 
BRANCH   9  10
ATOM     10  C   UNL     1    -113.426 -40.926 -67.170  1.00  0.00    -0.000 C 
BRANCH  10  11
ATOM     11  C   UNL     1    -114.151 -42.266 -67.380  1.00  0.00    -0.000 C 
BRANCH  11  12
ATOM     12  C   UNL     1    -113.399 -43.287 -68.259  1.00  0.00    -0.000 C 
BRANCH  12  13
ATOM     13  C   UNL     1    -112.005 -42.836 -68.728  1.00  0.00    -0.003 C 
ATOM     14  C   UNL     1    -111.082 -44.006 -69.065  1.00  0.00     0.004 C 
ENDBRANCH  12  13
ENDBRANCH  11  12
ENDBRANCH  10  11
ENDBRANCH   9  10
ENDBRANCH   1   9
TORSDOF 10
ENDMDL
MODEL 9
REMARK VINA RESULT:    -4.154     15.043     17.138
REMARK INTER + INTRA:          -7.145
REMARK INTER:                  -5.638
REMARK INTRA:                  -1.507
REMARK UNBOUND:                -0.563
REMARK SMILES CCCCCCCCCCCC(=O)[O-]
REMARK SMILES IDX 7 1 8 2 9 3 10 4 11 5 12 6 13 7 14 8 6 9 5 10 4 11 3 12 2 13
REMARK SMILES IDX 1 14
REMARK H PARENT
REMARK Flexibility Score: inf
ROOT
ATOM      1  C   UNL     1    -106.927 -27.834 -60.331  1.00  0.00     0.000 C 
ENDROOT
BRANCH   1   2
ATOM      2  C   UNL     1    -107.316 -26.511 -59.661  1.00  0.00     0.000 C 
BRANCH   2   3
ATOM      3  C   UNL     1    -106.892 -25.312 -60.521  1.00  0.00     0.000 C 
BRANCH   3   4
ATOM      4  C   UNL     1    -105.859 -25.688 -61.594  1.00  0.00     0.006 C 
BRANCH   4   5
ATOM      5  C   UNL     1    -105.931 -24.780 -62.828  1.00  0.00     0.053 C 
BRANCH   5   6
ATOM      6  C   UNL     1    -106.681 -25.457 -63.931  1.00  0.00     0.041 C 
ATOM      7  O   UNL     1    -106.770 -26.713 -63.960  1.00  0.00    -0.550 OA
ATOM      8  O   UNL     1    -107.325 -24.699 -64.901  1.00  0.00    -0.550 OA
ENDBRANCH   5   6
ENDBRANCH   4   5
ENDBRANCH   3   4
ENDBRANCH   2   3
ENDBRANCH   1   2
BRANCH   1   9
ATOM      9  C   UNL     1    -106.168 -28.744 -59.357  1.00  0.00     0.000 C 
BRANCH   9  10
ATOM     10  C   UNL     1    -104.670 -28.781 -59.694  1.00  0.00    -0.000 C 
BRANCH  10  11
ATOM     11  C   UNL     1    -103.815 -27.969 -58.707  1.00  0.00    -0.000 C 
BRANCH  11  12
ATOM     12  C   UNL     1    -103.068 -26.768 -59.322  1.00  0.00    -0.000 C 
BRANCH  12  13
ATOM     13  C   UNL     1    -103.430 -25.399 -58.719  1.00  0.00    -0.003 C 
ATOM     14  C   UNL     1    -104.382 -25.505 -57.529  1.00  0.00     0.004 C 
ENDBRANCH  12  13
ENDBRANCH  11  12
ENDBRANCH  10  11
ENDBRANCH   9  10
ENDBRANCH   1   9
TORSDOF 10
ENDMDL
