MODEL 1
REMARK VINA RESULT:    -3.669      0.000      0.000
REMARK INTER + INTRA:         -14.812
REMARK INTER:                  -9.245
REMARK INTRA:                  -5.566
REMARK UNBOUND:                -5.566
REMARK SMILES CCCCCCCCCCCCCCCCCCCCCCCCCCCC(=O)[O-]
REMARK SMILES IDX 15 1 16 2 17 3 18 4 19 5 20 6 21 7 22 8 23 9 24 10 25 11
REMARK SMILES IDX 26 12 27 13 28 14 29 15 30 16 14 17 13 18 12 19 11 20 10 21
REMARK SMILES IDX 9 22 8 23 7 24 6 25 5 26 4 27 3 28 2 29 1 30
REMARK H PARENT
REMARK Flexibility Score: inf
ROOT
ATOM      1  C   UNL     1     -22.898   5.778  21.331  1.00  0.00     0.000 C 
ENDROOT
BRANCH   1   2
ATOM      2  C   UNL     1     -22.945   4.650  20.285  1.00  0.00     0.000 C 
BRANCH   2   3
ATOM      3  C   UNL     1     -21.634   3.848  20.227  1.00  0.00     0.000 C 
BRANCH   3   4
ATOM      4  C   UNL     1     -21.084   3.510  21.625  1.00  0.00     0.000 C 
BRANCH   4   5
ATOM      5  C   UNL     1     -20.409   2.130  21.674  1.00  0.00     0.000 C 
BRANCH   5   6
ATOM      6  C   UNL     1     -20.775   1.246  20.472  1.00  0.00     0.000 C 
BRANCH   6   7
ATOM      7  C   UNL     1     -21.278  -0.128  20.941  1.00  0.00     0.000 C 
BRANCH   7   8
ATOM      8  C   UNL     1     -22.555  -0.039  21.795  1.00  0.00     0.000 C 
BRANCH   8   9
ATOM      9  C   UNL     1     -23.790   0.529  21.069  1.00  0.00     0.000 C 
BRANCH   9  10
ATOM     10  C   UNL     1     -24.490   1.700  21.788  1.00  0.00     0.000 C 
BRANCH  10  11
ATOM     11  C   UNL     1     -24.037   1.935  23.242  1.00  0.00     0.000 C 
BRANCH  11  12
ATOM     12  C   UNL     1     -24.236   3.369  23.762  1.00  0.00     0.006 C 
BRANCH  12  13
ATOM     13  C   UNL     1     -23.082   3.849  24.652  1.00  0.00     0.053 C 
BRANCH  13  14
ATOM     14  C   UNL     1     -23.609   4.506  25.888  1.00  0.00     0.041 C 
ATOM     15  O   UNL     1     -22.839   4.742  26.858  1.00  0.00    -0.550 OA
ATOM     16  O   UNL     1     -24.956   4.835  25.984  1.00  0.00    -0.550 OA
ENDBRANCH  13  14
ENDBRANCH  12  13
ENDBRANCH  11  12
ENDBRANCH  10  11
ENDBRANCH   9  10
ENDBRANCH   8   9
ENDBRANCH   7   8
ENDBRANCH   6   7
ENDBRANCH   5   6
ENDBRANCH   4   5
ENDBRANCH   3   4
ENDBRANCH   2   3
ENDBRANCH   1   2
BRANCH   1  17
ATOM     17  C   UNL     1     -24.014   6.819  21.139  1.00  0.00     0.000 C 
BRANCH  17  18
ATOM     18  C   UNL     1     -23.678   7.961  20.163  1.00  0.00     0.000 C 
BRANCH  18  19
ATOM     19  C   UNL     1     -22.173   8.283  20.111  1.00  0.00     0.000 C 
BRANCH  19  20
ATOM     20  C   UNL     1     -21.582   8.161  18.691  1.00  0.00     0.000 C 
BRANCH  20  21
ATOM     21  C   UNL     1     -22.411   7.276  17.740  1.00  0.00     0.000 C 
BRANCH  21  22
ATOM     22  C   UNL     1     -21.614   6.187  16.999  1.00  0.00    -0.000 C 
BRANCH  22  23
ATOM     23  C   UNL     1     -20.603   6.706  15.956  1.00  0.00    -0.000 C 
BRANCH  23  24
ATOM     24  C   UNL     1     -19.192   6.099  16.044  1.00  0.00    -0.000 C 
BRANCH  24  25
ATOM     25  C   UNL     1     -18.224   6.951  16.882  1.00  0.00    -0.000 C 
BRANCH  25  26
ATOM     26  C   UNL     1     -17.528   6.140  17.986  1.00  0.00    -0.000 C 
BRANCH  26  27
ATOM     27  C   UNL     1     -18.510   5.301  18.824  1.00  0.00    -0.000 C 
BRANCH  27  28
ATOM     28  C   UNL     1     -18.305   5.504  20.340  1.00  0.00    -0.000 C 
BRANCH  28  29
ATOM     29  C   UNL     1     -18.974   6.777  20.887  1.00  0.00    -0.003 C 
ATOM     30  C   UNL     1     -19.358   6.667  22.360  1.00  0.00     0.004 C 
ENDBRANCH  28  29
ENDBRANCH  27  28
ENDBRANCH  26  27
ENDBRANCH  25  26
ENDBRANCH  24  25
ENDBRANCH  23  24
ENDBRANCH  22  23
ENDBRANCH  21  22
ENDBRANCH  20  21
ENDBRANCH  19  20
ENDBRANCH  18  19
ENDBRANCH  17  18
ENDBRANCH   1  17
TORSDOF 26
ENDMDL
MODEL 2
REMARK VINA RESULT:    -3.534      1.199      2.868
REMARK INTER + INTRA:         -14.471
REMARK INTER:                  -9.408
REMARK INTRA:                  -5.064
REMARK UNBOUND:                -5.566
REMARK SMILES CCCCCCCCCCCCCCCCCCCCCCCCCCCC(=O)[O-]
REMARK SMILES IDX 15 1 16 2 17 3 18 4 19 5 20 6 21 7 22 8 23 9 24 10 25 11
REMARK SMILES IDX 26 12 27 13 28 14 29 15 30 16 14 17 13 18 12 19 11 20 10 21
REMARK SMILES IDX 9 22 8 23 7 24 6 25 5 26 4 27 3 28 2 29 1 30
REMARK H PARENT
REMARK Flexibility Score: inf
ROOT
ATOM      1  C   UNL     1     -21.864   7.979  21.019  1.00  0.00     0.000 C 
ENDROOT
BRANCH   1   2
ATOM      2  C   UNL     1     -23.381   8.147  20.831  1.00  0.00     0.000 C 
BRANCH   2   3
ATOM      3  C   UNL     1     -24.155   6.845  21.100  1.00  0.00     0.000 C 
BRANCH   3   4
ATOM      4  C   UNL     1     -23.236   5.691  21.541  1.00  0.00     0.000 C 
BRANCH   4   5
ATOM      5  C   UNL     1     -23.089   4.610  20.458  1.00  0.00     0.000 C 
BRANCH   5   6
ATOM      6  C   UNL     1     -21.648   4.091  20.328  1.00  0.00     0.000 C 
BRANCH   6   7
ATOM      7  C   UNL     1     -21.413   2.898  21.267  1.00  0.00     0.000 C 
BRANCH   7   8
ATOM      8  C   UNL     1     -20.897   1.648  20.531  1.00  0.00     0.000 C 
BRANCH   8   9
ATOM      9  C   UNL     1     -21.690   0.355  20.804  1.00  0.00     0.000 C 
BRANCH   9  10
ATOM     10  C   UNL     1     -23.221   0.526  20.860  1.00  0.00     0.000 C 
BRANCH  10  11
ATOM     11  C   UNL     1     -23.924  -0.270  21.977  1.00  0.00     0.000 C 
BRANCH  11  12
ATOM     12  C   UNL     1     -24.788   0.574  22.929  1.00  0.00     0.006 C 
BRANCH  12  13
ATOM     13  C   UNL     1     -24.764   2.071  22.591  1.00  0.00     0.053 C 
BRANCH  13  14
ATOM     14  C   UNL     1     -24.766   2.894  23.841  1.00  0.00     0.041 C 
ATOM     15  O   UNL     1     -24.209   2.460  24.886  1.00  0.00    -0.550 OA
ATOM     16  O   UNL     1     -25.405   4.127  23.863  1.00  0.00    -0.550 OA
ENDBRANCH  13  14
ENDBRANCH  12  13
ENDBRANCH  11  12
ENDBRANCH  10  11
ENDBRANCH   9  10
ENDBRANCH   8   9
ENDBRANCH   7   8
ENDBRANCH   6   7
ENDBRANCH   5   6
ENDBRANCH   4   5
ENDBRANCH   3   4
ENDBRANCH   2   3
ENDBRANCH   1   2
BRANCH   1  17
ATOM     17  C   UNL     1     -21.104   7.871  19.686  1.00  0.00     0.000 C 
BRANCH  17  18
ATOM     18  C   UNL     1     -21.881   8.363  18.451  1.00  0.00     0.000 C 
BRANCH  18  19
ATOM     19  C   UNL     1     -22.460   7.213  17.608  1.00  0.00     0.000 C 
BRANCH  19  20
ATOM     20  C   UNL     1     -21.407   6.141  17.252  1.00  0.00     0.000 C 
BRANCH  20  21
ATOM     21  C   UNL     1     -20.644   6.421  15.943  1.00  0.00     0.000 C 
BRANCH  21  22
ATOM     22  C   UNL     1     -19.114   6.278  16.035  1.00  0.00    -0.000 C 
BRANCH  22  23
ATOM     23  C   UNL     1     -18.475   6.855  17.314  1.00  0.00    -0.000 C 
BRANCH  23  24
ATOM     24  C   UNL     1     -17.643   5.860  18.143  1.00  0.00    -0.000 C 
BRANCH  24  25
ATOM     25  C   UNL     1     -18.440   5.228  19.297  1.00  0.00    -0.000 C 
BRANCH  25  26
ATOM     26  C   UNL     1     -17.533   4.702  20.421  1.00  0.00    -0.000 C 
BRANCH  26  27
ATOM     27  C   UNL     1     -18.240   4.647  21.787  1.00  0.00    -0.000 C 
BRANCH  27  28
ATOM     28  C   UNL     1     -18.878   5.999  22.169  1.00  0.00    -0.000 C 
BRANCH  28  29
ATOM     29  C   UNL     1     -19.948   5.886  23.268  1.00  0.00    -0.003 C 
ATOM     30  C   UNL     1     -19.837   4.600  24.083  1.00  0.00     0.004 C 
ENDBRANCH  28  29
ENDBRANCH  27  28
ENDBRANCH  26  27
ENDBRANCH  25  26
ENDBRANCH  24  25
ENDBRANCH  23  24
ENDBRANCH  22  23
ENDBRANCH  21  22
ENDBRANCH  20  21
ENDBRANCH  19  20
ENDBRANCH  18  19
ENDBRANCH  17  18
ENDBRANCH   1  17
TORSDOF 26
ENDMDL
MODEL 3
REMARK VINA RESULT:    -3.506      2.879      7.901
REMARK INTER + INTRA:         -14.400
REMARK INTER:                  -9.740
REMARK INTRA:                  -4.660
REMARK UNBOUND:                -5.566
REMARK SMILES CCCCCCCCCCCCCCCCCCCCCCCCCCCC(=O)[O-]
REMARK SMILES IDX 15 1 16 2 17 3 18 4 19 5 20 6 21 7 22 8 23 9 24 10 25 11
REMARK SMILES IDX 26 12 27 13 28 14 29 15 30 16 14 17 13 18 12 19 11 20 10 21
REMARK SMILES IDX 9 22 8 23 7 24 6 25 5 26 4 27 3 28 2 29 1 30
REMARK H PARENT
REMARK Flexibility Score: inf
ROOT
ATOM      1  C   UNL     1     -21.605   4.553  19.955  1.00  0.00     0.000 C 
ENDROOT
BRANCH   1   2
ATOM      2  C   UNL     1     -23.060   4.853  20.353  1.00  0.00     0.000 C 
BRANCH   2   3
ATOM      3  C   UNL     1     -23.161   5.942  21.434  1.00  0.00     0.000 C 
BRANCH   3   4
ATOM      4  C   UNL     1     -24.176   7.042  21.073  1.00  0.00     0.000 C 
BRANCH   4   5
ATOM      5  C   UNL     1     -23.636   8.016  20.014  1.00  0.00     0.000 C 
BRANCH   5   6
ATOM      6  C   UNL     1     -22.145   8.336  20.206  1.00  0.00     0.000 C 
BRANCH   6   7
ATOM      7  C   UNL     1     -21.407   8.317  18.859  1.00  0.00     0.000 C 
BRANCH   7   8
ATOM      8  C   UNL     1     -22.212   7.624  17.744  1.00  0.00     0.000 C 
BRANCH   8   9
ATOM      9  C   UNL     1     -21.439   6.554  16.948  1.00  0.00     0.000 C 
BRANCH   9  10
ATOM     10  C   UNL     1     -20.350   7.101  16.004  1.00  0.00     0.000 C 
BRANCH  10  11
ATOM     11  C   UNL     1     -18.907   6.711  16.380  1.00  0.00     0.000 C 
BRANCH  11  12
ATOM     12  C   UNL     1     -18.782   5.784  17.601  1.00  0.00     0.006 C 
BRANCH  12  13
ATOM     13  C   UNL     1     -18.165   6.481  18.821  1.00  0.00     0.053 C 
BRANCH  13  14
ATOM     14  C   UNL     1     -16.759   6.018  19.037  1.00  0.00     0.041 C 
ATOM     15  O   UNL     1     -15.878   6.238  18.162  1.00  0.00    -0.550 OA
ATOM     16  O   UNL     1     -16.424   5.319  20.190  1.00  0.00    -0.550 OA
ENDBRANCH  13  14
ENDBRANCH  12  13
ENDBRANCH  11  12
ENDBRANCH  10  11
ENDBRANCH   9  10
ENDBRANCH   8   9
ENDBRANCH   7   8
ENDBRANCH   6   7
ENDBRANCH   5   6
ENDBRANCH   4   5
ENDBRANCH   3   4
ENDBRANCH   2   3
ENDBRANCH   1   2
BRANCH   1  17
ATOM     17  C   UNL     1     -20.615   4.743  21.118  1.00  0.00     0.000 C 
BRANCH  17  18
ATOM     18  C   UNL     1     -19.449   3.738  21.151  1.00  0.00     0.000 C 
BRANCH  18  19
ATOM     19  C   UNL     1     -19.542   2.673  20.042  1.00  0.00     0.000 C 
BRANCH  19  20
ATOM     20  C   UNL     1     -19.923   1.278  20.581  1.00  0.00     0.000 C 
BRANCH  20  21
ATOM     21  C   UNL     1     -21.438   1.064  20.756  1.00  0.00     0.000 C 
BRANCH  21  22
ATOM     22  C   UNL     1     -21.951  -0.334  20.366  1.00  0.00    -0.000 C 
BRANCH  22  23
ATOM     23  C   UNL     1     -23.453  -0.577  20.620  1.00  0.00    -0.000 C 
BRANCH  23  24
ATOM     24  C   UNL     1     -23.793  -1.283  21.945  1.00  0.00    -0.000 C 
BRANCH  24  25
ATOM     25  C   UNL     1     -24.372  -0.327  23.002  1.00  0.00    -0.000 C 
BRANCH  25  26
ATOM     26  C   UNL     1     -23.331   0.089  24.053  1.00  0.00    -0.000 C 
BRANCH  26  27
ATOM     27  C   UNL     1     -23.419   1.579  24.430  1.00  0.00    -0.000 C 
BRANCH  27  28
ATOM     28  C   UNL     1     -23.656   2.479  23.199  1.00  0.00    -0.000 C 
BRANCH  28  29
ATOM     29  C   UNL     1     -24.883   3.398  23.337  1.00  0.00    -0.003 C 
ATOM     30  C   UNL     1     -24.801   4.330  24.544  1.00  0.00     0.004 C 
ENDBRANCH  28  29
ENDBRANCH  27  28
ENDBRANCH  26  27
ENDBRANCH  25  26
ENDBRANCH  24  25
ENDBRANCH  23  24
ENDBRANCH  22  23
ENDBRANCH  21  22
ENDBRANCH  20  21
ENDBRANCH  19  20
ENDBRANCH  18  19
ENDBRANCH  17  18
ENDBRANCH   1  17
TORSDOF 26
ENDMDL
MODEL 4
REMARK VINA RESULT:    -3.498      1.463      3.885
REMARK INTER + INTRA:         -14.381
REMARK INTER:                  -9.172
REMARK INTRA:                  -5.209
REMARK UNBOUND:                -5.566
REMARK SMILES CCCCCCCCCCCCCCCCCCCCCCCCCCCC(=O)[O-]
REMARK SMILES IDX 15 1 16 2 17 3 18 4 19 5 20 6 21 7 22 8 23 9 24 10 25 11
REMARK SMILES IDX 26 12 27 13 28 14 29 15 30 16 14 17 13 18 12 19 11 20 10 21
REMARK SMILES IDX 9 22 8 23 7 24 6 25 5 26 4 27 3 28 2 29 1 30
REMARK H PARENT
REMARK Flexibility Score: inf
ROOT
ATOM      1  C   UNL     1     -22.018   8.400  18.518  1.00  0.00     0.000 C 
ENDROOT
BRANCH   1   2
ATOM      2  C   UNL     1     -22.244   8.292  20.036  1.00  0.00     0.000 C 
BRANCH   2   3
ATOM      3  C   UNL     1     -23.707   7.978  20.392  1.00  0.00     0.000 C 
BRANCH   3   4
ATOM      4  C   UNL     1     -23.865   6.623  21.105  1.00  0.00     0.000 C 
BRANCH   4   5
ATOM      5  C   UNL     1     -22.565   5.802  21.103  1.00  0.00     0.000 C 
BRANCH   5   6
ATOM      6  C   UNL     1     -22.723   4.440  20.411  1.00  0.00     0.000 C 
BRANCH   6   7
ATOM      7  C   UNL     1     -21.384   3.688  20.377  1.00  0.00     0.000 C 
BRANCH   7   8
ATOM      8  C   UNL     1     -21.349   2.481  21.331  1.00  0.00     0.000 C 
BRANCH   8   9
ATOM      9  C   UNL     1     -21.564   1.110  20.661  1.00  0.00     0.000 C 
BRANCH   9  10
ATOM     10  C   UNL     1     -22.953   0.482  20.890  1.00  0.00     0.000 C 
BRANCH  10  11
ATOM     11  C   UNL     1     -23.622   0.851  22.228  1.00  0.00     0.000 C 
BRANCH  11  12
ATOM     12  C   UNL     1     -24.799   1.836  22.115  1.00  0.00     0.006 C 
BRANCH  12  13
ATOM     13  C   UNL     1     -25.243   2.395  23.474  1.00  0.00     0.053 C 
BRANCH  13  14
ATOM     14  C   UNL     1     -24.662   3.756  23.699  1.00  0.00     0.041 C 
ATOM     15  O   UNL     1     -25.401   4.776  23.647  1.00  0.00    -0.550 OA
ATOM     16  O   UNL     1     -23.302   3.903  23.938  1.00  0.00    -0.550 OA
ENDBRANCH  13  14
ENDBRANCH  12  13
ENDBRANCH  11  12
ENDBRANCH  10  11
ENDBRANCH   9  10
ENDBRANCH   8   9
ENDBRANCH   7   8
ENDBRANCH   6   7
ENDBRANCH   5   6
ENDBRANCH   4   5
ENDBRANCH   3   4
ENDBRANCH   2   3
ENDBRANCH   1   2
BRANCH   1  17
ATOM     17  C   UNL     1     -22.614   7.214  17.738  1.00  0.00     0.000 C 
BRANCH  17  18
ATOM     18  C   UNL     1     -21.583   6.325  17.019  1.00  0.00     0.000 C 
BRANCH  18  19
ATOM     19  C   UNL     1     -20.409   7.125  16.427  1.00  0.00     0.000 C 
BRANCH  19  20
ATOM     20  C   UNL     1     -19.108   6.300  16.332  1.00  0.00     0.000 C 
BRANCH  20  21
ATOM     21  C   UNL     1     -18.022   6.722  17.341  1.00  0.00     0.000 C 
BRANCH  21  22
ATOM     22  C   UNL     1     -18.548   7.357  18.640  1.00  0.00    -0.000 C 
BRANCH  22  23
ATOM     23  C   UNL     1     -19.002   6.358  19.724  1.00  0.00    -0.000 C 
BRANCH  23  24
ATOM     24  C   UNL     1     -19.083   6.925  21.153  1.00  0.00    -0.000 C 
BRANCH  24  25
ATOM     25  C   UNL     1     -18.948   5.841  22.236  1.00  0.00    -0.000 C 
BRANCH  25  26
ATOM     26  C   UNL     1     -17.806   4.855  21.943  1.00  0.00    -0.000 C 
BRANCH  26  27
ATOM     27  C   UNL     1     -17.948   3.528  22.710  1.00  0.00    -0.000 C 
BRANCH  27  28
ATOM     28  C   UNL     1     -17.732   2.301  21.800  1.00  0.00    -0.000 C 
BRANCH  28  29
ATOM     29  C   UNL     1     -17.296   2.665  20.370  1.00  0.00    -0.003 C 
ATOM     30  C   UNL     1     -18.190   2.050  19.296  1.00  0.00     0.004 C 
ENDBRANCH  28  29
ENDBRANCH  27  28
ENDBRANCH  26  27
ENDBRANCH  25  26
ENDBRANCH  24  25
ENDBRANCH  23  24
ENDBRANCH  22  23
ENDBRANCH  21  22
ENDBRANCH  20  21
ENDBRANCH  19  20
ENDBRANCH  18  19
ENDBRANCH  17  18
ENDBRANCH   1  17
TORSDOF 26
ENDMDL
MODEL 5
REMARK VINA RESULT:    -3.487      1.969      3.702
REMARK INTER + INTRA:         -14.353
REMARK INTER:                  -9.184
REMARK INTRA:                  -5.169
REMARK UNBOUND:                -5.566
REMARK SMILES CCCCCCCCCCCCCCCCCCCCCCCCCCCC(=O)[O-]
REMARK SMILES IDX 15 1 16 2 17 3 18 4 19 5 20 6 21 7 22 8 23 9 24 10 25 11
REMARK SMILES IDX 26 12 27 13 28 14 29 15 30 16 14 17 13 18 12 19 11 20 10 21
REMARK SMILES IDX 9 22 8 23 7 24 6 25 5 26 4 27 3 28 2 29 1 30
REMARK H PARENT
REMARK Flexibility Score: inf
ROOT
ATOM      1  C   UNL     1     -22.005   8.034  20.598  1.00  0.00     0.000 C 
ENDROOT
BRANCH   1   2
ATOM      2  C   UNL     1     -23.543   8.080  20.600  1.00  0.00     0.000 C 
BRANCH   2   3
ATOM      3  C   UNL     1     -24.170   6.751  21.054  1.00  0.00     0.000 C 
BRANCH   3   4
ATOM      4  C   UNL     1     -23.116   5.720  21.497  1.00  0.00     0.000 C 
BRANCH   4   5
ATOM      5  C   UNL     1     -22.997   4.542  20.517  1.00  0.00     0.000 C 
BRANCH   5   6
ATOM      6  C   UNL     1     -22.902   3.183  21.229  1.00  0.00     0.000 C 
BRANCH   6   7
ATOM      7  C   UNL     1     -21.902   3.249  22.394  1.00  0.00     0.000 C 
BRANCH   7   8
ATOM      8  C   UNL     1     -20.692   2.317  22.198  1.00  0.00     0.000 C 
BRANCH   8   9
ATOM      9  C   UNL     1     -20.505   1.779  20.766  1.00  0.00     0.000 C 
BRANCH   9  10
ATOM     10  C   UNL     1     -20.542   0.243  20.635  1.00  0.00     0.000 C 
BRANCH  10  11
ATOM     11  C   UNL     1     -21.895  -0.338  20.180  1.00  0.00     0.000 C 
BRANCH  11  12
ATOM     12  C   UNL     1     -22.711  -1.028  21.287  1.00  0.00     0.006 C 
BRANCH  12  13
ATOM     13  C   UNL     1     -24.026  -0.303  21.601  1.00  0.00     0.053 C 
BRANCH  13  14
ATOM     14  C   UNL     1     -24.181  -0.108  23.077  1.00  0.00     0.041 C 
ATOM     15  O   UNL     1     -25.312  -0.238  23.618  1.00  0.00    -0.550 OA
ATOM     16  O   UNL     1     -23.083   0.245  23.852  1.00  0.00    -0.550 OA
ENDBRANCH  13  14
ENDBRANCH  12  13
ENDBRANCH  11  12
ENDBRANCH  10  11
ENDBRANCH   9  10
ENDBRANCH   8   9
ENDBRANCH   7   8
ENDBRANCH   6   7
ENDBRANCH   5   6
ENDBRANCH   4   5
ENDBRANCH   3   4
ENDBRANCH   2   3
ENDBRANCH   1   2
BRANCH   1  17
ATOM     17  C   UNL     1     -21.399   8.338  19.217  1.00  0.00     0.000 C 
BRANCH  17  18
ATOM     18  C   UNL     1     -22.261   7.903  18.018  1.00  0.00     0.000 C 
BRANCH  18  19
ATOM     19  C   UNL     1     -22.142   6.400  17.706  1.00  0.00     0.000 C 
BRANCH  19  20
ATOM     20  C   UNL     1     -21.529   6.123  16.317  1.00  0.00     0.000 C 
BRANCH  20  21
ATOM     21  C   UNL     1     -20.351   7.047  15.954  1.00  0.00     0.000 C 
BRANCH  21  22
ATOM     22  C   UNL     1     -18.953   6.449  16.191  1.00  0.00    -0.000 C 
BRANCH  22  23
ATOM     23  C   UNL     1     -18.371   6.676  17.602  1.00  0.00    -0.000 C 
BRANCH  23  24
ATOM     24  C   UNL     1     -18.205   5.408  18.459  1.00  0.00    -0.000 C 
BRANCH  24  25
ATOM     25  C   UNL     1     -19.451   5.089  19.303  1.00  0.00    -0.000 C 
BRANCH  25  26
ATOM     26  C   UNL     1     -19.280   5.483  20.779  1.00  0.00    -0.000 C 
BRANCH  26  27
ATOM     27  C   UNL     1     -17.804   5.598  21.202  1.00  0.00    -0.000 C 
BRANCH  27  28
ATOM     28  C   UNL     1     -17.509   6.922  21.937  1.00  0.00    -0.000 C 
BRANCH  28  29
ATOM     29  C   UNL     1     -18.422   8.083  21.504  1.00  0.00    -0.003 C 
ATOM     30  C   UNL     1     -17.803   8.959  20.418  1.00  0.00     0.004 C 
ENDBRANCH  28  29
ENDBRANCH  27  28
ENDBRANCH  26  27
ENDBRANCH  25  26
ENDBRANCH  24  25
ENDBRANCH  23  24
ENDBRANCH  22  23
ENDBRANCH  21  22
ENDBRANCH  20  21
ENDBRANCH  19  20
ENDBRANCH  18  19
ENDBRANCH  17  18
ENDBRANCH   1  17
TORSDOF 26
ENDMDL
MODEL 6
REMARK VINA RESULT:    -3.480      2.723      7.319
REMARK INTER + INTRA:         -14.337
REMARK INTER:                  -9.274
REMARK INTRA:                  -5.063
REMARK UNBOUND:                -5.566
REMARK SMILES CCCCCCCCCCCCCCCCCCCCCCCCCCCC(=O)[O-]
REMARK SMILES IDX 15 1 16 2 17 3 18 4 19 5 20 6 21 7 22 8 23 9 24 10 25 11
REMARK SMILES IDX 26 12 27 13 28 14 29 15 30 16 14 17 13 18 12 19 11 20 10 21
REMARK SMILES IDX 9 22 8 23 7 24 6 25 5 26 4 27 3 28 2 29 1 30
REMARK H PARENT
REMARK Flexibility Score: inf
ROOT
ATOM      1  C   UNL     1     -23.906   6.696  21.108  1.00  0.00     0.000 C 
ENDROOT
BRANCH   1   2
ATOM      2  C   UNL     1     -23.537   8.029  20.435  1.00  0.00     0.000 C 
BRANCH   2   3
ATOM      3  C   UNL     1     -22.035   8.132  20.121  1.00  0.00     0.000 C 
BRANCH   3   4
ATOM      4  C   UNL     1     -21.757   8.345  18.622  1.00  0.00     0.000 C 
BRANCH   4   5
ATOM      5  C   UNL     1     -22.519   7.347  17.735  1.00  0.00     0.000 C 
BRANCH   5   6
ATOM      6  C   UNL     1     -21.603   6.277  17.120  1.00  0.00     0.000 C 
BRANCH   6   7
ATOM      7  C   UNL     1     -20.440   6.929  16.357  1.00  0.00     0.000 C 
BRANCH   7   8
ATOM      8  C   UNL     1     -19.121   6.149  16.494  1.00  0.00     0.000 C 
BRANCH   8   9
ATOM      9  C   UNL     1     -18.015   6.869  17.290  1.00  0.00     0.000 C 
BRANCH   9  10
ATOM     10  C   UNL     1     -18.303   7.049  18.794  1.00  0.00     0.000 C 
BRANCH  10  11
ATOM     11  C   UNL     1     -18.820   5.787  19.513  1.00  0.00     0.000 C 
BRANCH  11  12
ATOM     12  C   UNL     1     -17.890   4.564  19.428  1.00  0.00     0.006 C 
BRANCH  12  13
ATOM     13  C   UNL     1     -17.580   3.953  20.801  1.00  0.00     0.053 C 
BRANCH  13  14
ATOM     14  C   UNL     1     -16.243   3.281  20.788  1.00  0.00     0.041 C 
ATOM     15  O   UNL     1     -15.315   3.703  21.530  1.00  0.00    -0.550 OA
ATOM     16  O   UNL     1     -16.011   2.206  19.939  1.00  0.00    -0.550 OA
ENDBRANCH  13  14
ENDBRANCH  12  13
ENDBRANCH  11  12
ENDBRANCH  10  11
ENDBRANCH   9  10
ENDBRANCH   8   9
ENDBRANCH   7   8
ENDBRANCH   6   7
ENDBRANCH   5   6
ENDBRANCH   4   5
ENDBRANCH   3   4
ENDBRANCH   2   3
ENDBRANCH   1   2
BRANCH   1  17
ATOM     17  C   UNL     1     -22.730   5.705  21.159  1.00  0.00     0.000 C 
BRANCH  17  18
ATOM     18  C   UNL     1     -22.861   4.492  20.220  1.00  0.00     0.000 C 
BRANCH  18  19
ATOM     19  C   UNL     1     -21.619   3.582  20.238  1.00  0.00     0.000 C 
BRANCH  19  20
ATOM     20  C   UNL     1     -21.083   3.325  21.662  1.00  0.00     0.000 C 
BRANCH  20  21
ATOM     21  C   UNL     1     -20.674   1.864  21.925  1.00  0.00     0.000 C 
BRANCH  21  22
ATOM     22  C   UNL     1     -20.757   0.931  20.703  1.00  0.00    -0.000 C 
BRANCH  22  23
ATOM     23  C   UNL     1     -21.668  -0.301  20.876  1.00  0.00    -0.000 C 
BRANCH  23  24
ATOM     24  C   UNL     1     -23.155  -0.075  20.549  1.00  0.00    -0.000 C 
BRANCH  24  25
ATOM     25  C   UNL     1     -24.009   0.196  21.798  1.00  0.00    -0.000 C 
BRANCH  25  26
ATOM     26  C   UNL     1     -24.503   1.650  21.871  1.00  0.00    -0.000 C 
BRANCH  26  27
ATOM     27  C   UNL     1     -24.634   2.168  23.314  1.00  0.00    -0.000 C 
BRANCH  27  28
ATOM     28  C   UNL     1     -24.773   3.704  23.373  1.00  0.00    -0.000 C 
BRANCH  28  29
ATOM     29  C   UNL     1     -24.175   4.328  24.646  1.00  0.00    -0.003 C 
ATOM     30  C   UNL     1     -22.691   4.021  24.824  1.00  0.00     0.004 C 
ENDBRANCH  28  29
ENDBRANCH  27  28
ENDBRANCH  26  27
ENDBRANCH  25  26
ENDBRANCH  24  25
ENDBRANCH  23  24
ENDBRANCH  22  23
ENDBRANCH  21  22
ENDBRANCH  20  21
ENDBRANCH  19  20
ENDBRANCH  18  19
ENDBRANCH  17  18
ENDBRANCH   1  17
TORSDOF 26
ENDMDL
MODEL 7
REMARK VINA RESULT:    -3.450      3.058      7.655
REMARK INTER + INTRA:         -14.259
REMARK INTER:                  -9.133
REMARK INTRA:                  -5.126
REMARK UNBOUND:                -5.566
REMARK SMILES CCCCCCCCCCCCCCCCCCCCCCCCCCCC(=O)[O-]
REMARK SMILES IDX 15 1 16 2 17 3 18 4 19 5 20 6 21 7 22 8 23 9 24 10 25 11
REMARK SMILES IDX 26 12 27 13 28 14 29 15 30 16 14 17 13 18 12 19 11 20 10 21
REMARK SMILES IDX 9 22 8 23 7 24 6 25 5 26 4 27 3 28 2 29 1 30
REMARK H PARENT
REMARK Flexibility Score: inf
ROOT
ATOM      1  C   UNL     1     -21.368   4.722  20.505  1.00  0.00     0.000 C 
ENDROOT
BRANCH   1   2
ATOM      2  C   UNL     1     -21.952   5.890  21.319  1.00  0.00     0.000 C 
BRANCH   2   3
ATOM      3  C   UNL     1     -23.476   6.015  21.157  1.00  0.00     0.000 C 
BRANCH   3   4
ATOM      4  C   UNL     1     -23.924   7.459  20.868  1.00  0.00     0.000 C 
BRANCH   4   5
ATOM      5  C   UNL     1     -22.739   8.399  20.593  1.00  0.00     0.000 C 
BRANCH   5   6
ATOM      6  C   UNL     1     -22.710   8.910  19.144  1.00  0.00     0.000 C 
BRANCH   6   7
ATOM      7  C   UNL     1     -21.700   8.113  18.305  1.00  0.00     0.000 C 
BRANCH   7   8
ATOM      8  C   UNL     1     -22.346   6.944  17.540  1.00  0.00     0.000 C 
BRANCH   8   9
ATOM      9  C   UNL     1     -21.392   6.155  16.623  1.00  0.00     0.000 C 
BRANCH   9  10
ATOM     10  C   UNL     1     -20.302   6.999  15.932  1.00  0.00     0.000 C 
BRANCH  10  11
ATOM     11  C   UNL     1     -18.854   6.560  16.228  1.00  0.00     0.000 C 
BRANCH  11  12
ATOM     12  C   UNL     1     -18.353   6.887  17.645  1.00  0.00     0.006 C 
BRANCH  12  13
ATOM     13  C   UNL     1     -17.853   5.650  18.403  1.00  0.00     0.053 C 
BRANCH  13  14
ATOM     14  C   UNL     1     -16.413   5.807  18.776  1.00  0.00     0.041 C 
ATOM     15  O   UNL     1     -15.970   5.276  19.830  1.00  0.00    -0.550 OA
ATOM     16  O   UNL     1     -15.563   6.561  17.975  1.00  0.00    -0.550 OA
ENDBRANCH  13  14
ENDBRANCH  12  13
ENDBRANCH  11  12
ENDBRANCH  10  11
ENDBRANCH   9  10
ENDBRANCH   8   9
ENDBRANCH   7   8
ENDBRANCH   6   7
ENDBRANCH   5   6
ENDBRANCH   4   5
ENDBRANCH   3   4
ENDBRANCH   2   3
ENDBRANCH   1   2
BRANCH   1  17
ATOM     17  C   UNL     1     -22.344   3.540  20.369  1.00  0.00     0.000 C 
BRANCH  17  18
ATOM     18  C   UNL     1     -21.745   2.160  20.693  1.00  0.00     0.000 C 
BRANCH  18  19
ATOM     19  C   UNL     1     -22.712   1.254  21.477  1.00  0.00     0.000 C 
BRANCH  19  20
ATOM     20  C   UNL     1     -24.159   1.790  21.489  1.00  0.00     0.000 C 
BRANCH  20  21
ATOM     21  C   UNL     1     -25.007   1.283  22.671  1.00  0.00     0.000 C 
BRANCH  21  22
ATOM     22  C   UNL     1     -24.906   2.123  23.956  1.00  0.00    -0.000 C 
BRANCH  22  23
ATOM     23  C   UNL     1     -24.701   3.636  23.739  1.00  0.00    -0.000 C 
BRANCH  23  24
ATOM     24  C   UNL     1     -23.404   4.219  24.330  1.00  0.00    -0.000 C 
BRANCH  24  25
ATOM     25  C   UNL     1     -22.384   3.136  24.719  1.00  0.00    -0.000 C 
BRANCH  25  26
ATOM     26  C   UNL     1     -21.025   3.331  24.028  1.00  0.00    -0.000 C 
BRANCH  26  27
ATOM     27  C   UNL     1     -20.072   2.139  24.231  1.00  0.00    -0.000 C 
BRANCH  27  28
ATOM     28  C   UNL     1     -18.651   2.431  23.704  1.00  0.00    -0.000 C 
BRANCH  28  29
ATOM     29  C   UNL     1     -18.609   3.527  22.625  1.00  0.00    -0.003 C 
ATOM     30  C   UNL     1     -18.186   3.004  21.255  1.00  0.00     0.004 C 
ENDBRANCH  28  29
ENDBRANCH  27  28
ENDBRANCH  26  27
ENDBRANCH  25  26
ENDBRANCH  24  25
ENDBRANCH  23  24
ENDBRANCH  22  23
ENDBRANCH  21  22
ENDBRANCH  20  21
ENDBRANCH  19  20
ENDBRANCH  18  19
ENDBRANCH  17  18
ENDBRANCH   1  17
TORSDOF 26
ENDMDL
MODEL 8
REMARK VINA RESULT:    -3.425      1.627      6.913
REMARK INTER + INTRA:         -14.197
REMARK INTER:                  -9.603
REMARK INTRA:                  -4.594
REMARK UNBOUND:                -5.566
REMARK SMILES CCCCCCCCCCCCCCCCCCCCCCCCCCCC(=O)[O-]
REMARK SMILES IDX 15 1 16 2 17 3 18 4 19 5 20 6 21 7 22 8 23 9 24 10 25 11
REMARK SMILES IDX 26 12 27 13 28 14 29 15 30 16 14 17 13 18 12 19 11 20 10 21
REMARK SMILES IDX 9 22 8 23 7 24 6 25 5 26 4 27 3 28 2 29 1 30
REMARK H PARENT
REMARK Flexibility Score: inf
ROOT
ATOM      1  C   UNL     1     -23.013   7.995  20.511  1.00  0.00     0.000 C 
ENDROOT
BRANCH   1   2
ATOM      2  C   UNL     1     -23.092   8.462  19.047  1.00  0.00     0.000 C 
BRANCH   2   3
ATOM      3  C   UNL     1     -21.984   7.848  18.174  1.00  0.00     0.000 C 
BRANCH   3   4
ATOM      4  C   UNL     1     -22.380   6.480  17.591  1.00  0.00     0.000 C 
BRANCH   4   5
ATOM      5  C   UNL     1     -21.432   6.021  16.471  1.00  0.00     0.000 C 
BRANCH   5   6
ATOM      6  C   UNL     1     -20.352   7.063  16.142  1.00  0.00     0.000 C 
BRANCH   6   7
ATOM      7  C   UNL     1     -18.949   6.445  16.253  1.00  0.00     0.000 C 
BRANCH   7   8
ATOM      8  C   UNL     1     -18.201   6.880  17.526  1.00  0.00     0.000 C 
BRANCH   8   9
ATOM      9  C   UNL     1     -17.628   5.728  18.374  1.00  0.00     0.000 C 
BRANCH   9  10
ATOM     10  C   UNL     1     -18.681   4.824  19.045  1.00  0.00     0.000 C 
BRANCH  10  11
ATOM     11  C   UNL     1     -19.739   5.567  19.882  1.00  0.00     0.000 C 
BRANCH  11  12
ATOM     12  C   UNL     1     -19.174   6.455  21.004  1.00  0.00     0.006 C 
BRANCH  12  13
ATOM     13  C   UNL     1     -20.089   6.520  22.234  1.00  0.00     0.053 C 
BRANCH  13  14
ATOM     14  C   UNL     1     -19.809   5.378  23.159  1.00  0.00     0.041 C 
ATOM     15  O   UNL     1     -20.643   5.068  24.053  1.00  0.00    -0.550 OA
ATOM     16  O   UNL     1     -18.618   4.672  23.055  1.00  0.00    -0.550 OA
ENDBRANCH  13  14
ENDBRANCH  12  13
ENDBRANCH  11  12
ENDBRANCH  10  11
ENDBRANCH   9  10
ENDBRANCH   8   9
ENDBRANCH   7   8
ENDBRANCH   6   7
ENDBRANCH   5   6
ENDBRANCH   4   5
ENDBRANCH   3   4
ENDBRANCH   2   3
ENDBRANCH   1   2
BRANCH   1  17
ATOM     17  C   UNL     1     -24.134   7.010  20.887  1.00  0.00     0.000 C 
BRANCH  17  18
ATOM     18  C   UNL     1     -23.674   5.770  21.674  1.00  0.00     0.000 C 
BRANCH  18  19
ATOM     19  C   UNL     1     -23.083   4.671  20.771  1.00  0.00     0.000 C 
BRANCH  19  20
ATOM     20  C   UNL     1     -23.396   3.246  21.277  1.00  0.00     0.000 C 
BRANCH  20  21
ATOM     21  C   UNL     1     -23.075   3.025  22.767  1.00  0.00     0.000 C 
BRANCH  21  22
ATOM     22  C   UNL     1     -24.267   2.582  23.635  1.00  0.00    -0.000 C 
BRANCH  22  23
ATOM     23  C   UNL     1     -25.155   1.482  23.020  1.00  0.00    -0.000 C 
BRANCH  23  24
ATOM     24  C   UNL     1     -25.085   0.110  23.714  1.00  0.00    -0.000 C 
BRANCH  24  25
ATOM     25  C   UNL     1     -24.638  -1.018  22.769  1.00  0.00    -0.000 C 
BRANCH  25  26
ATOM     26  C   UNL     1     -23.901  -0.489  21.528  1.00  0.00    -0.000 C 
BRANCH  26  27
ATOM     27  C   UNL     1     -22.369  -0.549  21.669  1.00  0.00    -0.000 C 
BRANCH  27  28
ATOM     28  C   UNL     1     -21.648  -0.183  20.355  1.00  0.00    -0.000 C 
BRANCH  28  29
ATOM     29  C   UNL     1     -20.211   0.328  20.563  1.00  0.00    -0.003 C 
ATOM     30  C   UNL     1     -20.127   1.847  20.678  1.00  0.00     0.004 C 
ENDBRANCH  28  29
ENDBRANCH  27  28
ENDBRANCH  26  27
ENDBRANCH  25  26
ENDBRANCH  24  25
ENDBRANCH  23  24
ENDBRANCH  22  23
ENDBRANCH  21  22
ENDBRANCH  20  21
ENDBRANCH  19  20
ENDBRANCH  18  19
ENDBRANCH  17  18
ENDBRANCH   1  17
TORSDOF 26
ENDMDL
MODEL 9
REMARK VINA RESULT:    -3.383      2.578      3.901
REMARK INTER + INTRA:         -14.091
REMARK INTER:                  -9.831
REMARK INTRA:                  -4.260
REMARK UNBOUND:                -5.566
REMARK SMILES CCCCCCCCCCCCCCCCCCCCCCCCCCCC(=O)[O-]
REMARK SMILES IDX 15 1 16 2 17 3 18 4 19 5 20 6 21 7 22 8 23 9 24 10 25 11
REMARK SMILES IDX 26 12 27 13 28 14 29 15 30 16 14 17 13 18 12 19 11 20 10 21
REMARK SMILES IDX 9 22 8 23 7 24 6 25 5 26 4 27 3 28 2 29 1 30
REMARK H PARENT
REMARK Flexibility Score: inf
ROOT
ATOM      1  C   UNL     1     -23.434   5.798  21.493  1.00  0.00     0.000 C 
ENDROOT
BRANCH   1   2
ATOM      2  C   UNL     1     -24.178   4.808  22.406  1.00  0.00     0.000 C 
BRANCH   2   3
ATOM      3  C   UNL     1     -23.288   4.274  23.542  1.00  0.00     0.000 C 
BRANCH   3   4
ATOM      4  C   UNL     1     -24.007   3.230  24.416  1.00  0.00     0.000 C 
BRANCH   4   5
ATOM      5  C   UNL     1     -25.445   2.958  23.944  1.00  0.00     0.000 C 
BRANCH   5   6
ATOM      6  C   UNL     1     -25.672   1.492  23.545  1.00  0.00     0.000 C 
BRANCH   6   7
ATOM      7  C   UNL     1     -24.374   0.682  23.685  1.00  0.00     0.000 C 
BRANCH   7   8
ATOM      8  C   UNL     1     -24.238  -0.421  22.621  1.00  0.00     0.000 C 
BRANCH   8   9
ATOM      9  C   UNL     1     -23.874   0.074  21.207  1.00  0.00     0.000 C 
BRANCH   9  10
ATOM     10  C   UNL     1     -23.344   1.520  21.138  1.00  0.00     0.000 C 
BRANCH  10  11
ATOM     11  C   UNL     1     -21.859   1.650  20.744  1.00  0.00     0.000 C 
BRANCH  11  12
ATOM     12  C   UNL     1     -20.868   1.004  21.726  1.00  0.00     0.006 C 
BRANCH  12  13
ATOM     13  C   UNL     1     -20.220  -0.271  21.169  1.00  0.00     0.053 C 
BRANCH  13  14
ATOM     14  C   UNL     1     -18.737  -0.236  21.363  1.00  0.00     0.041 C 
ATOM     15  O   UNL     1     -18.228  -0.655  22.439  1.00  0.00    -0.550 OA
ATOM     16  O   UNL     1     -17.916   0.283  20.370  1.00  0.00    -0.550 OA
ENDBRANCH  13  14
ENDBRANCH  12  13
ENDBRANCH  11  12
ENDBRANCH  10  11
ENDBRANCH   9  10
ENDBRANCH   8   9
ENDBRANCH   7   8
ENDBRANCH   6   7
ENDBRANCH   5   6
ENDBRANCH   4   5
ENDBRANCH   3   4
ENDBRANCH   2   3
ENDBRANCH   1   2
BRANCH   1  17
ATOM     17  C   UNL     1     -24.291   7.016  21.106  1.00  0.00     0.000 C 
BRANCH  17  18
ATOM     18  C   UNL     1     -23.496   8.258  20.664  1.00  0.00     0.000 C 
BRANCH  18  19
ATOM     19  C   UNL     1     -21.975   8.094  20.847  1.00  0.00     0.000 C 
BRANCH  19  20
ATOM     20  C   UNL     1     -21.201   8.156  19.513  1.00  0.00     0.000 C 
BRANCH  20  21
ATOM     21  C   UNL     1     -22.094   8.043  18.263  1.00  0.00     0.000 C 
BRANCH  21  22
ATOM     22  C   UNL     1     -22.345   6.609  17.765  1.00  0.00    -0.000 C 
BRANCH  22  23
ATOM     23  C   UNL     1     -21.416   6.135  16.628  1.00  0.00    -0.000 C 
BRANCH  23  24
ATOM     24  C   UNL     1     -20.518   7.223  16.012  1.00  0.00    -0.000 C 
BRANCH  24  25
ATOM     25  C   UNL     1     -19.022   6.870  16.073  1.00  0.00    -0.000 C 
BRANCH  25  26
ATOM     26  C   UNL     1     -18.478   6.855  17.510  1.00  0.00    -0.000 C 
BRANCH  26  27
ATOM     27  C   UNL     1     -18.142   5.439  18.010  1.00  0.00    -0.000 C 
BRANCH  27  28
ATOM     28  C   UNL     1     -18.360   5.290  19.531  1.00  0.00    -0.000 C 
BRANCH  28  29
ATOM     29  C   UNL     1     -19.761   4.777  19.904  1.00  0.00    -0.003 C 
ATOM     30  C   UNL     1     -20.003   4.738  21.411  1.00  0.00     0.004 C 
ENDBRANCH  28  29
ENDBRANCH  27  28
ENDBRANCH  26  27
ENDBRANCH  25  26
ENDBRANCH  24  25
ENDBRANCH  23  24
ENDBRANCH  22  23
ENDBRANCH  21  22
ENDBRANCH  20  21
ENDBRANCH  19  20
ENDBRANCH  18  19
ENDBRANCH  17  18
ENDBRANCH   1  17
TORSDOF 26
ENDMDL
