MODEL 1
REMARK VINA RESULT:    -5.569      0.000      0.000
REMARK INTER + INTRA:          -7.225
REMARK INTER:                  -6.871
REMARK INTRA:                  -0.354
REMARK UNBOUND:                -0.354
REMARK SMILES Oc1cc(O)c2cc(O)c(-c3cc(O)c(O)c(O)c3)[o+]c2c1
REMARK SMILES IDX 10 1 20 2 21 3 22 4 2 5 3 6 4 7 6 8 7 9 8 10 11 11 12 12
REMARK SMILES IDX 13 13 19 14 15 15 17 16 14 17 16 19 18 21 9 23 1 25 5 27
REMARK H PARENT 14 18 16 20 18 22 9 24 1 26 5 28
REMARK Flexibility Score: inf
ROOT
ATOM      1  C   UNL     1     -43.291  72.766  29.635  1.00  0.00     0.402 A 
ATOM      2  O   UNL     1     -43.678  71.754  30.407  1.00  0.00    -0.202 OA
ATOM      3  C   UNL     1     -43.535  71.748  31.728  1.00  0.00     0.368 A 
ATOM      4  C   UNL     1     -43.976  70.638  32.455  1.00  0.00     0.162 A 
ATOM      5  C   UNL     1     -43.840  70.607  33.846  1.00  0.00     0.128 A 
ATOM      6  C   UNL     1     -43.262  71.689  34.513  1.00  0.00     0.093 A 
ATOM      7  C   UNL     1     -42.812  72.812  33.808  1.00  0.00     0.136 A 
ATOM      8  C   UNL     1     -42.945  72.849  32.395  1.00  0.00     0.125 A 
ATOM      9  C   UNL     1     -42.510  73.925  31.606  1.00  0.00     0.078 A 
ATOM     10  C   UNL     1     -42.672  73.887  30.218  1.00  0.00     0.223 A 
ENDROOT
BRANCH   1  11
ATOM     11  C   UNL     1     -43.514  72.659  28.176  1.00  0.00     0.091 A 
ATOM     12  C   UNL     1     -44.763  73.009  27.640  1.00  0.00     0.068 A 
ATOM     13  C   UNL     1     -44.994  72.936  26.260  1.00  0.00     0.162 A 
ATOM     14  C   UNL     1     -42.483  72.268  27.304  1.00  0.00     0.068 A 
ATOM     15  C   UNL     1     -43.968  72.526  25.399  1.00  0.00     0.200 A 
ATOM     16  C   UNL     1     -42.707  72.195  25.922  1.00  0.00     0.162 A 
BRANCH  13  17
ATOM     17  O   UNL     1     -46.241  73.271  25.736  1.00  0.00    -0.504 OA
ATOM     18  H   UNL     1     -46.903  73.832  26.260  1.00  0.00     0.293 HD
ENDBRANCH  13  17
BRANCH  15  19
ATOM     19  O   UNL     1     -44.217  72.456  24.029  1.00  0.00    -0.502 OA
ATOM     20  H   UNL     1     -43.812  73.113  23.373  1.00  0.00     0.293 HD
ENDBRANCH  15  19
BRANCH  16  21
ATOM     21  O   UNL     1     -41.679  71.800  25.067  1.00  0.00    -0.504 OA
ATOM     22  H   UNL     1     -41.018  72.467  24.687  1.00  0.00     0.293 HD
ENDBRANCH  16  21
ENDBRANCH   1  11
BRANCH  10  23
ATOM     23  O   UNL     1     -42.196  74.935  29.429  1.00  0.00    -0.500 OA
ATOM     24  H   UNL     1     -42.300  75.903  29.710  1.00  0.00     0.294 HD
ENDBRANCH  10  23
BRANCH   5  25
ATOM     25  O   UNL     1     -44.277  69.504  34.576  1.00  0.00    -0.507 OA
ATOM     26  H   UNL     1     -45.263  69.326  34.727  1.00  0.00     0.293 HD
ENDBRANCH   5  25
BRANCH   7  27
ATOM     27  O   UNL     1     -42.248  73.854  34.550  1.00  0.00    -0.507 OA
ATOM     28  H   UNL     1     -41.923  74.724  34.154  1.00  0.00     0.293 HD
ENDBRANCH   7  27
TORSDOF 7
ENDMDL
MODEL 2
REMARK VINA RESULT:    -5.473     13.804     16.235
REMARK INTER + INTRA:          -7.107
REMARK INTER:                  -7.206
REMARK INTRA:                   0.099
REMARK UNBOUND:                -0.354
REMARK SMILES Oc1cc(O)c2cc(O)c(-c3cc(O)c(O)c(O)c3)[o+]c2c1
REMARK SMILES IDX 10 1 20 2 21 3 22 4 2 5 3 6 4 7 6 8 7 9 8 10 11 11 12 12
REMARK SMILES IDX 13 13 19 14 15 15 17 16 14 17 16 19 18 21 9 23 1 25 5 27
REMARK H PARENT 14 18 16 20 18 22 9 24 1 26 5 28
REMARK Flexibility Score: inf
ROOT
ATOM      1  C   UNL     1     -47.849  58.838  26.896  1.00  0.00     0.402 A 
ATOM      2  O   UNL     1     -46.816  58.019  26.716  1.00  0.00    -0.202 OA
ATOM      3  C   UNL     1     -46.224  57.838  25.540  1.00  0.00     0.368 A 
ATOM      4  C   UNL     1     -45.142  56.958  25.451  1.00  0.00     0.162 A 
ATOM      5  C   UNL     1     -44.500  56.751  24.227  1.00  0.00     0.128 A 
ATOM      6  C   UNL     1     -44.940  57.428  23.087  1.00  0.00     0.093 A 
ATOM      7  C   UNL     1     -46.022  58.315  23.150  1.00  0.00     0.136 A 
ATOM      8  C   UNL     1     -46.680  58.527  24.390  1.00  0.00     0.125 A 
ATOM      9  C   UNL     1     -47.779  59.386  24.544  1.00  0.00     0.078 A 
ATOM     10  C   UNL     1     -48.379  59.540  25.798  1.00  0.00     0.223 A 
ENDROOT
BRANCH   1  11
ATOM     11  C   UNL     1     -48.415  58.962  28.258  1.00  0.00     0.091 A 
ATOM     12  C   UNL     1     -48.393  57.853  29.119  1.00  0.00     0.068 A 
ATOM     13  C   UNL     1     -48.905  57.950  30.420  1.00  0.00     0.162 A 
ATOM     14  C   UNL     1     -48.925  60.183  28.731  1.00  0.00     0.068 A 
ATOM     15  C   UNL     1     -49.430  59.165  30.877  1.00  0.00     0.200 A 
ATOM     16  C   UNL     1     -49.437  60.287  30.033  1.00  0.00     0.162 A 
BRANCH  13  17
ATOM     17  O   UNL     1     -48.893  56.841  31.264  1.00  0.00    -0.504 OA
ATOM     18  H   UNL     1     -48.303  56.807  32.087  1.00  0.00     0.293 HD
ENDBRANCH  13  17
BRANCH  15  19
ATOM     19  O   UNL     1     -49.938  59.241  32.175  1.00  0.00    -0.502 OA
ATOM     20  H   UNL     1     -49.620  58.627  32.915  1.00  0.00     0.293 HD
ENDBRANCH  15  19
BRANCH  16  21
ATOM     21  O   UNL     1     -49.946  61.502  30.489  1.00  0.00    -0.504 OA
ATOM     22  H   UNL     1     -50.849  61.562  30.943  1.00  0.00     0.293 HD
ENDBRANCH  16  21
ENDBRANCH   1  11
BRANCH  10  23
ATOM     23  O   UNL     1     -49.502  60.356  25.942  1.00  0.00    -0.500 OA
ATOM     24  H   UNL     1     -50.405  59.977  26.204  1.00  0.00     0.294 HD
ENDBRANCH  10  23
BRANCH   5  25
ATOM     25  O   UNL     1     -43.422  55.875  24.131  1.00  0.00    -0.507 OA
ATOM     26  H   UNL     1     -43.181  55.425  23.255  1.00  0.00     0.293 HD
ENDBRANCH   5  25
BRANCH   7  27
ATOM     27  O   UNL     1     -46.399  58.956  21.965  1.00  0.00    -0.507 OA
ATOM     28  H   UNL     1     -46.425  58.510  21.060  1.00  0.00     0.293 HD
ENDBRANCH   7  27
TORSDOF 7
ENDMDL
MODEL 3
REMARK VINA RESULT:    -5.318     14.776     17.208
REMARK INTER + INTRA:          -6.916
REMARK INTER:                  -6.536
REMARK INTRA:                  -0.379
REMARK UNBOUND:                -0.354
REMARK SMILES Oc1cc(O)c2cc(O)c(-c3cc(O)c(O)c(O)c3)[o+]c2c1
REMARK SMILES IDX 10 1 20 2 21 3 22 4 2 5 3 6 4 7 6 8 7 9 8 10 11 11 12 12
REMARK SMILES IDX 13 13 19 14 15 15 17 16 14 17 16 19 18 21 9 23 1 25 5 27
REMARK H PARENT 14 18 16 20 18 22 9 24 1 26 5 28
REMARK Flexibility Score: inf
ROOT
ATOM      1  C   UNL     1     -48.196  57.576  26.757  1.00  0.00     0.402 A 
ATOM      2  O   UNL     1     -46.922  57.661  26.382  1.00  0.00    -0.202 OA
ATOM      3  C   UNL     1     -46.489  57.290  25.181  1.00  0.00     0.368 A 
ATOM      4  C   UNL     1     -45.131  57.420  24.879  1.00  0.00     0.162 A 
ATOM      5  C   UNL     1     -44.649  57.040  23.623  1.00  0.00     0.128 A 
ATOM      6  C   UNL     1     -45.528  56.531  22.665  1.00  0.00     0.093 A 
ATOM      7  C   UNL     1     -46.893  56.391  22.943  1.00  0.00     0.136 A 
ATOM      8  C   UNL     1     -47.388  56.771  24.218  1.00  0.00     0.125 A 
ATOM      9  C   UNL     1     -48.737  56.655  24.590  1.00  0.00     0.078 A 
ATOM     10  C   UNL     1     -49.149  57.047  25.867  1.00  0.00     0.223 A 
ENDROOT
BRANCH   1  11
ATOM     11  C   UNL     1     -48.557  58.031  28.119  1.00  0.00     0.091 A 
ATOM     12  C   UNL     1     -49.004  59.347  28.312  1.00  0.00     0.068 A 
ATOM     13  C   UNL     1     -49.371  59.796  29.587  1.00  0.00     0.162 A 
ATOM     14  C   UNL     1     -48.516  57.156  29.217  1.00  0.00     0.068 A 
ATOM     15  C   UNL     1     -49.308  58.925  30.682  1.00  0.00     0.200 A 
ATOM     16  C   UNL     1     -48.883  57.599  30.497  1.00  0.00     0.162 A 
BRANCH  13  17
ATOM     17  O   UNL     1     -49.801  61.109  29.774  1.00  0.00    -0.504 OA
ATOM     18  H   UNL     1     -50.782  61.359  29.718  1.00  0.00     0.293 HD
ENDBRANCH  13  17
BRANCH  15  19
ATOM     19  O   UNL     1     -49.674  59.390  31.945  1.00  0.00    -0.502 OA
ATOM     20  H   UNL     1     -48.989  59.621  32.654  1.00  0.00     0.293 HD
ENDBRANCH  15  19
BRANCH  16  21
ATOM     21  O   UNL     1     -48.832  56.724  31.581  1.00  0.00    -0.504 OA
ATOM     22  H   UNL     1     -49.245  55.800  31.537  1.00  0.00     0.293 HD
ENDBRANCH  16  21
ENDBRANCH   1  11
BRANCH  10  23
ATOM     23  O   UNL     1     -50.480  56.885  26.254  1.00  0.00    -0.500 OA
ATOM     24  H   UNL     1     -51.102  56.249  25.769  1.00  0.00     0.294 HD
ENDBRANCH  10  23
BRANCH   5  25
ATOM     25  O   UNL     1     -43.296  57.166  23.314  1.00  0.00    -0.507 OA
ATOM     26  H   UNL     1     -42.648  56.400  23.451  1.00  0.00     0.293 HD
ENDBRANCH   5  25
BRANCH   7  27
ATOM     27  O   UNL     1     -47.708  55.875  21.930  1.00  0.00    -0.507 OA
ATOM     28  H   UNL     1     -48.598  55.425  22.088  1.00  0.00     0.293 HD
ENDBRANCH   7  27
TORSDOF 7
ENDMDL
MODEL 4
REMARK VINA RESULT:    -5.199      7.755     11.784
REMARK INTER + INTRA:          -6.769
REMARK INTER:                  -6.561
REMARK INTRA:                  -0.208
REMARK UNBOUND:                -0.354
REMARK SMILES Oc1cc(O)c2cc(O)c(-c3cc(O)c(O)c(O)c3)[o+]c2c1
REMARK SMILES IDX 10 1 20 2 21 3 22 4 2 5 3 6 4 7 6 8 7 9 8 10 11 11 12 12
REMARK SMILES IDX 13 13 19 14 15 15 17 16 14 17 16 19 18 21 9 23 1 25 5 27
REMARK H PARENT 14 18 16 20 18 22 9 24 1 26 5 28
REMARK Flexibility Score: inf
ROOT
ATOM      1  C   UNL     1     -39.361  65.613  36.392  1.00  0.00     0.402 A 
ATOM      2  O   UNL     1     -39.641  65.935  35.131  1.00  0.00    -0.202 OA
ATOM      3  C   UNL     1     -40.162  67.104  34.775  1.00  0.00     0.368 A 
ATOM      4  C   UNL     1     -40.419  67.351  33.424  1.00  0.00     0.162 A 
ATOM      5  C   UNL     1     -40.965  68.573  33.021  1.00  0.00     0.128 A 
ATOM      6  C   UNL     1     -41.253  69.553  33.974  1.00  0.00     0.093 A 
ATOM      7  C   UNL     1     -41.006  69.331  35.334  1.00  0.00     0.136 A 
ATOM      8  C   UNL     1     -40.455  68.090  35.749  1.00  0.00     0.125 A 
ATOM      9  C   UNL     1     -40.186  67.774  37.090  1.00  0.00     0.078 A 
ATOM     10  C   UNL     1     -39.646  66.528  37.422  1.00  0.00     0.223 A 
ENDROOT
BRANCH   1  11
ATOM     11  C   UNL     1     -38.772  64.282  36.661  1.00  0.00     0.091 A 
ATOM     12  C   UNL     1     -39.507  63.337  37.394  1.00  0.00     0.068 A 
ATOM     13  C   UNL     1     -38.981  62.063  37.645  1.00  0.00     0.162 A 
ATOM     14  C   UNL     1     -37.514  63.921  36.149  1.00  0.00     0.068 A 
ATOM     15  C   UNL     1     -37.717  61.717  37.149  1.00  0.00     0.200 A 
ATOM     16  C   UNL     1     -36.983  62.646  36.395  1.00  0.00     0.162 A 
BRANCH  13  17
ATOM     17  O   UNL     1     -39.709  61.134  38.386  1.00  0.00    -0.504 OA
ATOM     18  H   UNL     1     -40.643  61.338  38.721  1.00  0.00     0.293 HD
ENDBRANCH  13  17
BRANCH  15  19
ATOM     19  O   UNL     1     -37.208  60.445  37.412  1.00  0.00    -0.502 OA
ATOM     20  H   UNL     1     -37.157  59.727  36.699  1.00  0.00     0.293 HD
ENDBRANCH  15  19
BRANCH  16  21
ATOM     21  O   UNL     1     -35.731  62.301  35.888  1.00  0.00    -0.504 OA
ATOM     22  H   UNL     1     -35.604  61.491  35.294  1.00  0.00     0.293 HD
ENDBRANCH  16  21
ENDBRANCH   1  11
BRANCH  10  23
ATOM     23  O   UNL     1     -39.425  66.195  38.759  1.00  0.00    -0.500 OA
ATOM     24  H   UNL     1     -40.145  66.309  39.462  1.00  0.00     0.294 HD
ENDBRANCH  10  23
BRANCH   5  25
ATOM     25  O   UNL     1     -41.223  68.826  31.676  1.00  0.00    -0.507 OA
ATOM     26  H   UNL     1     -40.926  69.687  31.232  1.00  0.00     0.293 HD
ENDBRANCH   5  25
BRANCH   7  27
ATOM     27  O   UNL     1     -41.320  70.363  36.223  1.00  0.00    -0.507 OA
ATOM     28  H   UNL     1     -40.640  70.867  36.774  1.00  0.00     0.293 HD
ENDBRANCH   7  27
TORSDOF 7
ENDMDL
MODEL 5
REMARK VINA RESULT:    -5.143      7.596     11.769
REMARK INTER + INTRA:          -6.700
REMARK INTER:                  -6.469
REMARK INTRA:                  -0.230
REMARK UNBOUND:                -0.354
REMARK SMILES Oc1cc(O)c2cc(O)c(-c3cc(O)c(O)c(O)c3)[o+]c2c1
REMARK SMILES IDX 10 1 20 2 21 3 22 4 2 5 3 6 4 7 6 8 7 9 8 10 11 11 12 12
REMARK SMILES IDX 13 13 19 14 15 15 17 16 14 17 16 19 18 21 9 23 1 25 5 27
REMARK H PARENT 14 18 16 20 18 22 9 24 1 26 5 28
REMARK Flexibility Score: inf
ROOT
ATOM      1  C   UNL     1     -39.497  65.761  36.384  1.00  0.00     0.402 A 
ATOM      2  O   UNL     1     -39.779  66.087  35.125  1.00  0.00    -0.202 OA
ATOM      3  C   UNL     1     -40.267  67.272  34.771  1.00  0.00     0.368 A 
ATOM      4  C   UNL     1     -40.529  67.522  33.421  1.00  0.00     0.162 A 
ATOM      5  C   UNL     1     -41.039  68.761  33.020  1.00  0.00     0.128 A 
ATOM      6  C   UNL     1     -41.286  69.752  33.972  1.00  0.00     0.093 A 
ATOM      7  C   UNL     1     -41.032  69.526  35.330  1.00  0.00     0.136 A 
ATOM      8  C   UNL     1     -40.517  68.270  35.744  1.00  0.00     0.125 A 
ATOM      9  C   UNL     1     -40.244  67.949  37.083  1.00  0.00     0.078 A 
ATOM     10  C   UNL     1     -39.741  66.687  37.414  1.00  0.00     0.223 A 
ENDROOT
BRANCH   1  11
ATOM     11  C   UNL     1     -38.948  64.412  36.651  1.00  0.00     0.091 A 
ATOM     12  C   UNL     1     -37.654  64.093  36.211  1.00  0.00     0.068 A 
ATOM     13  C   UNL     1     -37.104  62.830  36.470  1.00  0.00     0.162 A 
ATOM     14  C   UNL     1     -39.674  63.459  37.387  1.00  0.00     0.068 A 
ATOM     15  C   UNL     1     -37.841  61.878  37.185  1.00  0.00     0.200 A 
ATOM     16  C   UNL     1     -39.128  62.194  37.650  1.00  0.00     0.162 A 
BRANCH  13  17
ATOM     17  O   UNL     1     -35.824  62.515  36.018  1.00  0.00    -0.504 OA
ATOM     18  H   UNL     1     -35.511  62.771  35.088  1.00  0.00     0.293 HD
ENDBRANCH  13  17
BRANCH  15  19
ATOM     19  O   UNL     1     -37.278  60.625  37.430  1.00  0.00    -0.502 OA
ATOM     20  H   UNL     1     -37.164  59.933  36.699  1.00  0.00     0.293 HD
ENDBRANCH  15  19
BRANCH  16  21
ATOM     21  O   UNL     1     -39.859  61.255  38.375  1.00  0.00    -0.504 OA
ATOM     22  H   UNL     1     -39.417  60.444  38.790  1.00  0.00     0.293 HD
ENDBRANCH  16  21
ENDBRANCH   1  11
BRANCH  10  23
ATOM     23  O   UNL     1     -39.517  66.351  38.750  1.00  0.00    -0.500 OA
ATOM     24  H   UNL     1     -38.680  66.646  39.240  1.00  0.00     0.294 HD
ENDBRANCH  10  23
BRANCH   5  25
ATOM     25  O   UNL     1     -41.303  69.017  31.677  1.00  0.00    -0.507 OA
ATOM     26  H   UNL     1     -41.921  68.424  31.135  1.00  0.00     0.293 HD
ENDBRANCH   5  25
BRANCH   7  27
ATOM     27  O   UNL     1     -41.303  70.571  36.219  1.00  0.00    -0.507 OA
ATOM     28  H   UNL     1     -40.674  71.338  36.406  1.00  0.00     0.293 HD
ENDBRANCH   7  27
TORSDOF 7
ENDMDL
MODEL 6
REMARK VINA RESULT:    -5.041      7.266     10.991
REMARK INTER + INTRA:          -6.574
REMARK INTER:                  -6.193
REMARK INTRA:                  -0.381
REMARK UNBOUND:                -0.354
REMARK SMILES Oc1cc(O)c2cc(O)c(-c3cc(O)c(O)c(O)c3)[o+]c2c1
REMARK SMILES IDX 10 1 20 2 21 3 22 4 2 5 3 6 4 7 6 8 7 9 8 10 11 11 12 12
REMARK SMILES IDX 13 13 19 14 15 15 17 16 14 17 16 19 18 21 9 23 1 25 5 27
REMARK H PARENT 14 18 16 20 18 22 9 24 1 26 5 28
REMARK Flexibility Score: inf
ROOT
ATOM      1  C   UNL     1     -39.903  67.019  37.350  1.00  0.00     0.402 A 
ATOM      2  O   UNL     1     -40.275  65.751  37.507  1.00  0.00    -0.202 OA
ATOM      3  C   UNL     1     -39.421  64.765  37.758  1.00  0.00     0.368 A 
ATOM      4  C   UNL     1     -39.909  63.465  37.911  1.00  0.00     0.162 A 
ATOM      5  C   UNL     1     -39.033  62.409  38.179  1.00  0.00     0.128 A 
ATOM      6  C   UNL     1     -37.663  62.655  38.297  1.00  0.00     0.093 A 
ATOM      7  C   UNL     1     -37.149  63.949  38.148  1.00  0.00     0.136 A 
ATOM      8  C   UNL     1     -38.033  65.025  37.872  1.00  0.00     0.125 A 
ATOM      9  C   UNL     1     -37.607  66.350  37.695  1.00  0.00     0.078 A 
ATOM     10  C   UNL     1     -38.539  67.356  37.422  1.00  0.00     0.223 A 
ENDROOT
BRANCH   1  11
ATOM     11  C   UNL     1     -40.951  68.029  37.082  1.00  0.00     0.091 A 
ATOM     12  C   UNL     1     -41.323  68.305  35.757  1.00  0.00     0.068 A 
ATOM     13  C   UNL     1     -42.327  69.242  35.479  1.00  0.00     0.162 A 
ATOM     14  C   UNL     1     -41.624  68.680  38.130  1.00  0.00     0.068 A 
ATOM     15  C   UNL     1     -42.980  69.902  36.527  1.00  0.00     0.200 A 
ATOM     16  C   UNL     1     -42.631  69.618  37.858  1.00  0.00     0.162 A 
BRANCH  13  17
ATOM     17  O   UNL     1     -42.682  69.521  34.160  1.00  0.00    -0.504 OA
ATOM     18  H   UNL     1     -43.008  70.439  33.881  1.00  0.00     0.293 HD
ENDBRANCH  13  17
BRANCH  15  19
ATOM     19  O   UNL     1     -43.974  70.834  36.230  1.00  0.00    -0.502 OA
ATOM     20  H   UNL     1     -43.774  71.822  36.127  1.00  0.00     0.293 HD
ENDBRANCH  15  19
BRANCH  16  21
ATOM     21  O   UNL     1     -43.288  70.263  38.905  1.00  0.00    -0.504 OA
ATOM     22  H   UNL     1     -44.247  70.044  39.145  1.00  0.00     0.293 HD
ENDBRANCH  16  21
ENDBRANCH   1  11
BRANCH  10  23
ATOM     23  O   UNL     1     -38.110  68.665  37.196  1.00  0.00    -0.500 OA
ATOM     24  H   UNL     1     -37.601  69.187  37.900  1.00  0.00     0.294 HD
ENDBRANCH  10  23
BRANCH   5  25
ATOM     25  O   UNL     1     -39.512  61.111  38.332  1.00  0.00    -0.507 OA
ATOM     26  H   UNL     1     -40.293  60.766  37.786  1.00  0.00     0.293 HD
ENDBRANCH   5  25
BRANCH   7  27
ATOM     27  O   UNL     1     -35.767  64.112  38.283  1.00  0.00    -0.507 OA
ATOM     28  H   UNL     1     -35.252  64.914  37.948  1.00  0.00     0.293 HD
ENDBRANCH   7  27
TORSDOF 7
ENDMDL
MODEL 7
REMARK VINA RESULT:    -5.012      7.268     10.940
REMARK INTER + INTRA:          -6.538
REMARK INTER:                  -6.161
REMARK INTRA:                  -0.377
REMARK UNBOUND:                -0.354
REMARK SMILES Oc1cc(O)c2cc(O)c(-c3cc(O)c(O)c(O)c3)[o+]c2c1
REMARK SMILES IDX 10 1 20 2 21 3 22 4 2 5 3 6 4 7 6 8 7 9 8 10 11 11 12 12
REMARK SMILES IDX 13 13 19 14 15 15 17 16 14 17 16 19 18 21 9 23 1 25 5 27
REMARK H PARENT 14 18 16 20 18 22 9 24 1 26 5 28
REMARK Flexibility Score: inf
ROOT
ATOM      1  C   UNL     1     -39.925  66.981  37.304  1.00  0.00     0.402 A 
ATOM      2  O   UNL     1     -40.281  65.707  37.455  1.00  0.00    -0.202 OA
ATOM      3  C   UNL     1     -39.416  64.735  37.725  1.00  0.00     0.368 A 
ATOM      4  C   UNL     1     -39.887  63.428  37.870  1.00  0.00     0.162 A 
ATOM      5  C   UNL     1     -38.999  62.386  38.156  1.00  0.00     0.128 A 
ATOM      6  C   UNL     1     -37.636  62.654  38.300  1.00  0.00     0.093 A 
ATOM      7  C   UNL     1     -37.139  63.956  38.160  1.00  0.00     0.136 A 
ATOM      8  C   UNL     1     -38.035  65.017  37.866  1.00  0.00     0.125 A 
ATOM      9  C   UNL     1     -37.626  66.349  37.695  1.00  0.00     0.078 A 
ATOM     10  C   UNL     1     -38.569  67.340  37.402  1.00  0.00     0.223 A 
ENDROOT
BRANCH   1  11
ATOM     11  C   UNL     1     -40.984  67.974  37.015  1.00  0.00     0.091 A 
ATOM     12  C   UNL     1     -41.630  68.625  38.078  1.00  0.00     0.068 A 
ATOM     13  C   UNL     1     -42.621  69.584  37.831  1.00  0.00     0.162 A 
ATOM     14  C   UNL     1     -41.320  68.324  35.696  1.00  0.00     0.068 A 
ATOM     15  C   UNL     1     -42.965  69.912  36.514  1.00  0.00     0.200 A 
ATOM     16  C   UNL     1     -42.310  69.284  35.442  1.00  0.00     0.162 A 
BRANCH  13  17
ATOM     17  O   UNL     1     -43.268  70.216  38.891  1.00  0.00    -0.504 OA
ATOM     18  H   UNL     1     -44.153  69.877  39.250  1.00  0.00     0.293 HD
ENDBRANCH  13  17
BRANCH  15  19
ATOM     19  O   UNL     1     -43.956  70.867  36.287  1.00  0.00    -0.502 OA
ATOM     20  H   UNL     1     -44.912  70.612  36.070  1.00  0.00     0.293 HD
ENDBRANCH  15  19
BRANCH  16  21
ATOM     21  O   UNL     1     -42.639  69.618  34.129  1.00  0.00    -0.504 OA
ATOM     22  H   UNL     1     -42.412  69.009  33.353  1.00  0.00     0.293 HD
ENDBRANCH  16  21
ENDBRANCH   1  11
BRANCH  10  23
ATOM     23  O   UNL     1     -38.156  68.655  37.184  1.00  0.00    -0.500 OA
ATOM     24  H   UNL     1     -38.594  69.240  36.481  1.00  0.00     0.294 HD
ENDBRANCH  10  23
BRANCH   5  25
ATOM     25  O   UNL     1     -39.461  61.080  38.301  1.00  0.00    -0.507 OA
ATOM     26  H   UNL     1     -39.536  60.643  39.212  1.00  0.00     0.293 HD
ENDBRANCH   5  25
BRANCH   7  27
ATOM     27  O   UNL     1     -35.763  64.141  38.322  1.00  0.00    -0.507 OA
ATOM     28  H   UNL     1     -35.341  64.637  39.095  1.00  0.00     0.293 HD
ENDBRANCH   7  27
TORSDOF 7
ENDMDL
MODEL 8
REMARK VINA RESULT:    -4.993      8.957     12.075
REMARK INTER + INTRA:          -6.514
REMARK INTER:                  -6.165
REMARK INTRA:                  -0.349
REMARK UNBOUND:                -0.354
REMARK SMILES Oc1cc(O)c2cc(O)c(-c3cc(O)c(O)c(O)c3)[o+]c2c1
REMARK SMILES IDX 10 1 20 2 21 3 22 4 2 5 3 6 4 7 6 8 7 9 8 10 11 11 12 12
REMARK SMILES IDX 13 13 19 14 15 15 17 16 14 17 16 19 18 21 9 23 1 25 5 27
REMARK H PARENT 14 18 16 20 18 22 9 24 1 26 5 28
REMARK Flexibility Score: inf
ROOT
ATOM      1  C   UNL     1     -39.451  65.910  37.300  1.00  0.00     0.402 A 
ATOM      2  O   UNL     1     -39.266  66.635  38.400  1.00  0.00    -0.202 OA
ATOM      3  C   UNL     1     -39.743  67.866  38.553  1.00  0.00     0.368 A 
ATOM      4  C   UNL     1     -39.498  68.546  39.748  1.00  0.00     0.162 A 
ATOM      5  C   UNL     1     -39.991  69.841  39.937  1.00  0.00     0.128 A 
ATOM      6  C   UNL     1     -40.734  70.456  38.926  1.00  0.00     0.093 A 
ATOM      7  C   UNL     1     -40.993  69.795  37.720  1.00  0.00     0.136 A 
ATOM      8  C   UNL     1     -40.492  68.482  37.521  1.00  0.00     0.125 A 
ATOM      9  C   UNL     1     -40.691  67.749  36.341  1.00  0.00     0.078 A 
ATOM     10  C   UNL     1     -40.163  66.460  36.217  1.00  0.00     0.223 A 
ENDROOT
BRANCH   1  11
ATOM     11  C   UNL     1     -38.877  64.547  37.253  1.00  0.00     0.091 A 
ATOM     12  C   UNL     1     -39.581  63.481  37.835  1.00  0.00     0.068 A 
ATOM     13  C   UNL     1     -39.069  62.177  37.787  1.00  0.00     0.162 A 
ATOM     14  C   UNL     1     -37.667  64.284  36.589  1.00  0.00     0.068 A 
ATOM     15  C   UNL     1     -37.852  61.926  37.142  1.00  0.00     0.200 A 
ATOM     16  C   UNL     1     -37.150  62.981  36.536  1.00  0.00     0.162 A 
BRANCH  13  17
ATOM     17  O   UNL     1     -39.766  61.126  38.380  1.00  0.00    -0.504 OA
ATOM     18  H   UNL     1     -40.750  60.970  38.194  1.00  0.00     0.293 HD
ENDBRANCH  13  17
BRANCH  15  19
ATOM     19  O   UNL     1     -37.357  60.622  37.107  1.00  0.00    -0.502 OA
ATOM     20  H   UNL     1     -36.670  60.324  36.425  1.00  0.00     0.293 HD
ENDBRANCH  15  19
BRANCH  16  21
ATOM     21  O   UNL     1     -35.946  62.733  35.880  1.00  0.00    -0.504 OA
ATOM     22  H   UNL     1     -35.093  63.216  36.135  1.00  0.00     0.293 HD
ENDBRANCH  16  21
ENDBRANCH   1  11
BRANCH  10  23
ATOM     23  O   UNL     1     -40.318  65.751  35.026  1.00  0.00    -0.500 OA
ATOM     24  H   UNL     1     -39.523  65.368  34.527  1.00  0.00     0.294 HD
ENDBRANCH  10  23
BRANCH   5  25
ATOM     25  O   UNL     1     -39.750  70.526  41.125  1.00  0.00    -0.507 OA
ATOM     26  H   UNL     1     -40.222  71.397  41.340  1.00  0.00     0.293 HD
ENDBRANCH   5  25
BRANCH   7  27
ATOM     27  O   UNL     1     -41.746  70.479  36.760  1.00  0.00    -0.507 OA
ATOM     28  H   UNL     1     -41.509  71.389  36.391  1.00  0.00     0.293 HD
ENDBRANCH   7  27
TORSDOF 7
ENDMDL
MODEL 9
REMARK VINA RESULT:    -4.956      2.052      2.783
REMARK INTER + INTRA:          -6.469
REMARK INTER:                  -6.090
REMARK INTRA:                  -0.380
REMARK UNBOUND:                -0.354
REMARK SMILES Oc1cc(O)c2cc(O)c(-c3cc(O)c(O)c(O)c3)[o+]c2c1
REMARK SMILES IDX 10 1 20 2 21 3 22 4 2 5 3 6 4 7 6 8 7 9 8 10 11 11 12 12
REMARK SMILES IDX 13 13 19 14 15 15 17 16 14 17 16 19 18 21 9 23 1 25 5 27
REMARK H PARENT 14 18 16 20 18 22 9 24 1 26 5 28
REMARK Flexibility Score: inf
ROOT
ATOM      1  C   UNL     1     -42.746  71.734  29.893  1.00  0.00     0.402 A 
ATOM      2  O   UNL     1     -43.500  71.459  30.954  1.00  0.00    -0.202 OA
ATOM      3  C   UNL     1     -43.071  70.742  31.988  1.00  0.00     0.368 A 
ATOM      4  C   UNL     1     -43.938  70.509  33.059  1.00  0.00     0.162 A 
ATOM      5  C   UNL     1     -43.512  69.760  34.161  1.00  0.00     0.128 A 
ATOM      6  C   UNL     1     -42.215  69.245  34.192  1.00  0.00     0.093 A 
ATOM      7  C   UNL     1     -41.327  69.465  33.131  1.00  0.00     0.136 A 
ATOM      8  C   UNL     1     -41.755  70.221  32.008  1.00  0.00     0.125 A 
ATOM      9  C   UNL     1     -40.940  70.480  30.895  1.00  0.00     0.078 A 
ATOM     10  C   UNL     1     -41.434  71.231  29.824  1.00  0.00     0.223 A 
ENDROOT
BRANCH   1  11
ATOM     11  C   UNL     1     -43.334  72.551  28.808  1.00  0.00     0.091 A 
ATOM     12  C   UNL     1     -43.171  73.945  28.828  1.00  0.00     0.068 A 
ATOM     13  C   UNL     1     -43.700  74.740  27.802  1.00  0.00     0.162 A 
ATOM     14  C   UNL     1     -44.006  71.958  27.726  1.00  0.00     0.068 A 
ATOM     15  C   UNL     1     -44.387  74.144  26.738  1.00  0.00     0.200 A 
ATOM     16  C   UNL     1     -44.537  72.748  26.696  1.00  0.00     0.162 A 
BRANCH  13  17
ATOM     17  O   UNL     1     -43.547  76.125  27.835  1.00  0.00    -0.504 OA
ATOM     18  H   UNL     1     -42.692  76.557  28.167  1.00  0.00     0.293 HD
ENDBRANCH  13  17
BRANCH  15  19
ATOM     19  O   UNL     1     -44.910  74.951  25.727  1.00  0.00    -0.502 OA
ATOM     20  H   UNL     1     -44.624  75.915  25.604  1.00  0.00     0.293 HD
ENDBRANCH  15  19
BRANCH  16  21
ATOM     21  O   UNL     1     -45.207  72.149  25.631  1.00  0.00    -0.504 OA
ATOM     22  H   UNL     1     -45.640  72.699  24.899  1.00  0.00     0.293 HD
ENDBRANCH  16  21
ENDBRANCH   1  11
BRANCH  10  23
ATOM     23  O   UNL     1     -40.641  71.447  28.696  1.00  0.00    -0.500 OA
ATOM     24  H   UNL     1     -40.860  71.022  27.802  1.00  0.00     0.294 HD
ENDBRANCH  10  23
BRANCH   5  25
ATOM     25  O   UNL     1     -44.370  69.524  35.232  1.00  0.00    -0.507 OA
ATOM     26  H   UNL     1     -45.254  70.011  35.321  1.00  0.00     0.293 HD
ENDBRANCH   5  25
BRANCH   7  27
ATOM     27  O   UNL     1     -40.045  68.917  33.240  1.00  0.00    -0.507 OA
ATOM     28  H   UNL     1     -39.342  68.963  32.516  1.00  0.00     0.293 HD
ENDBRANCH   7  27
TORSDOF 7
ENDMDL
