MODEL 1
REMARK VINA RESULT:     5.580      0.000      0.000
REMARK INTER + INTRA:          24.389
REMARK INTER:                   9.168
REMARK INTRA:                  15.221
REMARK UNBOUND:                15.221
REMARK SMILES C[C@@H]1O[C@H](OC[C@@H]2O[C@H](Oc3c(-c4ccc(O)c(O)c4)oc4cc(O)cc(O)c4c3=O)[C@@H](O)[C@H](O)[C@@H]2O)[C@@H](O)[C@@H](O)[C@H]1O
REMARK SMILES IDX 7 1 36 2 34 3 32 4 9 5 8 6 6 7 5 8 4 9 1 10 2 11 42 12 3 13
REMARK SMILES IDX 40 14 38 15 43 16 41 18 39 20 37 22 35 24 10 26 11 27 12 28
REMARK SMILES IDX 30 29 21 30 29 31 31 32 22 33 27 34 23 35 26 36 24 37 13 38
REMARK SMILES IDX 20 39 14 40 18 41 15 42 16 43 19 44 17 46 28 48 25 50 33 52
REMARK H PARENT 43 17 41 19 39 21 37 23 35 25 19 45 17 47 28 49 25 51 33 53
REMARK Flexibility Score: inf
ROOT
ATOM      1  C   UNL     1      40.656  29.238   7.963  1.00  0.00     0.180 C 
ATOM      2  C   UNL     1      40.462  27.706   8.054  1.00  0.00     0.177 C 
ATOM      3  C   UNL     1      40.355  27.197   9.498  1.00  0.00     0.180 C 
ATOM      4  C   UNL     1      39.414  28.083  10.343  1.00  0.00     0.214 C 
ATOM      5  C   UNL     1      39.597  29.596  10.075  1.00  0.00     0.339 C 
ATOM      6  O   UNL     1      39.664  29.942   8.698  1.00  0.00    -0.332 OA
ENDROOT
BRANCH   1   7
ATOM      7  C   UNL     1      42.082  29.767   8.232  1.00  0.00     0.198 C 
BRANCH   7   8
ATOM      8  O   UNL     1      42.737  30.076   7.013  1.00  0.00    -0.347 OA
BRANCH   8   9
ATOM      9  C   UNL     1      44.145  29.961   7.121  1.00  0.00     0.281 C 
ATOM     10  C   UNL     1      42.704  27.517   8.392  1.00  0.00     0.041 C 
ATOM     11  C   UNL     1      44.196  27.795   8.149  1.00  0.00     0.150 C 
ATOM     12  C   UNL     1      44.731  27.114   6.863  1.00  0.00     0.174 C 
ATOM     13  O   UNL     1      44.529  29.178   8.247  1.00  0.00    -0.344 OA
ATOM     14  C   UNL     1      44.376  27.935   5.610  1.00  0.00     0.179 C 
ATOM     15  C   UNL     1      44.725  29.420   5.797  1.00  0.00     0.202 C 
BRANCH  12  16
ATOM     16  O   UNL     1      46.124  26.949   6.947  1.00  0.00    -0.388 OA
ATOM     17  H   UNL     1      46.534  27.815   6.681  1.00  0.00     0.211 HD
ENDBRANCH  12  16
BRANCH  14  18
ATOM     18  O   UNL     1      45.051  27.434   4.485  1.00  0.00    -0.387 OA
ATOM     19  H   UNL     1      44.637  27.861   3.693  1.00  0.00     0.211 HD
ENDBRANCH  14  18
BRANCH  15  20
ATOM     20  O   UNL     1      46.113  29.645   5.711  1.00  0.00    -0.385 OA
ATOM     21  H   UNL     1      46.571  28.768   5.656  1.00  0.00     0.211 HD
ENDBRANCH  15  20
ENDBRANCH   8   9
ENDBRANCH   7   8
ENDBRANCH   1   7
BRANCH   2  22
ATOM     22  O   UNL     1      41.476  27.017   7.364  1.00  0.00    -0.387 OA
ATOM     23  H   UNL     1      42.156  26.761   8.036  1.00  0.00     0.211 HD
ENDBRANCH   2  22
BRANCH   3  24
ATOM     24  O   UNL     1      41.626  27.011  10.080  1.00  0.00    -0.387 OA
ATOM     25  H   UNL     1      41.805  26.035  10.189  1.00  0.00     0.211 HD
ENDBRANCH   3  24
BRANCH   5  26
ATOM     26  O   UNL     1      40.709  30.125  10.801  1.00  0.00    -0.454 OA
BRANCH  26  27
ATOM     27  C   UNL     1      41.558  29.337  11.598  1.00  0.00     0.214 A 
ATOM     28  C   UNL     1      41.073  28.511  12.634  1.00  0.00     0.180 A 
ATOM     29  C   UNL     1      42.933  29.345  11.333  1.00  0.00     0.239 A 
ATOM     30  O   UNL     1      41.897  27.675  13.252  1.00  0.00    -0.452 OA
ATOM     31  C   UNL     1      43.798  28.486  12.054  1.00  0.00     0.111 A 
ATOM     32  O   UNL     1      43.354  30.087  10.409  1.00  0.00    -0.285 OA
ATOM     33  C   UNL     1      43.196  27.609  12.992  1.00  0.00     0.146 A 
ATOM     34  C   UNL     1      45.211  28.413  11.869  1.00  0.00     0.134 A 
ATOM     35  C   UNL     1      43.960  26.653  13.666  1.00  0.00     0.094 A 
ATOM     36  C   UNL     1      45.945  27.423  12.532  1.00  0.00     0.093 A 
ATOM     37  C   UNL     1      45.328  26.543  13.424  1.00  0.00     0.123 A 
BRANCH  28  38
ATOM     38  C   UNL     1      39.664  28.542  13.064  1.00  0.00     0.025 A 
ATOM     39  C   UNL     1      38.991  27.341  13.320  1.00  0.00     0.062 A 
ATOM     40  C   UNL     1      38.987  29.762  13.210  1.00  0.00     0.016 A 
ATOM     41  C   UNL     1      37.636  27.353  13.676  1.00  0.00     0.158 A 
ATOM     42  C   UNL     1      37.637  29.778  13.567  1.00  0.00     0.051 A 
ATOM     43  C   UNL     1      36.954  28.579  13.791  1.00  0.00     0.157 A 
BRANCH  41  44
ATOM     44  O   UNL     1      36.966  26.155  13.906  1.00  0.00    -0.504 OA
ATOM     45  H   UNL     1      35.997  26.130  14.201  1.00  0.00     0.293 HD
ENDBRANCH  41  44
BRANCH  43  46
ATOM     46  O   UNL     1      35.601  28.627  14.118  1.00  0.00    -0.504 OA
ATOM     47  H   UNL     1      35.267  28.420  15.050  1.00  0.00     0.293 HD
ENDBRANCH  43  46
ENDBRANCH  28  38
BRANCH  34  48
ATOM     48  O   UNL     1      45.938  29.302  11.073  1.00  0.00    -0.507 OA
ATOM     49  H   UNL     1      45.677  30.266  10.903  1.00  0.00     0.293 HD
ENDBRANCH  34  48
BRANCH  37  50
ATOM     50  O   UNL     1      46.066  25.562  14.079  1.00  0.00    -0.508 OA
ATOM     51  H   UNL     1      46.028  25.458  15.088  1.00  0.00     0.293 HD
ENDBRANCH  37  50
ENDBRANCH  26  27
ENDBRANCH   5  26
BRANCH   4  52
ATOM     52  O   UNL     1      38.076  27.711  10.129  1.00  0.00    -0.384 OA
ATOM     53  H   UNL     1      38.011  27.295   9.228  1.00  0.00     0.211 HD
ENDBRANCH   4  52
TORSDOF 16
ENDMDL
