MODEL 1
REMARK VINA RESULT:    -7.035      0.000      0.000
REMARK INTER + INTRA:          -8.195
REMARK INTER:                  -8.474
REMARK INTRA:                   0.279
REMARK UNBOUND:                 0.279
REMARK SMILES O=c1c(O)c(-c2ccc(O)c(O)c2)oc2cc(O)cc(O)c12
REMARK SMILES IDX 5 1 3 2 2 3 1 4 22 5 20 6 19 7 17 8 16 9 15 10 14 11 6 12
REMARK SMILES IDX 7 13 8 14 9 15 13 16 11 17 10 18 12 20 4 22 21 24 18 26
REMARK H PARENT 10 19 12 21 4 23 21 25 18 27
REMARK Flexibility Score: inf
ROOT
ATOM      1  C   UNL     1       4.255  -7.472  -0.258  1.00  0.00     0.180 A 
ATOM      2  C   UNL     1       4.442  -8.578  -1.106  1.00  0.00     0.208 A 
ATOM      3  C   UNL     1       5.372  -8.484  -2.152  1.00  0.00     0.238 A 
ATOM      4  O   UNL     1       5.495  -9.457  -2.941  1.00  0.00    -0.285 OA
ATOM      5  C   UNL     1       6.116  -7.292  -2.330  1.00  0.00     0.111 A 
ATOM      6  C   UNL     1       7.113  -7.101  -3.332  1.00  0.00     0.134 A 
ATOM      7  C   UNL     1       7.693  -5.836  -3.497  1.00  0.00     0.093 A 
ATOM      8  C   UNL     1       7.360  -4.776  -2.655  1.00  0.00     0.123 A 
ATOM      9  C   UNL     1       6.430  -4.969  -1.633  1.00  0.00     0.094 A 
ATOM     10  C   UNL     1       5.808  -6.208  -1.466  1.00  0.00     0.146 A 
ATOM     11  O   UNL     1       4.921  -6.347  -0.489  1.00  0.00    -0.452 OA
ENDROOT
BRANCH   1  12
ATOM     12  C   UNL     1       3.311  -7.505   0.883  1.00  0.00     0.025 A 
ATOM     13  C   UNL     1       2.146  -8.292   0.847  1.00  0.00     0.016 A 
ATOM     14  C   UNL     1       1.283  -8.325   1.945  1.00  0.00     0.051 A 
ATOM     15  C   UNL     1       1.577  -7.585   3.097  1.00  0.00     0.157 A 
ATOM     16  C   UNL     1       3.612  -6.782   2.049  1.00  0.00     0.062 A 
ATOM     17  C   UNL     1       2.744  -6.815   3.151  1.00  0.00     0.158 A 
BRANCH  15  18
ATOM     18  O   UNL     1       0.717  -7.615   4.194  1.00  0.00    -0.504 OA
ATOM     19  H   UNL     1       0.612  -8.447   4.763  1.00  0.00     0.293 HD
ENDBRANCH  15  18
BRANCH  17  20
ATOM     20  O   UNL     1       3.038  -6.085   4.301  1.00  0.00    -0.504 OA
ATOM     21  H   UNL     1       3.993  -5.857   4.556  1.00  0.00     0.293 HD
ENDBRANCH  17  20
ENDBRANCH   1  12
BRANCH   2  22
ATOM     22  O   UNL     1       3.681  -9.737  -0.927  1.00  0.00    -0.502 OA
ATOM     23  H   UNL     1       3.427 -10.345  -1.697  1.00  0.00     0.293 HD
ENDBRANCH   2  22
BRANCH   6  24
ATOM     24  O   UNL     1       7.587  -8.117  -4.167  1.00  0.00    -0.507 OA
ATOM     25  H   UNL     1       7.290  -8.263  -5.120  1.00  0.00     0.293 HD
ENDBRANCH   6  24
BRANCH   8  26
ATOM     26  O   UNL     1       7.968  -3.536  -2.838  1.00  0.00    -0.508 OA
ATOM     27  H   UNL     1       8.863  -3.317  -2.416  1.00  0.00     0.293 HD
ENDBRANCH   8  26
TORSDOF 6
ENDMDL
MODEL 2
REMARK VINA RESULT:    -6.760      1.561      6.867
REMARK INTER + INTRA:          -7.864
REMARK INTER:                  -7.936
REMARK INTRA:                   0.072
REMARK UNBOUND:                 0.279
REMARK SMILES O=c1c(O)c(-c2ccc(O)c(O)c2)oc2cc(O)cc(O)c12
REMARK SMILES IDX 5 1 3 2 2 3 1 4 22 5 20 6 19 7 17 8 16 9 15 10 14 11 6 12
REMARK SMILES IDX 7 13 8 14 9 15 13 16 11 17 10 18 12 20 4 22 21 24 18 26
REMARK H PARENT 10 19 12 21 4 23 21 25 18 27
REMARK Flexibility Score: inf
ROOT
ATOM      1  C   UNL     1       4.242  -7.809   0.099  1.00  0.00     0.180 A 
ATOM      2  C   UNL     1       3.443  -8.966   0.092  1.00  0.00     0.208 A 
ATOM      3  C   UNL     1       2.481  -9.134   1.099  1.00  0.00     0.238 A 
ATOM      4  O   UNL     1       1.807 -10.197   1.120  1.00  0.00    -0.285 OA
ATOM      5  C   UNL     1       2.318  -8.138   2.093  1.00  0.00     0.111 A 
ATOM      6  C   UNL     1       1.346  -8.187   3.137  1.00  0.00     0.134 A 
ATOM      7  C   UNL     1       1.361  -7.209   4.140  1.00  0.00     0.093 A 
ATOM      8  C   UNL     1       2.268  -6.151   4.100  1.00  0.00     0.123 A 
ATOM      9  C   UNL     1       3.183  -6.061   3.050  1.00  0.00     0.094 A 
ATOM     10  C   UNL     1       3.216  -7.040   2.055  1.00  0.00     0.146 A 
ATOM     11  O   UNL     1       4.109  -6.924   1.080  1.00  0.00    -0.452 OA
ENDROOT
BRANCH   1  12
ATOM     12  C   UNL     1       5.261  -7.548  -0.945  1.00  0.00     0.025 A 
ATOM     13  C   UNL     1       6.572  -7.168  -0.609  1.00  0.00     0.016 A 
ATOM     14  C   UNL     1       7.522  -6.951  -1.610  1.00  0.00     0.051 A 
ATOM     15  C   UNL     1       7.180  -7.124  -2.958  1.00  0.00     0.157 A 
ATOM     16  C   UNL     1       4.929  -7.742  -2.296  1.00  0.00     0.062 A 
ATOM     17  C   UNL     1       5.883  -7.523  -3.301  1.00  0.00     0.158 A 
BRANCH  15  18
ATOM     18  O   UNL     1       8.125  -6.907  -3.960  1.00  0.00    -0.504 OA
ATOM     19  H   UNL     1       7.991  -6.198  -4.670  1.00  0.00     0.293 HD
ENDBRANCH  15  18
BRANCH  17  20
ATOM     20  O   UNL     1       5.547  -7.702  -4.642  1.00  0.00    -0.504 OA
ATOM     21  H   UNL     1       6.090  -8.305  -5.250  1.00  0.00     0.293 HD
ENDBRANCH  17  20
ENDBRANCH   1  12
BRANCH   2  22
ATOM     22  O   UNL     1       3.636  -9.948  -0.884  1.00  0.00    -0.502 OA
ATOM     23  H   UNL     1       3.628  -9.738  -1.876  1.00  0.00     0.293 HD
ENDBRANCH   2  22
BRANCH   6  24
ATOM     24  O   UNL     1       0.336  -9.150   3.220  1.00  0.00    -0.507 OA
ATOM     25  H   UNL     1      -0.650  -8.957   3.127  1.00  0.00     0.293 HD
ENDBRANCH   6  24
BRANCH   8  26
ATOM     26  O   UNL     1       2.244  -5.187   5.106  1.00  0.00    -0.508 OA
ATOM     27  H   UNL     1       1.372  -4.855   5.501  1.00  0.00     0.293 HD
ENDBRANCH   8  26
TORSDOF 6
ENDMDL
MODEL 3
REMARK VINA RESULT:    -6.415      1.808      3.273
REMARK INTER + INTRA:          -7.448
REMARK INTER:                  -7.223
REMARK INTRA:                  -0.225
REMARK UNBOUND:                 0.279
REMARK SMILES O=c1c(O)c(-c2ccc(O)c(O)c2)oc2cc(O)cc(O)c12
REMARK SMILES IDX 5 1 3 2 2 3 1 4 22 5 20 6 19 7 17 8 16 9 15 10 14 11 6 12
REMARK SMILES IDX 7 13 8 14 9 15 13 16 11 17 10 18 12 20 4 22 21 24 18 26
REMARK H PARENT 10 19 12 21 4 23 21 25 18 27
REMARK Flexibility Score: inf
ROOT
ATOM      1  C   UNL     1       4.411  -7.668   1.129  1.00  0.00     0.180 A 
ATOM      2  C   UNL     1       5.258  -6.621   1.534  1.00  0.00     0.208 A 
ATOM      3  C   UNL     1       6.074  -5.998   0.577  1.00  0.00     0.238 A 
ATOM      4  O   UNL     1       6.870  -5.099   0.954  1.00  0.00    -0.285 OA
ATOM      5  C   UNL     1       6.024  -6.419  -0.775  1.00  0.00     0.111 A 
ATOM      6  C   UNL     1       6.779  -5.833  -1.834  1.00  0.00     0.134 A 
ATOM      7  C   UNL     1       6.748  -6.415  -3.108  1.00  0.00     0.093 A 
ATOM      8  C   UNL     1       5.941  -7.520  -3.375  1.00  0.00     0.123 A 
ATOM      9  C   UNL     1       5.153  -8.064  -2.360  1.00  0.00     0.094 A 
ATOM     10  C   UNL     1       5.190  -7.529  -1.071  1.00  0.00     0.146 A 
ATOM     11  O   UNL     1       4.434  -8.083  -0.131  1.00  0.00    -0.452 OA
ENDROOT
BRANCH   1  12
ATOM     12  C   UNL     1       3.502  -8.356   2.076  1.00  0.00     0.025 A 
ATOM     13  C   UNL     1       3.996  -9.217   3.071  1.00  0.00     0.016 A 
ATOM     14  C   UNL     1       3.121  -9.835   3.967  1.00  0.00     0.051 A 
ATOM     15  C   UNL     1       1.744  -9.593   3.891  1.00  0.00     0.157 A 
ATOM     16  C   UNL     1       2.122  -8.099   2.017  1.00  0.00     0.062 A 
ATOM     17  C   UNL     1       1.244  -8.721   2.917  1.00  0.00     0.158 A 
BRANCH  15  18
ATOM     18  O   UNL     1       0.867 -10.209   4.783  1.00  0.00    -0.504 OA
ATOM     19  H   UNL     1       1.090 -10.299   5.767  1.00  0.00     0.293 HD
ENDBRANCH  15  18
BRANCH  17  20
ATOM     20  O   UNL     1      -0.127  -8.475   2.847  1.00  0.00    -0.504 OA
ATOM     21  H   UNL     1      -0.780  -8.928   3.475  1.00  0.00     0.293 HD
ENDBRANCH  17  20
ENDBRANCH   1  12
BRANCH   2  22
ATOM     22  O   UNL     1       5.308  -6.236   2.877  1.00  0.00    -0.502 OA
ATOM     23  H   UNL     1       6.142  -6.342   3.442  1.00  0.00     0.293 HD
ENDBRANCH   2  22
BRANCH   6  24
ATOM     24  O   UNL     1       7.546  -4.672  -1.697  1.00  0.00    -0.507 OA
ATOM     25  H   UNL     1       7.754  -4.221  -0.820  1.00  0.00     0.293 HD
ENDBRANCH   6  24
BRANCH   8  26
ATOM     26  O   UNL     1       5.923  -8.063  -4.658  1.00  0.00    -0.508 OA
ATOM     27  H   UNL     1       6.329  -7.573  -5.447  1.00  0.00     0.293 HD
ENDBRANCH   8  26
TORSDOF 6
ENDMDL
MODEL 4
REMARK VINA RESULT:    -6.369     16.959     18.637
REMARK INTER + INTRA:          -7.392
REMARK INTER:                  -7.121
REMARK INTRA:                  -0.272
REMARK UNBOUND:                 0.279
REMARK SMILES O=c1c(O)c(-c2ccc(O)c(O)c2)oc2cc(O)cc(O)c12
REMARK SMILES IDX 5 1 3 2 2 3 1 4 22 5 20 6 19 7 17 8 16 9 15 10 14 11 6 12
REMARK SMILES IDX 7 13 8 14 9 15 13 16 11 17 10 18 12 20 4 22 21 24 18 26
REMARK H PARENT 10 19 12 21 4 23 21 25 18 27
REMARK Flexibility Score: inf
ROOT
ATOM      1  C   UNL     1      -9.919   2.736  -0.714  1.00  0.00     0.180 A 
ATOM      2  C   UNL     1      -8.742   3.504  -0.668  1.00  0.00     0.208 A 
ATOM      3  C   UNL     1      -8.242   3.907   0.580  1.00  0.00     0.238 A 
ATOM      4  O   UNL     1      -7.219   4.640   0.613  1.00  0.00    -0.285 OA
ATOM      5  C   UNL     1      -8.915   3.526   1.766  1.00  0.00     0.111 A 
ATOM      6  C   UNL     1      -8.475   3.846   3.086  1.00  0.00     0.134 A 
ATOM      7  C   UNL     1      -9.289   3.529   4.181  1.00  0.00     0.093 A 
ATOM      8  C   UNL     1     -10.493   2.847   4.010  1.00  0.00     0.123 A 
ATOM      9  C   UNL     1     -10.903   2.476   2.728  1.00  0.00     0.094 A 
ATOM     10  C   UNL     1     -10.131   2.810   1.613  1.00  0.00     0.146 A 
ATOM     11  O   UNL     1     -10.562   2.449   0.411  1.00  0.00    -0.452 OA
ENDROOT
BRANCH   1  12
ATOM     12  C   UNL     1     -10.493   2.251  -1.991  1.00  0.00     0.025 A 
ATOM     13  C   UNL     1     -11.599   2.886  -2.585  1.00  0.00     0.016 A 
ATOM     14  C   UNL     1     -12.108   2.425  -3.801  1.00  0.00     0.051 A 
ATOM     15  C   UNL     1     -11.513   1.334  -4.448  1.00  0.00     0.157 A 
ATOM     16  C   UNL     1      -9.888   1.171  -2.654  1.00  0.00     0.062 A 
ATOM     17  C   UNL     1     -10.399   0.708  -3.876  1.00  0.00     0.158 A 
BRANCH  15  18
ATOM     18  O   UNL     1     -12.019   0.871  -5.662  1.00  0.00    -0.504 OA
ATOM     19  H   UNL     1     -12.246   1.506  -6.418  1.00  0.00     0.293 HD
ENDBRANCH  15  18
BRANCH  17  20
ATOM     20  O   UNL     1      -9.805  -0.372  -4.525  1.00  0.00    -0.504 OA
ATOM     21  H   UNL     1      -9.658  -0.374  -5.528  1.00  0.00     0.293 HD
ENDBRANCH  17  20
ENDBRANCH   1  12
BRANCH   2  22
ATOM     22  O   UNL     1      -8.106   3.888  -1.852  1.00  0.00    -0.502 OA
ATOM     23  H   UNL     1      -7.171   4.277  -1.865  1.00  0.00     0.293 HD
ENDBRANCH   2  22
BRANCH   6  24
ATOM     24  O   UNL     1      -7.246   4.444   3.376  1.00  0.00    -0.507 OA
ATOM     25  H   UNL     1      -6.916   5.306   2.968  1.00  0.00     0.293 HD
ENDBRANCH   6  24
BRANCH   8  26
ATOM     26  O   UNL     1     -11.270   2.533   5.123  1.00  0.00    -0.508 OA
ATOM     27  H   UNL     1     -11.502   1.574   5.354  1.00  0.00     0.293 HD
ENDBRANCH   8  26
TORSDOF 6
ENDMDL
MODEL 5
REMARK VINA RESULT:    -6.262      2.026      7.092
REMARK INTER + INTRA:          -7.264
REMARK INTER:                  -7.097
REMARK INTRA:                  -0.167
REMARK UNBOUND:                 0.279
REMARK SMILES O=c1c(O)c(-c2ccc(O)c(O)c2)oc2cc(O)cc(O)c12
REMARK SMILES IDX 5 1 3 2 2 3 1 4 22 5 20 6 19 7 17 8 16 9 15 10 14 11 6 12
REMARK SMILES IDX 7 13 8 14 9 15 13 16 11 17 10 18 12 20 4 22 21 24 18 26
REMARK H PARENT 10 19 12 21 4 23 21 25 18 27
REMARK Flexibility Score: inf
ROOT
ATOM      1  C   UNL     1       5.217  -8.527  -1.322  1.00  0.00     0.180 A 
ATOM      2  C   UNL     1       6.025  -7.625  -0.608  1.00  0.00     0.208 A 
ATOM      3  C   UNL     1       5.542  -7.084   0.594  1.00  0.00     0.238 A 
ATOM      4  O   UNL     1       6.247  -6.236   1.201  1.00  0.00    -0.285 OA
ATOM      5  C   UNL     1       4.265  -7.462   1.075  1.00  0.00     0.111 A 
ATOM      6  C   UNL     1       3.693  -7.006   2.300  1.00  0.00     0.134 A 
ATOM      7  C   UNL     1       2.369  -7.344   2.612  1.00  0.00     0.093 A 
ATOM      8  C   UNL     1       1.622  -8.172   1.776  1.00  0.00     0.123 A 
ATOM      9  C   UNL     1       2.192  -8.672   0.605  1.00  0.00     0.094 A 
ATOM     10  C   UNL     1       3.497  -8.324   0.249  1.00  0.00     0.146 A 
ATOM     11  O   UNL     1       3.999  -8.812  -0.879  1.00  0.00    -0.452 OA
ENDROOT
BRANCH   1  12
ATOM     12  C   UNL     1       5.668  -9.160  -2.584  1.00  0.00     0.025 A 
ATOM     13  C   UNL     1       5.867 -10.549  -2.676  1.00  0.00     0.016 A 
ATOM     14  C   UNL     1       6.269 -11.125  -3.883  1.00  0.00     0.051 A 
ATOM     15  C   UNL     1       6.466 -10.326  -5.017  1.00  0.00     0.157 A 
ATOM     16  C   UNL     1       5.846  -8.366  -3.729  1.00  0.00     0.062 A 
ATOM     17  C   UNL     1       6.251  -8.945  -4.941  1.00  0.00     0.158 A 
BRANCH  15  18
ATOM     18  O   UNL     1       6.869 -10.898  -6.223  1.00  0.00    -0.504 OA
ATOM     19  H   UNL     1       7.162 -10.328  -7.008  1.00  0.00     0.293 HD
ENDBRANCH  15  18
BRANCH  17  20
ATOM     20  O   UNL     1       6.440  -8.152  -6.072  1.00  0.00    -0.504 OA
ATOM     21  H   UNL     1       6.635  -8.560  -6.979  1.00  0.00     0.293 HD
ENDBRANCH  17  20
ENDBRANCH   1  12
BRANCH   2  22
ATOM     22  O   UNL     1       7.274  -7.248  -1.111  1.00  0.00    -0.502 OA
ATOM     23  H   UNL     1       7.985  -6.816  -0.534  1.00  0.00     0.293 HD
ENDBRANCH   2  22
BRANCH   6  24
ATOM     24  O   UNL     1       4.384  -6.250   3.251  1.00  0.00    -0.507 OA
ATOM     25  H   UNL     1       3.949  -5.633   3.920  1.00  0.00     0.293 HD
ENDBRANCH   6  24
BRANCH   8  26
ATOM     26  O   UNL     1       0.313  -8.500   2.125  1.00  0.00    -0.508 OA
ATOM     27  H   UNL     1       0.112  -9.142   2.883  1.00  0.00     0.293 HD
ENDBRANCH   8  26
TORSDOF 6
ENDMDL
MODEL 6
REMARK VINA RESULT:    -6.249      1.898      7.150
REMARK INTER + INTRA:          -7.248
REMARK INTER:                  -6.927
REMARK INTRA:                  -0.321
REMARK UNBOUND:                 0.279
REMARK SMILES O=c1c(O)c(-c2ccc(O)c(O)c2)oc2cc(O)cc(O)c12
REMARK SMILES IDX 5 1 3 2 2 3 1 4 22 5 20 6 19 7 17 8 16 9 15 10 14 11 6 12
REMARK SMILES IDX 7 13 8 14 9 15 13 16 11 17 10 18 12 20 4 22 21 24 18 26
REMARK H PARENT 10 19 12 21 4 23 21 25 18 27
REMARK Flexibility Score: inf
ROOT
ATOM      1  C   UNL     1       5.606  -6.342   0.431  1.00  0.00     0.180 A 
ATOM      2  C   UNL     1       6.416  -6.586   1.554  1.00  0.00     0.208 A 
ATOM      3  C   UNL     1       5.856  -7.231   2.669  1.00  0.00     0.238 A 
ATOM      4  O   UNL     1       6.571  -7.398   3.691  1.00  0.00    -0.285 OA
ATOM      5  C   UNL     1       4.500  -7.636   2.642  1.00  0.00     0.111 A 
ATOM      6  C   UNL     1       3.841  -8.331   3.699  1.00  0.00     0.134 A 
ATOM      7  C   UNL     1       2.463  -8.567   3.617  1.00  0.00     0.093 A 
ATOM      8  C   UNL     1       1.734  -8.192   2.490  1.00  0.00     0.123 A 
ATOM      9  C   UNL     1       2.380  -7.565   1.424  1.00  0.00     0.094 A 
ATOM     10  C   UNL     1       3.747  -7.283   1.491  1.00  0.00     0.146 A 
ATOM     11  O   UNL     1       4.322  -6.676   0.461  1.00  0.00    -0.452 OA
ENDROOT
BRANCH   1  12
ATOM     12  C   UNL     1       6.131  -5.690  -0.792  1.00  0.00     0.025 A 
ATOM     13  C   UNL     1       6.063  -4.297  -0.966  1.00  0.00     0.016 A 
ATOM     14  C   UNL     1       6.586  -3.703  -2.117  1.00  0.00     0.051 A 
ATOM     15  C   UNL     1       7.197  -4.489  -3.102  1.00  0.00     0.157 A 
ATOM     16  C   UNL     1       6.764  -6.472  -1.773  1.00  0.00     0.062 A 
ATOM     17  C   UNL     1       7.289  -5.875  -2.929  1.00  0.00     0.158 A 
BRANCH  15  18
ATOM     18  O   UNL     1       7.720  -3.900  -4.253  1.00  0.00    -0.504 OA
ATOM     19  H   UNL     1       7.794  -2.894  -4.345  1.00  0.00     0.293 HD
ENDBRANCH  15  18
BRANCH  17  20
ATOM     20  O   UNL     1       7.904  -6.655  -3.907  1.00  0.00    -0.504 OA
ATOM     21  H   UNL     1       7.887  -7.668  -3.867  1.00  0.00     0.293 HD
ENDBRANCH  17  20
ENDBRANCH   1  12
BRANCH   2  22
ATOM     22  O   UNL     1       7.746  -6.158   1.569  1.00  0.00    -0.502 OA
ATOM     23  H   UNL     1       8.507  -6.757   1.866  1.00  0.00     0.293 HD
ENDBRANCH   2  22
BRANCH   6  24
ATOM     24  O   UNL     1       4.493  -8.833   4.830  1.00  0.00    -0.507 OA
ATOM     25  H   UNL     1       5.199  -8.337   5.353  1.00  0.00     0.293 HD
ENDBRANCH   6  24
BRANCH   8  26
ATOM     26  O   UNL     1       0.367  -8.456   2.435  1.00  0.00    -0.508 OA
ATOM     27  H   UNL     1      -0.124  -8.529   1.551  1.00  0.00     0.293 HD
ENDBRANCH   8  26
TORSDOF 6
ENDMDL
MODEL 7
REMARK VINA RESULT:    -6.235      2.328      7.008
REMARK INTER + INTRA:          -7.232
REMARK INTER:                  -6.897
REMARK INTRA:                  -0.334
REMARK UNBOUND:                 0.279
REMARK SMILES O=c1c(O)c(-c2ccc(O)c(O)c2)oc2cc(O)cc(O)c12
REMARK SMILES IDX 5 1 3 2 2 3 1 4 22 5 20 6 19 7 17 8 16 9 15 10 14 11 6 12
REMARK SMILES IDX 7 13 8 14 9 15 13 16 11 17 10 18 12 20 4 22 21 24 18 26
REMARK H PARENT 10 19 12 21 4 23 21 25 18 27
REMARK Flexibility Score: inf
ROOT
ATOM      1  C   UNL     1       4.699  -7.994   0.836  1.00  0.00     0.180 A 
ATOM      2  C   UNL     1       5.434  -8.710   1.798  1.00  0.00     0.208 A 
ATOM      3  C   UNL     1       4.744  -9.392   2.812  1.00  0.00     0.238 A 
ATOM      4  O   UNL     1       5.408  -9.986   3.701  1.00  0.00    -0.285 OA
ATOM      5  C   UNL     1       3.328  -9.363   2.844  1.00  0.00     0.111 A 
ATOM      6  C   UNL     1       2.526 -10.050   3.804  1.00  0.00     0.134 A 
ATOM      7  C   UNL     1       1.140  -9.845   3.818  1.00  0.00     0.093 A 
ATOM      8  C   UNL     1       0.522  -9.031   2.870  1.00  0.00     0.123 A 
ATOM      9  C   UNL     1       1.292  -8.401   1.891  1.00  0.00     0.094 A 
ATOM     10  C   UNL     1       2.680  -8.558   1.872  1.00  0.00     0.146 A 
ATOM     11  O   UNL     1       3.377  -7.933   0.931  1.00  0.00    -0.452 OA
ENDROOT
BRANCH   1  12
ATOM     12  C   UNL     1       5.355  -7.272  -0.279  1.00  0.00     0.025 A 
ATOM     13  C   UNL     1       5.639  -7.912  -1.499  1.00  0.00     0.016 A 
ATOM     14  C   UNL     1       6.237  -7.204  -2.544  1.00  0.00     0.051 A 
ATOM     15  C   UNL     1       6.545  -5.845  -2.392  1.00  0.00     0.157 A 
ATOM     16  C   UNL     1       5.646  -5.905  -0.140  1.00  0.00     0.062 A 
ATOM     17  C   UNL     1       6.246  -5.194  -1.189  1.00  0.00     0.158 A 
BRANCH  15  18
ATOM     18  O   UNL     1       7.142  -5.136  -3.433  1.00  0.00    -0.504 OA
ATOM     19  H   UNL     1       7.455  -4.180  -3.311  1.00  0.00     0.293 HD
ENDBRANCH  15  18
BRANCH  17  20
ATOM     20  O   UNL     1       6.547  -3.841  -1.043  1.00  0.00    -0.504 OA
ATOM     21  H   UNL     1       6.716  -3.245  -1.845  1.00  0.00     0.293 HD
ENDBRANCH  17  20
ENDBRANCH   1  12
BRANCH   2  22
ATOM     22  O   UNL     1       6.831  -8.708   1.760  1.00  0.00    -0.502 OA
ATOM     23  H   UNL     1       7.395  -9.128   2.489  1.00  0.00     0.293 HD
ENDBRANCH   2  22
BRANCH   6  24
ATOM     24  O   UNL     1       3.031 -10.959   4.737  1.00  0.00    -0.507 OA
ATOM     25  H   UNL     1       3.053 -11.960   4.611  1.00  0.00     0.293 HD
ENDBRANCH   6  24
BRANCH   8  26
ATOM     26  O   UNL     1      -0.860  -8.861   2.905  1.00  0.00    -0.508 OA
ATOM     27  H   UNL     1      -1.327  -8.187   2.309  1.00  0.00     0.293 HD
ENDBRANCH   8  26
TORSDOF 6
ENDMDL
MODEL 8
REMARK VINA RESULT:    -6.124     13.239     15.651
REMARK INTER + INTRA:          -7.098
REMARK INTER:                  -6.912
REMARK INTRA:                  -0.185
REMARK UNBOUND:                 0.279
REMARK SMILES O=c1c(O)c(-c2ccc(O)c(O)c2)oc2cc(O)cc(O)c12
REMARK SMILES IDX 5 1 3 2 2 3 1 4 22 5 20 6 19 7 17 8 16 9 15 10 14 11 6 12
REMARK SMILES IDX 7 13 8 14 9 15 13 16 11 17 10 18 12 20 4 22 21 24 18 26
REMARK H PARENT 10 19 12 21 4 23 21 25 18 27
REMARK Flexibility Score: inf
ROOT
ATOM      1  C   UNL     1       4.253   6.288  -7.111  1.00  0.00     0.180 A 
ATOM      2  C   UNL     1       3.356   7.354  -7.305  1.00  0.00     0.208 A 
ATOM      3  C   UNL     1       2.752   7.513  -8.562  1.00  0.00     0.238 A 
ATOM      4  O   UNL     1       1.992   8.500  -8.746  1.00  0.00    -0.285 OA
ATOM      5  C   UNL     1       3.039   6.598  -9.604  1.00  0.00     0.111 A 
ATOM      6  C   UNL     1       2.453   6.643 -10.905  1.00  0.00     0.134 A 
ATOM      7  C   UNL     1       2.908   5.765 -11.897  1.00  0.00     0.093 A 
ATOM      8  C   UNL     1       3.879   4.804 -11.618  1.00  0.00     0.123 A 
ATOM      9  C   UNL     1       4.415   4.713 -10.333  1.00  0.00     0.094 A 
ATOM     10  C   UNL     1       4.008   5.598  -9.332  1.00  0.00     0.146 A 
ATOM     11  O   UNL     1       4.550   5.486  -8.126  1.00  0.00    -0.452 OA
ENDROOT
BRANCH   1  12
ATOM     12  C   UNL     1       4.909   6.039  -5.806  1.00  0.00     0.025 A 
ATOM     13  C   UNL     1       6.291   6.234  -5.634  1.00  0.00     0.016 A 
ATOM     14  C   UNL     1       6.884   6.015  -4.388  1.00  0.00     0.051 A 
ATOM     15  C   UNL     1       6.105   5.614  -3.295  1.00  0.00     0.157 A 
ATOM     16  C   UNL     1       4.129   5.658  -4.703  1.00  0.00     0.062 A 
ATOM     17  C   UNL     1       4.725   5.438  -3.452  1.00  0.00     0.158 A 
BRANCH  15  18
ATOM     18  O   UNL     1       6.694   5.394  -2.051  1.00  0.00    -0.504 OA
ATOM     19  H   UNL     1       6.141   5.140  -1.241  1.00  0.00     0.293 HD
ENDBRANCH  15  18
BRANCH  17  20
ATOM     20  O   UNL     1       3.950   5.046  -2.361  1.00  0.00    -0.504 OA
ATOM     21  H   UNL     1       4.247   5.223  -1.408  1.00  0.00     0.293 HD
ENDBRANCH  17  20
ENDBRANCH   1  12
BRANCH   2  22
ATOM     22  O   UNL     1       3.104   8.258  -6.270  1.00  0.00    -0.502 OA
ATOM     23  H   UNL     1       3.792   8.933  -5.958  1.00  0.00     0.293 HD
ENDBRANCH   2  22
BRANCH   6  24
ATOM     24  O   UNL     1       1.410   7.502 -11.263  1.00  0.00    -0.507 OA
ATOM     25  H   UNL     1       0.697   7.287 -11.943  1.00  0.00     0.293 HD
ENDBRANCH   6  24
BRANCH   8  26
ATOM     26  O   UNL     1       4.297   3.937 -12.625  1.00  0.00    -0.508 OA
ATOM     27  H   UNL     1       4.183   2.933 -12.541  1.00  0.00     0.293 HD
ENDBRANCH   8  26
TORSDOF 6
ENDMDL
MODEL 9
REMARK VINA RESULT:    -6.107     13.444     15.099
REMARK INTER + INTRA:          -7.078
REMARK INTER:                  -6.777
REMARK INTRA:                  -0.300
REMARK UNBOUND:                 0.279
REMARK SMILES O=c1c(O)c(-c2ccc(O)c(O)c2)oc2cc(O)cc(O)c12
REMARK SMILES IDX 5 1 3 2 2 3 1 4 22 5 20 6 19 7 17 8 16 9 15 10 14 11 6 12
REMARK SMILES IDX 7 13 8 14 9 15 13 16 11 17 10 18 12 20 4 22 21 24 18 26
REMARK H PARENT 10 19 12 21 4 23 21 25 18 27
REMARK Flexibility Score: inf
ROOT
ATOM      1  C   UNL     1       4.911   5.868  -7.088  1.00  0.00     0.180 A 
ATOM      2  C   UNL     1       6.031   5.177  -7.586  1.00  0.00     0.208 A 
ATOM      3  C   UNL     1       6.032   4.760  -8.926  1.00  0.00     0.238 A 
ATOM      4  O   UNL     1       7.012   4.095  -9.351  1.00  0.00    -0.285 OA
ATOM      5  C   UNL     1       4.922   5.051  -9.757  1.00  0.00     0.111 A 
ATOM      6  C   UNL     1       4.833   4.710 -11.139  1.00  0.00     0.134 A 
ATOM      7  C   UNL     1       3.635   4.932 -11.830  1.00  0.00     0.093 A 
ATOM      8  C   UNL     1       2.546   5.540 -11.206  1.00  0.00     0.123 A 
ATOM      9  C   UNL     1       2.643   5.931  -9.870  1.00  0.00     0.094 A 
ATOM     10  C   UNL     1       3.813   5.691  -9.145  1.00  0.00     0.146 A 
ATOM     11  O   UNL     1       3.860   6.069  -7.873  1.00  0.00    -0.452 OA
ENDROOT
BRANCH   1  12
ATOM     12  C   UNL     1       4.848   6.362  -5.693  1.00  0.00     0.025 A 
ATOM     13  C   UNL     1       5.101   7.710  -5.382  1.00  0.00     0.016 A 
ATOM     14  C   UNL     1       5.011   8.158  -4.062  1.00  0.00     0.051 A 
ATOM     15  C   UNL     1       4.654   7.272  -3.038  1.00  0.00     0.157 A 
ATOM     16  C   UNL     1       4.469   5.483  -4.666  1.00  0.00     0.062 A 
ATOM     17  C   UNL     1       4.380   5.933  -3.340  1.00  0.00     0.158 A 
BRANCH  15  18
ATOM     18  O   UNL     1       4.565   7.715  -1.719  1.00  0.00    -0.504 OA
ATOM     19  H   UNL     1       3.773   8.257  -1.395  1.00  0.00     0.293 HD
ENDBRANCH  15  18
BRANCH  17  20
ATOM     20  O   UNL     1       4.018   5.054  -2.321  1.00  0.00    -0.504 OA
ATOM     21  H   UNL     1       4.598   4.261  -2.072  1.00  0.00     0.293 HD
ENDBRANCH  17  20
ENDBRANCH   1  12
BRANCH   2  22
ATOM     22  O   UNL     1       7.106   4.881  -6.744  1.00  0.00    -0.502 OA
ATOM     23  H   UNL     1       7.653   4.034  -6.838  1.00  0.00     0.293 HD
ENDBRANCH   2  22
BRANCH   6  24
ATOM     24  O   UNL     1       5.893   4.183 -11.883  1.00  0.00    -0.507 OA
ATOM     25  H   UNL     1       6.000   3.208 -12.119  1.00  0.00     0.293 HD
ENDBRANCH   6  24
BRANCH   8  26
ATOM     26  O   UNL     1       1.375   5.759 -11.927  1.00  0.00    -0.508 OA
ATOM     27  H   UNL     1       0.999   5.056 -12.554  1.00  0.00     0.293 HD
ENDBRANCH   8  26
TORSDOF 6
ENDMDL
