MODEL 1
REMARK VINA RESULT:    -7.212      0.000      0.000
REMARK INTER + INTRA:          -8.565
REMARK INTER:                  -8.477
REMARK INTRA:                  -0.087
REMARK UNBOUND:                -0.087
REMARK SMILES O=c1c(O)c(-c2ccc(O)cc2)oc2cc(O)cc(O)c12
REMARK SMILES IDX 5 1 3 2 2 3 1 4 21 5 19 6 18 7 16 8 15 9 14 10 13 11 6 12
REMARK SMILES IDX 7 13 8 14 9 15 12 16 11 17 10 18 4 20 20 22 17 24
REMARK H PARENT 10 19 4 21 20 23 17 25
REMARK Flexibility Score: inf
ROOT
ATOM      1  C   UNL     1      -0.904  13.393   5.777  1.00  0.00     0.180 A 
ATOM      2  C   UNL     1      -1.413  12.332   6.550  1.00  0.00     0.208 A 
ATOM      3  C   UNL     1      -2.770  12.345   6.910  1.00  0.00     0.238 A 
ATOM      4  O   UNL     1      -3.239  11.395   7.593  1.00  0.00    -0.285 OA
ATOM      5  C   UNL     1      -3.587  13.422   6.511  1.00  0.00     0.111 A 
ATOM      6  C   UNL     1      -4.962  13.513   6.835  1.00  0.00     0.134 A 
ATOM      7  C   UNL     1      -5.705  14.624   6.408  1.00  0.00     0.093 A 
ATOM      8  C   UNL     1      -5.103  15.642   5.667  1.00  0.00     0.123 A 
ATOM      9  C   UNL     1      -3.744  15.557   5.342  1.00  0.00     0.094 A 
ATOM     10  C   UNL     1      -2.987  14.459   5.757  1.00  0.00     0.146 A 
ATOM     11  O   UNL     1      -1.701  14.401   5.432  1.00  0.00    -0.452 OA
ENDROOT
BRANCH   1  12
ATOM     12  C   UNL     1       0.511  13.442   5.343  1.00  0.00     0.021 A 
ATOM     13  C   UNL     1       1.564  13.468   6.275  1.00  0.00     0.016 A 
ATOM     14  C   UNL     1       2.893  13.489   5.840  1.00  0.00     0.047 A 
ATOM     15  C   UNL     1       3.187  13.470   4.474  1.00  0.00     0.115 A 
ATOM     16  C   UNL     1       0.815  13.401   3.972  1.00  0.00     0.016 A 
ATOM     17  C   UNL     1       2.145  13.423   3.539  1.00  0.00     0.047 A 
BRANCH  15  18
ATOM     18  O   UNL     1       4.515  13.493   4.055  1.00  0.00    -0.508 OA
ATOM     19  H   UNL     1       4.877  14.246   3.481  1.00  0.00     0.293 HD
ENDBRANCH  15  18
ENDBRANCH   1  12
BRANCH   2  20
ATOM     20  O   UNL     1      -0.571  11.300   6.976  1.00  0.00    -0.502 OA
ATOM     21  H   UNL     1      -0.145  11.292   7.894  1.00  0.00     0.293 HD
ENDBRANCH   2  20
BRANCH   6  22
ATOM     22  O   UNL     1      -5.593  12.514   7.576  1.00  0.00    -0.507 OA
ATOM     23  H   UNL     1      -5.186  12.142   8.426  1.00  0.00     0.293 HD
ENDBRANCH   6  22
BRANCH   8  24
ATOM     24  O   UNL     1      -5.863  16.735   5.255  1.00  0.00    -0.508 OA
ATOM     25  H   UNL     1      -5.448  17.509   4.750  1.00  0.00     0.293 HD
ENDBRANCH   8  24
TORSDOF 5
ENDMDL
MODEL 2
REMARK VINA RESULT:    -6.550      1.874      6.558
REMARK INTER + INTRA:          -7.786
REMARK INTER:                  -7.877
REMARK INTRA:                   0.091
REMARK UNBOUND:                -0.087
REMARK SMILES O=c1c(O)c(-c2ccc(O)cc2)oc2cc(O)cc(O)c12
REMARK SMILES IDX 5 1 3 2 2 3 1 4 21 5 19 6 18 7 16 8 15 9 14 10 13 11 6 12
REMARK SMILES IDX 7 13 8 14 9 15 12 16 11 17 10 18 4 20 20 22 17 24
REMARK H PARENT 10 19 4 21 20 23 17 25
REMARK Flexibility Score: inf
ROOT
ATOM      1  C   UNL     1      -0.400  13.281   5.350  1.00  0.00     0.180 A 
ATOM      2  C   UNL     1       0.871  13.103   5.928  1.00  0.00     0.208 A 
ATOM      3  C   UNL     1       2.010  13.449   5.182  1.00  0.00     0.238 A 
ATOM      4  O   UNL     1       3.153  13.304   5.694  1.00  0.00    -0.285 OA
ATOM      5  C   UNL     1       1.861  13.943   3.872  1.00  0.00     0.111 A 
ATOM      6  C   UNL     1       2.956  14.311   3.052  1.00  0.00     0.134 A 
ATOM      7  C   UNL     1       2.724  14.787   1.753  1.00  0.00     0.093 A 
ATOM      8  C   UNL     1       1.424  14.902   1.258  1.00  0.00     0.123 A 
ATOM      9  C   UNL     1       0.337  14.542   2.063  1.00  0.00     0.094 A 
ATOM     10  C   UNL     1       0.547  14.067   3.360  1.00  0.00     0.146 A 
ATOM     11  O   UNL     1      -0.502  13.737   4.104  1.00  0.00    -0.452 OA
ENDROOT
BRANCH   1  12
ATOM     12  C   UNL     1      -1.648  12.958   6.079  1.00  0.00     0.021 A 
ATOM     13  C   UNL     1      -1.792  11.752   6.788  1.00  0.00     0.016 A 
ATOM     14  C   UNL     1      -2.971  11.480   7.490  1.00  0.00     0.047 A 
ATOM     15  C   UNL     1      -4.012  12.412   7.503  1.00  0.00     0.115 A 
ATOM     16  C   UNL     1      -2.691  13.898   6.114  1.00  0.00     0.016 A 
ATOM     17  C   UNL     1      -3.870  13.624   6.816  1.00  0.00     0.047 A 
BRANCH  15  18
ATOM     18  O   UNL     1      -5.182  12.127   8.205  1.00  0.00    -0.508 OA
ATOM     19  H   UNL     1      -5.164  11.613   9.078  1.00  0.00     0.293 HD
ENDBRANCH  15  18
ENDBRANCH   1  12
BRANCH   2  20
ATOM     20  O   UNL     1       0.995  12.564   7.212  1.00  0.00    -0.502 OA
ATOM     21  H   UNL     1       0.772  13.092   8.046  1.00  0.00     0.293 HD
ENDBRANCH   2  20
BRANCH   6  22
ATOM     22  O   UNL     1       4.267  14.206   3.517  1.00  0.00    -0.507 OA
ATOM     23  H   UNL     1       4.598  14.748   4.306  1.00  0.00     0.293 HD
ENDBRANCH   6  22
BRANCH   8  24
ATOM     24  O   UNL     1       1.221  15.377  -0.036  1.00  0.00    -0.508 OA
ATOM     25  H   UNL     1       1.109  14.746  -0.821  1.00  0.00     0.293 HD
ENDBRANCH   8  24
TORSDOF 5
ENDMDL
MODEL 3
REMARK VINA RESULT:    -6.305      4.787      5.764
REMARK INTER + INTRA:          -7.498
REMARK INTER:                  -7.266
REMARK INTRA:                  -0.231
REMARK UNBOUND:                -0.087
REMARK SMILES O=c1c(O)c(-c2ccc(O)cc2)oc2cc(O)cc(O)c12
REMARK SMILES IDX 5 1 3 2 2 3 1 4 21 5 19 6 18 7 16 8 15 9 14 10 13 11 6 12
REMARK SMILES IDX 7 13 8 14 9 15 12 16 11 17 10 18 4 20 20 22 17 24
REMARK H PARENT 10 19 4 21 20 23 17 25
REMARK Flexibility Score: inf
ROOT
ATOM      1  C   UNL     1       0.717  14.358   1.170  1.00  0.00     0.180 A 
ATOM      2  C   UNL     1       0.609  13.388   0.155  1.00  0.00     0.208 A 
ATOM      3  C   UNL     1      -0.640  13.179  -0.453  1.00  0.00     0.238 A 
ATOM      4  O   UNL     1      -0.746  12.321  -1.371  1.00  0.00    -0.285 OA
ATOM      5  C   UNL     1      -1.757  13.923  -0.024  1.00  0.00     0.111 A 
ATOM      6  C   UNL     1      -3.050  13.770  -0.581  1.00  0.00     0.134 A 
ATOM      7  C   UNL     1      -4.114  14.543  -0.091  1.00  0.00     0.093 A 
ATOM      8  C   UNL     1      -3.912  15.462   0.940  1.00  0.00     0.123 A 
ATOM      9  C   UNL     1      -2.637  15.618   1.494  1.00  0.00     0.094 A 
ATOM     10  C   UNL     1      -1.563  14.859   1.020  1.00  0.00     0.146 A 
ATOM     11  O   UNL     1      -0.362  15.031   1.560  1.00  0.00    -0.452 OA
ENDROOT
BRANCH   1  12
ATOM     12  C   UNL     1       2.002  14.649   1.845  1.00  0.00     0.021 A 
ATOM     13  C   UNL     1       2.723  15.826   1.572  1.00  0.00     0.016 A 
ATOM     14  C   UNL     1       3.923  16.092   2.241  1.00  0.00     0.047 A 
ATOM     15  C   UNL     1       4.409  15.196   3.197  1.00  0.00     0.115 A 
ATOM     16  C   UNL     1       2.487  13.764   2.822  1.00  0.00     0.016 A 
ATOM     17  C   UNL     1       3.687  14.031   3.489  1.00  0.00     0.047 A 
BRANCH  15  18
ATOM     18  O   UNL     1       5.606  15.472   3.854  1.00  0.00    -0.508 OA
ATOM     19  H   UNL     1       5.622  15.960   4.742  1.00  0.00     0.293 HD
ENDBRANCH  15  18
ENDBRANCH   1  12
BRANCH   2  20
ATOM     20  O   UNL     1       1.721  12.628  -0.219  1.00  0.00    -0.502 OA
ATOM     21  H   UNL     1       1.905  11.711   0.167  1.00  0.00     0.293 HD
ENDBRANCH   2  20
BRANCH   6  22
ATOM     22  O   UNL     1      -3.285  12.859  -1.611  1.00  0.00    -0.507 OA
ATOM     23  H   UNL     1      -4.181  12.806  -2.082  1.00  0.00     0.293 HD
ENDBRANCH   6  22
BRANCH   8  24
ATOM     24  O   UNL     1      -4.986  16.216   1.408  1.00  0.00    -0.508 OA
ATOM     25  H   UNL     1      -5.198  17.130   1.025  1.00  0.00     0.293 HD
ENDBRANCH   8  24
TORSDOF 5
ENDMDL
MODEL 4
REMARK VINA RESULT:    -6.292      3.410      6.831
REMARK INTER + INTRA:          -7.483
REMARK INTER:                  -7.190
REMARK INTRA:                  -0.293
REMARK UNBOUND:                -0.087
REMARK SMILES O=c1c(O)c(-c2ccc(O)cc2)oc2cc(O)cc(O)c12
REMARK SMILES IDX 5 1 3 2 2 3 1 4 21 5 19 6 18 7 16 8 15 9 14 10 13 11 6 12
REMARK SMILES IDX 7 13 8 14 9 15 12 16 11 17 10 18 4 20 20 22 17 24
REMARK H PARENT 10 19 4 21 20 23 17 25
REMARK Flexibility Score: inf
ROOT
ATOM      1  C   UNL     1      -0.880  14.474   2.718  1.00  0.00     0.180 A 
ATOM      2  C   UNL     1      -1.317  14.412   4.054  1.00  0.00     0.208 A 
ATOM      3  C   UNL     1      -0.383  14.119   5.061  1.00  0.00     0.238 A 
ATOM      4  O   UNL     1      -0.761  14.072   6.263  1.00  0.00    -0.285 OA
ATOM      5  C   UNL     1       0.961  13.873   4.714  1.00  0.00     0.111 A 
ATOM      6  C   UNL     1       1.963  13.567   5.666  1.00  0.00     0.134 A 
ATOM      7  C   UNL     1       3.278  13.325   5.239  1.00  0.00     0.093 A 
ATOM      8  C   UNL     1       3.609  13.383   3.884  1.00  0.00     0.123 A 
ATOM      9  C   UNL     1       2.623  13.686   2.939  1.00  0.00     0.094 A 
ATOM     10  C   UNL     1       1.308  13.931   3.343  1.00  0.00     0.146 A 
ATOM     11  O   UNL     1       0.393  14.221   2.426  1.00  0.00    -0.452 OA
ENDROOT
BRANCH   1  12
ATOM     12  C   UNL     1      -1.800  14.796   1.603  1.00  0.00     0.021 A 
ATOM     13  C   UNL     1      -2.101  16.127   1.262  1.00  0.00     0.016 A 
ATOM     14  C   UNL     1      -2.954  16.407   0.189  1.00  0.00     0.047 A 
ATOM     15  C   UNL     1      -3.505  15.364  -0.562  1.00  0.00     0.115 A 
ATOM     16  C   UNL     1      -2.341  13.755   0.830  1.00  0.00     0.016 A 
ATOM     17  C   UNL     1      -3.194  14.037  -0.242  1.00  0.00     0.047 A 
BRANCH  15  18
ATOM     18  O   UNL     1      -4.354  15.658  -1.627  1.00  0.00    -0.508 OA
ATOM     19  H   UNL     1      -5.051  14.995  -1.947  1.00  0.00     0.293 HD
ENDBRANCH  15  18
ENDBRANCH   1  12
BRANCH   2  20
ATOM     20  O   UNL     1      -2.665  14.611   4.367  1.00  0.00    -0.502 OA
ATOM     21  H   UNL     1      -3.238  13.886   4.781  1.00  0.00     0.293 HD
ENDBRANCH   2  20
BRANCH   6  22
ATOM     22  O   UNL     1       1.665  13.500   7.027  1.00  0.00    -0.507 OA
ATOM     23  H   UNL     1       0.844  13.014   7.370  1.00  0.00     0.293 HD
ENDBRANCH   6  22
BRANCH   8  24
ATOM     24  O   UNL     1       4.922  13.139   3.486  1.00  0.00    -0.508 OA
ATOM     25  H   UNL     1       5.703  13.625   3.911  1.00  0.00     0.293 HD
ENDBRANCH   8  24
TORSDOF 5
ENDMDL
MODEL 5
REMARK VINA RESULT:    -6.060      3.078      4.751
REMARK INTER + INTRA:          -7.210
REMARK INTER:                  -6.942
REMARK INTRA:                  -0.268
REMARK UNBOUND:                -0.087
REMARK SMILES O=c1c(O)c(-c2ccc(O)cc2)oc2cc(O)cc(O)c12
REMARK SMILES IDX 5 1 3 2 2 3 1 4 21 5 19 6 18 7 16 8 15 9 14 10 13 11 6 12
REMARK SMILES IDX 7 13 8 14 9 15 12 16 11 17 10 18 4 20 20 22 17 24
REMARK H PARENT 10 19 4 21 20 23 17 25
REMARK Flexibility Score: inf
ROOT
ATOM      1  C   UNL     1       1.235  14.485   2.554  1.00  0.00     0.180 A 
ATOM      2  C   UNL     1       1.921  13.656   3.462  1.00  0.00     0.208 A 
ATOM      3  C   UNL     1       1.237  13.176   4.591  1.00  0.00     0.238 A 
ATOM      4  O   UNL     1       1.838  12.425   5.406  1.00  0.00    -0.285 OA
ATOM      5  C   UNL     1      -0.105  13.547   4.803  1.00  0.00     0.111 A 
ATOM      6  C   UNL     1      -0.864  13.110   5.917  1.00  0.00     0.134 A 
ATOM      7  C   UNL     1      -2.194  13.532   6.061  1.00  0.00     0.093 A 
ATOM      8  C   UNL     1      -2.780  14.379   5.118  1.00  0.00     0.123 A 
ATOM      9  C   UNL     1      -2.036  14.813   4.015  1.00  0.00     0.094 A 
ATOM     10  C   UNL     1      -0.710  14.403   3.852  1.00  0.00     0.146 A 
ATOM     11  O   UNL     1      -0.028  14.826   2.794  1.00  0.00    -0.452 OA
ENDROOT
BRANCH   1  12
ATOM     12  C   UNL     1       1.880  15.015   1.331  1.00  0.00     0.021 A 
ATOM     13  C   UNL     1       1.668  14.421   0.073  1.00  0.00     0.016 A 
ATOM     14  C   UNL     1       2.269  14.955  -1.072  1.00  0.00     0.047 A 
ATOM     15  C   UNL     1       3.076  16.092  -0.977  1.00  0.00     0.115 A 
ATOM     16  C   UNL     1       2.677  16.169   1.414  1.00  0.00     0.016 A 
ATOM     17  C   UNL     1       3.277  16.701   0.268  1.00  0.00     0.047 A 
BRANCH  15  18
ATOM     18  O   UNL     1       3.670  16.612  -2.125  1.00  0.00    -0.508 OA
ATOM     19  H   UNL     1       3.863  17.602  -2.220  1.00  0.00     0.293 HD
ENDBRANCH  15  18
ENDBRANCH   1  12
BRANCH   2  20
ATOM     20  O   UNL     1       3.267  13.343   3.256  1.00  0.00    -0.502 OA
ATOM     21  H   UNL     1       3.562  12.492   2.794  1.00  0.00     0.293 HD
ENDBRANCH   2  20
BRANCH   6  22
ATOM     22  O   UNL     1      -0.308  12.265   6.877  1.00  0.00    -0.507 OA
ATOM     23  H   UNL     1       0.337  11.525   6.627  1.00  0.00     0.293 HD
ENDBRANCH   6  22
BRANCH   8  24
ATOM     24  O   UNL     1      -4.103  14.783   5.285  1.00  0.00    -0.508 OA
ATOM     25  H   UNL     1      -4.425  15.687   4.959  1.00  0.00     0.293 HD
ENDBRANCH   8  24
TORSDOF 5
ENDMDL
MODEL 6
REMARK VINA RESULT:    -6.031      5.182      8.555
REMARK INTER + INTRA:          -7.176
REMARK INTER:                  -6.882
REMARK INTRA:                  -0.294
REMARK UNBOUND:                -0.087
REMARK SMILES O=c1c(O)c(-c2ccc(O)cc2)oc2cc(O)cc(O)c12
REMARK SMILES IDX 5 1 3 2 2 3 1 4 21 5 19 6 18 7 16 8 15 9 14 10 13 11 6 12
REMARK SMILES IDX 7 13 8 14 9 15 12 16 11 17 10 18 4 20 20 22 17 24
REMARK H PARENT 10 19 4 21 20 23 17 25
REMARK Flexibility Score: inf
ROOT
ATOM      1  C   UNL     1      -0.038  14.293   0.494  1.00  0.00     0.180 A 
ATOM      2  C   UNL     1       0.564  15.391  -0.150  1.00  0.00     0.208 A 
ATOM      3  C   UNL     1       1.795  15.867   0.330  1.00  0.00     0.238 A 
ATOM      4  O   UNL     1       2.348  16.843  -0.245  1.00  0.00    -0.285 OA
ATOM      5  C   UNL     1       2.389  15.255   1.452  1.00  0.00     0.111 A 
ATOM      6  C   UNL     1       3.625  15.676   2.000  1.00  0.00     0.134 A 
ATOM      7  C   UNL     1       4.147  15.020   3.125  1.00  0.00     0.093 A 
ATOM      8  C   UNL     1       3.460  13.955   3.711  1.00  0.00     0.123 A 
ATOM      9  C   UNL     1       2.239  13.534   3.174  1.00  0.00     0.094 A 
ATOM     10  C   UNL     1       1.702  14.173   2.053  1.00  0.00     0.146 A 
ATOM     11  O   UNL     1       0.545  13.750   1.560  1.00  0.00    -0.452 OA
ENDROOT
BRANCH   1  12
ATOM     12  C   UNL     1      -1.325  13.722   0.037  1.00  0.00     0.021 A 
ATOM     13  C   UNL     1      -1.378  12.766  -0.994  1.00  0.00     0.016 A 
ATOM     14  C   UNL     1      -2.604  12.222  -1.393  1.00  0.00     0.047 A 
ATOM     15  C   UNL     1      -3.786  12.614  -0.760  1.00  0.00     0.115 A 
ATOM     16  C   UNL     1      -2.517  14.095   0.682  1.00  0.00     0.016 A 
ATOM     17  C   UNL     1      -3.741  13.550   0.281  1.00  0.00     0.047 A 
BRANCH  15  18
ATOM     18  O   UNL     1      -5.000  12.066  -1.168  1.00  0.00    -0.508 OA
ATOM     19  H   UNL     1      -5.857  12.233  -0.653  1.00  0.00     0.293 HD
ENDBRANCH  15  18
ENDBRANCH   1  12
BRANCH   2  20
ATOM     20  O   UNL     1      -0.071  16.012  -1.229  1.00  0.00    -0.502 OA
ATOM     21  H   UNL     1       0.422  16.262  -2.077  1.00  0.00     0.293 HD
ENDBRANCH   2  20
BRANCH   6  22
ATOM     22  O   UNL     1       4.335  16.738   1.438  1.00  0.00    -0.507 OA
ATOM     23  H   UNL     1       3.979  17.686   1.456  1.00  0.00     0.293 HD
ENDBRANCH   6  22
BRANCH   8  24
ATOM     24  O   UNL     1       4.000  13.321   4.828  1.00  0.00    -0.508 OA
ATOM     25  H   UNL     1       4.551  13.829   5.511  1.00  0.00     0.293 HD
ENDBRANCH   8  24
TORSDOF 5
ENDMDL
MODEL 7
REMARK VINA RESULT:    -5.986      3.018      4.111
REMARK INTER + INTRA:          -7.123
REMARK INTER:                  -6.912
REMARK INTRA:                  -0.211
REMARK UNBOUND:                -0.087
REMARK SMILES O=c1c(O)c(-c2ccc(O)cc2)oc2cc(O)cc(O)c12
REMARK SMILES IDX 5 1 3 2 2 3 1 4 21 5 19 6 18 7 16 8 15 9 14 10 13 11 6 12
REMARK SMILES IDX 7 13 8 14 9 15 12 16 11 17 10 18 4 20 20 22 17 24
REMARK H PARENT 10 19 4 21 20 23 17 25
REMARK Flexibility Score: inf
ROOT
ATOM      1  C   UNL     1      -0.933  14.506   2.658  1.00  0.00     0.180 A 
ATOM      2  C   UNL     1      -1.551  14.136   1.449  1.00  0.00     0.208 A 
ATOM      3  C   UNL     1      -2.885  14.512   1.225  1.00  0.00     0.238 A 
ATOM      4  O   UNL     1      -3.445  14.195   0.141  1.00  0.00    -0.285 OA
ATOM      5  C   UNL     1      -3.582  15.230   2.217  1.00  0.00     0.111 A 
ATOM      6  C   UNL     1      -4.929  15.643   2.073  1.00  0.00     0.134 A 
ATOM      7  C   UNL     1      -5.556  16.347   3.112  1.00  0.00     0.093 A 
ATOM      8  C   UNL     1      -4.866  16.645   4.289  1.00  0.00     0.123 A 
ATOM      9  C   UNL     1      -3.535  16.240   4.437  1.00  0.00     0.094 A 
ATOM     10  C   UNL     1      -2.892  15.538   3.414  1.00  0.00     0.146 A 
ATOM     11  O   UNL     1      -1.627  15.170   3.579  1.00  0.00    -0.452 OA
ENDROOT
BRANCH   1  12
ATOM     12  C   UNL     1       0.475  14.163   2.960  1.00  0.00     0.021 A 
ATOM     13  C   UNL     1       1.542  14.781   2.282  1.00  0.00     0.016 A 
ATOM     14  C   UNL     1       2.865  14.459   2.601  1.00  0.00     0.047 A 
ATOM     15  C   UNL     1       3.139  13.528   3.607  1.00  0.00     0.115 A 
ATOM     16  C   UNL     1       0.760  13.244   3.984  1.00  0.00     0.016 A 
ATOM     17  C   UNL     1       2.084  12.923   4.301  1.00  0.00     0.047 A 
BRANCH  15  18
ATOM     18  O   UNL     1       4.461  13.215   3.914  1.00  0.00    -0.508 OA
ATOM     19  H   UNL     1       4.873  13.466   4.806  1.00  0.00     0.293 HD
ENDBRANCH  15  18
ENDBRANCH   1  12
BRANCH   2  20
ATOM     20  O   UNL     1      -0.854  13.380   0.501  1.00  0.00    -0.502 OA
ATOM     21  H   UNL     1       0.146  13.233   0.554  1.00  0.00     0.293 HD
ENDBRANCH   2  20
BRANCH   6  22
ATOM     22  O   UNL     1      -5.646  15.360   0.910  1.00  0.00    -0.507 OA
ATOM     23  H   UNL     1      -6.299  16.025   0.511  1.00  0.00     0.293 HD
ENDBRANCH   6  22
BRANCH   8  24
ATOM     24  O   UNL     1      -5.512  17.344   5.306  1.00  0.00    -0.508 OA
ATOM     25  H   UNL     1      -6.064  18.172   5.112  1.00  0.00     0.293 HD
ENDBRANCH   8  24
TORSDOF 5
ENDMDL
MODEL 8
REMARK VINA RESULT:    -5.981      2.083      2.761
REMARK INTER + INTRA:          -7.117
REMARK INTER:                  -7.222
REMARK INTRA:                   0.105
REMARK UNBOUND:                -0.087
REMARK SMILES O=c1c(O)c(-c2ccc(O)cc2)oc2cc(O)cc(O)c12
REMARK SMILES IDX 5 1 3 2 2 3 1 4 21 5 19 6 18 7 16 8 15 9 14 10 13 11 6 12
REMARK SMILES IDX 7 13 8 14 9 15 12 16 11 17 10 18 4 20 20 22 17 24
REMARK H PARENT 10 19 4 21 20 23 17 25
REMARK Flexibility Score: inf
ROOT
ATOM      1  C   UNL     1      -0.565  14.271   4.131  1.00  0.00     0.180 A 
ATOM      2  C   UNL     1      -1.208  14.284   5.384  1.00  0.00     0.208 A 
ATOM      3  C   UNL     1      -2.550  14.691   5.454  1.00  0.00     0.238 A 
ATOM      4  O   UNL     1      -3.138  14.697   6.569  1.00  0.00    -0.285 OA
ATOM      5  C   UNL     1      -3.217  15.095   4.281  1.00  0.00     0.111 A 
ATOM      6  C   UNL     1      -4.567  15.523   4.266  1.00  0.00     0.134 A 
ATOM      7  C   UNL     1      -5.158  15.919   3.056  1.00  0.00     0.093 A 
ATOM      8  C   UNL     1      -4.429  15.897   1.866  1.00  0.00     0.123 A 
ATOM      9  C   UNL     1      -3.095  15.475   1.874  1.00  0.00     0.094 A 
ATOM     10  C   UNL     1      -2.488  15.075   3.068  1.00  0.00     0.146 A 
ATOM     11  O   UNL     1      -1.223  14.674   3.047  1.00  0.00    -0.452 OA
ENDROOT
BRANCH   1  12
ATOM     12  C   UNL     1       0.841  13.837   3.973  1.00  0.00     0.021 A 
ATOM     13  C   UNL     1       1.338  12.702   4.640  1.00  0.00     0.016 A 
ATOM     14  C   UNL     1       2.665  12.297   4.455  1.00  0.00     0.047 A 
ATOM     15  C   UNL     1       3.504  13.011   3.595  1.00  0.00     0.115 A 
ATOM     16  C   UNL     1       1.686  14.536   3.095  1.00  0.00     0.016 A 
ATOM     17  C   UNL     1       3.012  14.130   2.912  1.00  0.00     0.047 A 
BRANCH  15  18
ATOM     18  O   UNL     1       4.823  12.597   3.422  1.00  0.00    -0.508 OA
ATOM     19  H   UNL     1       5.529  13.220   3.046  1.00  0.00     0.293 HD
ENDBRANCH  15  18
ENDBRANCH   1  12
BRANCH   2  20
ATOM     20  O   UNL     1      -0.509  13.926   6.540  1.00  0.00    -0.502 OA
ATOM     21  H   UNL     1       0.501  13.968   6.599  1.00  0.00     0.293 HD
ENDBRANCH   2  20
BRANCH   6  22
ATOM     22  O   UNL     1      -5.323  15.558   5.438  1.00  0.00    -0.507 OA
ATOM     23  H   UNL     1      -4.891  15.676   6.347  1.00  0.00     0.293 HD
ENDBRANCH   6  22
BRANCH   8  24
ATOM     24  O   UNL     1      -5.039  16.296   0.679  1.00  0.00    -0.508 OA
ATOM     25  H   UNL     1      -5.968  16.701   0.670  1.00  0.00     0.293 HD
ENDBRANCH   8  24
TORSDOF 5
ENDMDL
