MODEL 1
REMARK VINA RESULT:    -6.454      0.000      0.000
REMARK INTER + INTRA:          -7.857
REMARK INTER:                  -7.586
REMARK INTRA:                  -0.271
REMARK UNBOUND:                -0.271
REMARK SMILES O=c1cc(-c2ccc(O)c(O)c2)oc2cc(O)cc(O)c12
REMARK SMILES IDX 4 1 3 2 2 3 1 4 21 5 19 6 18 7 16 8 15 9 14 10 13 11 5 12
REMARK SMILES IDX 6 13 7 14 8 15 12 16 10 17 9 18 11 20 20 22 17 24
REMARK H PARENT 9 19 11 21 20 23 17 25
REMARK Flexibility Score: inf
ROOT
ATOM      1  C   UNL     1     138.494 135.230 147.135  1.00  0.00     0.138 A 
ATOM      2  C   UNL     1     139.890 135.262 147.259  1.00  0.00     0.100 A 
ATOM      3  C   UNL     1     140.557 136.488 147.242  1.00  0.00     0.197 A 
ATOM      4  O   UNL     1     141.802 136.489 147.417  1.00  0.00    -0.289 OA
ATOM      5  C   UNL     1     139.823 137.685 147.067  1.00  0.00     0.107 A 
ATOM      6  C   UNL     1     140.400 138.988 146.992  1.00  0.00     0.134 A 
ATOM      7  C   UNL     1     139.564 140.111 146.935  1.00  0.00     0.093 A 
ATOM      8  C   UNL     1     138.177 139.975 146.888  1.00  0.00     0.123 A 
ATOM      9  C   UNL     1     137.604 138.702 146.906  1.00  0.00     0.094 A 
ATOM     10  C   UNL     1     138.409 137.565 146.998  1.00  0.00     0.146 A 
ATOM     11  O   UNL     1     137.824 136.372 147.026  1.00  0.00    -0.456 OA
ENDROOT
BRANCH   1  12
ATOM     12  C   UNL     1     137.734 133.954 147.145  1.00  0.00     0.021 A 
ATOM     13  C   UNL     1     137.761 133.069 146.050  1.00  0.00     0.016 A 
ATOM     14  C   UNL     1     137.029 131.880 146.084  1.00  0.00     0.051 A 
ATOM     15  C   UNL     1     136.253 131.557 147.203  1.00  0.00     0.157 A 
ATOM     16  C   UNL     1     136.942 133.628 148.260  1.00  0.00     0.062 A 
ATOM     17  C   UNL     1     136.208 132.438 148.296  1.00  0.00     0.158 A 
BRANCH  15  18
ATOM     18  O   UNL     1     135.524 130.368 147.233  1.00  0.00    -0.504 OA
ATOM     19  H   UNL     1     134.511 130.367 147.214  1.00  0.00     0.293 HD
ENDBRANCH  15  18
BRANCH  17  20
ATOM     20  O   UNL     1     135.443 132.148 149.425  1.00  0.00    -0.504 OA
ATOM     21  H   UNL     1     135.730 131.456 150.107  1.00  0.00     0.293 HD
ENDBRANCH  17  20
ENDBRANCH   1  12
BRANCH   6  22
ATOM     22  O   UNL     1     141.776 139.232 146.947  1.00  0.00    -0.507 OA
ATOM     23  H   UNL     1     142.295 139.451 146.111  1.00  0.00     0.293 HD
ENDBRANCH   6  22
BRANCH   8  24
ATOM     24  O   UNL     1     137.377 141.114 146.816  1.00  0.00    -0.508 OA
ATOM     25  H   UNL     1     136.704 141.242 146.070  1.00  0.00     0.293 HD
ENDBRANCH   8  24
TORSDOF 5
ENDMDL
MODEL 2
REMARK VINA RESULT:    -6.326      1.422      1.458
REMARK INTER + INTRA:          -7.705
REMARK INTER:                  -7.421
REMARK INTRA:                  -0.284
REMARK UNBOUND:                -0.271
REMARK SMILES O=c1cc(-c2ccc(O)c(O)c2)oc2cc(O)cc(O)c12
REMARK SMILES IDX 4 1 3 2 2 3 1 4 21 5 19 6 18 7 16 8 15 9 14 10 13 11 5 12
REMARK SMILES IDX 6 13 7 14 8 15 12 16 10 17 9 18 11 20 20 22 17 24
REMARK H PARENT 9 19 11 21 20 23 17 25
REMARK Flexibility Score: inf
ROOT
ATOM      1  C   UNL     1     138.972 134.984 146.050  1.00  0.00     0.138 A 
ATOM      2  C   UNL     1     140.305 134.805 145.656  1.00  0.00     0.100 A 
ATOM      3  C   UNL     1     141.103 135.919 145.392  1.00  0.00     0.197 A 
ATOM      4  O   UNL     1     142.311 135.730 145.102  1.00  0.00    -0.289 OA
ATOM      5  C   UNL     1     140.550 137.219 145.491  1.00  0.00     0.107 A 
ATOM      6  C   UNL     1     141.256 138.425 145.206  1.00  0.00     0.134 A 
ATOM      7  C   UNL     1     140.640 139.659 145.451  1.00  0.00     0.093 A 
ATOM      8  C   UNL     1     139.327 139.730 145.914  1.00  0.00     0.123 A 
ATOM      9  C   UNL     1     138.609 138.556 146.145  1.00  0.00     0.094 A 
ATOM     10  C   UNL     1     139.207 137.310 145.943  1.00  0.00     0.146 A 
ATOM     11  O   UNL     1     138.493 136.216 146.188  1.00  0.00    -0.456 OA
ENDROOT
BRANCH   1  12
ATOM     12  C   UNL     1     138.079 133.834 146.343  1.00  0.00     0.021 A 
ATOM     13  C   UNL     1     137.857 132.812 145.399  1.00  0.00     0.016 A 
ATOM     14  C   UNL     1     137.004 131.746 145.698  1.00  0.00     0.051 A 
ATOM     15  C   UNL     1     136.353 131.685 146.937  1.00  0.00     0.157 A 
ATOM     16  C   UNL     1     137.412 133.771 147.579  1.00  0.00     0.062 A 
ATOM     17  C   UNL     1     136.558 132.705 147.880  1.00  0.00     0.158 A 
BRANCH  15  18
ATOM     18  O   UNL     1     135.504 130.619 147.231  1.00  0.00    -0.504 OA
ATOM     19  H   UNL     1     134.762 130.343 146.599  1.00  0.00     0.293 HD
ENDBRANCH  15  18
BRANCH  17  20
ATOM     20  O   UNL     1     135.922 132.676 149.121  1.00  0.00    -0.504 OA
ATOM     21  H   UNL     1     134.956 132.959 149.238  1.00  0.00     0.293 HD
ENDBRANCH  17  20
ENDBRANCH   1  12
BRANCH   6  22
ATOM     22  O   UNL     1     142.543 138.468 144.661  1.00  0.00    -0.507 OA
ATOM     23  H   UNL     1     142.782 138.901 143.782  1.00  0.00     0.293 HD
ENDBRANCH   6  22
BRANCH   8  24
ATOM     24  O   UNL     1     138.742 140.976 146.133  1.00  0.00    -0.508 OA
ATOM     25  H   UNL     1     139.011 141.790 145.594  1.00  0.00     0.293 HD
ENDBRANCH   8  24
TORSDOF 5
ENDMDL
MODEL 3
REMARK VINA RESULT:    -6.309      2.318      3.410
REMARK INTER + INTRA:          -7.686
REMARK INTER:                  -7.420
REMARK INTRA:                  -0.266
REMARK UNBOUND:                -0.271
REMARK SMILES O=c1cc(-c2ccc(O)c(O)c2)oc2cc(O)cc(O)c12
REMARK SMILES IDX 4 1 3 2 2 3 1 4 21 5 19 6 18 7 16 8 15 9 14 10 13 11 5 12
REMARK SMILES IDX 6 13 7 14 8 15 12 16 10 17 9 18 11 20 20 22 17 24
REMARK H PARENT 9 19 11 21 20 23 17 25
REMARK Flexibility Score: inf
ROOT
ATOM      1  C   UNL     1     137.543 133.956 147.231  1.00  0.00     0.138 A 
ATOM      2  C   UNL     1     138.369 132.983 146.652  1.00  0.00     0.100 A 
ATOM      3  C   UNL     1     139.416 133.374 145.816  1.00  0.00     0.197 A 
ATOM      4  O   UNL     1     140.179 132.483 145.362  1.00  0.00    -0.289 OA
ATOM      5  C   UNL     1     139.614 134.747 145.533  1.00  0.00     0.107 A 
ATOM      6  C   UNL     1     140.623 135.259 144.663  1.00  0.00     0.134 A 
ATOM      7  C   UNL     1     140.798 136.644 144.550  1.00  0.00     0.093 A 
ATOM      8  C   UNL     1     139.964 137.533 145.227  1.00  0.00     0.123 A 
ATOM      9  C   UNL     1     138.940 137.043 146.039  1.00  0.00     0.094 A 
ATOM     10  C   UNL     1     138.762 135.667 146.199  1.00  0.00     0.146 A 
ATOM     11  O   UNL     1     137.784 135.241 146.991  1.00  0.00    -0.456 OA
ENDROOT
BRANCH   1  12
ATOM     12  C   UNL     1     136.414 133.596 148.126  1.00  0.00     0.021 A 
ATOM     13  C   UNL     1     135.093 133.998 147.849  1.00  0.00     0.016 A 
ATOM     14  C   UNL     1     134.052 133.652 148.714  1.00  0.00     0.051 A 
ATOM     15  C   UNL     1     134.311 132.910 149.873  1.00  0.00     0.157 A 
ATOM     16  C   UNL     1     136.667 132.862 149.298  1.00  0.00     0.062 A 
ATOM     17  C   UNL     1     135.626 132.515 150.166  1.00  0.00     0.158 A 
BRANCH  15  18
ATOM     18  O   UNL     1     133.269 132.566 150.734  1.00  0.00    -0.504 OA
ATOM     19  H   UNL     1     133.215 132.936 151.675  1.00  0.00     0.293 HD
ENDBRANCH  15  18
BRANCH  17  20
ATOM     20  O   UNL     1     135.918 131.777 151.314  1.00  0.00    -0.504 OA
ATOM     21  H   UNL     1     136.119 130.785 151.280  1.00  0.00     0.293 HD
ENDBRANCH  17  20
ENDBRANCH   1  12
BRANCH   6  22
ATOM     22  O   UNL     1     141.456 134.459 143.875  1.00  0.00    -0.507 OA
ATOM     23  H   UNL     1     141.665 134.628 142.903  1.00  0.00     0.293 HD
ENDBRANCH   6  22
BRANCH   8  24
ATOM     24  O   UNL     1     140.159 138.906 145.079  1.00  0.00    -0.508 OA
ATOM     25  H   UNL     1     139.880 139.561 145.799  1.00  0.00     0.293 HD
ENDBRANCH   8  24
TORSDOF 5
ENDMDL
MODEL 4
REMARK VINA RESULT:    -6.207      3.667      5.413
REMARK INTER + INTRA:          -7.566
REMARK INTER:                  -7.291
REMARK INTRA:                  -0.276
REMARK UNBOUND:                -0.271
REMARK SMILES O=c1cc(-c2ccc(O)c(O)c2)oc2cc(O)cc(O)c12
REMARK SMILES IDX 4 1 3 2 2 3 1 4 21 5 19 6 18 7 16 8 15 9 14 10 13 11 5 12
REMARK SMILES IDX 6 13 7 14 8 15 12 16 10 17 9 18 11 20 20 22 17 24
REMARK H PARENT 9 19 11 21 20 23 17 25
REMARK Flexibility Score: inf
ROOT
ATOM      1  C   UNL     1     136.206 132.888 148.076  1.00  0.00     0.138 A 
ATOM      2  C   UNL     1     136.015 132.301 146.817  1.00  0.00     0.100 A 
ATOM      3  C   UNL     1     137.053 132.314 145.884  1.00  0.00     0.197 A 
ATOM      4  O   UNL     1     136.873 131.725 144.787  1.00  0.00    -0.289 OA
ATOM      5  C   UNL     1     138.277 132.948 146.203  1.00  0.00     0.107 A 
ATOM      6  C   UNL     1     139.390 133.059 145.317  1.00  0.00     0.134 A 
ATOM      7  C   UNL     1     140.592 133.606 145.783  1.00  0.00     0.093 A 
ATOM      8  C   UNL     1     140.703 134.099 147.082  1.00  0.00     0.123 A 
ATOM      9  C   UNL     1     139.604 134.045 147.941  1.00  0.00     0.094 A 
ATOM     10  C   UNL     1     138.402 133.474 147.517  1.00  0.00     0.146 A 
ATOM     11  O   UNL     1     137.384 133.429 148.370  1.00  0.00    -0.456 OA
ENDROOT
BRANCH   1  12
ATOM     12  C   UNL     1     135.136 132.904 149.105  1.00  0.00     0.021 A 
ATOM     13  C   UNL     1     133.927 133.598 148.904  1.00  0.00     0.016 A 
ATOM     14  C   UNL     1     132.942 133.603 149.894  1.00  0.00     0.051 A 
ATOM     15  C   UNL     1     133.147 132.925 151.102  1.00  0.00     0.157 A 
ATOM     16  C   UNL     1     135.339 132.236 150.326  1.00  0.00     0.062 A 
ATOM     17  C   UNL     1     134.354 132.240 151.319  1.00  0.00     0.158 A 
BRANCH  15  18
ATOM     18  O   UNL     1     132.160 132.932 152.088  1.00  0.00    -0.504 OA
ATOM     19  H   UNL     1     131.175 132.910 151.851  1.00  0.00     0.293 HD
ENDBRANCH  15  18
BRANCH  17  20
ATOM     20  O   UNL     1     134.591 131.557 152.512  1.00  0.00    -0.504 OA
ATOM     21  H   UNL     1     135.488 131.590 152.981  1.00  0.00     0.293 HD
ENDBRANCH  17  20
ENDBRANCH   1  12
BRANCH   6  22
ATOM     22  O   UNL     1     139.360 132.673 143.973  1.00  0.00    -0.507 OA
ATOM     23  H   UNL     1     140.054 132.096 143.524  1.00  0.00     0.293 HD
ENDBRANCH   6  22
BRANCH   8  24
ATOM     24  O   UNL     1     141.910 134.651 147.507  1.00  0.00    -0.508 OA
ATOM     25  H   UNL     1     141.985 135.628 147.764  1.00  0.00     0.293 HD
ENDBRANCH   8  24
TORSDOF 5
ENDMDL
MODEL 5
REMARK VINA RESULT:    -6.159      2.030      2.282
REMARK INTER + INTRA:          -7.510
REMARK INTER:                  -7.247
REMARK INTRA:                  -0.263
REMARK UNBOUND:                -0.271
REMARK SMILES O=c1cc(-c2ccc(O)c(O)c2)oc2cc(O)cc(O)c12
REMARK SMILES IDX 4 1 3 2 2 3 1 4 21 5 19 6 18 7 16 8 15 9 14 10 13 11 5 12
REMARK SMILES IDX 6 13 7 14 8 15 12 16 10 17 9 18 11 20 20 22 17 24
REMARK H PARENT 9 19 11 21 20 23 17 25
REMARK Flexibility Score: inf
ROOT
ATOM      1  C   UNL     1     138.623 134.754 146.977  1.00  0.00     0.138 A 
ATOM      2  C   UNL     1     138.968 134.931 145.629  1.00  0.00     0.100 A 
ATOM      3  C   UNL     1     139.124 136.220 145.120  1.00  0.00     0.197 A 
ATOM      4  O   UNL     1     139.494 136.346 143.924  1.00  0.00    -0.289 OA
ATOM      5  C   UNL     1     138.901 137.339 145.958  1.00  0.00     0.107 A 
ATOM      6  C   UNL     1     138.990 138.700 145.537  1.00  0.00     0.134 A 
ATOM      7  C   UNL     1     138.863 139.725 146.483  1.00  0.00     0.093 A 
ATOM      8  C   UNL     1     138.590 139.441 147.820  1.00  0.00     0.123 A 
ATOM      9  C   UNL     1     138.447 138.115 148.233  1.00  0.00     0.094 A 
ATOM     10  C   UNL     1     138.603 137.070 147.320  1.00  0.00     0.146 A 
ATOM     11  O   UNL     1     138.473 135.821 147.756  1.00  0.00    -0.456 OA
ENDROOT
BRANCH   1  12
ATOM     12  C   UNL     1     138.443 133.405 147.571  1.00  0.00     0.021 A 
ATOM     13  C   UNL     1     139.416 132.833 148.413  1.00  0.00     0.016 A 
ATOM     14  C   UNL     1     139.224 131.558 148.951  1.00  0.00     0.051 A 
ATOM     15  C   UNL     1     138.066 130.830 148.652  1.00  0.00     0.157 A 
ATOM     16  C   UNL     1     137.290 132.662 147.266  1.00  0.00     0.062 A 
ATOM     17  C   UNL     1     137.095 131.385 147.803  1.00  0.00     0.158 A 
BRANCH  15  18
ATOM     18  O   UNL     1     137.878 129.557 149.192  1.00  0.00    -0.504 OA
ATOM     19  H   UNL     1     138.624 129.072 149.676  1.00  0.00     0.293 HD
ENDBRANCH  15  18
BRANCH  17  20
ATOM     20  O   UNL     1     135.932 130.685 147.482  1.00  0.00    -0.504 OA
ATOM     21  H   UNL     1     135.050 131.154 147.314  1.00  0.00     0.293 HD
ENDBRANCH  17  20
ENDBRANCH   1  12
BRANCH   6  22
ATOM     22  O   UNL     1     139.177 139.096 144.209  1.00  0.00    -0.507 OA
ATOM     23  H   UNL     1     138.779 138.631 143.407  1.00  0.00     0.293 HD
ENDBRANCH   6  22
BRANCH   8  24
ATOM     24  O   UNL     1     138.455 140.487 148.731  1.00  0.00    -0.508 OA
ATOM     25  H   UNL     1     138.296 140.314 149.716  1.00  0.00     0.293 HD
ENDBRANCH   8  24
TORSDOF 5
ENDMDL
MODEL 6
REMARK VINA RESULT:    -6.129      2.582      3.863
REMARK INTER + INTRA:          -7.474
REMARK INTER:                  -7.167
REMARK INTRA:                  -0.307
REMARK UNBOUND:                -0.271
REMARK SMILES O=c1cc(-c2ccc(O)c(O)c2)oc2cc(O)cc(O)c12
REMARK SMILES IDX 4 1 3 2 2 3 1 4 21 5 19 6 18 7 16 8 15 9 14 10 13 11 5 12
REMARK SMILES IDX 6 13 7 14 8 15 12 16 10 17 9 18 11 20 20 22 17 24
REMARK H PARENT 9 19 11 21 20 23 17 25
REMARK Flexibility Score: inf
ROOT
ATOM      1  C   UNL     1     140.151 136.089 147.031  1.00  0.00     0.138 A 
ATOM      2  C   UNL     1     139.106 136.561 146.225  1.00  0.00     0.100 A 
ATOM      3  C   UNL     1     139.214 137.813 145.617  1.00  0.00     0.197 A 
ATOM      4  O   UNL     1     138.289 138.183 144.850  1.00  0.00    -0.289 OA
ATOM      5  C   UNL     1     140.362 138.609 145.846  1.00  0.00     0.107 A 
ATOM      6  C   UNL     1     140.563 139.917 145.313  1.00  0.00     0.134 A 
ATOM      7  C   UNL     1     141.790 140.563 145.513  1.00  0.00     0.093 A 
ATOM      8  C   UNL     1     142.798 139.974 146.274  1.00  0.00     0.123 A 
ATOM      9  C   UNL     1     142.593 138.717 146.846  1.00  0.00     0.094 A 
ATOM     10  C   UNL     1     141.393 138.033 146.636  1.00  0.00     0.146 A 
ATOM     11  O   UNL     1     141.241 136.833 147.186  1.00  0.00    -0.456 OA
ENDROOT
BRANCH   1  12
ATOM     12  C   UNL     1     140.088 134.766 147.702  1.00  0.00     0.021 A 
ATOM     13  C   UNL     1     139.319 133.708 147.180  1.00  0.00     0.016 A 
ATOM     14  C   UNL     1     139.271 132.476 147.838  1.00  0.00     0.051 A 
ATOM     15  C   UNL     1     139.980 132.281 149.029  1.00  0.00     0.157 A 
ATOM     16  C   UNL     1     140.787 134.565 148.905  1.00  0.00     0.062 A 
ATOM     17  C   UNL     1     140.741 133.333 149.566  1.00  0.00     0.158 A 
BRANCH  15  18
ATOM     18  O   UNL     1     139.930 131.050 149.682  1.00  0.00    -0.504 OA
ATOM     19  H   UNL     1     140.235 130.947 150.643  1.00  0.00     0.293 HD
ENDBRANCH  15  18
BRANCH  17  20
ATOM     20  O   UNL     1     141.456 133.172 150.752  1.00  0.00    -0.504 OA
ATOM     21  H   UNL     1     141.808 132.270 151.050  1.00  0.00     0.293 HD
ENDBRANCH  17  20
ENDBRANCH   1  12
BRANCH   6  22
ATOM     22  O   UNL     1     139.590 140.632 144.608  1.00  0.00    -0.507 OA
ATOM     23  H   UNL     1     138.850 141.170 145.032  1.00  0.00     0.293 HD
ENDBRANCH   6  22
BRANCH   8  24
ATOM     24  O   UNL     1     144.001 140.652 146.464  1.00  0.00    -0.508 OA
ATOM     25  H   UNL     1     144.023 141.640 146.688  1.00  0.00     0.293 HD
ENDBRANCH   8  24
TORSDOF 5
ENDMDL
MODEL 7
REMARK VINA RESULT:    -5.981      8.433     10.125
REMARK INTER + INTRA:          -7.300
REMARK INTER:                  -7.037
REMARK INTRA:                  -0.263
REMARK UNBOUND:                -0.271
REMARK SMILES O=c1cc(-c2ccc(O)c(O)c2)oc2cc(O)cc(O)c12
REMARK SMILES IDX 4 1 3 2 2 3 1 4 21 5 19 6 18 7 16 8 15 9 14 10 13 11 5 12
REMARK SMILES IDX 6 13 7 14 8 15 12 16 10 17 9 18 11 20 20 22 17 24
REMARK H PARENT 9 19 11 21 20 23 17 25
REMARK Flexibility Score: inf
ROOT
ATOM      1  C   UNL     1     132.144 135.871 153.943  1.00  0.00     0.138 A 
ATOM      2  C   UNL     1     130.761 135.992 154.144  1.00  0.00     0.100 A 
ATOM      3  C   UNL     1     130.267 137.028 154.938  1.00  0.00     0.197 A 
ATOM      4  O   UNL     1     129.020 137.148 155.049  1.00  0.00    -0.289 OA
ATOM      5  C   UNL     1     131.165 137.927 155.560  1.00  0.00     0.107 A 
ATOM      6  C   UNL     1     130.778 138.995 156.424  1.00  0.00     0.134 A 
ATOM      7  C   UNL     1     131.747 139.893 156.889  1.00  0.00     0.093 A 
ATOM      8  C   UNL     1     133.094 139.726 156.572  1.00  0.00     0.123 A 
ATOM      9  C   UNL     1     133.491 138.654 155.772  1.00  0.00     0.094 A 
ATOM     10  C   UNL     1     132.544 137.762 155.264  1.00  0.00     0.146 A 
ATOM     11  O   UNL     1     132.962 136.761 154.495  1.00  0.00    -0.456 OA
ENDROOT
BRANCH   1  12
ATOM     12  C   UNL     1     132.724 134.788 153.109  1.00  0.00     0.021 A 
ATOM     13  C   UNL     1     133.085 133.544 153.661  1.00  0.00     0.016 A 
ATOM     14  C   UNL     1     133.637 132.546 152.854  1.00  0.00     0.051 A 
ATOM     15  C   UNL     1     133.848 132.774 151.489  1.00  0.00     0.157 A 
ATOM     16  C   UNL     1     132.950 135.014 151.740  1.00  0.00     0.062 A 
ATOM     17  C   UNL     1     133.504 134.016 150.930  1.00  0.00     0.158 A 
BRANCH  15  18
ATOM     18  O   UNL     1     134.399 131.775 150.686  1.00  0.00    -0.504 OA
ATOM     19  H   UNL     1     135.225 131.943 150.124  1.00  0.00     0.293 HD
ENDBRANCH  15  18
BRANCH  17  20
ATOM     20  O   UNL     1     133.703 134.277 149.575  1.00  0.00    -0.504 OA
ATOM     21  H   UNL     1     134.563 134.684 149.226  1.00  0.00     0.293 HD
ENDBRANCH  17  20
ENDBRANCH   1  12
BRANCH   6  22
ATOM     22  O   UNL     1     129.469 139.203 156.871  1.00  0.00    -0.507 OA
ATOM     23  H   UNL     1     128.966 140.073 156.795  1.00  0.00     0.293 HD
ENDBRANCH   6  22
BRANCH   8  24
ATOM     24  O   UNL     1     134.033 140.631 157.066  1.00  0.00    -0.508 OA
ATOM     25  H   UNL     1     133.752 141.497 157.508  1.00  0.00     0.293 HD
ENDBRANCH   8  24
TORSDOF 5
ENDMDL
MODEL 8
REMARK VINA RESULT:    -5.950      1.736      2.575
REMARK INTER + INTRA:          -7.264
REMARK INTER:                  -6.997
REMARK INTRA:                  -0.267
REMARK UNBOUND:                -0.271
REMARK SMILES O=c1cc(-c2ccc(O)c(O)c2)oc2cc(O)cc(O)c12
REMARK SMILES IDX 4 1 3 2 2 3 1 4 21 5 19 6 18 7 16 8 15 9 14 10 13 11 5 12
REMARK SMILES IDX 6 13 7 14 8 15 12 16 10 17 9 18 11 20 20 22 17 24
REMARK H PARENT 9 19 11 21 20 23 17 25
REMARK Flexibility Score: inf
ROOT
ATOM      1  C   UNL     1     138.954 134.840 146.946  1.00  0.00     0.138 A 
ATOM      2  C   UNL     1     139.953 134.174 146.222  1.00  0.00     0.100 A 
ATOM      3  C   UNL     1     140.925 134.913 145.545  1.00  0.00     0.197 A 
ATOM      4  O   UNL     1     141.843 134.288 144.956  1.00  0.00    -0.289 OA
ATOM      5  C   UNL     1     140.874 136.328 145.567  1.00  0.00     0.107 A 
ATOM      6  C   UNL     1     141.786 137.184 144.880  1.00  0.00     0.134 A 
ATOM      7  C   UNL     1     141.708 138.569 145.070  1.00  0.00     0.093 A 
ATOM      8  C   UNL     1     140.716 139.132 145.872  1.00  0.00     0.123 A 
ATOM      9  C   UNL     1     139.785 138.307 146.506  1.00  0.00     0.094 A 
ATOM     10  C   UNL     1     139.858 136.920 146.364  1.00  0.00     0.146 A 
ATOM     11  O   UNL     1     138.961 136.168 146.995  1.00  0.00    -0.456 OA
ENDROOT
BRANCH   1  12
ATOM     12  C   UNL     1     137.896 134.104 147.683  1.00  0.00     0.021 A 
ATOM     13  C   UNL     1     137.716 134.262 149.071  1.00  0.00     0.016 A 
ATOM     14  C   UNL     1     136.718 133.549 149.740  1.00  0.00     0.051 A 
ATOM     15  C   UNL     1     135.890 132.662 149.041  1.00  0.00     0.157 A 
ATOM     16  C   UNL     1     137.069 133.202 146.991  1.00  0.00     0.062 A 
ATOM     17  C   UNL     1     136.069 132.487 147.659  1.00  0.00     0.158 A 
BRANCH  15  18
ATOM     18  O   UNL     1     134.895 131.954 149.713  1.00  0.00    -0.504 OA
ATOM     19  H   UNL     1     133.951 132.314 149.795  1.00  0.00     0.293 HD
ENDBRANCH  15  18
BRANCH  17  20
ATOM     20  O   UNL     1     135.264 131.609 146.934  1.00  0.00    -0.504 OA
ATOM     21  H   UNL     1     135.277 130.609 147.095  1.00  0.00     0.293 HD
ENDBRANCH  17  20
ENDBRANCH   1  12
BRANCH   6  22
ATOM     22  O   UNL     1     142.763 136.731 143.989  1.00  0.00    -0.507 OA
ATOM     23  H   UNL     1     143.252 137.313 143.326  1.00  0.00     0.293 HD
ENDBRANCH   6  22
BRANCH   8  24
ATOM     24  O   UNL     1     140.659 140.516 146.026  1.00  0.00    -0.508 OA
ATOM     25  H   UNL     1     140.739 141.141 145.233  1.00  0.00     0.293 HD
ENDBRANCH   8  24
TORSDOF 5
ENDMDL
MODEL 9
REMARK VINA RESULT:    -5.933      1.528      2.635
REMARK INTER + INTRA:          -7.244
REMARK INTER:                  -6.954
REMARK INTRA:                  -0.289
REMARK UNBOUND:                -0.271
REMARK SMILES O=c1cc(-c2ccc(O)c(O)c2)oc2cc(O)cc(O)c12
REMARK SMILES IDX 4 1 3 2 2 3 1 4 21 5 19 6 18 7 16 8 15 9 14 10 13 11 5 12
REMARK SMILES IDX 6 13 7 14 8 15 12 16 10 17 9 18 11 20 20 22 17 24
REMARK H PARENT 9 19 11 21 20 23 17 25
REMARK Flexibility Score: inf
ROOT
ATOM      1  C   UNL     1     138.349 135.178 146.881  1.00  0.00     0.138 A 
ATOM      2  C   UNL     1     137.944 136.294 147.625  1.00  0.00     0.100 A 
ATOM      3  C   UNL     1     138.646 137.495 147.508  1.00  0.00     0.197 A 
ATOM      4  O   UNL     1     138.221 138.495 148.141  1.00  0.00    -0.289 OA
ATOM      5  C   UNL     1     139.781 137.566 146.665  1.00  0.00     0.107 A 
ATOM      6  C   UNL     1     140.597 138.724 146.499  1.00  0.00     0.134 A 
ATOM      7  C   UNL     1     141.626 138.713 145.548  1.00  0.00     0.093 A 
ATOM      8  C   UNL     1     141.904 137.568 144.802  1.00  0.00     0.123 A 
ATOM      9  C   UNL     1     141.146 136.413 144.995  1.00  0.00     0.094 A 
ATOM     10  C   UNL     1     140.092 136.404 145.910  1.00  0.00     0.146 A 
ATOM     11  O   UNL     1     139.385 135.287 146.055  1.00  0.00    -0.456 OA
ENDROOT
BRANCH   1  12
ATOM     12  C   UNL     1     137.640 133.876 146.968  1.00  0.00     0.021 A 
ATOM     13  C   UNL     1     137.699 132.931 145.925  1.00  0.00     0.016 A 
ATOM     14  C   UNL     1     137.013 131.718 146.031  1.00  0.00     0.051 A 
ATOM     15  C   UNL     1     136.252 131.431 147.170  1.00  0.00     0.157 A 
ATOM     16  C   UNL     1     136.863 133.585 148.103  1.00  0.00     0.062 A 
ATOM     17  C   UNL     1     136.176 132.372 148.211  1.00  0.00     0.158 A 
BRANCH  15  18
ATOM     18  O   UNL     1     135.570 130.219 147.272  1.00  0.00    -0.504 OA
ATOM     19  H   UNL     1     134.955 130.020 148.052  1.00  0.00     0.293 HD
ENDBRANCH  15  18
BRANCH  17  20
ATOM     20  O   UNL     1     135.424 132.118 149.357  1.00  0.00    -0.504 OA
ATOM     21  H   UNL     1     134.420 132.253 149.384  1.00  0.00     0.293 HD
ENDBRANCH  17  20
ENDBRANCH   1  12
BRANCH   6  22
ATOM     22  O   UNL     1     140.458 139.893 147.253  1.00  0.00    -0.507 OA
ATOM     23  H   UNL     1     140.071 140.759 146.908  1.00  0.00     0.293 HD
ENDBRANCH   6  22
BRANCH   8  24
ATOM     24  O   UNL     1     142.945 137.589 143.875  1.00  0.00    -0.508 OA
ATOM     25  H   UNL     1     143.093 138.382 143.262  1.00  0.00     0.293 HD
ENDBRANCH   8  24
TORSDOF 5
ENDMDL
