MODEL 1
REMARK VINA RESULT:    -5.521      0.000      0.000
REMARK INTER + INTRA:          -5.844
REMARK INTER:                  -5.844
REMARK INTRA:                   0.000
REMARK UNBOUND:                 0.000
REMARK SMILES O=c1ccc2cc(O)c(O)cc2o1
REMARK SMILES IDX 4 1 3 2 2 3 1 4 13 5 12 6 11 7 9 8 7 9 6 10 5 11 8 12 10 14
REMARK H PARENT 8 13 10 15
REMARK Flexibility Score: inf
ROOT
ATOM      1  C   UNL     1     -22.194 -56.987  97.353  1.00  0.00     0.019 A 
ATOM      2  C   UNL     1     -23.137 -56.437  98.221  1.00  0.00     0.094 A 
ATOM      3  C   UNL     1     -22.770 -56.175  99.544  1.00  0.00     0.336 A 
ATOM      4  O   UNL     1     -23.607 -55.679 100.343  1.00  0.00    -0.246 OA
ATOM      5  O   UNL     1     -21.538 -56.448  99.968  1.00  0.00    -0.423 OA
ATOM      6  C   UNL     1     -20.608 -56.972  99.174  1.00  0.00     0.142 A 
ATOM      7  C   UNL     1     -19.329 -57.236  99.674  1.00  0.00     0.098 A 
ATOM      8  C   UNL     1     -18.345 -57.789  98.841  1.00  0.00     0.161 A 
ATOM      9  C   UNL     1     -18.642 -58.078  97.500  1.00  0.00     0.158 A 
ATOM     10  C   UNL     1     -19.923 -57.815  96.993  1.00  0.00     0.062 A 
ATOM     11  C   UNL     1     -20.907 -57.263  97.824  1.00  0.00     0.022 A 
ENDROOT
BRANCH   9  12
ATOM     12  O   UNL     1     -17.658 -58.627  96.680  1.00  0.00    -0.504 OA
ATOM     13  H   UNL     1     -17.815 -59.487  96.168  1.00  0.00     0.293 HD
ENDBRANCH   9  12
BRANCH   8  14
ATOM     14  O   UNL     1     -17.069 -58.054  99.337  1.00  0.00    -0.504 OA
ATOM     15  H   UNL     1     -16.850 -58.932  99.791  1.00  0.00     0.293 HD
ENDBRANCH   8  14
TORSDOF 2
ENDMDL
MODEL 2
REMARK VINA RESULT:    -5.302      1.280      5.035
REMARK INTER + INTRA:          -5.612
REMARK INTER:                  -5.612
REMARK INTRA:                   0.000
REMARK UNBOUND:                 0.000
REMARK SMILES O=c1ccc2cc(O)c(O)cc2o1
REMARK SMILES IDX 4 1 3 2 2 3 1 4 13 5 12 6 11 7 9 8 7 9 6 10 5 11 8 12 10 14
REMARK H PARENT 8 13 10 15
REMARK Flexibility Score: inf
ROOT
ATOM      1  C   UNL     1     -19.740 -58.325 100.300  1.00  0.00     0.019 A 
ATOM      2  C   UNL     1     -18.731 -58.827  99.480  1.00  0.00     0.094 A 
ATOM      3  C   UNL     1     -18.782 -58.571  98.106  1.00  0.00     0.336 A 
ATOM      4  O   UNL     1     -17.880 -59.017  97.349  1.00  0.00    -0.246 OA
ATOM      5  O   UNL     1     -19.783 -57.860  97.591  1.00  0.00    -0.423 OA
ATOM      6  C   UNL     1     -20.766 -57.363  98.337  1.00  0.00     0.142 A 
ATOM      7  C   UNL     1     -21.791 -56.622  97.740  1.00  0.00     0.098 A 
ATOM      8  C   UNL     1     -22.829 -56.095  98.522  1.00  0.00     0.161 A 
ATOM      9  C   UNL     1     -22.843 -56.311  99.908  1.00  0.00     0.158 A 
ATOM     10  C   UNL     1     -21.817 -57.054 100.512  1.00  0.00     0.062 A 
ATOM     11  C   UNL     1     -20.779 -57.580  99.732  1.00  0.00     0.022 A 
ENDROOT
BRANCH   9  12
ATOM     12  O   UNL     1     -23.879 -55.784 100.677  1.00  0.00    -0.504 OA
ATOM     13  H   UNL     1     -23.801 -55.699 101.683  1.00  0.00     0.293 HD
ENDBRANCH   9  12
BRANCH   8  14
ATOM     14  O   UNL     1     -23.852 -55.356  97.929  1.00  0.00    -0.504 OA
ATOM     15  H   UNL     1     -24.827 -55.557  98.116  1.00  0.00     0.293 HD
ENDBRANCH   8  14
TORSDOF 2
ENDMDL
MODEL 3
REMARK VINA RESULT:    -5.215      1.283      4.530
REMARK INTER + INTRA:          -5.520
REMARK INTER:                  -5.520
REMARK INTRA:                   0.000
REMARK UNBOUND:                 0.000
REMARK SMILES O=c1ccc2cc(O)c(O)cc2o1
REMARK SMILES IDX 4 1 3 2 2 3 1 4 13 5 12 6 11 7 9 8 7 9 6 10 5 11 8 12 10 14
REMARK H PARENT 8 13 10 15
REMARK Flexibility Score: inf
ROOT
ATOM      1  C   UNL     1     -19.664 -57.776  97.288  1.00  0.00     0.019 A 
ATOM      2  C   UNL     1     -18.572 -58.377  97.914  1.00  0.00     0.094 A 
ATOM      3  C   UNL     1     -18.547 -58.450  99.310  1.00  0.00     0.336 A 
ATOM      4  O   UNL     1     -17.570 -58.988  99.894  1.00  0.00    -0.246 OA
ATOM      5  O   UNL     1     -19.551 -57.951 100.029  1.00  0.00    -0.423 OA
ATOM      6  C   UNL     1     -20.610 -57.371  99.472  1.00  0.00     0.142 A 
ATOM      7  C   UNL     1     -21.636 -56.866 100.278  1.00  0.00     0.098 A 
ATOM      8  C   UNL     1     -22.755 -56.252  99.696  1.00  0.00     0.161 A 
ATOM      9  C   UNL     1     -22.848 -56.144  98.301  1.00  0.00     0.158 A 
ATOM     10  C   UNL     1     -21.823 -56.648  97.487  1.00  0.00     0.062 A 
ATOM     11  C   UNL     1     -20.705 -57.261  98.067  1.00  0.00     0.022 A 
ENDROOT
BRANCH   9  12
ATOM     12  O   UNL     1     -23.964 -55.532  97.731  1.00  0.00    -0.504 OA
ATOM     13  H   UNL     1     -24.427 -54.752  98.181  1.00  0.00     0.293 HD
ENDBRANCH   9  12
BRANCH   8  14
ATOM     14  O   UNL     1     -23.778 -55.748 100.497  1.00  0.00    -0.504 OA
ATOM     15  H   UNL     1     -23.729 -54.818 100.896  1.00  0.00     0.293 HD
ENDBRANCH   8  14
TORSDOF 2
ENDMDL
MODEL 4
REMARK VINA RESULT:    -5.206      2.725      3.439
REMARK INTER + INTRA:          -5.510
REMARK INTER:                  -5.510
REMARK INTRA:                   0.000
REMARK UNBOUND:                 0.000
REMARK SMILES O=c1ccc2cc(O)c(O)cc2o1
REMARK SMILES IDX 4 1 3 2 2 3 1 4 13 5 12 6 11 7 9 8 7 9 6 10 5 11 8 12 10 14
REMARK H PARENT 8 13 10 15
REMARK Flexibility Score: inf
ROOT
ATOM      1  C   UNL     1     -21.298 -58.883 100.881  1.00  0.00     0.019 A 
ATOM      2  C   UNL     1     -22.368 -59.778 100.889  1.00  0.00     0.094 A 
ATOM      3  C   UNL     1     -22.817 -60.310  99.676  1.00  0.00     0.336 A 
ATOM      4  O   UNL     1     -23.781 -61.118  99.662  1.00  0.00    -0.246 OA
ATOM      5  O   UNL     1     -22.231 -59.964  98.531  1.00  0.00    -0.423 OA
ATOM      6  C   UNL     1     -21.208 -59.115  98.479  1.00  0.00     0.142 A 
ATOM      7  C   UNL     1     -20.630 -58.790  97.247  1.00  0.00     0.098 A 
ATOM      8  C   UNL     1     -19.552 -57.895  97.187  1.00  0.00     0.161 A 
ATOM      9  C   UNL     1     -19.049 -57.322  98.364  1.00  0.00     0.158 A 
ATOM     10  C   UNL     1     -19.624 -57.644  99.603  1.00  0.00     0.062 A 
ATOM     11  C   UNL     1     -20.701 -58.538  99.665  1.00  0.00     0.022 A 
ENDROOT
BRANCH   9  12
ATOM     12  O   UNL     1     -17.977 -56.433  98.295  1.00  0.00    -0.504 OA
ATOM     13  H   UNL     1     -17.025 -56.739  98.457  1.00  0.00     0.293 HD
ENDBRANCH   9  12
BRANCH   8  14
ATOM     14  O   UNL     1     -18.975 -57.569  95.960  1.00  0.00    -0.504 OA
ATOM     15  H   UNL     1     -18.478 -58.259  95.409  1.00  0.00     0.293 HD
ENDBRANCH   8  14
TORSDOF 2
ENDMDL
MODEL 5
REMARK VINA RESULT:    -5.158      2.580      3.432
REMARK INTER + INTRA:          -5.459
REMARK INTER:                  -5.459
REMARK INTRA:                   0.000
REMARK UNBOUND:                 0.000
REMARK SMILES O=c1ccc2cc(O)c(O)cc2o1
REMARK SMILES IDX 4 1 3 2 2 3 1 4 13 5 12 6 11 7 9 8 7 9 6 10 5 11 8 12 10 14
REMARK H PARENT 8 13 10 15
REMARK Flexibility Score: inf
ROOT
ATOM      1  C   UNL     1     -23.153 -57.859  97.365  1.00  0.00     0.019 A 
ATOM      2  C   UNL     1     -23.638 -59.005  96.736  1.00  0.00     0.094 A 
ATOM      3  C   UNL     1     -22.750 -60.045  96.443  1.00  0.00     0.336 A 
ATOM      4  O   UNL     1     -23.169 -61.088  95.875  1.00  0.00    -0.246 OA
ATOM      5  O   UNL     1     -21.461 -59.939  96.759  1.00  0.00    -0.423 OA
ATOM      6  C   UNL     1     -20.957 -58.864  97.359  1.00  0.00     0.142 A 
ATOM      7  C   UNL     1     -19.594 -58.809  97.668  1.00  0.00     0.098 A 
ATOM      8  C   UNL     1     -19.058 -57.678  98.300  1.00  0.00     0.161 A 
ATOM      9  C   UNL     1     -19.890 -56.596  98.625  1.00  0.00     0.158 A 
ATOM     10  C   UNL     1     -21.257 -56.645  98.318  1.00  0.00     0.062 A 
ATOM     11  C   UNL     1     -21.795 -57.775  97.686  1.00  0.00     0.022 A 
ENDROOT
BRANCH   9  12
ATOM     12  O   UNL     1     -19.348 -55.475  99.254  1.00  0.00    -0.504 OA
ATOM     13  H   UNL     1     -19.322 -54.573  98.795  1.00  0.00     0.293 HD
ENDBRANCH   9  12
BRANCH   8  14
ATOM     14  O   UNL     1     -17.700 -57.621  98.609  1.00  0.00    -0.504 OA
ATOM     15  H   UNL     1     -17.076 -56.977  98.137  1.00  0.00     0.293 HD
ENDBRANCH   8  14
TORSDOF 2
ENDMDL
MODEL 6
REMARK VINA RESULT:    -5.150      2.189      2.255
REMARK INTER + INTRA:          -5.452
REMARK INTER:                  -5.452
REMARK INTRA:                   0.000
REMARK UNBOUND:                 0.000
REMARK SMILES O=c1ccc2cc(O)c(O)cc2o1
REMARK SMILES IDX 4 1 3 2 2 3 1 4 13 5 12 6 11 7 9 8 7 9 6 10 5 11 8 12 10 14
REMARK H PARENT 8 13 10 15
REMARK Flexibility Score: inf
ROOT
ATOM      1  C   UNL     1     -22.169 -58.889  97.112  1.00  0.00     0.019 A 
ATOM      2  C   UNL     1     -23.116 -59.471  97.955  1.00  0.00     0.094 A 
ATOM      3  C   UNL     1     -22.767 -59.743  99.282  1.00  0.00     0.336 A 
ATOM      4  O   UNL     1     -23.608 -60.268 100.058  1.00  0.00    -0.246 OA
ATOM      5  O   UNL     1     -21.548 -59.452  99.731  1.00  0.00    -0.423 OA
ATOM      6  C   UNL     1     -20.615 -58.897  98.961  1.00  0.00     0.142 A 
ATOM      7  C   UNL     1     -19.351 -58.613  99.487  1.00  0.00     0.098 A 
ATOM      8  C   UNL     1     -18.365 -58.028  98.680  1.00  0.00     0.161 A 
ATOM      9  C   UNL     1     -18.644 -57.727  97.339  1.00  0.00     0.158 A 
ATOM     10  C   UNL     1     -19.910 -58.010  96.805  1.00  0.00     0.062 A 
ATOM     11  C   UNL     1     -20.897 -58.593  97.610  1.00  0.00     0.022 A 
ENDROOT
BRANCH   9  12
ATOM     12  O   UNL     1     -17.657 -57.146  96.544  1.00  0.00    -0.504 OA
ATOM     13  H   UNL     1     -16.699 -57.068  96.862  1.00  0.00     0.293 HD
ENDBRANCH   9  12
BRANCH   8  14
ATOM     14  O   UNL     1     -17.104 -57.744  99.203  1.00  0.00    -0.504 OA
ATOM     15  H   UNL     1     -16.644 -56.859  99.024  1.00  0.00     0.293 HD
ENDBRANCH   8  14
TORSDOF 2
ENDMDL
MODEL 7
REMARK VINA RESULT:    -5.002      3.048      4.430
REMARK INTER + INTRA:          -5.294
REMARK INTER:                  -5.294
REMARK INTRA:                   0.000
REMARK UNBOUND:                 0.000
REMARK SMILES O=c1ccc2cc(O)c(O)cc2o1
REMARK SMILES IDX 4 1 3 2 2 3 1 4 13 5 12 6 11 7 9 8 7 9 6 10 5 11 8 12 10 14
REMARK H PARENT 8 13 10 15
REMARK Flexibility Score: inf
ROOT
ATOM      1  C   UNL     1     -18.152 -60.328 101.055  1.00  0.00     0.019 A 
ATOM      2  C   UNL     1     -18.915 -61.129 101.904  1.00  0.00     0.094 A 
ATOM      3  C   UNL     1     -20.277 -60.849 102.059  1.00  0.00     0.336 A 
ATOM      4  O   UNL     1     -20.982 -61.561 102.821  1.00  0.00    -0.246 OA
ATOM      5  O   UNL     1     -20.833 -59.830 101.408  1.00  0.00    -0.423 OA
ATOM      6  C   UNL     1     -20.142 -59.041 100.589  1.00  0.00     0.142 A 
ATOM      7  C   UNL     1     -20.780 -57.985  99.930  1.00  0.00     0.098 A 
ATOM      8  C   UNL     1     -20.056 -57.151  99.067  1.00  0.00     0.161 A 
ATOM      9  C   UNL     1     -18.686 -57.373  98.861  1.00  0.00     0.158 A 
ATOM     10  C   UNL     1     -18.040 -58.430  99.520  1.00  0.00     0.062 A 
ATOM     11  C   UNL     1     -18.762 -59.265 100.383  1.00  0.00     0.022 A 
ENDROOT
BRANCH   9  12
ATOM     12  O   UNL     1     -17.974 -56.538  98.001  1.00  0.00    -0.504 OA
ATOM     13  H   UNL     1     -17.137 -56.856  97.527  1.00  0.00     0.293 HD
ENDBRANCH   9  12
BRANCH   8  14
ATOM     14  O   UNL     1     -20.690 -56.098  98.408  1.00  0.00    -0.504 OA
ATOM     15  H   UNL     1     -20.287 -55.670  97.583  1.00  0.00     0.293 HD
ENDBRANCH   8  14
TORSDOF 2
ENDMDL
MODEL 8
REMARK VINA RESULT:    -4.938     10.719     11.704
REMARK INTER + INTRA:          -5.226
REMARK INTER:                  -5.226
REMARK INTRA:                   0.000
REMARK UNBOUND:                 0.000
REMARK SMILES O=c1ccc2cc(O)c(O)cc2o1
REMARK SMILES IDX 4 1 3 2 2 3 1 4 13 5 12 6 11 7 9 8 7 9 6 10 5 11 8 12 10 14
REMARK H PARENT 8 13 10 15
REMARK Flexibility Score: inf
ROOT
ATOM      1  C   UNL     1     -19.808 -47.035 101.470  1.00  0.00     0.019 A 
ATOM      2  C   UNL     1     -20.139 -46.162 100.434  1.00  0.00     0.094 A 
ATOM      3  C   UNL     1     -21.392 -45.540 100.446  1.00  0.00     0.336 A 
ATOM      4  O   UNL     1     -21.709 -44.748  99.519  1.00  0.00    -0.246 OA
ATOM      5  O   UNL     1     -22.254 -45.780 101.431  1.00  0.00    -0.423 OA
ATOM      6  C   UNL     1     -21.979 -46.605 102.438  1.00  0.00     0.142 A 
ATOM      7  C   UNL     1     -22.924 -46.818 103.446  1.00  0.00     0.098 A 
ATOM      8  C   UNL     1     -22.639 -47.687 104.510  1.00  0.00     0.161 A 
ATOM      9  C   UNL     1     -21.401 -48.346 104.564  1.00  0.00     0.158 A 
ATOM     10  C   UNL     1     -20.450 -48.136 103.555  1.00  0.00     0.062 A 
ATOM     11  C   UNL     1     -20.733 -47.268 102.493  1.00  0.00     0.022 A 
ENDROOT
BRANCH   9  12
ATOM     12  O   UNL     1     -21.126 -49.208 105.625  1.00  0.00    -0.504 OA
ATOM     13  H   UNL     1     -20.868 -48.857 106.539  1.00  0.00     0.293 HD
ENDBRANCH   9  12
BRANCH   8  14
ATOM     14  O   UNL     1     -23.579 -47.901 105.516  1.00  0.00    -0.504 OA
ATOM     15  H   UNL     1     -24.039 -47.129 105.984  1.00  0.00     0.293 HD
ENDBRANCH   8  14
TORSDOF 2
ENDMDL
MODEL 9
REMARK VINA RESULT:    -4.905     10.791     11.342
REMARK INTER + INTRA:          -5.192
REMARK INTER:                  -5.192
REMARK INTRA:                   0.000
REMARK UNBOUND:                 0.000
REMARK SMILES O=c1ccc2cc(O)c(O)cc2o1
REMARK SMILES IDX 4 1 3 2 2 3 1 4 13 5 12 6 11 7 9 8 7 9 6 10 5 11 8 12 10 14
REMARK H PARENT 8 13 10 15
REMARK Flexibility Score: inf
ROOT
ATOM      1  C   UNL     1     -22.640 -46.728 103.309  1.00  0.00     0.019 A 
ATOM      2  C   UNL     1     -22.313 -47.388 104.493  1.00  0.00     0.094 A 
ATOM      3  C   UNL     1     -21.033 -47.936 104.632  1.00  0.00     0.336 A 
ATOM      4  O   UNL     1     -20.718 -48.536 105.693  1.00  0.00    -0.246 OA
ATOM      5  O   UNL     1     -20.144 -47.829 103.648  1.00  0.00    -0.423 OA
ATOM      6  C   UNL     1     -20.415 -47.208 102.503  1.00  0.00     0.142 A 
ATOM      7  C   UNL     1     -19.440 -47.125 101.503  1.00  0.00     0.098 A 
ATOM      8  C   UNL     1     -19.721 -46.471 100.295  1.00  0.00     0.161 A 
ATOM      9  C   UNL     1     -20.984 -45.898 100.084  1.00  0.00     0.158 A 
ATOM     10  C   UNL     1     -21.965 -45.977 101.083  1.00  0.00     0.062 A 
ATOM     11  C   UNL     1     -21.686 -46.630 102.291  1.00  0.00     0.022 A 
ENDROOT
BRANCH   9  12
ATOM     12  O   UNL     1     -21.254 -45.250  98.880  1.00  0.00    -0.504 OA
ATOM     13  H   UNL     1     -21.014 -44.277  98.737  1.00  0.00     0.293 HD
ENDBRANCH   9  12
BRANCH   8  14
ATOM     14  O   UNL     1     -18.751 -46.388  99.297  1.00  0.00    -0.504 OA
ATOM     15  H   UNL     1     -18.091 -47.140  99.135  1.00  0.00     0.293 HD
ENDBRANCH   8  14
TORSDOF 2
ENDMDL
