MODEL 1
REMARK VINA RESULT:    -3.042      0.000      0.000
REMARK INTER + INTRA:          -6.212
REMARK INTER:                  -4.820
REMARK INTRA:                  -1.392
REMARK UNBOUND:                -1.392
REMARK SMILES CCCCCCCCCCCC(=O)[O-]
REMARK SMILES IDX 7 1 8 2 9 3 10 4 11 5 12 6 13 7 14 8 6 9 5 10 4 11 3 12 2 13
REMARK SMILES IDX 1 14
REMARK H PARENT
REMARK Flexibility Score: inf
ROOT
ATOM      1  C   UNL     1      -3.040  -4.742  32.997  1.00  0.00     0.000 C 
ENDROOT
BRANCH   1   2
ATOM      2  C   UNL     1      -1.628  -5.351  32.937  1.00  0.00     0.000 C 
BRANCH   2   3
ATOM      3  C   UNL     1      -1.277  -5.908  31.547  1.00  0.00     0.000 C 
BRANCH   3   4
ATOM      4  C   UNL     1      -1.924  -7.277  31.280  1.00  0.00     0.006 C 
BRANCH   4   5
ATOM      5  C   UNL     1      -3.037  -7.211  30.225  1.00  0.00     0.053 C 
BRANCH   5   6
ATOM      6  C   UNL     1      -4.144  -8.155  30.575  1.00  0.00     0.041 C 
ATOM      7  O   UNL     1      -5.299  -7.714  30.817  1.00  0.00    -0.550 OA
ATOM      8  O   UNL     1      -3.888  -9.515  30.684  1.00  0.00    -0.550 OA
ENDBRANCH   5   6
ENDBRANCH   4   5
ENDBRANCH   3   4
ENDBRANCH   2   3
ENDBRANCH   1   2
BRANCH   1   9
ATOM      9  C   UNL     1      -3.096  -3.204  32.903  1.00  0.00     0.000 C 
BRANCH   9  10
ATOM     10  C   UNL     1      -3.640  -2.647  31.571  1.00  0.00    -0.000 C 
BRANCH  10  11
ATOM     11  C   UNL     1      -4.182  -3.707  30.597  1.00  0.00    -0.000 C 
BRANCH  11  12
ATOM     12  C   UNL     1      -3.710  -3.486  29.153  1.00  0.00    -0.000 C 
BRANCH  12  13
ATOM     13  C   UNL     1      -2.179  -3.441  29.076  1.00  0.00    -0.003 C 
ATOM     14  C   UNL     1      -1.645  -4.480  28.095  1.00  0.00     0.004 C 
ENDBRANCH  12  13
ENDBRANCH  11  12
ENDBRANCH  10  11
ENDBRANCH   9  10
ENDBRANCH   1   9
TORSDOF 10
ENDMDL
MODEL 2
REMARK VINA RESULT:    -3.037      1.365      2.152
REMARK INTER + INTRA:          -6.205
REMARK INTER:                  -5.008
REMARK INTRA:                  -1.197
REMARK UNBOUND:                -1.392
REMARK SMILES CCCCCCCCCCCC(=O)[O-]
REMARK SMILES IDX 7 1 8 2 9 3 10 4 11 5 12 6 13 7 14 8 6 9 5 10 4 11 3 12 2 13
REMARK SMILES IDX 1 14
REMARK H PARENT
REMARK Flexibility Score: inf
ROOT
ATOM      1  C   UNL     1      -1.635  -5.193  32.940  1.00  0.00     0.000 C 
ENDROOT
BRANCH   1   2
ATOM      2  C   UNL     1      -1.221  -5.816  31.595  1.00  0.00     0.000 C 
BRANCH   2   3
ATOM      3  C   UNL     1      -1.949  -7.139  31.301  1.00  0.00     0.000 C 
BRANCH   3   4
ATOM      4  C   UNL     1      -3.019  -6.994  30.206  1.00  0.00     0.006 C 
BRANCH   4   5
ATOM      5  C   UNL     1      -4.276  -7.825  30.493  1.00  0.00     0.053 C 
BRANCH   5   6
ATOM      6  C   UNL     1      -4.032  -9.266  30.174  1.00  0.00     0.041 C 
ATOM      7  O   UNL     1      -3.755 -10.081  31.093  1.00  0.00    -0.550 OA
ATOM      8  O   UNL     1      -4.060  -9.700  28.855  1.00  0.00    -0.550 OA
ENDBRANCH   5   6
ENDBRANCH   4   5
ENDBRANCH   3   4
ENDBRANCH   2   3
ENDBRANCH   1   2
BRANCH   1   9
ATOM      9  C   UNL     1      -3.056  -4.596  32.976  1.00  0.00     0.000 C 
BRANCH   9  10
ATOM     10  C   UNL     1      -3.119  -3.055  33.003  1.00  0.00    -0.000 C 
BRANCH  10  11
ATOM     11  C   UNL     1      -3.724  -2.407  31.745  1.00  0.00    -0.000 C 
BRANCH  11  12
ATOM     12  C   UNL     1      -3.555  -3.274  30.489  1.00  0.00    -0.000 C 
BRANCH  12  13
ATOM     13  C   UNL     1      -4.900  -3.488  29.785  1.00  0.00    -0.003 C 
ATOM     14  C   UNL     1      -5.816  -4.388  30.608  1.00  0.00     0.004 C 
ENDBRANCH  12  13
ENDBRANCH  11  12
ENDBRANCH  10  11
ENDBRANCH   9  10
ENDBRANCH   1   9
TORSDOF 10
ENDMDL
MODEL 3
REMARK VINA RESULT:    -2.969      3.701      5.762
REMARK INTER + INTRA:          -6.096
REMARK INTER:                  -5.653
REMARK INTRA:                  -0.443
REMARK UNBOUND:                -1.392
REMARK SMILES CCCCCCCCCCCC(=O)[O-]
REMARK SMILES IDX 7 1 8 2 9 3 10 4 11 5 12 6 13 7 14 8 6 9 5 10 4 11 3 12 2 13
REMARK SMILES IDX 1 14
REMARK H PARENT
REMARK Flexibility Score: inf
ROOT
ATOM      1  C   UNL     1      -4.330  -1.897  33.370  1.00  0.00     0.000 C 
ENDROOT
BRANCH   1   2
ATOM      2  C   UNL     1      -4.148  -3.393  33.061  1.00  0.00     0.000 C 
BRANCH   2   3
ATOM      3  C   UNL     1      -2.724  -3.736  32.588  1.00  0.00     0.000 C 
BRANCH   3   4
ATOM      4  C   UNL     1      -2.264  -5.126  33.059  1.00  0.00     0.006 C 
BRANCH   4   5
ATOM      5  C   UNL     1      -1.331  -5.813  32.054  1.00  0.00     0.053 C 
BRANCH   5   6
ATOM      6  C   UNL     1      -2.124  -6.611  31.067  1.00  0.00     0.041 C 
ATOM      7  O   UNL     1      -2.543  -7.759  31.372  1.00  0.00    -0.550 OA
ATOM      8  O   UNL     1      -2.358  -6.108  29.794  1.00  0.00    -0.550 OA
ENDBRANCH   5   6
ENDBRANCH   4   5
ENDBRANCH   3   4
ENDBRANCH   2   3
ENDBRANCH   1   2
BRANCH   1   9
ATOM      9  C   UNL     1      -3.041  -1.148  33.763  1.00  0.00     0.000 C 
BRANCH   9  10
ATOM     10  C   UNL     1      -3.258   0.235  34.412  1.00  0.00    -0.000 C 
BRANCH  10  11
ATOM     11  C   UNL     1      -2.782   0.350  35.870  1.00  0.00    -0.000 C 
BRANCH  11  12
ATOM     12  C   UNL     1      -3.884   0.013  36.885  1.00  0.00    -0.000 C 
BRANCH  12  13
ATOM     13  C   UNL     1      -3.593   0.657  38.246  1.00  0.00    -0.003 C 
ATOM     14  C   UNL     1      -3.546   2.178  38.137  1.00  0.00     0.004 C 
ENDBRANCH  12  13
ENDBRANCH  11  12
ENDBRANCH  10  11
ENDBRANCH   9  10
ENDBRANCH   1   9
TORSDOF 10
ENDMDL
MODEL 4
REMARK VINA RESULT:    -2.944      5.204      7.302
REMARK INTER + INTRA:          -6.057
REMARK INTER:                  -5.587
REMARK INTRA:                  -0.470
REMARK UNBOUND:                -1.392
REMARK SMILES CCCCCCCCCCCC(=O)[O-]
REMARK SMILES IDX 7 1 8 2 9 3 10 4 11 5 12 6 13 7 14 8 6 9 5 10 4 11 3 12 2 13
REMARK SMILES IDX 1 14
REMARK H PARENT
REMARK Flexibility Score: inf
ROOT
ATOM      1  C   UNL     1      -3.642  -0.524  34.517  1.00  0.00     0.000 C 
ENDROOT
BRANCH   1   2
ATOM      2  C   UNL     1      -2.563   0.215  35.328  1.00  0.00     0.000 C 
BRANCH   2   3
ATOM      3  C   UNL     1      -3.151   1.061  36.472  1.00  0.00     0.000 C 
BRANCH   3   4
ATOM      4  C   UNL     1      -3.525   0.214  37.699  1.00  0.00     0.006 C 
BRANCH   4   5
ATOM      5  C   UNL     1      -4.951   0.487  38.195  1.00  0.00     0.053 C 
BRANCH   5   6
ATOM      6  C   UNL     1      -5.764  -0.768  38.162  1.00  0.00     0.041 C 
ATOM      7  O   UNL     1      -6.036  -1.375  39.232  1.00  0.00    -0.550 OA
ATOM      8  O   UNL     1      -6.179  -1.296  36.946  1.00  0.00    -0.550 OA
ENDBRANCH   5   6
ENDBRANCH   4   5
ENDBRANCH   3   4
ENDBRANCH   2   3
ENDBRANCH   1   2
BRANCH   1   9
ATOM      9  C   UNL     1      -3.106  -1.504  33.455  1.00  0.00     0.000 C 
BRANCH   9  10
ATOM     10  C   UNL     1      -4.160  -2.452  32.847  1.00  0.00    -0.000 C 
BRANCH  10  11
ATOM     11  C   UNL     1      -3.805  -3.948  32.916  1.00  0.00    -0.000 C 
BRANCH  11  12
ATOM     12  C   UNL     1      -2.308  -4.216  32.703  1.00  0.00    -0.000 C 
BRANCH  12  13
ATOM     13  C   UNL     1      -2.058  -4.890  31.348  1.00  0.00    -0.003 C 
ATOM     14  C   UNL     1      -1.095  -6.064  31.485  1.00  0.00     0.004 C 
ENDBRANCH  12  13
ENDBRANCH  11  12
ENDBRANCH  10  11
ENDBRANCH   9  10
ENDBRANCH   1   9
TORSDOF 10
ENDMDL
MODEL 5
REMARK VINA RESULT:    -2.944      1.566      2.825
REMARK INTER + INTRA:          -6.056
REMARK INTER:                  -4.443
REMARK INTRA:                  -1.613
REMARK UNBOUND:                -1.392
REMARK SMILES CCCCCCCCCCCC(=O)[O-]
REMARK SMILES IDX 7 1 8 2 9 3 10 4 11 5 12 6 13 7 14 8 6 9 5 10 4 11 3 12 2 13
REMARK SMILES IDX 1 14
REMARK H PARENT
REMARK Flexibility Score: inf
ROOT
ATOM      1  C   UNL     1      -5.347  -4.144  32.512  1.00  0.00     0.000 C 
ENDROOT
BRANCH   1   2
ATOM      2  C   UNL     1      -5.276  -3.951  30.987  1.00  0.00     0.000 C 
BRANCH   2   3
ATOM      3  C   UNL     1      -5.358  -5.278  30.213  1.00  0.00     0.000 C 
BRANCH   3   4
ATOM      4  C   UNL     1      -5.008  -6.494  31.088  1.00  0.00     0.006 C 
BRANCH   4   5
ATOM      5  C   UNL     1      -5.336  -7.828  30.405  1.00  0.00     0.053 C 
BRANCH   5   6
ATOM      6  C   UNL     1      -4.089  -8.633  30.208  1.00  0.00     0.041 C 
ATOM      7  O   UNL     1      -3.215  -8.678  31.113  1.00  0.00    -0.550 OA
ATOM      8  O   UNL     1      -3.870  -9.291  29.005  1.00  0.00    -0.550 OA
ENDBRANCH   5   6
ENDBRANCH   4   5
ENDBRANCH   3   4
ENDBRANCH   2   3
ENDBRANCH   1   2
BRANCH   1   9
ATOM      9  C   UNL     1      -4.229  -3.446  33.313  1.00  0.00     0.000 C 
BRANCH   9  10
ATOM     10  C   UNL     1      -2.799  -3.681  32.784  1.00  0.00    -0.000 C 
BRANCH  10  11
ATOM     11  C   UNL     1      -2.185  -5.042  33.154  1.00  0.00    -0.000 C 
BRANCH  11  12
ATOM     12  C   UNL     1      -1.494  -5.727  31.966  1.00  0.00    -0.000 C 
BRANCH  12  13
ATOM     13  C   UNL     1      -1.627  -4.882  30.693  1.00  0.00    -0.003 C 
ATOM     14  C   UNL     1      -1.742  -5.766  29.455  1.00  0.00     0.004 C 
ENDBRANCH  12  13
ENDBRANCH  11  12
ENDBRANCH  10  11
ENDBRANCH   9  10
ENDBRANCH   1   9
TORSDOF 10
ENDMDL
MODEL 6
REMARK VINA RESULT:    -2.927      4.169      6.380
REMARK INTER + INTRA:          -6.029
REMARK INTER:                  -5.588
REMARK INTRA:                  -0.441
REMARK UNBOUND:                -1.392
REMARK SMILES CCCCCCCCCCCC(=O)[O-]
REMARK SMILES IDX 7 1 8 2 9 3 10 4 11 5 12 6 13 7 14 8 6 9 5 10 4 11 3 12 2 13
REMARK SMILES IDX 1 14
REMARK H PARENT
REMARK Flexibility Score: inf
ROOT
ATOM      1  C   UNL     1      -3.819  -0.372  33.766  1.00  0.00     0.000 C 
ENDROOT
BRANCH   1   2
ATOM      2  C   UNL     1      -4.211  -1.844  33.550  1.00  0.00     0.000 C 
BRANCH   2   3
ATOM      3  C   UNL     1      -3.045  -2.703  33.029  1.00  0.00     0.000 C 
BRANCH   3   4
ATOM      4  C   UNL     1      -3.380  -4.203  33.008  1.00  0.00     0.006 C 
BRANCH   4   5
ATOM      5  C   UNL     1      -2.128  -5.089  33.019  1.00  0.00     0.053 C 
BRANCH   5   6
ATOM      6  C   UNL     1      -1.913  -5.704  31.671  1.00  0.00     0.041 C 
ATOM      7  O   UNL     1      -1.551  -4.990  30.700  1.00  0.00    -0.550 OA
ATOM      8  O   UNL     1      -2.163  -7.057  31.477  1.00  0.00    -0.550 OA
ENDBRANCH   5   6
ENDBRANCH   4   5
ENDBRANCH   3   4
ENDBRANCH   2   3
ENDBRANCH   1   2
BRANCH   1   9
ATOM      9  C   UNL     1      -2.637  -0.144  34.729  1.00  0.00     0.000 C 
BRANCH   9  10
ATOM     10  C   UNL     1      -2.893   0.884  35.850  1.00  0.00    -0.000 C 
BRANCH  10  11
ATOM     11  C   UNL     1      -3.381   0.285  37.181  1.00  0.00    -0.000 C 
BRANCH  11  12
ATOM     12  C   UNL     1      -4.886  -0.020  37.181  1.00  0.00    -0.000 C 
BRANCH  12  13
ATOM     13  C   UNL     1      -5.302  -0.724  38.479  1.00  0.00    -0.003 C 
ATOM     14  C   UNL     1      -6.785  -0.514  38.768  1.00  0.00     0.004 C 
ENDBRANCH  12  13
ENDBRANCH  11  12
ENDBRANCH  10  11
ENDBRANCH   9  10
ENDBRANCH   1   9
TORSDOF 10
ENDMDL
MODEL 7
REMARK VINA RESULT:    -2.908     10.322     12.478
REMARK INTER + INTRA:          -6.000
REMARK INTER:                  -4.743
REMARK INTRA:                  -1.257
REMARK UNBOUND:                -1.392
REMARK SMILES CCCCCCCCCCCC(=O)[O-]
REMARK SMILES IDX 7 1 8 2 9 3 10 4 11 5 12 6 13 7 14 8 6 9 5 10 4 11 3 12 2 13
REMARK SMILES IDX 1 14
REMARK H PARENT
REMARK Flexibility Score: inf
ROOT
ATOM      1  C   UNL     1      -7.348   0.342  38.720  1.00  0.00     0.000 C 
ENDROOT
BRANCH   1   2
ATOM      2  C   UNL     1      -7.677   1.196  39.957  1.00  0.00     0.000 C 
BRANCH   2   3
ATOM      3  C   UNL     1      -7.827   2.692  39.627  1.00  0.00     0.000 C 
BRANCH   3   4
ATOM      4  C   UNL     1      -8.936   2.960  38.597  1.00  0.00     0.006 C 
BRANCH   4   5
ATOM      5  C   UNL     1      -8.407   3.618  37.316  1.00  0.00     0.053 C 
BRANCH   5   6
ATOM      6  C   UNL     1      -8.759   5.073  37.294  1.00  0.00     0.041 C 
ATOM      7  O   UNL     1      -8.131   5.887  38.021  1.00  0.00    -0.550 OA
ATOM      8  O   UNL     1      -9.814   5.521  36.510  1.00  0.00    -0.550 OA
ENDBRANCH   5   6
ENDBRANCH   4   5
ENDBRANCH   3   4
ENDBRANCH   2   3
ENDBRANCH   1   2
BRANCH   1   9
ATOM      9  C   UNL     1      -6.228  -0.699  38.922  1.00  0.00     0.000 C 
BRANCH   9  10
ATOM     10  C   UNL     1      -5.019  -0.553  37.976  1.00  0.00    -0.000 C 
BRANCH  10  11
ATOM     11  C   UNL     1      -4.613   0.896  37.659  1.00  0.00    -0.000 C 
BRANCH  11  12
ATOM     12  C   UNL     1      -3.629   1.477  38.686  1.00  0.00    -0.000 C 
BRANCH  12  13
ATOM     13  C   UNL     1      -4.099   2.851  39.180  1.00  0.00    -0.003 C 
ATOM     14  C   UNL     1      -4.712   3.665  38.044  1.00  0.00     0.004 C 
ENDBRANCH  12  13
ENDBRANCH  11  12
ENDBRANCH  10  11
ENDBRANCH   9  10
ENDBRANCH   1   9
TORSDOF 10
ENDMDL
MODEL 8
REMARK VINA RESULT:    -2.907      2.729      4.724
REMARK INTER + INTRA:          -5.999
REMARK INTER:                  -5.413
REMARK INTRA:                  -0.586
REMARK UNBOUND:                -1.392
REMARK SMILES CCCCCCCCCCCC(=O)[O-]
REMARK SMILES IDX 7 1 8 2 9 3 10 4 11 5 12 6 13 7 14 8 6 9 5 10 4 11 3 12 2 13
REMARK SMILES IDX 1 14
REMARK H PARENT
REMARK Flexibility Score: inf
ROOT
ATOM      1  C   UNL     1      -3.417  -7.270  30.038  1.00  0.00     0.000 C 
ENDROOT
BRANCH   1   2
ATOM      2  C   UNL     1      -4.846  -7.733  30.368  1.00  0.00     0.000 C 
BRANCH   2   3
ATOM      3  C   UNL     1      -5.204  -9.078  29.711  1.00  0.00     0.000 C 
BRANCH   3   4
ATOM      4  C   UNL     1      -4.159  -9.526  28.676  1.00  0.00     0.006 C 
BRANCH   4   5
ATOM      5  C   UNL     1      -4.768  -9.774  27.290  1.00  0.00     0.053 C 
BRANCH   5   6
ATOM      6  C   UNL     1      -3.710 -10.211  26.326  1.00  0.00     0.041 C 
ATOM      7  O   UNL     1      -3.046 -11.258  26.547  1.00  0.00    -0.550 OA
ATOM      8  O   UNL     1      -3.423  -9.436  25.210  1.00  0.00    -0.550 OA
ENDBRANCH   5   6
ENDBRANCH   4   5
ENDBRANCH   3   4
ENDBRANCH   2   3
ENDBRANCH   1   2
BRANCH   1   9
ATOM      9  C   UNL     1      -2.371  -7.539  31.140  1.00  0.00     0.000 C 
BRANCH   9  10
ATOM     10  C   UNL     1      -1.217  -6.518  31.211  1.00  0.00    -0.000 C 
BRANCH  10  11
ATOM     11  C   UNL     1      -1.633  -5.094  31.619  1.00  0.00    -0.000 C 
BRANCH  11  12
ATOM     12  C   UNL     1      -2.195  -5.024  33.046  1.00  0.00    -0.000 C 
BRANCH  12  13
ATOM     13  C   UNL     1      -3.532  -4.274  33.074  1.00  0.00    -0.003 C 
ATOM     14  C   UNL     1      -3.317  -2.764  33.120  1.00  0.00     0.004 C 
ENDBRANCH  12  13
ENDBRANCH  11  12
ENDBRANCH  10  11
ENDBRANCH   9  10
ENDBRANCH   1   9
TORSDOF 10
ENDMDL
MODEL 9
REMARK VINA RESULT:    -2.865     13.089     14.475
REMARK INTER + INTRA:          -5.932
REMARK INTER:                  -5.052
REMARK INTRA:                  -0.880
REMARK UNBOUND:                -1.392
REMARK SMILES CCCCCCCCCCCC(=O)[O-]
REMARK SMILES IDX 7 1 8 2 9 3 10 4 11 5 12 6 13 7 14 8 6 9 5 10 4 11 3 12 2 13
REMARK SMILES IDX 1 14
REMARK H PARENT
REMARK Flexibility Score: inf
ROOT
ATOM      1  C   UNL     1     -13.245   3.948  30.301  1.00  0.00     0.000 C 
ENDROOT
BRANCH   1   2
ATOM      2  C   UNL     1     -12.876   3.310  31.652  1.00  0.00     0.000 C 
BRANCH   2   3
ATOM      3  C   UNL     1     -12.999   4.292  32.830  1.00  0.00     0.000 C 
BRANCH   3   4
ATOM      4  C   UNL     1     -11.757   5.185  32.986  1.00  0.00     0.006 C 
BRANCH   4   5
ATOM      5  C   UNL     1     -10.595   4.465  33.682  1.00  0.00     0.053 C 
BRANCH   5   6
ATOM      6  C   UNL     1     -10.614   4.746  35.152  1.00  0.00     0.041 C 
ATOM      7  O   UNL     1     -10.246   5.869  35.587  1.00  0.00    -0.550 OA
ATOM      8  O   UNL     1     -10.989   3.751  36.045  1.00  0.00    -0.550 OA
ENDBRANCH   5   6
ENDBRANCH   4   5
ENDBRANCH   3   4
ENDBRANCH   2   3
ENDBRANCH   1   2
BRANCH   1   9
ATOM      9  C   UNL     1     -12.092   4.038  29.282  1.00  0.00     0.000 C 
BRANCH   9  10
ATOM     10  C   UNL     1     -11.326   5.376  29.274  1.00  0.00    -0.000 C 
BRANCH  10  11
ATOM     11  C   UNL     1     -12.173   6.611  29.628  1.00  0.00    -0.000 C 
BRANCH  11  12
ATOM     12  C   UNL     1     -11.760   7.862  28.839  1.00  0.00    -0.000 C 
BRANCH  12  13
ATOM     13  C   UNL     1     -12.279   7.797  27.397  1.00  0.00    -0.003 C 
ATOM     14  C   UNL     1     -11.174   8.125  26.398  1.00  0.00     0.004 C 
ENDBRANCH  12  13
ENDBRANCH  11  12
ENDBRANCH  10  11
ENDBRANCH   9  10
ENDBRANCH   1   9
TORSDOF 10
ENDMDL
