MODEL 1
REMARK VINA RESULT:    -3.811      0.000      0.000
REMARK INTER + INTRA:          -3.922
REMARK INTER:                  -3.922
REMARK INTRA:                   0.000
REMARK UNBOUND:                 0.000
REMARK SMILES CC1(C)[C@@H]2CC[C@@](C)(C2)[C@H]1O
REMARK SMILES IDX 1 1 2 2 4 3 5 4 6 5 7 6 9 7 10 8 8 9 3 10 11 11
REMARK H PARENT 11 12
REMARK Flexibility Score: inf
ROOT
ATOM      1  C   UNL     1     145.650 139.461 139.434  1.00  0.00     0.014 C 
ATOM      2  C   UNL     1     147.035 139.216 138.778  1.00  0.00    -0.006 C 
ATOM      3  C   UNL     1     147.802 140.575 138.630  1.00  0.00    -0.002 C 
ATOM      4  C   UNL     1     149.052 140.423 137.737  1.00  0.00     0.005 C 
ATOM      5  C   UNL     1     149.985 139.554 138.598  1.00  0.00     0.010 C 
ATOM      6  C   UNL     1     149.188 139.397 139.915  1.00  0.00    -0.006 C 
ATOM      7  C   UNL     1     148.469 140.728 139.987  1.00  0.00     0.013 C 
ATOM      8  C   UNL     1     148.024 138.389 139.671  1.00  0.00     0.126 C 
ATOM      9  C   UNL     1     150.081 139.088 141.123  1.00  0.00     0.014 C 
ATOM     10  C   UNL     1     146.777 138.504 137.426  1.00  0.00     0.014 C 
ENDROOT
BRANCH   8  11
ATOM     11  O   UNL     1     147.438 137.910 140.862  1.00  0.00    -0.392 OA
ATOM     12  H   UNL     1     147.373 136.923 140.815  1.00  0.00     0.211 HD
ENDBRANCH   8  11
TORSDOF 1
ENDMDL
MODEL 2
REMARK VINA RESULT:    -3.807      9.678     10.819
REMARK INTER + INTRA:          -3.918
REMARK INTER:                  -3.918
REMARK INTRA:                   0.000
REMARK UNBOUND:                 0.000
REMARK SMILES CC1(C)[C@@H]2CC[C@@](C)(C2)[C@H]1O
REMARK SMILES IDX 1 1 2 2 4 3 5 4 6 5 7 6 9 7 10 8 8 9 3 10 11 11
REMARK H PARENT 11 12
REMARK Flexibility Score: inf
ROOT
ATOM      1  C   UNL     1     142.087 145.643 139.430  1.00  0.00     0.014 C 
ATOM      2  C   UNL     1     142.333 147.035 138.789  1.00  0.00    -0.006 C 
ATOM      3  C   UNL     1     140.976 147.808 138.657  1.00  0.00    -0.002 C 
ATOM      4  C   UNL     1     141.128 149.068 137.778  1.00  0.00     0.005 C 
ATOM      5  C   UNL     1     142.004 149.988 138.645  1.00  0.00     0.010 C 
ATOM      6  C   UNL     1     142.164 149.175 139.952  1.00  0.00    -0.006 C 
ATOM      7  C   UNL     1     140.831 148.459 140.022  1.00  0.00     0.013 C 
ATOM      8  C   UNL     1     143.167 148.010 139.689  1.00  0.00     0.126 C 
ATOM      9  C   UNL     1     142.483 150.053 141.169  1.00  0.00     0.014 C 
ATOM     10  C   UNL     1     143.038 146.791 137.430  1.00  0.00     0.014 C 
ENDROOT
BRANCH   8  11
ATOM     11  O   UNL     1     143.650 147.409 140.871  1.00  0.00    -0.392 OA
ATOM     12  H   UNL     1     144.229 148.055 141.349  1.00  0.00     0.211 HD
ENDBRANCH   8  11
TORSDOF 1
ENDMDL
MODEL 3
REMARK VINA RESULT:    -3.796     12.802     15.190
REMARK INTER + INTRA:          -3.907
REMARK INTER:                  -3.907
REMARK INTRA:                   0.000
REMARK UNBOUND:                 0.000
REMARK SMILES CC1(C)[C@@H]2CC[C@@](C)(C2)[C@H]1O
REMARK SMILES IDX 1 1 2 2 4 3 5 4 6 5 7 6 9 7 10 8 8 9 3 10 11 11
REMARK H PARENT 11 12
REMARK Flexibility Score: inf
ROOT
ATOM      1  C   UNL     1     136.015 142.138 139.550  1.00  0.00     0.014 C 
ATOM      2  C   UNL     1     134.684 142.360 138.783  1.00  0.00    -0.006 C 
ATOM      3  C   UNL     1     133.950 140.989 138.581  1.00  0.00    -0.002 C 
ATOM      4  C   UNL     1     132.775 141.119 137.590  1.00  0.00     0.005 C 
ATOM      5  C   UNL     1     131.763 141.977 138.369  1.00  0.00     0.010 C 
ATOM      6  C   UNL     1     132.449 142.151 139.744  1.00  0.00    -0.006 C 
ATOM      7  C   UNL     1     133.179 140.831 139.880  1.00  0.00     0.013 C 
ATOM      8  C   UNL     1     133.614 143.175 139.590  1.00  0.00     0.126 C 
ATOM      9  C   UNL     1     131.457 142.452 140.876  1.00  0.00     0.014 C 
ATOM     10  C   UNL     1     135.039 143.071 137.453  1.00  0.00     0.014 C 
ENDROOT
BRANCH   8  11
ATOM     11  O   UNL     1     134.096 143.668 140.822  1.00  0.00    -0.392 OA
ATOM     12  H   UNL     1     134.468 144.575 140.683  1.00  0.00     0.211 HD
ENDBRANCH   8  11
TORSDOF 1
ENDMDL
MODEL 4
REMARK VINA RESULT:    -3.783      9.625     10.746
REMARK INTER + INTRA:          -3.893
REMARK INTER:                  -3.893
REMARK INTRA:                   0.000
REMARK UNBOUND:                 0.000
REMARK SMILES CC1(C)[C@@H]2CC[C@@](C)(C2)[C@H]1O
REMARK SMILES IDX 1 1 2 2 4 3 5 4 6 5 7 6 9 7 10 8 8 9 3 10 11 11
REMARK H PARENT 11 12
REMARK Flexibility Score: inf
ROOT
ATOM      1  C   UNL     1     139.498 135.912 139.298  1.00  0.00     0.014 C 
ATOM      2  C   UNL     1     139.270 134.502 138.691  1.00  0.00    -0.006 C 
ATOM      3  C   UNL     1     140.643 133.759 138.541  1.00  0.00    -0.002 C 
ATOM      4  C   UNL     1     140.501 132.478 137.692  1.00  0.00     0.005 C 
ATOM      5  C   UNL     1     139.669 131.555 138.600  1.00  0.00     0.010 C 
ATOM      6  C   UNL     1     139.521 132.391 139.893  1.00  0.00    -0.006 C 
ATOM      7  C   UNL     1     140.837 133.140 139.915  1.00  0.00     0.013 C 
ATOM      8  C   UNL     1     138.483 133.525 139.632  1.00  0.00     0.126 C 
ATOM      9  C   UNL     1     139.254 131.531 141.136  1.00  0.00     0.014 C 
ATOM     10  C   UNL     1     138.527 134.700 137.346  1.00  0.00     0.014 C 
ENDROOT
BRANCH   8  11
ATOM     11  O   UNL     1     138.014 134.139 140.813  1.00  0.00    -0.392 OA
ATOM     12  H   UNL     1     138.700 134.043 141.521  1.00  0.00     0.211 HD
ENDBRANCH   8  11
TORSDOF 1
ENDMDL
MODEL 5
REMARK VINA RESULT:    -3.704     14.397     15.383
REMARK INTER + INTRA:          -3.812
REMARK INTER:                  -3.812
REMARK INTRA:                   0.000
REMARK UNBOUND:                 0.000
REMARK SMILES CC1(C)[C@@H]2CC[C@@](C)(C2)[C@H]1O
REMARK SMILES IDX 1 1 2 2 4 3 5 4 6 5 7 6 9 7 10 8 8 9 3 10 11 11
REMARK H PARENT 11 12
REMARK Flexibility Score: inf
ROOT
ATOM      1  C   UNL     1     131.722 142.395 140.873  1.00  0.00     0.014 C 
ATOM      2  C   UNL     1     132.705 141.813 139.823  1.00  0.00    -0.006 C 
ATOM      3  C   UNL     1     132.069 141.902 138.392  1.00  0.00    -0.002 C 
ATOM      4  C   UNL     1     132.881 141.089 137.362  1.00  0.00     0.005 C 
ATOM      5  C   UNL     1     134.188 141.891 137.245  1.00  0.00     0.010 C 
ATOM      6  C   UNL     1     133.920 143.115 138.153  1.00  0.00    -0.006 C 
ATOM      7  C   UNL     1     132.431 143.311 137.955  1.00  0.00     0.013 C 
ATOM      8  C   UNL     1     134.014 142.657 139.640  1.00  0.00     0.126 C 
ATOM      9  C   UNL     1     134.779 144.332 137.786  1.00  0.00     0.014 C 
ATOM     10  C   UNL     1     133.033 140.364 140.262  1.00  0.00     0.014 C 
ENDROOT
BRANCH   8  11
ATOM     11  O   UNL     1     134.122 143.729 140.551  1.00  0.00    -0.392 OA
ATOM     12  H   UNL     1     133.892 144.573 140.086  1.00  0.00     0.211 HD
ENDBRANCH   8  11
TORSDOF 1
ENDMDL
MODEL 6
REMARK VINA RESULT:    -3.684      9.925     11.268
REMARK INTER + INTRA:          -3.791
REMARK INTER:                  -3.791
REMARK INTRA:                   0.000
REMARK UNBOUND:                 0.000
REMARK SMILES CC1(C)[C@@H]2CC[C@@](C)(C2)[C@H]1O
REMARK SMILES IDX 1 1 2 2 4 3 5 4 6 5 7 6 9 7 10 8 8 9 3 10 11 11
REMARK H PARENT 11 12
REMARK Flexibility Score: inf
ROOT
ATOM      1  C   UNL     1     139.147 131.632 140.924  1.00  0.00     0.014 C 
ATOM      2  C   UNL     1     139.798 132.587 139.889  1.00  0.00    -0.006 C 
ATOM      3  C   UNL     1     139.704 131.962 138.454  1.00  0.00    -0.002 C 
ATOM      4  C   UNL     1     140.577 132.735 137.443  1.00  0.00     0.005 C 
ATOM      5  C   UNL     1     139.845 134.082 137.317  1.00  0.00     0.010 C 
ATOM      6  C   UNL     1     138.592 133.874 138.201  1.00  0.00    -0.006 C 
ATOM      7  C   UNL     1     138.324 132.398 137.992  1.00  0.00     0.013 C 
ATOM      8  C   UNL     1     139.026 133.938 139.697  1.00  0.00     0.126 C 
ATOM      9  C   UNL     1     137.428 134.796 137.816  1.00  0.00     0.014 C 
ATOM     10  C   UNL     1     141.254 132.839 140.356  1.00  0.00     0.014 C 
ENDROOT
BRANCH   8  11
ATOM     11  O   UNL     1     137.944 134.098 140.589  1.00  0.00    -0.392 OA
ATOM     12  H   UNL     1     137.409 134.884 140.310  1.00  0.00     0.211 HD
ENDBRANCH   8  11
TORSDOF 1
ENDMDL
MODEL 7
REMARK VINA RESULT:    -3.679      9.768     10.910
REMARK INTER + INTRA:          -3.786
REMARK INTER:                  -3.786
REMARK INTRA:                   0.000
REMARK UNBOUND:                 0.000
REMARK SMILES CC1(C)[C@@H]2CC[C@@](C)(C2)[C@H]1O
REMARK SMILES IDX 1 1 2 2 4 3 5 4 6 5 7 6 9 7 10 8 8 9 3 10 11 11
REMARK H PARENT 11 12
REMARK Flexibility Score: inf
ROOT
ATOM      1  C   UNL     1     142.373 149.831 140.918  1.00  0.00     0.014 C 
ATOM      2  C   UNL     1     141.793 148.896 139.824  1.00  0.00    -0.006 C 
ATOM      3  C   UNL     1     141.914 149.582 138.419  1.00  0.00    -0.002 C 
ATOM      4  C   UNL     1     141.105 148.820 137.348  1.00  0.00     0.005 C 
ATOM      5  C   UNL     1     141.890 147.506 137.195  1.00  0.00     0.010 C 
ATOM      6  C   UNL     1     143.103 147.721 138.131  1.00  0.00    -0.006 C 
ATOM      7  C   UNL     1     143.324 149.213 137.990  1.00  0.00     0.013 C 
ATOM      8  C   UNL     1     142.620 147.582 139.607  1.00  0.00     0.126 C 
ATOM      9  C   UNL     1     144.313 146.857 137.752  1.00  0.00     0.014 C 
ATOM     10  C   UNL     1     140.332 148.575 140.228  1.00  0.00     0.014 C 
ENDROOT
BRANCH   8  11
ATOM     11  O   UNL     1     143.676 147.424 140.530  1.00  0.00    -0.392 OA
ATOM     12  H   UNL     1     144.365 146.833 140.134  1.00  0.00     0.211 HD
ENDBRANCH   8  11
TORSDOF 1
ENDMDL
MODEL 8
REMARK VINA RESULT:    -3.598      0.958      3.075
REMARK INTER + INTRA:          -3.703
REMARK INTER:                  -3.703
REMARK INTRA:                   0.000
REMARK UNBOUND:                 0.000
REMARK SMILES CC1(C)[C@@H]2CC[C@@](C)(C2)[C@H]1O
REMARK SMILES IDX 1 1 2 2 4 3 5 4 6 5 7 6 9 7 10 8 8 9 3 10 11 11
REMARK H PARENT 11 12
REMARK Flexibility Score: inf
ROOT
ATOM      1  C   UNL     1     149.958 138.966 140.599  1.00  0.00     0.014 C 
ATOM      2  C   UNL     1     148.902 139.792 139.818  1.00  0.00    -0.006 C 
ATOM      3  C   UNL     1     149.286 139.845 138.298  1.00  0.00    -0.002 C 
ATOM      4  C   UNL     1     148.429 140.878 137.536  1.00  0.00     0.005 C 
ATOM      5  C   UNL     1     147.030 140.239 137.549  1.00  0.00     0.010 C 
ATOM      6  C   UNL     1     147.282 138.876 138.236  1.00  0.00    -0.006 C 
ATOM      7  C   UNL     1     148.684 138.559 137.759  1.00  0.00     0.013 C 
ATOM      8  C   UNL     1     147.485 139.122 139.762  1.00  0.00     0.126 C 
ATOM      9  C   UNL     1     146.230 137.819 137.876  1.00  0.00     0.014 C 
ATOM     10  C   UNL     1     148.832 141.189 140.485  1.00  0.00     0.014 C 
ENDROOT
BRANCH   8  11
ATOM     11  O   UNL     1     147.389 137.947 140.538  1.00  0.00    -0.392 OA
ATOM     12  H   UNL     1     146.642 137.394 140.196  1.00  0.00     0.211 HD
ENDBRANCH   8  11
TORSDOF 1
ENDMDL
MODEL 9
REMARK VINA RESULT:    -3.572      8.884     10.637
REMARK INTER + INTRA:          -3.677
REMARK INTER:                  -3.677
REMARK INTRA:                   0.000
REMARK UNBOUND:                 0.000
REMARK SMILES CC1(C)[C@@H]2CC[C@@](C)(C2)[C@H]1O
REMARK SMILES IDX 1 1 2 2 4 3 5 4 6 5 7 6 9 7 10 8 8 9 3 10 11 11
REMARK H PARENT 11 12
REMARK Flexibility Score: inf
ROOT
ATOM      1  C   UNL     1     141.748 133.762 137.282  1.00  0.00     0.014 C 
ATOM      2  C   UNL     1     140.545 133.877 138.256  1.00  0.00    -0.006 C 
ATOM      3  C   UNL     1     139.433 132.849 137.852  1.00  0.00    -0.002 C 
ATOM      4  C   UNL     1     138.115 133.116 138.609  1.00  0.00     0.005 C 
ATOM      5  C   UNL     1     138.469 132.739 140.058  1.00  0.00     0.010 C 
ATOM      6  C   UNL     1     139.919 132.213 139.929  1.00  0.00    -0.006 C 
ATOM      7  C   UNL     1     139.883 131.579 138.554  1.00  0.00     0.013 C 
ATOM      8  C   UNL     1     140.870 133.431 139.724  1.00  0.00     0.126 C 
ATOM      9  C   UNL     1     140.312 131.257 141.063  1.00  0.00     0.014 C 
ATOM     10  C   UNL     1     140.067 135.351 138.215  1.00  0.00     0.014 C 
ENDROOT
BRANCH   8  11
ATOM     11  O   UNL     1     142.232 133.120 139.927  1.00  0.00    -0.392 OA
ATOM     12  H   UNL     1     142.454 132.298 139.421  1.00  0.00     0.211 HD
ENDBRANCH   8  11
TORSDOF 1
ENDMDL
