MODEL 1
REMARK VINA RESULT:    -6.588      0.000      0.000
REMARK INTER + INTRA:          -8.125
REMARK INTER:                  -7.936
REMARK INTRA:                  -0.189
REMARK UNBOUND:                -0.189
REMARK SMILES O=c1c(O)c(-c2ccc(O)c(O)c2)oc2cc(O)cc(O)c12
REMARK SMILES IDX 5 1 3 2 2 3 1 4 22 5 20 6 19 7 17 8 16 9 15 10 14 11 6 12
REMARK SMILES IDX 7 13 8 14 9 15 13 16 11 17 10 18 12 20 4 22 21 24 18 26
REMARK H PARENT 10 19 12 21 4 23 21 25 18 27
REMARK Flexibility Score: inf
ROOT
ATOM      1  C   UNL     1      -1.263  40.093  32.568  1.00  0.00     0.180 A 
ATOM      2  C   UNL     1      -1.361  38.900  33.311  1.00  0.00     0.208 A 
ATOM      3  C   UNL     1      -0.316  38.554  34.180  1.00  0.00     0.238 A 
ATOM      4  O   UNL     1      -0.397  37.495  34.859  1.00  0.00    -0.285 OA
ATOM      5  C   UNL     1       0.815  39.392  34.279  1.00  0.00     0.111 A 
ATOM      6  C   UNL     1       1.913  39.112  35.128  1.00  0.00     0.134 A 
ATOM      7  C   UNL     1       3.006  39.992  35.163  1.00  0.00     0.093 A 
ATOM      8  C   UNL     1       3.022  41.141  34.364  1.00  0.00     0.123 A 
ATOM      9  C   UNL     1       1.942  41.420  33.526  1.00  0.00     0.094 A 
ATOM     10  C   UNL     1       0.842  40.558  33.478  1.00  0.00     0.146 A 
ATOM     11  O   UNL     1      -0.175  40.850  32.675  1.00  0.00    -0.452 OA
ENDROOT
BRANCH   1  12
ATOM     12  C   UNL     1      -2.332  40.536  31.644  1.00  0.00     0.025 A 
ATOM     13  C   UNL     1      -3.078  41.702  31.893  1.00  0.00     0.016 A 
ATOM     14  C   UNL     1      -4.066  42.113  30.996  1.00  0.00     0.051 A 
ATOM     15  C   UNL     1      -4.314  41.374  29.831  1.00  0.00     0.157 A 
ATOM     16  C   UNL     1      -2.571  39.812  30.465  1.00  0.00     0.062 A 
ATOM     17  C   UNL     1      -3.563  40.223  29.564  1.00  0.00     0.158 A 
BRANCH  15  18
ATOM     18  O   UNL     1      -5.301  41.781  28.934  1.00  0.00    -0.504 OA
ATOM     19  H   UNL     1      -5.417  41.331  28.034  1.00  0.00     0.293 HD
ENDBRANCH  15  18
BRANCH  17  20
ATOM     20  O   UNL     1      -3.807  39.494  28.401  1.00  0.00    -0.504 OA
ATOM     21  H   UNL     1      -3.698  38.488  28.374  1.00  0.00     0.293 HD
ENDBRANCH  17  20
ENDBRANCH   1  12
BRANCH   2  22
ATOM     22  O   UNL     1      -2.470  38.064  33.158  1.00  0.00    -0.502 OA
ATOM     23  H   UNL     1      -2.911  37.599  33.943  1.00  0.00     0.293 HD
ENDBRANCH   2  22
BRANCH   6  24
ATOM     24  O   UNL     1       1.927  37.974  35.935  1.00  0.00    -0.507 OA
ATOM     25  H   UNL     1       2.773  37.437  36.086  1.00  0.00     0.293 HD
ENDBRANCH   6  24
BRANCH   8  26
ATOM     26  O   UNL     1       4.108  42.013  34.398  1.00  0.00    -0.508 OA
ATOM     27  H   UNL     1       5.034  41.718  34.114  1.00  0.00     0.293 HD
ENDBRANCH   8  26
TORSDOF 6
ENDMDL
MODEL 2
REMARK VINA RESULT:    -5.939     12.490     15.127
REMARK INTER + INTRA:          -7.343
REMARK INTER:                  -7.125
REMARK INTRA:                  -0.218
REMARK UNBOUND:                -0.189
REMARK SMILES O=c1c(O)c(-c2ccc(O)c(O)c2)oc2cc(O)cc(O)c12
REMARK SMILES IDX 5 1 3 2 2 3 1 4 22 5 20 6 19 7 17 8 16 9 15 10 14 11 6 12
REMARK SMILES IDX 7 13 8 14 9 15 13 16 11 17 10 18 12 20 4 22 21 24 18 26
REMARK H PARENT 10 19 12 21 4 23 21 25 18 27
REMARK Flexibility Score: inf
ROOT
ATOM      1  C   UNL     1      -1.220  26.246  36.954  1.00  0.00     0.180 A 
ATOM      2  C   UNL     1      -0.502  25.210  36.327  1.00  0.00     0.208 A 
ATOM      3  C   UNL     1       0.149  25.475  35.112  1.00  0.00     0.238 A 
ATOM      4  O   UNL     1       0.805  24.559  34.546  1.00  0.00    -0.285 OA
ATOM      5  C   UNL     1       0.056  26.761  34.538  1.00  0.00     0.111 A 
ATOM      6  C   UNL     1       0.679  27.108  33.315  1.00  0.00     0.134 A 
ATOM      7  C   UNL     1       0.532  28.407  32.804  1.00  0.00     0.093 A 
ATOM      8  C   UNL     1      -0.227  29.361  33.491  1.00  0.00     0.123 A 
ATOM      9  C   UNL     1      -0.843  29.022  34.697  1.00  0.00     0.094 A 
ATOM     10  C   UNL     1      -0.706  27.734  35.224  1.00  0.00     0.146 A 
ATOM     11  O   UNL     1      -1.299  27.441  36.376  1.00  0.00    -0.452 OA
ENDROOT
BRANCH   1  12
ATOM     12  C   UNL     1      -1.918  26.050  38.246  1.00  0.00     0.025 A 
ATOM     13  C   UNL     1      -1.467  26.672  39.424  1.00  0.00     0.016 A 
ATOM     14  C   UNL     1      -2.154  26.491  40.626  1.00  0.00     0.051 A 
ATOM     15  C   UNL     1      -3.309  25.698  40.667  1.00  0.00     0.157 A 
ATOM     16  C   UNL     1      -3.088  25.274  38.289  1.00  0.00     0.062 A 
ATOM     17  C   UNL     1      -3.778  25.091  39.496  1.00  0.00     0.158 A 
BRANCH  15  18
ATOM     18  O   UNL     1      -3.997  25.514  41.866  1.00  0.00    -0.504 OA
ATOM     19  H   UNL     1      -3.987  26.216  42.596  1.00  0.00     0.293 HD
ENDBRANCH  15  18
BRANCH  17  20
ATOM     20  O   UNL     1      -4.931  24.308  39.538  1.00  0.00    -0.504 OA
ATOM     21  H   UNL     1      -5.189  23.789  40.368  1.00  0.00     0.293 HD
ENDBRANCH  17  20
ENDBRANCH   1  12
BRANCH   2  22
ATOM     22  O   UNL     1      -0.466  23.933  36.892  1.00  0.00    -0.502 OA
ATOM     23  H   UNL     1      -0.233  23.778  37.866  1.00  0.00     0.293 HD
ENDBRANCH   2  22
BRANCH   6  24
ATOM     24  O   UNL     1       1.441  26.178  32.606  1.00  0.00    -0.507 OA
ATOM     25  H   UNL     1       1.199  25.194  32.586  1.00  0.00     0.293 HD
ENDBRANCH   6  24
BRANCH   8  26
ATOM     26  O   UNL     1      -0.374  30.650  32.984  1.00  0.00    -0.508 OA
ATOM     27  H   UNL     1      -0.292  30.842  31.993  1.00  0.00     0.293 HD
ENDBRANCH   8  26
TORSDOF 6
ENDMDL
MODEL 3
REMARK VINA RESULT:    -5.885     12.512     14.838
REMARK INTER + INTRA:          -7.278
REMARK INTER:                  -7.009
REMARK INTRA:                  -0.269
REMARK UNBOUND:                -0.189
REMARK SMILES O=c1c(O)c(-c2ccc(O)c(O)c2)oc2cc(O)cc(O)c12
REMARK SMILES IDX 5 1 3 2 2 3 1 4 22 5 20 6 19 7 17 8 16 9 15 10 14 11 6 12
REMARK SMILES IDX 7 13 8 14 9 15 13 16 11 17 10 18 12 20 4 22 21 24 18 26
REMARK H PARENT 10 19 12 21 4 23 21 25 18 27
REMARK Flexibility Score: inf
ROOT
ATOM      1  C   UNL     1      -1.265  26.543  35.894  1.00  0.00     0.180 A 
ATOM      2  C   UNL     1      -2.644  26.271  35.806  1.00  0.00     0.208 A 
ATOM      3  C   UNL     1      -3.294  25.698  36.909  1.00  0.00     0.238 A 
ATOM      4  O   UNL     1      -4.531  25.460  36.847  1.00  0.00    -0.285 OA
ATOM      5  C   UNL     1      -2.555  25.391  38.071  1.00  0.00     0.111 A 
ATOM      6  C   UNL     1      -3.135  24.808  39.225  1.00  0.00     0.134 A 
ATOM      7  C   UNL     1      -2.330  24.523  40.338  1.00  0.00     0.093 A 
ATOM      8  C   UNL     1      -0.959  24.808  40.319  1.00  0.00     0.123 A 
ATOM      9  C   UNL     1      -0.385  25.381  39.183  1.00  0.00     0.094 A 
ATOM     10  C   UNL     1      -1.170  25.675  38.064  1.00  0.00     0.146 A 
ATOM     11  O   UNL     1      -0.598  26.226  36.999  1.00  0.00    -0.452 OA
ENDROOT
BRANCH   1  12
ATOM     12  C   UNL     1      -0.512  27.164  34.780  1.00  0.00     0.025 A 
ATOM     13  C   UNL     1       0.307  26.397  33.932  1.00  0.00     0.016 A 
ATOM     14  C   UNL     1       0.989  27.001  32.873  1.00  0.00     0.051 A 
ATOM     15  C   UNL     1       0.853  28.375  32.637  1.00  0.00     0.157 A 
ATOM     16  C   UNL     1      -0.662  28.537  34.525  1.00  0.00     0.062 A 
ATOM     17  C   UNL     1       0.023  29.144  33.463  1.00  0.00     0.158 A 
BRANCH  15  18
ATOM     18  O   UNL     1       1.533  28.981  31.582  1.00  0.00    -0.504 OA
ATOM     19  H   UNL     1       1.061  29.236  30.724  1.00  0.00     0.293 HD
ENDBRANCH  15  18
BRANCH  17  20
ATOM     20  O   UNL     1      -0.116  30.510  33.221  1.00  0.00    -0.504 OA
ATOM     21  H   UNL     1       0.477  31.192  33.678  1.00  0.00     0.293 HD
ENDBRANCH  17  20
ENDBRANCH   1  12
BRANCH   2  22
ATOM     22  O   UNL     1      -3.343  26.541  34.626  1.00  0.00    -0.502 OA
ATOM     23  H   UNL     1      -3.094  27.308  34.012  1.00  0.00     0.293 HD
ENDBRANCH   2  22
BRANCH   6  24
ATOM     24  O   UNL     1      -4.497  24.513  39.274  1.00  0.00    -0.507 OA
ATOM     25  H   UNL     1      -5.017  24.535  40.144  1.00  0.00     0.293 HD
ENDBRANCH   6  24
BRANCH   8  26
ATOM     26  O   UNL     1      -0.160  24.523  41.424  1.00  0.00    -0.508 OA
ATOM     27  H   UNL     1      -0.546  24.117  42.266  1.00  0.00     0.293 HD
ENDBRANCH   8  26
TORSDOF 6
ENDMDL
MODEL 4
REMARK VINA RESULT:    -5.883     13.017     14.807
REMARK INTER + INTRA:          -7.275
REMARK INTER:                  -6.945
REMARK INTRA:                  -0.330
REMARK UNBOUND:                -0.189
REMARK SMILES O=c1c(O)c(-c2ccc(O)c(O)c2)oc2cc(O)cc(O)c12
REMARK SMILES IDX 5 1 3 2 2 3 1 4 22 5 20 6 19 7 17 8 16 9 15 10 14 11 6 12
REMARK SMILES IDX 7 13 8 14 9 15 13 16 11 17 10 18 12 20 4 22 21 24 18 26
REMARK H PARENT 10 19 12 21 4 23 21 25 18 27
REMARK Flexibility Score: inf
ROOT
ATOM      1  C   UNL     1       2.075  26.738  30.828  1.00  0.00     0.180 A 
ATOM      2  C   UNL     1       1.640  26.595  29.496  1.00  0.00     0.208 A 
ATOM      3  C   UNL     1       2.505  26.008  28.560  1.00  0.00     0.238 A 
ATOM      4  O   UNL     1       2.123  25.864  27.367  1.00  0.00    -0.285 OA
ATOM      5  C   UNL     1       3.792  25.593  28.964  1.00  0.00     0.111 A 
ATOM      6  C   UNL     1       4.724  24.997  28.081  1.00  0.00     0.134 A 
ATOM      7  C   UNL     1       5.989  24.619  28.557  1.00  0.00     0.093 A 
ATOM      8  C   UNL     1       6.338  24.828  29.896  1.00  0.00     0.123 A 
ATOM      9  C   UNL     1       5.421  25.416  30.770  1.00  0.00     0.094 A 
ATOM     10  C   UNL     1       4.155  25.798  30.315  1.00  0.00     0.146 A 
ATOM     11  O   UNL     1       3.301  26.350  31.169  1.00  0.00    -0.452 OA
ENDROOT
BRANCH   1  12
ATOM     12  C   UNL     1       1.215  27.330  31.878  1.00  0.00     0.025 A 
ATOM     13  C   UNL     1       0.287  26.550  32.591  1.00  0.00     0.016 A 
ATOM     14  C   UNL     1      -0.497  27.125  33.593  1.00  0.00     0.051 A 
ATOM     15  C   UNL     1      -0.358  28.483  33.907  1.00  0.00     0.157 A 
ATOM     16  C   UNL     1       1.365  28.686  32.212  1.00  0.00     0.062 A 
ATOM     17  C   UNL     1       0.577  29.264  33.217  1.00  0.00     0.158 A 
BRANCH  15  18
ATOM     18  O   UNL     1      -1.140  29.061  34.906  1.00  0.00    -0.504 OA
ATOM     19  H   UNL     1      -0.891  28.986  35.884  1.00  0.00     0.293 HD
ENDBRANCH  15  18
BRANCH  17  20
ATOM     20  O   UNL     1       0.720  30.614  33.537  1.00  0.00    -0.504 OA
ATOM     21  H   UNL     1       0.749  30.931  34.498  1.00  0.00     0.293 HD
ENDBRANCH  17  20
ENDBRANCH   1  12
BRANCH   2  22
ATOM     22  O   UNL     1       0.379  27.058  29.112  1.00  0.00    -0.502 OA
ATOM     23  H   UNL     1      -0.443  26.935  29.691  1.00  0.00     0.293 HD
ENDBRANCH   2  22
BRANCH   6  24
ATOM     24  O   UNL     1       4.406  24.776  26.740  1.00  0.00    -0.507 OA
ATOM     25  H   UNL     1       3.690  25.314  26.266  1.00  0.00     0.293 HD
ENDBRANCH   6  24
BRANCH   8  26
ATOM     26  O   UNL     1       7.594  24.455  30.369  1.00  0.00    -0.508 OA
ATOM     27  H   UNL     1       8.223  25.127  30.790  1.00  0.00     0.293 HD
ENDBRANCH   8  26
TORSDOF 6
ENDMDL
MODEL 5
REMARK VINA RESULT:    -5.774     12.482     15.066
REMARK INTER + INTRA:          -7.145
REMARK INTER:                  -6.815
REMARK INTRA:                  -0.330
REMARK UNBOUND:                -0.189
REMARK SMILES O=c1c(O)c(-c2ccc(O)c(O)c2)oc2cc(O)cc(O)c12
REMARK SMILES IDX 5 1 3 2 2 3 1 4 22 5 20 6 19 7 17 8 16 9 15 10 14 11 6 12
REMARK SMILES IDX 7 13 8 14 9 15 13 16 11 17 10 18 12 20 4 22 21 24 18 26
REMARK H PARENT 10 19 12 21 4 23 21 25 18 27
REMARK Flexibility Score: inf
ROOT
ATOM      1  C   UNL     1      -1.640  26.674  36.025  1.00  0.00     0.180 A 
ATOM      2  C   UNL     1      -1.196  26.583  37.358  1.00  0.00     0.208 A 
ATOM      3  C   UNL     1      -2.031  25.981  38.312  1.00  0.00     0.238 A 
ATOM      4  O   UNL     1      -1.641  25.884  39.506  1.00  0.00    -0.285 OA
ATOM      5  C   UNL     1      -3.299  25.500  37.923  1.00  0.00     0.111 A 
ATOM      6  C   UNL     1      -4.203  24.885  38.823  1.00  0.00     0.134 A 
ATOM      7  C   UNL     1      -5.450  24.439  38.361  1.00  0.00     0.093 A 
ATOM      8  C   UNL     1      -5.811  24.600  37.018  1.00  0.00     0.123 A 
ATOM      9  C   UNL     1      -4.924  25.207  36.127  1.00  0.00     0.094 A 
ATOM     10  C   UNL     1      -3.674  25.655  36.568  1.00  0.00     0.146 A 
ATOM     11  O   UNL     1      -2.848  26.223  35.698  1.00  0.00    -0.452 OA
ENDROOT
BRANCH   1  12
ATOM     12  C   UNL     1      -0.809  27.278  34.957  1.00  0.00     0.025 A 
ATOM     13  C   UNL     1       0.129  26.515  34.240  1.00  0.00     0.016 A 
ATOM     14  C   UNL     1       0.885  27.100  33.222  1.00  0.00     0.051 A 
ATOM     15  C   UNL     1       0.705  28.451  32.896  1.00  0.00     0.157 A 
ATOM     16  C   UNL     1      -1.000  28.626  34.612  1.00  0.00     0.062 A 
ATOM     17  C   UNL     1      -0.241  29.214  33.591  1.00  0.00     0.158 A 
BRANCH  15  18
ATOM     18  O   UNL     1       1.459  29.039  31.882  1.00  0.00    -0.504 OA
ATOM     19  H   UNL     1       2.432  29.284  32.018  1.00  0.00     0.293 HD
ENDBRANCH  15  18
BRANCH  17  20
ATOM     20  O   UNL     1      -0.423  30.556  33.260  1.00  0.00    -0.504 OA
ATOM     21  H   UNL     1      -0.357  30.880  32.302  1.00  0.00     0.293 HD
ENDBRANCH  17  20
ENDBRANCH   1  12
BRANCH   2  22
ATOM     22  O   UNL     1       0.044  27.112  37.726  1.00  0.00    -0.502 OA
ATOM     23  H   UNL     1       0.836  27.125  37.095  1.00  0.00     0.293 HD
ENDBRANCH   2  22
BRANCH   6  24
ATOM     24  O   UNL     1      -3.871  24.711  40.168  1.00  0.00    -0.507 OA
ATOM     25  H   UNL     1      -3.634  23.801  40.546  1.00  0.00     0.293 HD
ENDBRANCH   6  24
BRANCH   8  26
ATOM     26  O   UNL     1      -7.051  24.160  36.559  1.00  0.00    -0.508 OA
ATOM     27  H   UNL     1      -7.130  23.521  35.778  1.00  0.00     0.293 HD
ENDBRANCH   8  26
TORSDOF 6
ENDMDL
MODEL 6
REMARK VINA RESULT:    -5.738     12.423     15.125
REMARK INTER + INTRA:          -7.101
REMARK INTER:                  -6.843
REMARK INTRA:                  -0.258
REMARK UNBOUND:                -0.189
REMARK SMILES O=c1c(O)c(-c2ccc(O)c(O)c2)oc2cc(O)cc(O)c12
REMARK SMILES IDX 5 1 3 2 2 3 1 4 22 5 20 6 19 7 17 8 16 9 15 10 14 11 6 12
REMARK SMILES IDX 7 13 8 14 9 15 13 16 11 17 10 18 12 20 4 22 21 24 18 26
REMARK H PARENT 10 19 12 21 4 23 21 25 18 27
REMARK Flexibility Score: inf
ROOT
ATOM      1  C   UNL     1      -1.218  26.769  36.706  1.00  0.00     0.180 A 
ATOM      2  C   UNL     1      -1.447  27.983  36.028  1.00  0.00     0.208 A 
ATOM      3  C   UNL     1      -0.824  28.195  34.788  1.00  0.00     0.238 A 
ATOM      4  O   UNL     1      -1.030  29.272  34.167  1.00  0.00    -0.285 OA
ATOM      5  C   UNL     1       0.028  27.204  34.257  1.00  0.00     0.111 A 
ATOM      6  C   UNL     1       0.696  27.342  33.017  1.00  0.00     0.134 A 
ATOM      7  C   UNL     1       1.535  26.313  32.561  1.00  0.00     0.093 A 
ATOM      8  C   UNL     1       1.720  25.154  33.322  1.00  0.00     0.123 A 
ATOM      9  C   UNL     1       1.063  25.014  34.546  1.00  0.00     0.094 A 
ATOM     10  C   UNL     1       0.220  26.026  35.017  1.00  0.00     0.146 A 
ATOM     11  O   UNL     1      -0.396  25.864  36.182  1.00  0.00    -0.452 OA
ENDROOT
BRANCH   1  12
ATOM     12  C   UNL     1      -1.853  26.463  38.008  1.00  0.00     0.025 A 
ATOM     13  C   UNL     1      -1.421  27.080  39.196  1.00  0.00     0.016 A 
ATOM     14  C   UNL     1      -2.051  26.793  40.409  1.00  0.00     0.051 A 
ATOM     15  C   UNL     1      -3.127  25.897  40.452  1.00  0.00     0.157 A 
ATOM     16  C   UNL     1      -2.946  25.583  38.054  1.00  0.00     0.062 A 
ATOM     17  C   UNL     1      -3.577  25.294  39.272  1.00  0.00     0.158 A 
BRANCH  15  18
ATOM     18  O   UNL     1      -3.757  25.607  41.662  1.00  0.00    -0.504 OA
ATOM     19  H   UNL     1      -4.738  25.360  41.703  1.00  0.00     0.293 HD
ENDBRANCH  15  18
BRANCH  17  20
ATOM     20  O   UNL     1      -4.654  24.408  39.316  1.00  0.00    -0.504 OA
ATOM     21  H   UNL     1      -4.539  23.450  39.623  1.00  0.00     0.293 HD
ENDBRANCH  17  20
ENDBRANCH   1  12
BRANCH   2  22
ATOM     22  O   UNL     1      -2.257  28.968  36.599  1.00  0.00    -0.502 OA
ATOM     23  H   UNL     1      -3.257  28.850  36.708  1.00  0.00     0.293 HD
ENDBRANCH   2  22
BRANCH   6  24
ATOM     24  O   UNL     1       0.533  28.487  32.236  1.00  0.00    -0.507 OA
ATOM     25  H   UNL     1      -0.166  29.187  32.456  1.00  0.00     0.293 HD
ENDBRANCH   6  24
BRANCH   8  26
ATOM     26  O   UNL     1       2.554  24.134  32.870  1.00  0.00    -0.508 OA
ATOM     27  H   UNL     1       2.695  23.963  31.883  1.00  0.00     0.293 HD
ENDBRANCH   8  26
TORSDOF 6
ENDMDL
MODEL 7
REMARK VINA RESULT:    -5.621     12.377     14.694
REMARK INTER + INTRA:          -6.960
REMARK INTER:                  -6.642
REMARK INTRA:                  -0.318
REMARK UNBOUND:                -0.189
REMARK SMILES O=c1c(O)c(-c2ccc(O)c(O)c2)oc2cc(O)cc(O)c12
REMARK SMILES IDX 5 1 3 2 2 3 1 4 22 5 20 6 19 7 17 8 16 9 15 10 14 11 6 12
REMARK SMILES IDX 7 13 8 14 9 15 13 16 11 17 10 18 12 20 4 22 21 24 18 26
REMARK H PARENT 10 19 12 21 4 23 21 25 18 27
REMARK Flexibility Score: inf
ROOT
ATOM      1  C   UNL     1      -1.347  26.816  35.504  1.00  0.00     0.180 A 
ATOM      2  C   UNL     1      -2.707  26.508  35.310  1.00  0.00     0.208 A 
ATOM      3  C   UNL     1      -3.430  25.935  36.368  1.00  0.00     0.238 A 
ATOM      4  O   UNL     1      -4.651  25.665  36.210  1.00  0.00    -0.285 OA
ATOM      5  C   UNL     1      -2.780  25.664  37.590  1.00  0.00     0.111 A 
ATOM      6  C   UNL     1      -3.436  25.084  38.703  1.00  0.00     0.134 A 
ATOM      7  C   UNL     1      -2.717  24.837  39.883  1.00  0.00     0.093 A 
ATOM      8  C   UNL     1      -1.357  25.155  39.968  1.00  0.00     0.123 A 
ATOM      9  C   UNL     1      -0.707  25.726  38.873  1.00  0.00     0.094 A 
ATOM     10  C   UNL     1      -1.406  25.983  37.689  1.00  0.00     0.146 A 
ATOM     11  O   UNL     1      -0.764  26.532  36.665  1.00  0.00    -0.452 OA
ENDROOT
BRANCH   1  12
ATOM     12  C   UNL     1      -0.522  27.439  34.444  1.00  0.00     0.025 A 
ATOM     13  C   UNL     1      -0.558  28.825  34.207  1.00  0.00     0.016 A 
ATOM     14  C   UNL     1       0.247  29.393  33.217  1.00  0.00     0.051 A 
ATOM     15  C   UNL     1       1.108  28.589  32.459  1.00  0.00     0.157 A 
ATOM     16  C   UNL     1       0.359  26.641  33.695  1.00  0.00     0.062 A 
ATOM     17  C   UNL     1       1.166  27.211  32.700  1.00  0.00     0.158 A 
BRANCH  15  18
ATOM     18  O   UNL     1       1.911  29.152  31.468  1.00  0.00    -0.504 OA
ATOM     19  H   UNL     1       1.831  30.129  31.212  1.00  0.00     0.293 HD
ENDBRANCH  15  18
BRANCH  17  20
ATOM     20  O   UNL     1       2.029  26.414  31.950  1.00  0.00    -0.504 OA
ATOM     21  H   UNL     1       3.026  26.400  32.126  1.00  0.00     0.293 HD
ENDBRANCH  17  20
ENDBRANCH   1  12
BRANCH   2  22
ATOM     22  O   UNL     1      -3.315  26.742  34.074  1.00  0.00    -0.502 OA
ATOM     23  H   UNL     1      -4.221  27.187  33.991  1.00  0.00     0.293 HD
ENDBRANCH   2  22
BRANCH   6  24
ATOM     24  O   UNL     1      -4.791  24.755  38.648  1.00  0.00    -0.507 OA
ATOM     25  H   UNL     1      -5.471  25.186  39.264  1.00  0.00     0.293 HD
ENDBRANCH   6  24
BRANCH   8  26
ATOM     26  O   UNL     1      -0.643  24.908  41.138  1.00  0.00    -0.508 OA
ATOM     27  H   UNL     1      -1.063  24.428  41.924  1.00  0.00     0.293 HD
ENDBRANCH   8  26
TORSDOF 6
ENDMDL
MODEL 8
REMARK VINA RESULT:    -5.488     13.085     15.112
REMARK INTER + INTRA:          -6.799
REMARK INTER:                  -6.639
REMARK INTRA:                  -0.161
REMARK UNBOUND:                -0.189
REMARK SMILES O=c1c(O)c(-c2ccc(O)c(O)c2)oc2cc(O)cc(O)c12
REMARK SMILES IDX 5 1 3 2 2 3 1 4 22 5 20 6 19 7 17 8 16 9 15 10 14 11 6 12
REMARK SMILES IDX 7 13 8 14 9 15 13 16 11 17 10 18 12 20 4 22 21 24 18 26
REMARK H PARENT 10 19 12 21 4 23 21 25 18 27
REMARK Flexibility Score: inf
ROOT
ATOM      1  C   UNL     1       1.903  26.576  31.190  1.00  0.00     0.180 A 
ATOM      2  C   UNL     1       3.300  26.489  31.338  1.00  0.00     0.208 A 
ATOM      3  C   UNL     1       4.049  25.846  30.340  1.00  0.00     0.238 A 
ATOM      4  O   UNL     1       5.302  25.771  30.456  1.00  0.00    -0.285 OA
ATOM      5  C   UNL     1       3.390  25.287  29.225  1.00  0.00     0.111 A 
ATOM      6  C   UNL     1       4.071  24.619  28.179  1.00  0.00     0.134 A 
ATOM      7  C   UNL     1       3.342  24.081  27.107  1.00  0.00     0.093 A 
ATOM      8  C   UNL     1       1.948  24.197  27.064  1.00  0.00     0.123 A 
ATOM      9  C   UNL     1       1.273  24.854  28.094  1.00  0.00     0.094 A 
ATOM     10  C   UNL     1       1.981  25.399  29.170  1.00  0.00     0.146 A 
ATOM     11  O   UNL     1       1.314  26.024  30.133  1.00  0.00    -0.452 OA
ENDROOT
BRANCH   1  12
ATOM     12  C   UNL     1       1.046  27.255  32.189  1.00  0.00     0.025 A 
ATOM     13  C   UNL     1       0.122  26.538  32.970  1.00  0.00     0.016 A 
ATOM     14  C   UNL     1      -0.659  27.196  33.923  1.00  0.00     0.051 A 
ATOM     15  C   UNL     1      -0.519  28.577  34.119  1.00  0.00     0.157 A 
ATOM     16  C   UNL     1       1.196  28.635  32.405  1.00  0.00     0.062 A 
ATOM     17  C   UNL     1       0.412  29.296  33.361  1.00  0.00     0.158 A 
BRANCH  15  18
ATOM     18  O   UNL     1      -1.298  29.237  35.068  1.00  0.00    -0.504 OA
ATOM     19  H   UNL     1      -1.819  28.730  35.773  1.00  0.00     0.293 HD
ENDBRANCH  15  18
BRANCH  17  20
ATOM     20  O   UNL     1       0.555  30.669  33.563  1.00  0.00    -0.504 OA
ATOM     21  H   UNL     1      -0.069  31.336  33.126  1.00  0.00     0.293 HD
ENDBRANCH  17  20
ENDBRANCH   1  12
BRANCH   2  22
ATOM     22  O   UNL     1       3.923  27.009  32.475  1.00  0.00    -0.502 OA
ATOM     23  H   UNL     1       4.919  27.194  32.512  1.00  0.00     0.293 HD
ENDBRANCH   2  22
BRANCH   6  24
ATOM     24  O   UNL     1       5.460  24.487  28.194  1.00  0.00    -0.507 OA
ATOM     25  H   UNL     1       6.060  25.098  27.652  1.00  0.00     0.293 HD
ENDBRANCH   6  24
BRANCH   8  26
ATOM     26  O   UNL     1       1.224  23.662  26.001  1.00  0.00    -0.508 OA
ATOM     27  H   UNL     1       1.653  23.494  25.099  1.00  0.00     0.293 HD
ENDBRANCH   8  26
TORSDOF 6
ENDMDL
MODEL 9
REMARK VINA RESULT:    -5.439     12.222     14.539
REMARK INTER + INTRA:          -6.741
REMARK INTER:                  -6.595
REMARK INTRA:                  -0.146
REMARK UNBOUND:                -0.189
REMARK SMILES O=c1c(O)c(-c2ccc(O)c(O)c2)oc2cc(O)cc(O)c12
REMARK SMILES IDX 5 1 3 2 2 3 1 4 22 5 20 6 19 7 17 8 16 9 15 10 14 11 6 12
REMARK SMILES IDX 7 13 8 14 9 15 13 16 11 17 10 18 12 20 4 22 21 24 18 26
REMARK H PARENT 10 19 12 21 4 23 21 25 18 27
REMARK Flexibility Score: inf
ROOT
ATOM      1  C   UNL     1       0.349  27.134  32.624  1.00  0.00     0.180 A 
ATOM      2  C   UNL     1       1.127  28.170  32.072  1.00  0.00     0.208 A 
ATOM      3  C   UNL     1       1.612  28.029  30.762  1.00  0.00     0.238 A 
ATOM      4  O   UNL     1       2.300  28.954  30.252  1.00  0.00    -0.285 OA
ATOM      5  C   UNL     1       1.330  26.852  30.037  1.00  0.00     0.111 A 
ATOM      6  C   UNL     1       1.785  26.631  28.715  1.00  0.00     0.134 A 
ATOM      7  C   UNL     1       1.469  25.428  28.063  1.00  0.00     0.093 A 
ATOM      8  C   UNL     1       0.711  24.446  28.709  1.00  0.00     0.123 A 
ATOM      9  C   UNL     1       0.260  24.660  30.013  1.00  0.00     0.094 A 
ATOM     10  C   UNL     1       0.562  25.853  30.679  1.00  0.00     0.146 A 
ATOM     11  O   UNL     1       0.116  26.033  31.917  1.00  0.00    -0.452 OA
ENDROOT
BRANCH   1  12
ATOM     12  C   UNL     1      -0.215  27.216  33.991  1.00  0.00     0.025 A 
ATOM     13  C   UNL     1       0.202  26.340  35.009  1.00  0.00     0.016 A 
ATOM     14  C   UNL     1      -0.327  26.452  36.297  1.00  0.00     0.051 A 
ATOM     15  C   UNL     1      -1.268  27.447  36.590  1.00  0.00     0.157 A 
ATOM     16  C   UNL     1      -1.142  28.226  34.297  1.00  0.00     0.062 A 
ATOM     17  C   UNL     1      -1.674  28.338  35.589  1.00  0.00     0.158 A 
BRANCH  15  18
ATOM     18  O   UNL     1      -1.799  27.561  37.875  1.00  0.00    -0.504 OA
ATOM     19  H   UNL     1      -1.582  28.350  38.470  1.00  0.00     0.293 HD
ENDBRANCH  15  18
BRANCH  17  20
ATOM     20  O   UNL     1      -2.605  29.333  35.885  1.00  0.00    -0.504 OA
ATOM     21  H   UNL     1      -3.595  29.197  35.722  1.00  0.00     0.293 HD
ENDBRANCH  17  20
ENDBRANCH   1  12
BRANCH   2  22
ATOM     22  O   UNL     1       1.432  29.304  32.829  1.00  0.00    -0.502 OA
ATOM     23  H   UNL     1       2.105  29.285  33.586  1.00  0.00     0.293 HD
ENDBRANCH   2  22
BRANCH   6  24
ATOM     24  O   UNL     1       2.544  27.591  28.045  1.00  0.00    -0.507 OA
ATOM     25  H   UNL     1       3.495  27.807  28.321  1.00  0.00     0.293 HD
ENDBRANCH   6  24
BRANCH   8  26
ATOM     26  O   UNL     1       0.399  23.252  28.063  1.00  0.00    -0.508 OA
ATOM     27  H   UNL     1      -0.196  22.556  28.494  1.00  0.00     0.293 HD
ENDBRANCH   8  26
TORSDOF 6
ENDMDL
