MODEL 1
REMARK VINA RESULT:    -5.930      0.000      0.000
REMARK INTER + INTRA:         -13.580
REMARK INTER:                 -11.477
REMARK INTRA:                  -2.103
REMARK UNBOUND:                -2.103
REMARK SMILES CCCCCCCCCCCCCCCCCC(=O)[O-]
REMARK SMILES IDX 10 1 11 2 12 3 13 4 14 5 15 6 16 7 17 8 18 9 19 10 20 11
REMARK SMILES IDX 9 12 8 13 7 14 6 15 5 16 4 17 3 18 2 19 1 20
REMARK H PARENT
REMARK Flexibility Score: inf
ROOT
ATOM      1  C   UNL     1       6.162  14.835   0.247  1.00  0.00     0.000 C 
ENDROOT
BRANCH   1   2
ATOM      2  C   UNL     1       4.664  14.662   0.538  1.00  0.00     0.000 C 
BRANCH   2   3
ATOM      3  C   UNL     1       4.327  13.292   1.158  1.00  0.00     0.000 C 
BRANCH   3   4
ATOM      4  C   UNL     1       3.073  13.272   2.052  1.00  0.00     0.000 C 
BRANCH   4   5
ATOM      5  C   UNL     1       1.874  13.999   1.422  1.00  0.00     0.000 C 
BRANCH   5   6
ATOM      6  C   UNL     1       0.953  14.579   2.505  1.00  0.00     0.000 C 
BRANCH   6   7
ATOM      7  C   UNL     1      -0.365  13.797   2.651  1.00  0.00     0.006 C 
BRANCH   7   8
ATOM      8  C   UNL     1      -1.029  13.924   4.032  1.00  0.00     0.053 C 
BRANCH   8   9
ATOM      9  C   UNL     1      -2.473  14.309   3.930  1.00  0.00     0.041 C 
ATOM     10  O   UNL     1      -3.062  14.830   4.914  1.00  0.00    -0.550 OA
ATOM     11  O   UNL     1      -3.160  14.122   2.737  1.00  0.00    -0.550 OA
ENDBRANCH   8   9
ENDBRANCH   7   8
ENDBRANCH   6   7
ENDBRANCH   5   6
ENDBRANCH   4   5
ENDBRANCH   3   4
ENDBRANCH   2   3
ENDBRANCH   1   2
BRANCH   1  12
ATOM     12  C   UNL     1       6.948  13.582   0.654  1.00  0.00     0.000 C 
BRANCH  12  13
ATOM     13  C   UNL     1       8.461  13.810   0.511  1.00  0.00    -0.000 C 
BRANCH  13  14
ATOM     14  C   UNL     1       9.040  14.679   1.648  1.00  0.00    -0.000 C 
BRANCH  14  15
ATOM     15  C   UNL     1       8.407  14.406   3.025  1.00  0.00    -0.000 C 
BRANCH  15  16
ATOM     16  C   UNL     1       8.025  15.661   3.832  1.00  0.00    -0.000 C 
BRANCH  16  17
ATOM     17  C   UNL     1       6.609  16.207   3.562  1.00  0.00    -0.000 C 
BRANCH  17  18
ATOM     18  C   UNL     1       5.498  15.248   4.027  1.00  0.00    -0.000 C 
BRANCH  18  19
ATOM     19  C   UNL     1       4.190  15.982   4.363  1.00  0.00    -0.003 C 
ATOM     20  C   UNL     1       3.308  15.204   5.340  1.00  0.00     0.004 C 
ENDBRANCH  18  19
ENDBRANCH  17  18
ENDBRANCH  16  17
ENDBRANCH  15  16
ENDBRANCH  14  15
ENDBRANCH  13  14
ENDBRANCH  12  13
ENDBRANCH   1  12
TORSDOF 16
ENDMDL
MODEL 2
REMARK VINA RESULT:    -5.880      5.218      8.693
REMARK INTER + INTRA:         -13.484
REMARK INTER:                 -11.556
REMARK INTRA:                  -1.928
REMARK UNBOUND:                -2.103
REMARK SMILES CCCCCCCCCCCCCCCCCC(=O)[O-]
REMARK SMILES IDX 10 1 11 2 12 3 13 4 14 5 15 6 16 7 17 8 18 9 19 10 20 11
REMARK SMILES IDX 9 12 8 13 7 14 6 15 5 16 4 17 3 18 2 19 1 20
REMARK H PARENT
REMARK Flexibility Score: inf
ROOT
ATOM      1  C   UNL     1       8.456  14.719   2.582  1.00  0.00     0.000 C 
ENDROOT
BRANCH   1   2
ATOM      2  C   UNL     1       8.385  14.159   1.154  1.00  0.00     0.000 C 
BRANCH   2   3
ATOM      3  C   UNL     1       9.617  14.523   0.304  1.00  0.00     0.000 C 
BRANCH   3   4
ATOM      4  C   UNL     1      10.975  14.162   0.935  1.00  0.00     0.000 C 
BRANCH   4   5
ATOM      5  C   UNL     1      12.019  15.281   0.793  1.00  0.00     0.000 C 
BRANCH   5   6
ATOM      6  C   UNL     1      11.342  16.634   0.531  1.00  0.00     0.000 C 
BRANCH   6   7
ATOM      7  C   UNL     1      11.726  17.705   1.567  1.00  0.00     0.006 C 
BRANCH   7   8
ATOM      8  C   UNL     1      10.671  17.937   2.661  1.00  0.00     0.053 C 
BRANCH   8   9
ATOM      9  C   UNL     1      11.212  18.737   3.806  1.00  0.00     0.041 C 
ATOM     10  O   UNL     1      12.160  19.546   3.623  1.00  0.00    -0.550 OA
ATOM     11  O   UNL     1      10.647  18.613   5.070  1.00  0.00    -0.550 OA
ENDBRANCH   8   9
ENDBRANCH   7   8
ENDBRANCH   6   7
ENDBRANCH   5   6
ENDBRANCH   4   5
ENDBRANCH   3   4
ENDBRANCH   2   3
ENDBRANCH   1   2
BRANCH   1  12
ATOM     12  C   UNL     1       7.080  14.669   3.259  1.00  0.00     0.000 C 
BRANCH  12  13
ATOM     13  C   UNL     1       6.633  16.070   3.703  1.00  0.00    -0.000 C 
BRANCH  13  14
ATOM     14  C   UNL     1       5.245  16.063   4.380  1.00  0.00    -0.000 C 
BRANCH  14  15
ATOM     15  C   UNL     1       4.403  14.814   4.063  1.00  0.00    -0.000 C 
BRANCH  15  16
ATOM     16  C   UNL     1       3.138  15.072   3.223  1.00  0.00    -0.000 C 
BRANCH  16  17
ATOM     17  C   UNL     1       2.911  14.086   2.060  1.00  0.00    -0.000 C 
BRANCH  17  18
ATOM     18  C   UNL     1       4.044  13.054   1.920  1.00  0.00    -0.000 C 
BRANCH  18  19
ATOM     19  C   UNL     1       4.939  13.326   0.700  1.00  0.00    -0.003 C 
ATOM     20  C   UNL     1       4.841  14.768   0.201  1.00  0.00     0.004 C 
ENDBRANCH  18  19
ENDBRANCH  17  18
ENDBRANCH  16  17
ENDBRANCH  15  16
ENDBRANCH  14  15
ENDBRANCH  13  14
ENDBRANCH  12  13
ENDBRANCH   1  12
TORSDOF 16
ENDMDL
MODEL 3
REMARK VINA RESULT:    -5.804      1.746      2.600
REMARK INTER + INTRA:         -13.335
REMARK INTER:                 -11.664
REMARK INTRA:                  -1.671
REMARK UNBOUND:                -2.103
REMARK SMILES CCCCCCCCCCCCCCCCCC(=O)[O-]
REMARK SMILES IDX 10 1 11 2 12 3 13 4 14 5 15 6 16 7 17 8 18 9 19 10 20 11
REMARK SMILES IDX 9 12 8 13 7 14 6 15 5 16 4 17 3 18 2 19 1 20
REMARK H PARENT
REMARK Flexibility Score: inf
ROOT
ATOM      1  C   UNL     1       3.620  13.199   1.902  1.00  0.00     0.000 C 
ENDROOT
BRANCH   1   2
ATOM      2  C   UNL     1       2.967  14.280   1.028  1.00  0.00     0.000 C 
BRANCH   2   3
ATOM      3  C   UNL     1       1.445  14.093   0.876  1.00  0.00     0.000 C 
BRANCH   3   4
ATOM      4  C   UNL     1       0.691  13.798   2.186  1.00  0.00     0.000 C 
BRANCH   4   5
ATOM      5  C   UNL     1      -0.812  13.558   1.972  1.00  0.00     0.000 C 
BRANCH   5   6
ATOM      6  C   UNL     1      -1.637  14.208   3.093  1.00  0.00     0.000 C 
BRANCH   6   7
ATOM      7  C   UNL     1      -0.955  14.112   4.470  1.00  0.00     0.006 C 
BRANCH   7   8
ATOM      8  C   UNL     1      -1.618  14.959   5.568  1.00  0.00     0.053 C 
BRANCH   8   9
ATOM      9  C   UNL     1      -0.993  14.733   6.910  1.00  0.00     0.041 C 
ATOM     10  O   UNL     1       0.143  14.195   6.998  1.00  0.00    -0.550 OA
ATOM     11  O   UNL     1      -1.650  15.147   8.062  1.00  0.00    -0.550 OA
ENDBRANCH   8   9
ENDBRANCH   7   8
ENDBRANCH   6   7
ENDBRANCH   5   6
ENDBRANCH   4   5
ENDBRANCH   3   4
ENDBRANCH   2   3
ENDBRANCH   1   2
BRANCH   1  12
ATOM     12  C   UNL     1       5.048  12.901   1.428  1.00  0.00     0.000 C 
BRANCH  12  13
ATOM     13  C   UNL     1       5.491  13.902   0.350  1.00  0.00    -0.000 C 
BRANCH  13  14
ATOM     14  C   UNL     1       6.712  14.742   0.786  1.00  0.00    -0.000 C 
BRANCH  14  15
ATOM     15  C   UNL     1       7.326  14.299   2.126  1.00  0.00    -0.000 C 
BRANCH  15  16
ATOM     16  C   UNL     1       7.649  15.440   3.109  1.00  0.00    -0.000 C 
BRANCH  16  17
ATOM     17  C   UNL     1       6.510  15.810   4.080  1.00  0.00    -0.000 C 
BRANCH  17  18
ATOM     18  C   UNL     1       5.211  16.207   3.357  1.00  0.00    -0.000 C 
BRANCH  18  19
ATOM     19  C   UNL     1       4.026  16.369   4.322  1.00  0.00    -0.003 C 
ATOM     20  C   UNL     1       3.655  15.065   5.030  1.00  0.00     0.004 C 
ENDBRANCH  18  19
ENDBRANCH  17  18
ENDBRANCH  16  17
ENDBRANCH  15  16
ENDBRANCH  14  15
ENDBRANCH  13  14
ENDBRANCH  12  13
ENDBRANCH   1  12
TORSDOF 16
ENDMDL
MODEL 4
REMARK VINA RESULT:    -5.783      6.173      9.413
REMARK INTER + INTRA:         -13.296
REMARK INTER:                 -11.480
REMARK INTRA:                  -1.815
REMARK UNBOUND:                -2.103
REMARK SMILES CCCCCCCCCCCCCCCCCC(=O)[O-]
REMARK SMILES IDX 10 1 11 2 12 3 13 4 14 5 15 6 16 7 17 8 18 9 19 10 20 11
REMARK SMILES IDX 9 12 8 13 7 14 6 15 5 16 4 17 3 18 2 19 1 20
REMARK H PARENT
REMARK Flexibility Score: inf
ROOT
ATOM      1  C   UNL     1       9.409  14.489   2.040  1.00  0.00     0.000 C 
ENDROOT
BRANCH   1   2
ATOM      2  C   UNL     1       9.493  14.594   0.510  1.00  0.00     0.000 C 
BRANCH   2   3
ATOM      3  C   UNL     1      10.638  15.507   0.032  1.00  0.00     0.000 C 
BRANCH   3   4
ATOM      4  C   UNL     1      11.578  16.010   1.143  1.00  0.00     0.000 C 
BRANCH   4   5
ATOM      5  C   UNL     1      11.485  17.528   1.368  1.00  0.00     0.000 C 
BRANCH   5   6
ATOM      6  C   UNL     1      10.693  17.846   2.645  1.00  0.00     0.000 C 
BRANCH   6   7
ATOM      7  C   UNL     1      11.115  19.176   3.294  1.00  0.00     0.006 C 
BRANCH   7   8
ATOM      8  C   UNL     1      11.772  19.028   4.676  1.00  0.00     0.053 C 
BRANCH   8   9
ATOM      9  C   UNL     1      13.185  19.524   4.685  1.00  0.00     0.041 C 
ATOM     10  O   UNL     1      13.860  19.534   3.622  1.00  0.00    -0.550 OA
ATOM     11  O   UNL     1      13.745  20.007   5.861  1.00  0.00    -0.550 OA
ENDBRANCH   8   9
ENDBRANCH   7   8
ENDBRANCH   6   7
ENDBRANCH   5   6
ENDBRANCH   4   5
ENDBRANCH   3   4
ENDBRANCH   2   3
ENDBRANCH   1   2
BRANCH   1  12
ATOM     12  C   UNL     1       7.955  14.321   2.498  1.00  0.00     0.000 C 
BRANCH  12  13
ATOM     13  C   UNL     1       7.619  15.298   3.635  1.00  0.00    -0.000 C 
BRANCH  13  14
ATOM     14  C   UNL     1       6.321  16.091   3.372  1.00  0.00    -0.000 C 
BRANCH  14  15
ATOM     15  C   UNL     1       5.185  15.774   4.361  1.00  0.00    -0.000 C 
BRANCH  15  16
ATOM     16  C   UNL     1       4.348  14.526   4.021  1.00  0.00    -0.000 C 
BRANCH  16  17
ATOM     17  C   UNL     1       3.905  14.416   2.549  1.00  0.00    -0.000 C 
BRANCH  17  18
ATOM     18  C   UNL     1       4.443  13.153   1.853  1.00  0.00    -0.000 C 
BRANCH  18  19
ATOM     19  C   UNL     1       5.001  13.447   0.452  1.00  0.00    -0.003 C 
ATOM     20  C   UNL     1       5.179  14.942   0.185  1.00  0.00     0.004 C 
ENDBRANCH  18  19
ENDBRANCH  17  18
ENDBRANCH  16  17
ENDBRANCH  15  16
ENDBRANCH  14  15
ENDBRANCH  13  14
ENDBRANCH  12  13
ENDBRANCH   1  12
TORSDOF 16
ENDMDL
MODEL 5
REMARK VINA RESULT:    -5.751      3.922      5.632
REMARK INTER + INTRA:         -13.233
REMARK INTER:                 -11.800
REMARK INTRA:                  -1.433
REMARK UNBOUND:                -2.103
REMARK SMILES CCCCCCCCCCCCCCCCCC(=O)[O-]
REMARK SMILES IDX 10 1 11 2 12 3 13 4 14 5 15 6 16 7 17 8 18 9 19 10 20 11
REMARK SMILES IDX 9 12 8 13 7 14 6 15 5 16 4 17 3 18 2 19 1 20
REMARK H PARENT
REMARK Flexibility Score: inf
ROOT
ATOM      1  C   UNL     1       8.649  14.310   2.352  1.00  0.00     0.000 C 
ENDROOT
BRANCH   1   2
ATOM      2  C   UNL     1       7.143  14.100   2.139  1.00  0.00     0.000 C 
BRANCH   2   3
ATOM      3  C   UNL     1       6.669  14.526   0.736  1.00  0.00     0.000 C 
BRANCH   3   4
ATOM      4  C   UNL     1       5.354  13.877   0.267  1.00  0.00     0.000 C 
BRANCH   4   5
ATOM      5  C   UNL     1       4.526  13.293   1.423  1.00  0.00     0.000 C 
BRANCH   5   6
ATOM      6  C   UNL     1       3.112  13.892   1.443  1.00  0.00     0.000 C 
BRANCH   6   7
ATOM      7  C   UNL     1       2.819  14.689   2.727  1.00  0.00     0.006 C 
BRANCH   7   8
ATOM      8  C   UNL     1       3.916  14.592   3.800  1.00  0.00     0.053 C 
BRANCH   8   9
ATOM      9  C   UNL     1       4.481  15.933   4.153  1.00  0.00     0.041 C 
ATOM     10  O   UNL     1       5.090  16.613   3.285  1.00  0.00    -0.550 OA
ATOM     11  O   UNL     1       4.305  16.448   5.431  1.00  0.00    -0.550 OA
ENDBRANCH   8   9
ENDBRANCH   7   8
ENDBRANCH   6   7
ENDBRANCH   5   6
ENDBRANCH   4   5
ENDBRANCH   3   4
ENDBRANCH   2   3
ENDBRANCH   1   2
BRANCH   1  12
ATOM     12  C   UNL     1       9.390  14.369   1.011  1.00  0.00     0.000 C 
BRANCH  12  13
ATOM     13  C   UNL     1      10.850  13.916   1.167  1.00  0.00    -0.000 C 
BRANCH  13  14
ATOM     14  C   UNL     1      11.854  15.071   0.961  1.00  0.00    -0.000 C 
BRANCH  14  15
ATOM     15  C   UNL     1      11.190  16.444   0.755  1.00  0.00    -0.000 C 
BRANCH  15  16
ATOM     16  C   UNL     1      11.765  17.587   1.615  1.00  0.00    -0.000 C 
BRANCH  16  17
ATOM     17  C   UNL     1      10.788  18.186   2.645  1.00  0.00    -0.000 C 
BRANCH  17  18
ATOM     18  C   UNL     1      11.480  19.119   3.655  1.00  0.00    -0.000 C 
BRANCH  18  19
ATOM     19  C   UNL     1      13.006  19.156   3.472  1.00  0.00    -0.003 C 
ATOM     20  C   UNL     1      13.672  20.275   4.273  1.00  0.00     0.004 C 
ENDBRANCH  18  19
ENDBRANCH  17  18
ENDBRANCH  16  17
ENDBRANCH  15  16
ENDBRANCH  14  15
ENDBRANCH  13  14
ENDBRANCH  12  13
ENDBRANCH   1  12
TORSDOF 16
ENDMDL
MODEL 6
REMARK VINA RESULT:    -5.705      5.509      9.246
REMARK INTER + INTRA:         -13.144
REMARK INTER:                 -11.137
REMARK INTRA:                  -2.006
REMARK UNBOUND:                -2.103
REMARK SMILES CCCCCCCCCCCCCCCCCC(=O)[O-]
REMARK SMILES IDX 10 1 11 2 12 3 13 4 14 5 15 6 16 7 17 8 18 9 19 10 20 11
REMARK SMILES IDX 9 12 8 13 7 14 6 15 5 16 4 17 3 18 2 19 1 20
REMARK H PARENT
REMARK Flexibility Score: inf
ROOT
ATOM      1  C   UNL     1       8.002  15.742   3.611  1.00  0.00     0.000 C 
ENDROOT
BRANCH   1   2
ATOM      2  C   UNL     1       8.973  14.788   2.899  1.00  0.00     0.000 C 
BRANCH   2   3
ATOM      3  C   UNL     1       8.520  14.423   1.472  1.00  0.00     0.000 C 
BRANCH   3   4
ATOM      4  C   UNL     1       9.582  14.631   0.377  1.00  0.00     0.000 C 
BRANCH   4   5
ATOM      5  C   UNL     1      10.646  15.671   0.762  1.00  0.00     0.000 C 
BRANCH   5   6
ATOM      6  C   UNL     1      12.042  15.034   0.818  1.00  0.00     0.000 C 
BRANCH   6   7
ATOM      7  C   UNL     1      12.154  13.763  -0.042  1.00  0.00     0.006 C 
BRANCH   7   8
ATOM      8  C   UNL     1      12.992  13.932  -1.320  1.00  0.00     0.053 C 
BRANCH   8   9
ATOM      9  C   UNL     1      12.259  14.700  -2.377  1.00  0.00     0.041 C 
ATOM     10  O   UNL     1      12.818  15.666  -2.961  1.00  0.00    -0.550 OA
ATOM     11  O   UNL     1      10.971  14.327  -2.742  1.00  0.00    -0.550 OA
ENDBRANCH   8   9
ENDBRANCH   7   8
ENDBRANCH   6   7
ENDBRANCH   5   6
ENDBRANCH   4   5
ENDBRANCH   3   4
ENDBRANCH   2   3
ENDBRANCH   1   2
BRANCH   1  12
ATOM     12  C   UNL     1       6.580  15.167   3.623  1.00  0.00     0.000 C 
BRANCH  12  13
ATOM     13  C   UNL     1       5.546  16.246   3.267  1.00  0.00    -0.000 C 
BRANCH  13  14
ATOM     14  C   UNL     1       4.325  16.233   4.212  1.00  0.00    -0.000 C 
BRANCH  14  15
ATOM     15  C   UNL     1       3.481  14.949   4.121  1.00  0.00    -0.000 C 
BRANCH  15  16
ATOM     16  C   UNL     1       2.442  14.926   2.984  1.00  0.00    -0.000 C 
BRANCH  16  17
ATOM     17  C   UNL     1       2.846  14.104   1.744  1.00  0.00    -0.000 C 
BRANCH  17  18
ATOM     18  C   UNL     1       3.950  13.075   2.042  1.00  0.00    -0.000 C 
BRANCH  18  19
ATOM     19  C   UNL     1       5.066  13.087   0.984  1.00  0.00    -0.003 C 
ATOM     20  C   UNL     1       5.109  14.389   0.183  1.00  0.00     0.004 C 
ENDBRANCH  18  19
ENDBRANCH  17  18
ENDBRANCH  16  17
ENDBRANCH  15  16
ENDBRANCH  14  15
ENDBRANCH  13  14
ENDBRANCH  12  13
ENDBRANCH   1  12
TORSDOF 16
ENDMDL
MODEL 7
REMARK VINA RESULT:    -5.676      6.176      9.295
REMARK INTER + INTRA:         -13.089
REMARK INTER:                 -11.716
REMARK INTRA:                  -1.373
REMARK UNBOUND:                -2.103
REMARK SMILES CCCCCCCCCCCCCCCCCC(=O)[O-]
REMARK SMILES IDX 10 1 11 2 12 3 13 4 14 5 15 6 16 7 17 8 18 9 19 10 20 11
REMARK SMILES IDX 9 12 8 13 7 14 6 15 5 16 4 17 3 18 2 19 1 20
REMARK H PARENT
REMARK Flexibility Score: inf
ROOT
ATOM      1  C   UNL     1       9.294  14.027   1.616  1.00  0.00     0.000 C 
ENDROOT
BRANCH   1   2
ATOM      2  C   UNL     1       9.724  14.263   0.160  1.00  0.00     0.000 C 
BRANCH   2   3
ATOM      3  C   UNL     1      10.606  15.514  -0.011  1.00  0.00     0.000 C 
BRANCH   3   4
ATOM      4  C   UNL     1      11.285  16.015   1.278  1.00  0.00     0.000 C 
BRANCH   4   5
ATOM      5  C   UNL     1      11.407  17.546   1.336  1.00  0.00     0.000 C 
BRANCH   5   6
ATOM      6  C   UNL     1      10.867  18.090   2.667  1.00  0.00     0.000 C 
BRANCH   6   7
ATOM      7  C   UNL     1      11.820  19.098   3.333  1.00  0.00     0.006 C 
BRANCH   7   8
ATOM      8  C   UNL     1      11.802  19.070   4.870  1.00  0.00     0.053 C 
BRANCH   8   9
ATOM      9  C   UNL     1      13.050  19.651   5.460  1.00  0.00     0.041 C 
ATOM     10  O   UNL     1      14.171  19.405   4.941  1.00  0.00    -0.550 OA
ATOM     11  O   UNL     1      12.972  20.493   6.562  1.00  0.00    -0.550 OA
ENDBRANCH   8   9
ENDBRANCH   7   8
ENDBRANCH   6   7
ENDBRANCH   5   6
ENDBRANCH   4   5
ENDBRANCH   3   4
ENDBRANCH   2   3
ENDBRANCH   1   2
BRANCH   1  12
ATOM     12  C   UNL     1       7.773  13.857   1.716  1.00  0.00     0.000 C 
BRANCH  12  13
ATOM     13  C   UNL     1       7.048  14.788   0.731  1.00  0.00    -0.000 C 
BRANCH  13  14
ATOM     14  C   UNL     1       5.622  14.301   0.394  1.00  0.00    -0.000 C 
BRANCH  14  15
ATOM     15  C   UNL     1       5.158  13.101   1.240  1.00  0.00    -0.000 C 
BRANCH  15  16
ATOM     16  C   UNL     1       4.072  13.417   2.287  1.00  0.00    -0.000 C 
BRANCH  16  17
ATOM     17  C   UNL     1       3.874  14.914   2.594  1.00  0.00    -0.000 C 
BRANCH  17  18
ATOM     18  C   UNL     1       3.467  15.177   4.054  1.00  0.00    -0.000 C 
BRANCH  18  19
ATOM     19  C   UNL     1       4.560  15.913   4.846  1.00  0.00    -0.003 C 
ATOM     20  C   UNL     1       5.870  16.044   4.068  1.00  0.00     0.004 C 
ENDBRANCH  18  19
ENDBRANCH  17  18
ENDBRANCH  16  17
ENDBRANCH  15  16
ENDBRANCH  14  15
ENDBRANCH  13  14
ENDBRANCH  12  13
ENDBRANCH   1  12
TORSDOF 16
ENDMDL
MODEL 8
REMARK VINA RESULT:    -5.616      1.155      2.398
REMARK INTER + INTRA:         -12.971
REMARK INTER:                 -11.592
REMARK INTRA:                  -1.380
REMARK UNBOUND:                -2.103
REMARK SMILES CCCCCCCCCCCCCCCCCC(=O)[O-]
REMARK SMILES IDX 10 1 11 2 12 3 13 4 14 5 15 6 16 7 17 8 18 9 19 10 20 11
REMARK SMILES IDX 9 12 8 13 7 14 6 15 5 16 4 17 3 18 2 19 1 20
REMARK H PARENT
REMARK Flexibility Score: inf
ROOT
ATOM      1  C   UNL     1       3.950  13.506   1.794  1.00  0.00     0.000 C 
ENDROOT
BRANCH   1   2
ATOM      2  C   UNL     1       2.695  14.309   2.165  1.00  0.00     0.000 C 
BRANCH   2   3
ATOM      3  C   UNL     1       1.443  13.866   1.385  1.00  0.00     0.000 C 
BRANCH   3   4
ATOM      4  C   UNL     1       0.105  14.096   2.112  1.00  0.00     0.000 C 
BRANCH   4   5
ATOM      5  C   UNL     1       0.284  14.587   3.557  1.00  0.00     0.000 C 
BRANCH   5   6
ATOM      6  C   UNL     1      -0.896  14.147   4.436  1.00  0.00     0.000 C 
BRANCH   6   7
ATOM      7  C   UNL     1      -2.218  14.044   3.654  1.00  0.00     0.006 C 
BRANCH   7   8
ATOM      8  C   UNL     1      -3.424  14.687   4.359  1.00  0.00     0.053 C 
BRANCH   8   9
ATOM      9  C   UNL     1      -4.393  15.286   3.387  1.00  0.00     0.041 C 
ATOM     10  O   UNL     1      -4.881  16.427   3.600  1.00  0.00    -0.550 OA
ATOM     11  O   UNL     1      -4.730  14.598   2.227  1.00  0.00    -0.550 OA
ENDBRANCH   8   9
ENDBRANCH   7   8
ENDBRANCH   6   7
ENDBRANCH   5   6
ENDBRANCH   4   5
ENDBRANCH   3   4
ENDBRANCH   2   3
ENDBRANCH   1   2
BRANCH   1  12
ATOM     12  C   UNL     1       4.360  13.772   0.340  1.00  0.00     0.000 C 
BRANCH  12  13
ATOM     13  C   UNL     1       5.734  14.457   0.273  1.00  0.00    -0.000 C 
BRANCH  13  14
ATOM     14  C   UNL     1       6.884  13.525   0.712  1.00  0.00    -0.000 C 
BRANCH  14  15
ATOM     15  C   UNL     1       8.242  14.236   0.855  1.00  0.00    -0.000 C 
BRANCH  15  16
ATOM     16  C   UNL     1       8.544  14.800   2.256  1.00  0.00    -0.000 C 
BRANCH  16  17
ATOM     17  C   UNL     1       7.382  14.705   3.265  1.00  0.00    -0.000 C 
BRANCH  17  18
ATOM     18  C   UNL     1       6.916  16.080   3.774  1.00  0.00    -0.000 C 
BRANCH  18  19
ATOM     19  C   UNL     1       5.391  16.252   3.692  1.00  0.00    -0.003 C 
ATOM     20  C   UNL     1       4.682  15.885   4.996  1.00  0.00     0.004 C 
ENDBRANCH  18  19
ENDBRANCH  17  18
ENDBRANCH  16  17
ENDBRANCH  15  16
ENDBRANCH  14  15
ENDBRANCH  13  14
ENDBRANCH  12  13
ENDBRANCH   1  12
TORSDOF 16
ENDMDL
MODEL 9
REMARK VINA RESULT:    -5.602      2.934      6.670
REMARK INTER + INTRA:         -12.945
REMARK INTER:                 -11.679
REMARK INTRA:                  -1.266
REMARK UNBOUND:                -2.103
REMARK SMILES CCCCCCCCCCCCCCCCCC(=O)[O-]
REMARK SMILES IDX 10 1 11 2 12 3 13 4 14 5 15 6 16 7 17 8 18 9 19 10 20 11
REMARK SMILES IDX 9 12 8 13 7 14 6 15 5 16 4 17 3 18 2 19 1 20
REMARK H PARENT
REMARK Flexibility Score: inf
ROOT
ATOM      1  C   UNL     1       5.466  12.899   1.310  1.00  0.00     0.000 C 
ENDROOT
BRANCH   1   2
ATOM      2  C   UNL     1       5.677  14.020   0.281  1.00  0.00     0.000 C 
BRANCH   2   3
ATOM      3  C   UNL     1       7.090  14.632   0.340  1.00  0.00     0.000 C 
BRANCH   3   4
ATOM      4  C   UNL     1       8.243  13.611   0.338  1.00  0.00     0.000 C 
BRANCH   4   5
ATOM      5  C   UNL     1       9.252  13.843   1.474  1.00  0.00     0.000 C 
BRANCH   5   6
ATOM      6  C   UNL     1       8.890  15.098   2.283  1.00  0.00     0.000 C 
BRANCH   6   7
ATOM      7  C   UNL     1       7.841  14.823   3.375  1.00  0.00     0.006 C 
BRANCH   7   8
ATOM      8  C   UNL     1       7.167  16.084   3.940  1.00  0.00     0.053 C 
BRANCH   8   9
ATOM      9  C   UNL     1       5.679  16.051   3.775  1.00  0.00     0.041 C 
ATOM     10  O   UNL     1       5.146  16.516   2.733  1.00  0.00    -0.550 OA
ATOM     11  O   UNL     1       4.883  15.475   4.758  1.00  0.00    -0.550 OA
ENDBRANCH   8   9
ENDBRANCH   7   8
ENDBRANCH   6   7
ENDBRANCH   5   6
ENDBRANCH   4   5
ENDBRANCH   3   4
ENDBRANCH   2   3
ENDBRANCH   1   2
BRANCH   1  12
ATOM     12  C   UNL     1       4.150  13.097   2.072  1.00  0.00     0.000 C 
BRANCH  12  13
ATOM     13  C   UNL     1       3.136  13.884   1.227  1.00  0.00    -0.000 C 
BRANCH  13  14
ATOM     14  C   UNL     1       1.993  14.482   2.076  1.00  0.00    -0.000 C 
BRANCH  14  15
ATOM     15  C   UNL     1       0.644  13.762   1.900  1.00  0.00    -0.000 C 
BRANCH  15  16
ATOM     16  C   UNL     1      -0.535  14.377   2.680  1.00  0.00    -0.000 C 
BRANCH  16  17
ATOM     17  C   UNL     1      -0.719  13.843   4.114  1.00  0.00    -0.000 C 
BRANCH  17  18
ATOM     18  C   UNL     1       0.070  14.650   5.160  1.00  0.00    -0.000 C 
BRANCH  18  19
ATOM     19  C   UNL     1      -0.334  14.300   6.600  1.00  0.00    -0.003 C 
ATOM     20  C   UNL     1      -1.115  15.422   7.287  1.00  0.00     0.004 C 
ENDBRANCH  18  19
ENDBRANCH  17  18
ENDBRANCH  16  17
ENDBRANCH  15  16
ENDBRANCH  14  15
ENDBRANCH  13  14
ENDBRANCH  12  13
ENDBRANCH   1  12
TORSDOF 16
ENDMDL
