MODEL 1
REMARK VINA RESULT:    -5.587      0.000      0.000
REMARK INTER + INTRA:         -10.017
REMARK INTER:                  -9.506
REMARK INTRA:                  -0.512
REMARK UNBOUND:                -0.512
REMARK SMILES CCCCCCCCCCCCCC(=O)[O-]
REMARK SMILES IDX 8 1 9 2 10 3 11 4 12 5 13 6 14 7 15 8 16 9 7 10 6 11 5 12
REMARK SMILES IDX 4 13 3 14 2 15 1 16
REMARK H PARENT
REMARK Flexibility Score: inf
ROOT
ATOM      1  C   UNL     1       1.237 -27.897   0.111  1.00  0.00     0.000 C 
ENDROOT
BRANCH   1   2
ATOM      2  C   UNL     1       2.710 -28.224  -0.207  1.00  0.00     0.000 C 
BRANCH   2   3
ATOM      3  C   UNL     1       3.488 -28.913   0.928  1.00  0.00     0.000 C 
BRANCH   3   4
ATOM      4  C   UNL     1       2.777 -28.807   2.289  1.00  0.00     0.000 C 
BRANCH   4   5
ATOM      5  C   UNL     1       3.641 -29.323   3.454  1.00  0.00     0.006 C 
BRANCH   5   6
ATOM      6  C   UNL     1       3.060 -30.544   4.186  1.00  0.00     0.053 C 
BRANCH   6   7
ATOM      7  C   UNL     1       2.516 -30.184   5.535  1.00  0.00     0.041 C 
ATOM      8  O   UNL     1       2.965 -29.182   6.152  1.00  0.00    -0.550 OA
ATOM      9  O   UNL     1       1.538 -30.974   6.124  1.00  0.00    -0.550 OA
ENDBRANCH   6   7
ENDBRANCH   5   6
ENDBRANCH   4   5
ENDBRANCH   3   4
ENDBRANCH   2   3
ENDBRANCH   1   2
BRANCH   1  10
ATOM     10  C   UNL     1       0.785 -26.470  -0.259  1.00  0.00     0.000 C 
BRANCH  10  11
ATOM     11  C   UNL     1      -0.739 -26.257  -0.266  1.00  0.00    -0.000 C 
BRANCH  11  12
ATOM     12  C   UNL     1      -1.161 -25.005  -1.054  1.00  0.00    -0.000 C 
BRANCH  12  13
ATOM     13  C   UNL     1      -2.557 -24.501  -0.656  1.00  0.00    -0.000 C 
BRANCH  13  14
ATOM     14  C   UNL     1      -3.172 -25.312   0.495  1.00  0.00    -0.000 C 
BRANCH  14  15
ATOM     15  C   UNL     1      -4.491 -24.687   0.962  1.00  0.00    -0.003 C 
ATOM     16  C   UNL     1      -4.284 -23.248   1.428  1.00  0.00     0.004 C 
ENDBRANCH  14  15
ENDBRANCH  13  14
ENDBRANCH  12  13
ENDBRANCH  11  12
ENDBRANCH  10  11
ENDBRANCH   1  10
TORSDOF 12
ENDMDL
MODEL 2
REMARK VINA RESULT:    -5.460      1.349      2.561
REMARK INTER + INTRA:          -9.801
REMARK INTER:                  -8.962
REMARK INTRA:                  -0.840
REMARK UNBOUND:                -0.512
REMARK SMILES CCCCCCCCCCCCCC(=O)[O-]
REMARK SMILES IDX 8 1 9 2 10 3 11 4 12 5 13 6 14 7 15 8 16 9 7 10 6 11 5 12
REMARK SMILES IDX 4 13 3 14 2 15 1 16
REMARK H PARENT
REMARK Flexibility Score: inf
ROOT
ATOM      1  C   UNL     1      -0.684 -26.349  -0.367  1.00  0.00     0.000 C 
ENDROOT
BRANCH   1   2
ATOM      2  C   UNL     1       0.753 -26.379   0.187  1.00  0.00     0.000 C 
BRANCH   2   3
ATOM      3  C   UNL     1       1.260 -27.768   0.618  1.00  0.00     0.000 C 
BRANCH   3   4
ATOM      4  C   UNL     1       2.630 -28.118   0.013  1.00  0.00     0.000 C 
BRANCH   4   5
ATOM      5  C   UNL     1       3.521 -28.919   0.980  1.00  0.00     0.006 C 
BRANCH   5   6
ATOM      6  C   UNL     1       2.803 -29.409   2.248  1.00  0.00     0.053 C 
BRANCH   6   7
ATOM      7  C   UNL     1       3.729 -29.492   3.423  1.00  0.00     0.041 C 
ATOM      8  O   UNL     1       3.305 -29.243   4.583  1.00  0.00    -0.550 OA
ATOM      9  O   UNL     1       5.067 -29.812   3.233  1.00  0.00    -0.550 OA
ENDBRANCH   6   7
ENDBRANCH   5   6
ENDBRANCH   4   5
ENDBRANCH   3   4
ENDBRANCH   2   3
ENDBRANCH   1   2
BRANCH   1  10
ATOM     10  C   UNL     1      -0.910 -25.395  -1.558  1.00  0.00     0.000 C 
BRANCH  10  11
ATOM     11  C   UNL     1      -2.021 -24.351  -1.347  1.00  0.00    -0.000 C 
BRANCH  11  12
ATOM     12  C   UNL     1      -2.004 -23.742   0.065  1.00  0.00    -0.000 C 
BRANCH  12  13
ATOM     13  C   UNL     1      -3.410 -23.622   0.672  1.00  0.00    -0.000 C 
BRANCH  13  14
ATOM     14  C   UNL     1      -4.023 -24.987   1.019  1.00  0.00    -0.000 C 
BRANCH  14  15
ATOM     15  C   UNL     1      -5.297 -25.238   0.204  1.00  0.00    -0.003 C 
ATOM     16  C   UNL     1      -5.047 -26.244  -0.916  1.00  0.00     0.004 C 
ENDBRANCH  14  15
ENDBRANCH  13  14
ENDBRANCH  12  13
ENDBRANCH  11  12
ENDBRANCH  10  11
ENDBRANCH   1  10
TORSDOF 12
ENDMDL
MODEL 3
REMARK VINA RESULT:    -5.420      1.002      1.557
REMARK INTER + INTRA:          -9.735
REMARK INTER:                  -9.131
REMARK INTRA:                  -0.603
REMARK UNBOUND:                -0.512
REMARK SMILES CCCCCCCCCCCCCC(=O)[O-]
REMARK SMILES IDX 8 1 9 2 10 3 11 4 12 5 13 6 14 7 15 8 16 9 7 10 6 11 5 12
REMARK SMILES IDX 4 13 3 14 2 15 1 16
REMARK H PARENT
REMARK Flexibility Score: inf
ROOT
ATOM      1  C   UNL     1       2.365 -28.270  -0.156  1.00  0.00     0.000 C 
ENDROOT
BRANCH   1   2
ATOM      2  C   UNL     1       2.306 -28.260   1.384  1.00  0.00     0.000 C 
BRANCH   2   3
ATOM      3  C   UNL     1       2.742 -29.571   2.064  1.00  0.00     0.000 C 
BRANCH   3   4
ATOM      4  C   UNL     1       4.170 -29.502   2.633  1.00  0.00     0.000 C 
BRANCH   4   5
ATOM      5  C   UNL     1       4.259 -30.015   4.082  1.00  0.00     0.006 C 
BRANCH   5   6
ATOM      6  C   UNL     1       3.150 -29.495   5.010  1.00  0.00     0.053 C 
BRANCH   6   7
ATOM      7  C   UNL     1       2.556 -30.589   5.844  1.00  0.00     0.041 C 
ATOM      8  O   UNL     1       2.993 -31.766   5.750  1.00  0.00    -0.550 OA
ATOM      9  O   UNL     1       1.498 -30.314   6.701  1.00  0.00    -0.550 OA
ENDBRANCH   6   7
ENDBRANCH   5   6
ENDBRANCH   4   5
ENDBRANCH   3   4
ENDBRANCH   2   3
ENDBRANCH   1   2
BRANCH   1  10
ATOM     10  C   UNL     1       1.615 -27.115  -0.850  1.00  0.00     0.000 C 
BRANCH  10  11
ATOM     11  C   UNL     1       0.731 -26.267   0.082  1.00  0.00    -0.000 C 
BRANCH  11  12
ATOM     12  C   UNL     1      -0.745 -26.251  -0.350  1.00  0.00    -0.000 C 
BRANCH  12  13
ATOM     13  C   UNL     1      -1.010 -25.278  -1.509  1.00  0.00    -0.000 C 
BRANCH  13  14
ATOM     14  C   UNL     1      -2.241 -24.392  -1.265  1.00  0.00    -0.000 C 
BRANCH  14  15
ATOM     15  C   UNL     1      -3.079 -24.928  -0.098  1.00  0.00    -0.003 C 
ATOM     16  C   UNL     1      -3.590 -23.790   0.782  1.00  0.00     0.004 C 
ENDBRANCH  14  15
ENDBRANCH  13  14
ENDBRANCH  12  13
ENDBRANCH  11  12
ENDBRANCH  10  11
ENDBRANCH   1  10
TORSDOF 12
ENDMDL
MODEL 4
REMARK VINA RESULT:    -5.347      3.771      8.003
REMARK INTER + INTRA:          -9.610
REMARK INTER:                  -9.126
REMARK INTRA:                  -0.485
REMARK UNBOUND:                -0.512
REMARK SMILES CCCCCCCCCCCCCC(=O)[O-]
REMARK SMILES IDX 8 1 9 2 10 3 11 4 12 5 13 6 14 7 15 8 16 9 7 10 6 11 5 12
REMARK SMILES IDX 4 13 3 14 2 15 1 16
REMARK H PARENT
REMARK Flexibility Score: inf
ROOT
ATOM      1  C   UNL     1       2.226 -28.104  -0.189  1.00  0.00     0.000 C 
ENDROOT
BRANCH   1   2
ATOM      2  C   UNL     1       1.413 -26.933  -0.775  1.00  0.00     0.000 C 
BRANCH   2   3
ATOM      3  C   UNL     1       0.005 -26.750  -0.178  1.00  0.00     0.000 C 
BRANCH   3   4
ATOM      4  C   UNL     1      -0.721 -25.512  -0.732  1.00  0.00     0.000 C 
BRANCH   4   5
ATOM      5  C   UNL     1      -2.181 -25.414  -0.252  1.00  0.00     0.006 C 
BRANCH   5   6
ATOM      6  C   UNL     1      -2.666 -23.981   0.021  1.00  0.00     0.053 C 
BRANCH   6   7
ATOM      7  C   UNL     1      -3.894 -23.957   0.879  1.00  0.00     0.041 C 
ATOM      8  O   UNL     1      -4.585 -25.000   1.026  1.00  0.00    -0.550 OA
ATOM      9  O   UNL     1      -4.293 -22.775   1.490  1.00  0.00    -0.550 OA
ENDBRANCH   6   7
ENDBRANCH   5   6
ENDBRANCH   4   5
ENDBRANCH   3   4
ENDBRANCH   2   3
ENDBRANCH   1   2
BRANCH   1  10
ATOM     10  C   UNL     1       2.146 -28.257   1.344  1.00  0.00     0.000 C 
BRANCH  10  11
ATOM     11  C   UNL     1       2.695 -29.587   1.888  1.00  0.00    -0.000 C 
BRANCH  11  12
ATOM     12  C   UNL     1       4.200 -29.527   2.200  1.00  0.00    -0.000 C 
BRANCH  12  13
ATOM     13  C   UNL     1       4.519 -29.922   3.651  1.00  0.00    -0.000 C 
BRANCH  13  14
ATOM     14  C   UNL     1       3.272 -30.371   4.427  1.00  0.00    -0.000 C 
BRANCH  14  15
ATOM     15  C   UNL     1       3.068 -29.511   5.680  1.00  0.00    -0.003 C 
ATOM     16  C   UNL     1       1.908 -30.034   6.525  1.00  0.00     0.004 C 
ENDBRANCH  14  15
ENDBRANCH  13  14
ENDBRANCH  12  13
ENDBRANCH  11  12
ENDBRANCH  10  11
ENDBRANCH   1  10
TORSDOF 12
ENDMDL
MODEL 5
REMARK VINA RESULT:    -5.332      3.787      8.058
REMARK INTER + INTRA:          -9.584
REMARK INTER:                  -9.064
REMARK INTRA:                  -0.520
REMARK UNBOUND:                -0.512
REMARK SMILES CCCCCCCCCCCCCC(=O)[O-]
REMARK SMILES IDX 8 1 9 2 10 3 11 4 12 5 13 6 14 7 15 8 16 9 7 10 6 11 5 12
REMARK SMILES IDX 4 13 3 14 2 15 1 16
REMARK H PARENT
REMARK Flexibility Score: inf
ROOT
ATOM      1  C   UNL     1       0.319 -26.331   0.101  1.00  0.00     0.000 C 
ENDROOT
BRANCH   1   2
ATOM      2  C   UNL     1      -0.546 -25.781  -1.049  1.00  0.00     0.000 C 
BRANCH   2   3
ATOM      3  C   UNL     1      -2.034 -25.576  -0.708  1.00  0.00     0.000 C 
BRANCH   3   4
ATOM      4  C   UNL     1      -2.527 -26.518   0.404  1.00  0.00     0.000 C 
BRANCH   4   5
ATOM      5  C   UNL     1      -3.891 -26.097   0.980  1.00  0.00     0.006 C 
BRANCH   5   6
ATOM      6  C   UNL     1      -4.451 -24.789   0.397  1.00  0.00     0.053 C 
BRANCH   6   7
ATOM      7  C   UNL     1      -4.289 -23.637   1.342  1.00  0.00     0.041 C 
ATOM      8  O   UNL     1      -5.165 -23.410   2.219  1.00  0.00    -0.550 OA
ATOM      9  O   UNL     1      -3.189 -22.797   1.233  1.00  0.00    -0.550 OA
ENDBRANCH   6   7
ENDBRANCH   5   6
ENDBRANCH   4   5
ENDBRANCH   3   4
ENDBRANCH   2   3
ENDBRANCH   1   2
BRANCH   1  10
ATOM     10  C   UNL     1       1.528 -27.184  -0.336  1.00  0.00     0.000 C 
BRANCH  10  11
ATOM     11  C   UNL     1       1.740 -28.470   0.482  1.00  0.00    -0.000 C 
BRANCH  11  12
ATOM     12  C   UNL     1       3.083 -28.484   1.232  1.00  0.00    -0.000 C 
BRANCH  12  13
ATOM     13  C   UNL     1       2.990 -29.188   2.595  1.00  0.00    -0.000 C 
BRANCH  13  14
ATOM     14  C   UNL     1       4.334 -29.783   3.044  1.00  0.00    -0.000 C 
BRANCH  14  15
ATOM     15  C   UNL     1       4.242 -30.322   4.477  1.00  0.00    -0.003 C 
ATOM     16  C   UNL     1       3.200 -29.556   5.288  1.00  0.00     0.004 C 
ENDBRANCH  14  15
ENDBRANCH  13  14
ENDBRANCH  12  13
ENDBRANCH  11  12
ENDBRANCH  10  11
ENDBRANCH   1  10
TORSDOF 12
ENDMDL
MODEL 6
REMARK VINA RESULT:    -5.304      1.565      2.690
REMARK INTER + INTRA:          -9.536
REMARK INTER:                  -8.852
REMARK INTRA:                  -0.684
REMARK UNBOUND:                -0.512
REMARK SMILES CCCCCCCCCCCCCC(=O)[O-]
REMARK SMILES IDX 8 1 9 2 10 3 11 4 12 5 13 6 14 7 15 8 16 9 7 10 6 11 5 12
REMARK SMILES IDX 4 13 3 14 2 15 1 16
REMARK H PARENT
REMARK Flexibility Score: inf
ROOT
ATOM      1  C   UNL     1       2.876 -29.307   1.741  1.00  0.00     0.000 C 
ENDROOT
BRANCH   1   2
ATOM      2  C   UNL     1       4.398 -29.296   1.498  1.00  0.00     0.000 C 
BRANCH   2   3
ATOM      3  C   UNL     1       5.250 -29.835   2.662  1.00  0.00     0.000 C 
BRANCH   3   4
ATOM      4  C   UNL     1       4.446 -30.718   3.631  1.00  0.00     0.000 C 
BRANCH   4   5
ATOM      5  C   UNL     1       4.417 -30.155   5.064  1.00  0.00     0.006 C 
BRANCH   5   6
ATOM      6  C   UNL     1       3.062 -29.568   5.490  1.00  0.00     0.053 C 
BRANCH   6   7
ATOM      7  C   UNL     1       2.154 -30.610   6.069  1.00  0.00     0.041 C 
ATOM      8  O   UNL     1       2.535 -31.808   6.146  1.00  0.00    -0.550 OA
ATOM      9  O   UNL     1       0.878 -30.264   6.493  1.00  0.00    -0.550 OA
ENDBRANCH   6   7
ENDBRANCH   5   6
ENDBRANCH   4   5
ENDBRANCH   3   4
ENDBRANCH   2   3
ENDBRANCH   1   2
BRANCH   1  10
ATOM     10  C   UNL     1       2.104 -28.116   1.136  1.00  0.00     0.000 C 
BRANCH  10  11
ATOM     11  C   UNL     1       2.269 -27.947  -0.385  1.00  0.00    -0.000 C 
BRANCH  11  12
ATOM     12  C   UNL     1       1.329 -26.879  -0.969  1.00  0.00    -0.000 C 
BRANCH  12  13
ATOM     13  C   UNL     1      -0.005 -26.788  -0.212  1.00  0.00    -0.000 C 
BRANCH  13  14
ATOM     14  C   UNL     1      -0.686 -25.421  -0.378  1.00  0.00    -0.000 C 
BRANCH  14  15
ATOM     15  C   UNL     1      -2.163 -25.493   0.025  1.00  0.00    -0.003 C 
ATOM     16  C   UNL     1      -2.536 -26.893   0.505  1.00  0.00     0.004 C 
ENDBRANCH  14  15
ENDBRANCH  13  14
ENDBRANCH  12  13
ENDBRANCH  11  12
ENDBRANCH  10  11
ENDBRANCH   1  10
TORSDOF 12
ENDMDL
MODEL 7
REMARK VINA RESULT:    -5.298      3.695      7.934
REMARK INTER + INTRA:          -9.527
REMARK INTER:                  -8.871
REMARK INTRA:                  -0.656
REMARK UNBOUND:                -0.512
REMARK SMILES CCCCCCCCCCCCCC(=O)[O-]
REMARK SMILES IDX 8 1 9 2 10 3 11 4 12 5 13 6 14 7 15 8 16 9 7 10 6 11 5 12
REMARK SMILES IDX 4 13 3 14 2 15 1 16
REMARK H PARENT
REMARK Flexibility Score: inf
ROOT
ATOM      1  C   UNL     1       1.779 -28.501   0.856  1.00  0.00     0.000 C 
ENDROOT
BRANCH   1   2
ATOM      2  C   UNL     1       2.328 -28.001  -0.495  1.00  0.00     0.000 C 
BRANCH   2   3
ATOM      3  C   UNL     1       1.530 -26.855  -1.142  1.00  0.00     0.000 C 
BRANCH   3   4
ATOM      4  C   UNL     1       0.290 -26.454  -0.324  1.00  0.00     0.000 C 
BRANCH   4   5
ATOM      5  C   UNL     1      -0.724 -25.635  -1.143  1.00  0.00     0.006 C 
BRANCH   5   6
ATOM      6  C   UNL     1      -2.127 -25.554  -0.520  1.00  0.00     0.053 C 
BRANCH   6   7
ATOM      7  C   UNL     1      -2.413 -24.197   0.048  1.00  0.00     0.041 C 
ATOM      8  O   UNL     1      -1.510 -23.320   0.078  1.00  0.00    -0.550 OA
ATOM      9  O   UNL     1      -3.667 -23.912   0.572  1.00  0.00    -0.550 OA
ENDBRANCH   6   7
ENDBRANCH   5   6
ENDBRANCH   4   5
ENDBRANCH   3   4
ENDBRANCH   2   3
ENDBRANCH   1   2
BRANCH   1  10
ATOM     10  C   UNL     1       2.677 -29.513   1.597  1.00  0.00     0.000 C 
BRANCH  10  11
ATOM     11  C   UNL     1       3.332 -28.975   2.881  1.00  0.00    -0.000 C 
BRANCH  11  12
ATOM     12  C   UNL     1       4.506 -29.846   3.360  1.00  0.00    -0.000 C 
BRANCH  12  13
ATOM     13  C   UNL     1       4.399 -30.213   4.849  1.00  0.00    -0.000 C 
BRANCH  13  14
ATOM     14  C   UNL     1       3.331 -31.284   5.118  1.00  0.00    -0.000 C 
BRANCH  14  15
ATOM     15  C   UNL     1       2.343 -30.814   6.192  1.00  0.00    -0.003 C 
ATOM     16  C   UNL     1       2.568 -29.345   6.544  1.00  0.00     0.004 C 
ENDBRANCH  14  15
ENDBRANCH  13  14
ENDBRANCH  12  13
ENDBRANCH  11  12
ENDBRANCH  10  11
ENDBRANCH   1  10
TORSDOF 12
ENDMDL
MODEL 8
REMARK VINA RESULT:    -5.272      3.599      7.991
REMARK INTER + INTRA:          -9.483
REMARK INTER:                  -8.885
REMARK INTRA:                  -0.598
REMARK UNBOUND:                -0.512
REMARK SMILES CCCCCCCCCCCCCC(=O)[O-]
REMARK SMILES IDX 8 1 9 2 10 3 11 4 12 5 13 6 14 7 15 8 16 9 7 10 6 11 5 12
REMARK SMILES IDX 4 13 3 14 2 15 1 16
REMARK H PARENT
REMARK Flexibility Score: inf
ROOT
ATOM      1  C   UNL     1       0.210 -27.312  -0.056  1.00  0.00     0.000 C 
ENDROOT
BRANCH   1   2
ATOM      2  C   UNL     1      -0.208 -25.834  -0.173  1.00  0.00     0.000 C 
BRANCH   2   3
ATOM      3  C   UNL     1      -0.809 -25.429  -1.532  1.00  0.00     0.000 C 
BRANCH   3   4
ATOM      4  C   UNL     1      -1.998 -24.463  -1.394  1.00  0.00     0.000 C 
BRANCH   4   5
ATOM      5  C   UNL     1      -1.934 -23.621  -0.107  1.00  0.00     0.006 C 
BRANCH   5   6
ATOM      6  C   UNL     1      -3.220 -23.647   0.735  1.00  0.00     0.053 C 
BRANCH   6   7
ATOM      7  C   UNL     1      -3.942 -24.955   0.620  1.00  0.00     0.041 C 
ATOM      8  O   UNL     1      -3.505 -25.974   1.218  1.00  0.00    -0.550 OA
ATOM      9  O   UNL     1      -5.076 -25.057  -0.175  1.00  0.00    -0.550 OA
ENDBRANCH   6   7
ENDBRANCH   5   6
ENDBRANCH   4   5
ENDBRANCH   3   4
ENDBRANCH   2   3
ENDBRANCH   1   2
BRANCH   1  10
ATOM     10  C   UNL     1       1.719 -27.555   0.149  1.00  0.00     0.000 C 
BRANCH  10  11
ATOM     11  C   UNL     1       2.068 -28.856   0.893  1.00  0.00    -0.000 C 
BRANCH  11  12
ATOM     12  C   UNL     1       2.932 -28.612   2.143  1.00  0.00    -0.000 C 
BRANCH  12  13
ATOM     13  C   UNL     1       4.207 -29.469   2.155  1.00  0.00    -0.000 C 
BRANCH  13  14
ATOM     14  C   UNL     1       4.557 -29.986   3.559  1.00  0.00    -0.000 C 
BRANCH  14  15
ATOM     15  C   UNL     1       3.410 -29.723   4.541  1.00  0.00    -0.003 C 
ATOM     16  C   UNL     1       2.758 -31.028   4.990  1.00  0.00     0.004 C 
ENDBRANCH  14  15
ENDBRANCH  13  14
ENDBRANCH  12  13
ENDBRANCH  11  12
ENDBRANCH  10  11
ENDBRANCH   1  10
TORSDOF 12
ENDMDL
MODEL 9
REMARK VINA RESULT:    -5.148      3.605      4.321
REMARK INTER + INTRA:          -9.272
REMARK INTER:                  -8.455
REMARK INTRA:                  -0.817
REMARK UNBOUND:                -0.512
REMARK SMILES CCCCCCCCCCCCCC(=O)[O-]
REMARK SMILES IDX 8 1 9 2 10 3 11 4 12 5 13 6 14 7 15 8 16 9 7 10 6 11 5 12
REMARK SMILES IDX 4 13 3 14 2 15 1 16
REMARK H PARENT
REMARK Flexibility Score: inf
ROOT
ATOM      1  C   UNL     1       1.243 -26.609  -0.626  1.00  0.00     0.000 C 
ENDROOT
BRANCH   1   2
ATOM      2  C   UNL     1       1.372 -27.403   0.688  1.00  0.00     0.000 C 
BRANCH   2   3
ATOM      3  C   UNL     1       1.766 -28.883   0.523  1.00  0.00     0.000 C 
BRANCH   3   4
ATOM      4  C   UNL     1       3.054 -29.245   1.283  1.00  0.00     0.000 C 
BRANCH   4   5
ATOM      5  C   UNL     1       4.329 -28.870   0.505  1.00  0.00     0.006 C 
BRANCH   5   6
ATOM      6  C   UNL     1       4.179 -28.919  -1.024  1.00  0.00     0.053 C 
BRANCH   6   7
ATOM      7  C   UNL     1       4.910 -27.798  -1.698  1.00  0.00     0.041 C 
ATOM      8  O   UNL     1       4.294 -27.009  -2.462  1.00  0.00    -0.550 OA
ATOM      9  O   UNL     1       6.277 -27.645  -1.507  1.00  0.00    -0.550 OA
ENDBRANCH   6   7
ENDBRANCH   5   6
ENDBRANCH   4   5
ENDBRANCH   3   4
ENDBRANCH   2   3
ENDBRANCH   1   2
BRANCH   1  10
ATOM     10  C   UNL     1      -0.156 -26.021  -0.904  1.00  0.00     0.000 C 
BRANCH  10  11
ATOM     11  C   UNL     1      -1.271 -26.546   0.017  1.00  0.00    -0.000 C 
BRANCH  11  12
ATOM     12  C   UNL     1      -2.513 -25.638   0.025  1.00  0.00    -0.000 C 
BRANCH  12  13
ATOM     13  C   UNL     1      -2.152 -24.144   0.007  1.00  0.00    -0.000 C 
BRANCH  13  14
ATOM     14  C   UNL     1      -3.182 -23.280   0.751  1.00  0.00    -0.000 C 
BRANCH  14  15
ATOM     15  C   UNL     1      -4.324 -24.141   1.302  1.00  0.00    -0.003 C 
ATOM     16  C   UNL     1      -5.206 -23.342   2.258  1.00  0.00     0.004 C 
ENDBRANCH  14  15
ENDBRANCH  13  14
ENDBRANCH  12  13
ENDBRANCH  11  12
ENDBRANCH  10  11
ENDBRANCH   1  10
TORSDOF 12
ENDMDL
