MODEL 1
REMARK VINA RESULT:    -5.206      0.000      0.000
REMARK INTER + INTRA:          -6.252
REMARK INTER:                  -6.119
REMARK INTRA:                  -0.132
REMARK UNBOUND:                -0.132
REMARK SMILES O=C([O-])C=Cc1ccc(O)c(O)c1
REMARK SMILES IDX 6 1 13 2 7 3 11 4 8 5 9 6 5 7 4 8 2 9 1 10 3 11 12 12 10 14
REMARK H PARENT 12 13 10 15
REMARK Flexibility Score: inf
ROOT
ATOM      1  C   UNL     1      27.701 -27.625  36.826  1.00  0.00    -0.022 A 
ATOM      2  C   UNL     1      27.799 -28.747  35.986  1.00  0.00     0.058 A 
ATOM      3  C   UNL     1      28.358 -26.437  36.453  1.00  0.00     0.012 A 
ATOM      4  C   UNL     1      28.556 -28.697  34.809  1.00  0.00     0.157 A 
ATOM      5  C   UNL     1      29.114 -26.385  35.279  1.00  0.00     0.051 A 
ATOM      6  C   UNL     1      29.220 -27.511  34.454  1.00  0.00     0.157 A 
ENDROOT
BRANCH   1   7
ATOM      7  C   UNL     1      26.877 -27.731  38.057  1.00  0.00     0.010 C 
ATOM      8  C   UNL     1      26.562 -28.894  38.643  1.00  0.00     0.025 C 
BRANCH   8   9
ATOM      9  C   UNL     1      25.731 -28.953  39.856  1.00  0.00     0.064 C 
ATOM     10  O   UNL     1      25.946 -29.850  40.713  1.00  0.00    -0.545 OA
ATOM     11  O   UNL     1      24.712 -28.032  40.074  1.00  0.00    -0.545 OA
ENDBRANCH   8   9
ENDBRANCH   1   7
BRANCH   4  12
ATOM     12  O   UNL     1      28.637 -29.836  34.007  1.00  0.00    -0.504 OA
ATOM     13  H   UNL     1      28.228 -29.871  33.081  1.00  0.00     0.293 HD
ENDBRANCH   4  12
BRANCH   6  14
ATOM     14  O   UNL     1      29.975 -27.456  33.284  1.00  0.00    -0.504 OA
ATOM     15  H   UNL     1      29.536 -27.436  32.370  1.00  0.00     0.293 HD
ENDBRANCH   6  14
TORSDOF 4
ENDMDL
MODEL 2
REMARK VINA RESULT:    -5.169      2.756      3.129
REMARK INTER + INTRA:          -6.208
REMARK INTER:                  -6.079
REMARK INTRA:                  -0.129
REMARK UNBOUND:                -0.132
REMARK SMILES O=C([O-])C=Cc1ccc(O)c(O)c1
REMARK SMILES IDX 6 1 13 2 7 3 11 4 8 5 9 6 5 7 4 8 2 9 1 10 3 11 12 12 10 14
REMARK H PARENT 12 13 10 15
REMARK Flexibility Score: inf
ROOT
ATOM      1  C   UNL     1      28.634 -25.949  35.939  1.00  0.00    -0.022 A 
ATOM      2  C   UNL     1      28.572 -27.334  36.170  1.00  0.00     0.058 A 
ATOM      3  C   UNL     1      28.932 -25.489  34.641  1.00  0.00     0.012 A 
ATOM      4  C   UNL     1      28.827 -28.245  35.139  1.00  0.00     0.157 A 
ATOM      5  C   UNL     1      29.187 -26.397  33.610  1.00  0.00     0.051 A 
ATOM      6  C   UNL     1      29.139 -27.776  33.852  1.00  0.00     0.157 A 
ENDROOT
BRANCH   1   7
ATOM      7  C   UNL     1      28.344 -25.029  37.067  1.00  0.00     0.010 C 
ATOM      8  C   UNL     1      27.408 -25.263  37.997  1.00  0.00     0.025 C 
BRANCH   8   9
ATOM      9  C   UNL     1      27.147 -24.316  39.093  1.00  0.00     0.064 C 
ATOM     10  O   UNL     1      27.536 -24.592  40.257  1.00  0.00    -0.545 OA
ATOM     11  O   UNL     1      26.477 -23.119  38.862  1.00  0.00    -0.545 OA
ENDBRANCH   8   9
ENDBRANCH   1   7
BRANCH   4  12
ATOM     12  O   UNL     1      28.765 -29.612  35.412  1.00  0.00    -0.504 OA
ATOM     13  H   UNL     1      28.049 -30.208  35.016  1.00  0.00     0.293 HD
ENDBRANCH   4  12
BRANCH   6  14
ATOM     14  O   UNL     1      29.394 -28.679  32.821  1.00  0.00    -0.504 OA
ATOM     15  H   UNL     1      29.534 -29.667  33.004  1.00  0.00     0.293 HD
ENDBRANCH   6  14
TORSDOF 4
ENDMDL
MODEL 3
REMARK VINA RESULT:    -5.107      8.131     10.549
REMARK INTER + INTRA:          -6.136
REMARK INTER:                  -6.000
REMARK INTRA:                  -0.135
REMARK UNBOUND:                -0.132
REMARK SMILES O=C([O-])C=Cc1ccc(O)c(O)c1
REMARK SMILES IDX 6 1 13 2 7 3 11 4 8 5 9 6 5 7 4 8 2 9 1 10 3 11 12 12 10 14
REMARK H PARENT 12 13 10 15
REMARK Flexibility Score: inf
ROOT
ATOM      1  C   UNL     1      25.389 -26.925  27.950  1.00  0.00    -0.022 A 
ATOM      2  C   UNL     1      24.996 -27.784  28.990  1.00  0.00     0.058 A 
ATOM      3  C   UNL     1      26.763 -26.749  27.696  1.00  0.00     0.012 A 
ATOM      4  C   UNL     1      25.949 -28.436  29.780  1.00  0.00     0.157 A 
ATOM      5  C   UNL     1      27.716 -27.399  28.484  1.00  0.00     0.051 A 
ATOM      6  C   UNL     1      27.317 -28.241  29.529  1.00  0.00     0.157 A 
ENDROOT
BRANCH   1   7
ATOM      7  C   UNL     1      24.335 -26.268  27.136  1.00  0.00     0.010 C 
ATOM      8  C   UNL     1      24.360 -26.205  25.797  1.00  0.00     0.025 C 
BRANCH   8   9
ATOM      9  C   UNL     1      23.298 -25.532  25.031  1.00  0.00     0.064 C 
ATOM     10  O   UNL     1      22.111 -25.939  25.127  1.00  0.00    -0.545 OA
ATOM     11  O   UNL     1      23.585 -24.452  24.204  1.00  0.00    -0.545 OA
ENDBRANCH   8   9
ENDBRANCH   1   7
BRANCH   4  12
ATOM     12  O   UNL     1      25.517 -29.272  30.810  1.00  0.00    -0.504 OA
ATOM     13  H   UNL     1      24.541 -29.511  30.936  1.00  0.00     0.293 HD
ENDBRANCH   4  12
BRANCH   6  14
ATOM     14  O   UNL     1      28.271 -28.887  30.314  1.00  0.00    -0.504 OA
ATOM     15  H   UNL     1      28.022 -29.661  30.921  1.00  0.00     0.293 HD
ENDBRANCH   6  14
TORSDOF 4
ENDMDL
MODEL 4
REMARK VINA RESULT:    -5.063      1.406      1.753
REMARK INTER + INTRA:          -6.084
REMARK INTER:                  -5.954
REMARK INTRA:                  -0.130
REMARK UNBOUND:                -0.132
REMARK SMILES O=C([O-])C=Cc1ccc(O)c(O)c1
REMARK SMILES IDX 6 1 13 2 7 3 11 4 8 5 9 6 5 7 4 8 2 9 1 10 3 11 12 12 10 14
REMARK H PARENT 12 13 10 15
REMARK Flexibility Score: inf
ROOT
ATOM      1  C   UNL     1      27.734 -28.004  36.025  1.00  0.00    -0.022 A 
ATOM      2  C   UNL     1      26.871 -28.769  35.221  1.00  0.00     0.058 A 
ATOM      3  C   UNL     1      28.960 -27.570  35.484  1.00  0.00     0.012 A 
ATOM      4  C   UNL     1      27.230 -29.118  33.915  1.00  0.00     0.157 A 
ATOM      5  C   UNL     1      29.320 -27.917  34.180  1.00  0.00     0.051 A 
ATOM      6  C   UNL     1      28.462 -28.693  33.390  1.00  0.00     0.157 A 
ENDROOT
BRANCH   1   7
ATOM      7  C   UNL     1      27.298 -27.654  37.400  1.00  0.00     0.010 C 
ATOM      8  C   UNL     1      26.930 -28.560  38.317  1.00  0.00     0.025 C 
BRANCH   8   9
ATOM      9  C   UNL     1      26.493 -28.167  39.666  1.00  0.00     0.064 C 
ATOM     10  O   UNL     1      26.564 -26.959  40.014  1.00  0.00    -0.545 OA
ATOM     11  O   UNL     1      26.002 -29.108  40.565  1.00  0.00    -0.545 OA
ENDBRANCH   8   9
ENDBRANCH   1   7
BRANCH   4  12
ATOM     12  O   UNL     1      26.350 -29.887  33.153  1.00  0.00    -0.504 OA
ATOM     13  H   UNL     1      26.658 -30.416  32.347  1.00  0.00     0.293 HD
ENDBRANCH   4  12
BRANCH   6  14
ATOM     14  O   UNL     1      28.824 -29.038  32.089  1.00  0.00    -0.504 OA
ATOM     15  H   UNL     1      29.785 -29.258  31.847  1.00  0.00     0.293 HD
ENDBRANCH   6  14
TORSDOF 4
ENDMDL
MODEL 5
REMARK VINA RESULT:    -5.036      9.875     11.608
REMARK INTER + INTRA:          -6.051
REMARK INTER:                  -5.923
REMARK INTRA:                  -0.129
REMARK UNBOUND:                -0.132
REMARK SMILES O=C([O-])C=Cc1ccc(O)c(O)c1
REMARK SMILES IDX 6 1 13 2 7 3 11 4 8 5 9 6 5 7 4 8 2 9 1 10 3 11 12 12 10 14
REMARK H PARENT 12 13 10 15
REMARK Flexibility Score: inf
ROOT
ATOM      1  C   UNL     1      24.563 -25.921  26.087  1.00  0.00    -0.022 A 
ATOM      2  C   UNL     1      24.478 -26.500  24.810  1.00  0.00     0.058 A 
ATOM      3  C   UNL     1      24.560 -24.516  26.198  1.00  0.00     0.012 A 
ATOM      4  C   UNL     1      24.416 -25.701  23.663  1.00  0.00     0.157 A 
ATOM      5  C   UNL     1      24.498 -23.717  25.054  1.00  0.00     0.051 A 
ATOM      6  C   UNL     1      24.429 -24.302  23.783  1.00  0.00     0.157 A 
ENDROOT
BRANCH   1   7
ATOM      7  C   UNL     1      24.616 -26.816  27.270  1.00  0.00     0.010 C 
ATOM      8  C   UNL     1      25.752 -27.161  27.892  1.00  0.00     0.025 C 
BRANCH   8   9
ATOM      9  C   UNL     1      25.759 -28.061  29.056  1.00  0.00     0.064 C 
ATOM     10  O   UNL     1      24.898 -27.911  29.962  1.00  0.00    -0.545 OA
ATOM     11  O   UNL     1      26.700 -29.078  29.172  1.00  0.00    -0.545 OA
ENDBRANCH   8   9
ENDBRANCH   1   7
BRANCH   4  12
ATOM     12  O   UNL     1      24.342 -26.316  22.412  1.00  0.00    -0.504 OA
ATOM     13  H   UNL     1      24.139 -27.303  22.309  1.00  0.00     0.293 HD
ENDBRANCH   4  12
BRANCH   6  14
ATOM     14  O   UNL     1      24.368 -23.501  22.643  1.00  0.00    -0.504 OA
ATOM     15  H   UNL     1      24.115 -22.521  22.698  1.00  0.00     0.293 HD
ENDBRANCH   6  14
TORSDOF 4
ENDMDL
MODEL 6
REMARK VINA RESULT:    -5.027      1.474      5.714
REMARK INTER + INTRA:          -6.042
REMARK INTER:                  -5.913
REMARK INTRA:                  -0.128
REMARK UNBOUND:                -0.132
REMARK SMILES O=C([O-])C=Cc1ccc(O)c(O)c1
REMARK SMILES IDX 6 1 13 2 7 3 11 4 8 5 9 6 5 7 4 8 2 9 1 10 3 11 12 12 10 14
REMARK H PARENT 12 13 10 15
REMARK Flexibility Score: inf
ROOT
ATOM      1  C   UNL     1      27.262 -26.904  37.481  1.00  0.00    -0.022 A 
ATOM      2  C   UNL     1      27.088 -28.290  37.634  1.00  0.00     0.058 A 
ATOM      3  C   UNL     1      26.919 -26.054  38.551  1.00  0.00     0.012 A 
ATOM      4  C   UNL     1      26.559 -28.820  38.816  1.00  0.00     0.157 A 
ATOM      5  C   UNL     1      26.391 -26.581  39.732  1.00  0.00     0.051 A 
ATOM      6  C   UNL     1      26.206 -27.962  39.871  1.00  0.00     0.157 A 
ENDROOT
BRANCH   1   7
ATOM      7  C   UNL     1      27.837 -26.398  36.209  1.00  0.00     0.010 C 
ATOM      8  C   UNL     1      28.994 -26.833  35.691  1.00  0.00     0.025 C 
BRANCH   8   9
ATOM      9  C   UNL     1      29.532 -26.294  34.432  1.00  0.00     0.064 C 
ATOM     10  O   UNL     1      30.247 -27.026  33.699  1.00  0.00    -0.545 OA
ATOM     11  O   UNL     1      29.263 -24.988  34.037  1.00  0.00    -0.545 OA
ENDBRANCH   8   9
ENDBRANCH   1   7
BRANCH   4  12
ATOM     12  O   UNL     1      26.391 -30.201  38.924  1.00  0.00    -0.504 OA
ATOM     13  H   UNL     1      25.849 -30.731  38.253  1.00  0.00     0.293 HD
ENDBRANCH   4  12
BRANCH   6  14
ATOM     14  O   UNL     1      25.678 -28.485  41.051  1.00  0.00    -0.504 OA
ATOM     15  H   UNL     1      25.033 -29.268  41.042  1.00  0.00     0.293 HD
ENDBRANCH   6  14
TORSDOF 4
ENDMDL
MODEL 7
REMARK VINA RESULT:    -5.022     12.785     13.849
REMARK INTER + INTRA:          -6.036
REMARK INTER:                  -5.910
REMARK INTRA:                  -0.126
REMARK UNBOUND:                -0.132
REMARK SMILES O=C([O-])C=Cc1ccc(O)c(O)c1
REMARK SMILES IDX 6 1 13 2 7 3 11 4 8 5 9 6 5 7 4 8 2 9 1 10 3 11 12 12 10 14
REMARK H PARENT 12 13 10 15
REMARK Flexibility Score: inf
ROOT
ATOM      1  C   UNL     1      22.685 -23.358  25.441  1.00  0.00    -0.022 A 
ATOM      2  C   UNL     1      23.358 -23.559  24.225  1.00  0.00     0.058 A 
ATOM      3  C   UNL     1      22.441 -24.467  26.275  1.00  0.00     0.012 A 
ATOM      4  C   UNL     1      23.759 -24.840  23.830  1.00  0.00     0.157 A 
ATOM      5  C   UNL     1      22.842 -25.747  25.883  1.00  0.00     0.051 A 
ATOM      6  C   UNL     1      23.498 -25.942  24.662  1.00  0.00     0.157 A 
ENDROOT
BRANCH   1   7
ATOM      7  C   UNL     1      22.291 -21.976  25.814  1.00  0.00     0.010 C 
ATOM      8  C   UNL     1      23.156 -21.045  26.241  1.00  0.00     0.025 C 
BRANCH   8   9
ATOM      9  C   UNL     1      22.720 -19.690  26.612  1.00  0.00     0.064 C 
ATOM     10  O   UNL     1      23.328 -18.692  26.143  1.00  0.00    -0.545 OA
ATOM     11  O   UNL     1      21.645 -19.492  27.471  1.00  0.00    -0.545 OA
ENDBRANCH   8   9
ENDBRANCH   1   7
BRANCH   4  12
ATOM     12  O   UNL     1      24.416 -24.999  22.609  1.00  0.00    -0.504 OA
ATOM     13  H   UNL     1      24.016 -25.535  21.849  1.00  0.00     0.293 HD
ENDBRANCH   4  12
BRANCH   6  14
ATOM     14  O   UNL     1      23.895 -27.220  24.273  1.00  0.00    -0.504 OA
ATOM     15  H   UNL     1      23.998 -27.971  24.948  1.00  0.00     0.293 HD
ENDBRANCH   6  14
TORSDOF 4
ENDMDL
MODEL 8
REMARK VINA RESULT:    -5.022     12.131     13.624
REMARK INTER + INTRA:          -6.036
REMARK INTER:                  -5.903
REMARK INTRA:                  -0.132
REMARK UNBOUND:                -0.132
REMARK SMILES O=C([O-])C=Cc1ccc(O)c(O)c1
REMARK SMILES IDX 6 1 13 2 7 3 11 4 8 5 9 6 5 7 4 8 2 9 1 10 3 11 12 12 10 14
REMARK H PARENT 12 13 10 15
REMARK Flexibility Score: inf
ROOT
ATOM      1  C   UNL     1      22.763 -23.099  25.639  1.00  0.00    -0.022 A 
ATOM      2  C   UNL     1      22.416 -24.172  26.477  1.00  0.00     0.058 A 
ATOM      3  C   UNL     1      23.450 -23.368  24.440  1.00  0.00     0.012 A 
ATOM      4  C   UNL     1      22.767 -25.485  26.144  1.00  0.00     0.157 A 
ATOM      5  C   UNL     1      23.801 -24.678  24.104  1.00  0.00     0.051 A 
ATOM      6  C   UNL     1      23.466 -25.741  24.952  1.00  0.00     0.157 A 
ENDROOT
BRANCH   1   7
ATOM      7  C   UNL     1      22.356 -21.728  26.038  1.00  0.00     0.010 C 
ATOM      8  C   UNL     1      23.215 -20.708  26.179  1.00  0.00     0.025 C 
BRANCH   8   9
ATOM      9  C   UNL     1      22.769 -19.367  26.588  1.00  0.00     0.064 C 
ATOM     10  O   UNL     1      21.642 -19.227  27.132  1.00  0.00    -0.545 OA
ATOM     11  O   UNL     1      23.571 -18.250  26.384  1.00  0.00    -0.545 OA
ENDBRANCH   8   9
ENDBRANCH   1   7
BRANCH   4  12
ATOM     12  O   UNL     1      22.414 -26.521  27.009  1.00  0.00    -0.504 OA
ATOM     13  H   UNL     1      21.910 -27.339  26.689  1.00  0.00     0.293 HD
ENDBRANCH   4  12
BRANCH   6  14
ATOM     14  O   UNL     1      23.819 -27.047  24.615  1.00  0.00    -0.504 OA
ATOM     15  H   UNL     1      24.787 -27.348  24.606  1.00  0.00     0.293 HD
ENDBRANCH   6  14
TORSDOF 4
ENDMDL
MODEL 9
REMARK VINA RESULT:    -4.935      1.320      2.177
REMARK INTER + INTRA:          -5.933
REMARK INTER:                  -5.795
REMARK INTRA:                  -0.138
REMARK UNBOUND:                -0.132
REMARK SMILES O=C([O-])C=Cc1ccc(O)c(O)c1
REMARK SMILES IDX 6 1 13 2 7 3 11 4 8 5 9 6 5 7 4 8 2 9 1 10 3 11 12 12 10 14
REMARK H PARENT 12 13 10 15
REMARK Flexibility Score: inf
ROOT
ATOM      1  C   UNL     1      27.686 -27.416  36.533  1.00  0.00    -0.022 A 
ATOM      2  C   UNL     1      28.775 -26.781  35.913  1.00  0.00     0.058 A 
ATOM      3  C   UNL     1      27.139 -28.567  35.933  1.00  0.00     0.012 A 
ATOM      4  C   UNL     1      29.296 -27.264  34.708  1.00  0.00     0.157 A 
ATOM      5  C   UNL     1      27.659 -29.052  34.730  1.00  0.00     0.051 A 
ATOM      6  C   UNL     1      28.735 -28.405  34.111  1.00  0.00     0.157 A 
ENDROOT
BRANCH   1   7
ATOM      7  C   UNL     1      27.179 -26.866  37.816  1.00  0.00     0.010 C 
ATOM      8  C   UNL     1      26.750 -27.625  38.833  1.00  0.00     0.025 C 
BRANCH   8   9
ATOM      9  C   UNL     1      26.245 -27.036  40.084  1.00  0.00     0.064 C 
ATOM     10  O   UNL     1      25.383 -27.657  40.758  1.00  0.00    -0.545 OA
ATOM     11  O   UNL     1      26.706 -25.805  40.534  1.00  0.00    -0.545 OA
ENDBRANCH   8   9
ENDBRANCH   1   7
BRANCH   4  12
ATOM     12  O   UNL     1      30.372 -26.598  34.120  1.00  0.00    -0.504 OA
ATOM     13  H   UNL     1      30.663 -25.676  34.420  1.00  0.00     0.293 HD
ENDBRANCH   4  12
BRANCH   6  14
ATOM     14  O   UNL     1      29.250 -28.890  32.910  1.00  0.00    -0.504 OA
ATOM     15  H   UNL     1      29.216 -28.341  32.058  1.00  0.00     0.293 HD
ENDBRANCH   6  14
TORSDOF 4
ENDMDL
