MODEL 1
REMARK VINA RESULT:    -5.299      0.000      0.000
REMARK INTER + INTRA:         -13.659
REMARK INTER:                 -11.496
REMARK INTRA:                  -2.164
REMARK UNBOUND:                -2.164
REMARK SMILES CCCCCCCCCCCCCCCCCCCCCC(=O)[O-]
REMARK SMILES IDX 12 1 11 2 10 3 9 4 8 5 7 6 6 7 5 8 4 9 3 10 2 11 1 12 13 13
REMARK SMILES IDX 14 14 15 15 16 16 17 17 18 18 19 19 20 20 21 21 22 22 23 23
REMARK SMILES IDX 24 24
REMARK H PARENT
REMARK Flexibility Score: inf
ROOT
ATOM      1  C   UNL     1       3.580  59.417  21.571  1.00  0.00     0.000 C 
ENDROOT
BRANCH   1   2
ATOM      2  C   UNL     1       3.812  58.060  22.254  1.00  0.00     0.000 C 
BRANCH   2   3
ATOM      3  C   UNL     1       5.295  57.655  22.282  1.00  0.00     0.000 C 
BRANCH   3   4
ATOM      4  C   UNL     1       5.495  56.175  22.651  1.00  0.00    -0.000 C 
BRANCH   4   5
ATOM      5  C   UNL     1       6.512  55.469  21.738  1.00  0.00    -0.000 C 
BRANCH   5   6
ATOM      6  C   UNL     1       7.968  55.806  22.104  1.00  0.00    -0.000 C 
BRANCH   6   7
ATOM      7  C   UNL     1       8.820  54.550  22.351  1.00  0.00    -0.000 C 
BRANCH   7   8
ATOM      8  C   UNL     1       8.042  53.438  23.072  1.00  0.00    -0.000 C 
BRANCH   8   9
ATOM      9  C   UNL     1       8.663  53.134  24.441  1.00  0.00    -0.000 C 
BRANCH   9  10
ATOM     10  C   UNL     1       8.023  53.992  25.539  1.00  0.00    -0.000 C 
BRANCH  10  11
ATOM     11  C   UNL     1       9.049  54.950  26.156  1.00  0.00    -0.003 C 
ATOM     12  C   UNL     1      10.467  54.592  25.725  1.00  0.00     0.004 C 
ENDBRANCH  10  11
ENDBRANCH   9  10
ENDBRANCH   8   9
ENDBRANCH   7   8
ENDBRANCH   6   7
ENDBRANCH   5   6
ENDBRANCH   4   5
ENDBRANCH   3   4
ENDBRANCH   2   3
ENDBRANCH   1   2
BRANCH   1  13
ATOM     13  C   UNL     1       2.793  60.363  22.487  1.00  0.00     0.000 C 
BRANCH  13  14
ATOM     14  C   UNL     1       1.993  59.578  23.534  1.00  0.00     0.000 C 
BRANCH  14  15
ATOM     15  C   UNL     1       0.594  60.181  23.721  1.00  0.00     0.000 C 
BRANCH  15  16
ATOM     16  C   UNL     1      -0.527  59.267  23.195  1.00  0.00     0.000 C 
BRANCH  16  17
ATOM     17  C   UNL     1      -1.265  59.793  21.949  1.00  0.00     0.000 C 
BRANCH  17  18
ATOM     18  C   UNL     1      -0.726  61.120  21.379  1.00  0.00     0.000 C 
BRANCH  18  19
ATOM     19  C   UNL     1      -0.477  61.127  19.858  1.00  0.00     0.000 C 
BRANCH  19  20
ATOM     20  C   UNL     1       0.925  60.662  19.419  1.00  0.00     0.006 C 
BRANCH  20  21
ATOM     21  C   UNL     1       0.971  59.211  18.907  1.00  0.00     0.053 C 
BRANCH  21  22
ATOM     22  C   UNL     1       1.236  59.132  17.434  1.00  0.00     0.041 C 
ATOM     23  O   UNL     1       0.929  58.095  16.788  1.00  0.00    -0.550 OA
ATOM     24  O   UNL     1       1.859  60.188  16.780  1.00  0.00    -0.550 OA
ENDBRANCH  21  22
ENDBRANCH  20  21
ENDBRANCH  19  20
ENDBRANCH  18  19
ENDBRANCH  17  18
ENDBRANCH  16  17
ENDBRANCH  15  16
ENDBRANCH  14  15
ENDBRANCH  13  14
ENDBRANCH   1  13
TORSDOF 20
ENDMDL
MODEL 2
REMARK VINA RESULT:    -5.208      1.178      2.584
REMARK INTER + INTRA:         -13.460
REMARK INTER:                 -11.276
REMARK INTRA:                  -2.185
REMARK UNBOUND:                -2.164
REMARK SMILES CCCCCCCCCCCCCCCCCCCCCC(=O)[O-]
REMARK SMILES IDX 12 1 11 2 10 3 9 4 8 5 7 6 6 7 5 8 4 9 3 10 2 11 1 12 13 13
REMARK SMILES IDX 14 14 15 15 16 16 17 17 18 18 19 19 20 20 21 21 22 22 23 23
REMARK SMILES IDX 24 24
REMARK H PARENT
REMARK Flexibility Score: inf
ROOT
ATOM      1  C   UNL     1       1.620  59.536  23.620  1.00  0.00     0.000 C 
ENDROOT
BRANCH   1   2
ATOM      2  C   UNL     1       2.684  60.289  22.806  1.00  0.00     0.000 C 
BRANCH   2   3
ATOM      3  C   UNL     1       3.184  59.484  21.595  1.00  0.00     0.000 C 
BRANCH   3   4
ATOM      4  C   UNL     1       3.530  58.029  21.954  1.00  0.00    -0.000 C 
BRANCH   4   5
ATOM      5  C   UNL     1       4.913  57.895  22.615  1.00  0.00    -0.000 C 
BRANCH   5   6
ATOM      6  C   UNL     1       5.597  56.557  22.285  1.00  0.00    -0.000 C 
BRANCH   6   7
ATOM      7  C   UNL     1       6.969  56.745  21.618  1.00  0.00    -0.000 C 
BRANCH   7   8
ATOM      8  C   UNL     1       7.458  55.478  20.900  1.00  0.00    -0.000 C 
BRANCH   8   9
ATOM      9  C   UNL     1       7.736  54.352  21.903  1.00  0.00    -0.000 C 
BRANCH   9  10
ATOM     10  C   UNL     1       8.893  54.722  22.840  1.00  0.00    -0.000 C 
BRANCH  10  11
ATOM     11  C   UNL     1       8.681  54.126  24.237  1.00  0.00    -0.003 C 
ATOM     12  C   UNL     1       7.259  53.602  24.403  1.00  0.00     0.004 C 
ENDBRANCH  10  11
ENDBRANCH   9  10
ENDBRANCH   8   9
ENDBRANCH   7   8
ENDBRANCH   6   7
ENDBRANCH   5   6
ENDBRANCH   4   5
ENDBRANCH   3   4
ENDBRANCH   2   3
ENDBRANCH   1   2
BRANCH   1  13
ATOM     13  C   UNL     1       0.575  60.507  24.184  1.00  0.00     0.000 C 
BRANCH  13  14
ATOM     14  C   UNL     1      -0.841  60.102  23.759  1.00  0.00     0.000 C 
BRANCH  14  15
ATOM     15  C   UNL     1      -1.470  61.172  22.855  1.00  0.00     0.000 C 
BRANCH  15  16
ATOM     16  C   UNL     1      -1.214  60.917  21.359  1.00  0.00     0.000 C 
BRANCH  16  17
ATOM     17  C   UNL     1      -0.095  61.774  20.735  1.00  0.00     0.000 C 
BRANCH  17  18
ATOM     18  C   UNL     1       0.486  61.231  19.413  1.00  0.00     0.000 C 
BRANCH  18  19
ATOM     19  C   UNL     1       0.127  59.767  19.092  1.00  0.00     0.000 C 
BRANCH  19  20
ATOM     20  C   UNL     1       1.289  58.907  18.560  1.00  0.00     0.006 C 
BRANCH  20  21
ATOM     21  C   UNL     1       1.219  58.627  17.048  1.00  0.00     0.053 C 
BRANCH  21  22
ATOM     22  C   UNL     1       2.314  59.311  16.287  1.00  0.00     0.041 C 
ATOM     23  O   UNL     1       3.119  58.638  15.591  1.00  0.00    -0.550 OA
ATOM     24  O   UNL     1       2.471  60.689  16.378  1.00  0.00    -0.550 OA
ENDBRANCH  21  22
ENDBRANCH  20  21
ENDBRANCH  19  20
ENDBRANCH  18  19
ENDBRANCH  17  18
ENDBRANCH  16  17
ENDBRANCH  15  16
ENDBRANCH  14  15
ENDBRANCH  13  14
ENDBRANCH   1  13
TORSDOF 20
ENDMDL
MODEL 3
REMARK VINA RESULT:    -5.206      1.285      2.923
REMARK INTER + INTRA:         -13.455
REMARK INTER:                 -11.785
REMARK INTRA:                  -1.671
REMARK UNBOUND:                -2.164
REMARK SMILES CCCCCCCCCCCCCCCCCCCCCC(=O)[O-]
REMARK SMILES IDX 12 1 11 2 10 3 9 4 8 5 7 6 6 7 5 8 4 9 3 10 2 11 1 12 13 13
REMARK SMILES IDX 14 14 15 15 16 16 17 17 18 18 19 19 20 20 21 21 22 22 23 23
REMARK SMILES IDX 24 24
REMARK H PARENT
REMARK Flexibility Score: inf
ROOT
ATOM      1  C   UNL     1       7.436  56.883  22.404  1.00  0.00     0.000 C 
ENDROOT
BRANCH   1   2
ATOM      2  C   UNL     1       8.208  55.827  21.598  1.00  0.00     0.000 C 
BRANCH   2   3
ATOM      3  C   UNL     1       7.368  55.209  20.469  1.00  0.00     0.000 C 
BRANCH   3   4
ATOM      4  C   UNL     1       6.459  54.072  20.964  1.00  0.00    -0.000 C 
BRANCH   4   5
ATOM      5  C   UNL     1       7.073  53.292  22.139  1.00  0.00    -0.000 C 
BRANCH   5   6
ATOM      6  C   UNL     1       6.449  53.677  23.492  1.00  0.00    -0.000 C 
BRANCH   6   7
ATOM      7  C   UNL     1       7.416  53.469  24.668  1.00  0.00    -0.000 C 
BRANCH   7   8
ATOM      8  C   UNL     1       8.771  52.895  24.228  1.00  0.00    -0.000 C 
BRANCH   8   9
ATOM      9  C   UNL     1       9.873  53.958  24.317  1.00  0.00    -0.000 C 
BRANCH   9  10
ATOM     10  C   UNL     1       9.446  55.120  25.222  1.00  0.00    -0.000 C 
BRANCH  10  11
ATOM     11  C   UNL     1       9.682  54.781  26.699  1.00  0.00    -0.003 C 
ATOM     12  C   UNL     1      11.169  54.639  27.001  1.00  0.00     0.004 C 
ENDBRANCH  10  11
ENDBRANCH   9  10
ENDBRANCH   8   9
ENDBRANCH   7   8
ENDBRANCH   6   7
ENDBRANCH   5   6
ENDBRANCH   4   5
ENDBRANCH   3   4
ENDBRANCH   2   3
ENDBRANCH   1   2
BRANCH   1  13
ATOM     13  C   UNL     1       6.172  57.326  21.655  1.00  0.00     0.000 C 
BRANCH  13  14
ATOM     14  C   UNL     1       4.961  57.372  22.594  1.00  0.00     0.000 C 
BRANCH  14  15
ATOM     15  C   UNL     1       3.837  58.232  21.998  1.00  0.00     0.000 C 
BRANCH  15  16
ATOM     16  C   UNL     1       3.308  59.290  22.982  1.00  0.00     0.000 C 
BRANCH  16  17
ATOM     17  C   UNL     1       2.430  60.387  22.349  1.00  0.00     0.000 C 
BRANCH  17  18
ATOM     18  C   UNL     1       0.988  59.958  22.009  1.00  0.00     0.000 C 
BRANCH  18  19
ATOM     19  C   UNL     1       0.574  60.160  20.539  1.00  0.00     0.000 C 
BRANCH  19  20
ATOM     20  C   UNL     1       1.240  59.204  19.531  1.00  0.00     0.006 C 
BRANCH  20  21
ATOM     21  C   UNL     1       1.810  59.906  18.285  1.00  0.00     0.053 C 
BRANCH  21  22
ATOM     22  C   UNL     1       1.731  59.049  17.058  1.00  0.00     0.041 C 
ATOM     23  O   UNL     1       2.555  59.208  16.119  1.00  0.00    -0.550 OA
ATOM     24  O   UNL     1       0.722  58.101  16.933  1.00  0.00    -0.550 OA
ENDBRANCH  21  22
ENDBRANCH  20  21
ENDBRANCH  19  20
ENDBRANCH  18  19
ENDBRANCH  17  18
ENDBRANCH  16  17
ENDBRANCH  15  16
ENDBRANCH  14  15
ENDBRANCH  13  14
ENDBRANCH   1  13
TORSDOF 20
ENDMDL
MODEL 4
REMARK VINA RESULT:    -5.158      3.848     10.196
REMARK INTER + INTRA:         -13.351
REMARK INTER:                 -11.478
REMARK INTRA:                  -1.873
REMARK UNBOUND:                -2.164
REMARK SMILES CCCCCCCCCCCCCCCCCCCCCC(=O)[O-]
REMARK SMILES IDX 12 1 11 2 10 3 9 4 8 5 7 6 6 7 5 8 4 9 3 10 2 11 1 12 13 13
REMARK SMILES IDX 14 14 15 15 16 16 17 17 18 18 19 19 20 20 21 21 22 22 23 23
REMARK SMILES IDX 24 24
REMARK H PARENT
REMARK Flexibility Score: inf
ROOT
ATOM      1  C   UNL     1       5.759  57.360  22.685  1.00  0.00     0.000 C 
ENDROOT
BRANCH   1   2
ATOM      2  C   UNL     1       4.294  57.304  22.226  1.00  0.00     0.000 C 
BRANCH   2   3
ATOM      3  C   UNL     1       3.791  58.650  21.679  1.00  0.00     0.000 C 
BRANCH   3   4
ATOM      4  C   UNL     1       2.381  58.550  21.071  1.00  0.00    -0.000 C 
BRANCH   4   5
ATOM      5  C   UNL     1       1.310  59.223  21.946  1.00  0.00    -0.000 C 
BRANCH   5   6
ATOM      6  C   UNL     1       0.237  59.947  21.114  1.00  0.00    -0.000 C 
BRANCH   6   7
ATOM      7  C   UNL     1       0.844  60.892  20.064  1.00  0.00    -0.000 C 
BRANCH   7   8
ATOM      8  C   UNL     1      -0.206  61.445  19.087  1.00  0.00    -0.000 C 
BRANCH   8   9
ATOM      9  C   UNL     1      -0.052  60.811  17.700  1.00  0.00    -0.000 C 
BRANCH   9  10
ATOM     10  C   UNL     1       1.408  60.432  17.425  1.00  0.00    -0.000 C 
BRANCH  10  11
ATOM     11  C   UNL     1       1.539  58.938  17.107  1.00  0.00    -0.003 C 
ATOM     12  C   UNL     1       0.195  58.228  17.234  1.00  0.00     0.004 C 
ENDBRANCH  10  11
ENDBRANCH   9  10
ENDBRANCH   8   9
ENDBRANCH   7   8
ENDBRANCH   6   7
ENDBRANCH   5   6
ENDBRANCH   4   5
ENDBRANCH   3   4
ENDBRANCH   2   3
ENDBRANCH   1   2
BRANCH   1  13
ATOM     13  C   UNL     1       6.707  57.009  21.531  1.00  0.00     0.000 C 
BRANCH  13  14
ATOM     14  C   UNL     1       7.790  56.024  21.986  1.00  0.00     0.000 C 
BRANCH  14  15
ATOM     15  C   UNL     1       7.656  54.682  21.252  1.00  0.00     0.000 C 
BRANCH  15  16
ATOM     16  C   UNL     1       6.866  53.636  22.058  1.00  0.00     0.000 C 
BRANCH  16  17
ATOM     17  C   UNL     1       6.510  54.055  23.497  1.00  0.00     0.000 C 
BRANCH  17  18
ATOM     18  C   UNL     1       7.275  53.304  24.606  1.00  0.00     0.000 C 
BRANCH  18  19
ATOM     19  C   UNL     1       7.940  54.203  25.667  1.00  0.00     0.000 C 
BRANCH  19  20
ATOM     20  C   UNL     1       9.156  55.012  25.174  1.00  0.00     0.006 C 
BRANCH  20  21
ATOM     21  C   UNL     1      10.445  54.181  25.035  1.00  0.00     0.053 C 
BRANCH  21  22
ATOM     22  C   UNL     1      10.498  53.418  23.746  1.00  0.00     0.041 C 
ATOM     23  O   UNL     1      10.753  54.013  22.666  1.00  0.00    -0.550 OA
ATOM     24  O   UNL     1      10.227  52.055  23.731  1.00  0.00    -0.550 OA
ENDBRANCH  21  22
ENDBRANCH  20  21
ENDBRANCH  19  20
ENDBRANCH  18  19
ENDBRANCH  17  18
ENDBRANCH  16  17
ENDBRANCH  15  16
ENDBRANCH  14  15
ENDBRANCH  13  14
ENDBRANCH   1  13
TORSDOF 20
ENDMDL
MODEL 5
REMARK VINA RESULT:    -5.131      1.191      1.649
REMARK INTER + INTRA:         -13.293
REMARK INTER:                 -11.347
REMARK INTRA:                  -1.946
REMARK UNBOUND:                -2.164
REMARK SMILES CCCCCCCCCCCCCCCCCCCCCC(=O)[O-]
REMARK SMILES IDX 12 1 11 2 10 3 9 4 8 5 7 6 6 7 5 8 4 9 3 10 2 11 1 12 13 13
REMARK SMILES IDX 14 14 15 15 16 16 17 17 18 18 19 19 20 20 21 21 22 22 23 23
REMARK SMILES IDX 24 24
REMARK H PARENT
REMARK Flexibility Score: inf
ROOT
ATOM      1  C   UNL     1       3.251  57.734  21.893  1.00  0.00     0.000 C 
ENDROOT
BRANCH   1   2
ATOM      2  C   UNL     1       4.639  58.112  22.434  1.00  0.00     0.000 C 
BRANCH   2   3
ATOM      3  C   UNL     1       5.644  56.951  22.356  1.00  0.00     0.000 C 
BRANCH   3   4
ATOM      4  C   UNL     1       4.999  55.590  22.668  1.00  0.00    -0.000 C 
BRANCH   4   5
ATOM      5  C   UNL     1       6.032  54.526  23.076  1.00  0.00    -0.000 C 
BRANCH   5   6
ATOM      6  C   UNL     1       6.557  53.721  21.874  1.00  0.00    -0.000 C 
BRANCH   6   7
ATOM      7  C   UNL     1       7.956  54.175  21.427  1.00  0.00    -0.000 C 
BRANCH   7   8
ATOM      8  C   UNL     1       8.807  54.707  22.590  1.00  0.00    -0.000 C 
BRANCH   8   9
ATOM      9  C   UNL     1      10.077  53.865  22.769  1.00  0.00    -0.000 C 
BRANCH   9  10
ATOM     10  C   UNL     1      10.202  53.356  24.210  1.00  0.00    -0.000 C 
BRANCH  10  11
ATOM     11  C   UNL     1       9.785  54.437  25.213  1.00  0.00    -0.003 C 
ATOM     12  C   UNL     1      10.896  54.712  26.221  1.00  0.00     0.004 C 
ENDBRANCH  10  11
ENDBRANCH   9  10
ENDBRANCH   8   9
ENDBRANCH   7   8
ENDBRANCH   6   7
ENDBRANCH   5   6
ENDBRANCH   4   5
ENDBRANCH   3   4
ENDBRANCH   2   3
ENDBRANCH   1   2
BRANCH   1  13
ATOM     13  C   UNL     1       2.646  58.890  21.086  1.00  0.00     0.000 C 
BRANCH  13  14
ATOM     14  C   UNL     1       2.824  60.226  21.817  1.00  0.00     0.000 C 
BRANCH  14  15
ATOM     15  C   UNL     1       1.772  60.392  22.923  1.00  0.00     0.000 C 
BRANCH  15  16
ATOM     16  C   UNL     1       0.389  59.850  22.520  1.00  0.00     0.000 C 
BRANCH  16  17
ATOM     17  C   UNL     1      -0.621  60.919  22.061  1.00  0.00     0.000 C 
BRANCH  17  18
ATOM     18  C   UNL     1      -0.904  60.946  20.545  1.00  0.00     0.000 C 
BRANCH  18  19
ATOM     19  C   UNL     1       0.186  61.617  19.687  1.00  0.00     0.000 C 
BRANCH  19  20
ATOM     20  C   UNL     1       0.492  60.919  18.348  1.00  0.00     0.006 C 
BRANCH  20  21
ATOM     21  C   UNL     1      -0.286  59.608  18.134  1.00  0.00     0.053 C 
BRANCH  21  22
ATOM     22  C   UNL     1       0.505  58.591  17.368  1.00  0.00     0.041 C 
ATOM     23  O   UNL     1       1.698  58.829  17.042  1.00  0.00    -0.550 OA
ATOM     24  O   UNL     1      -0.087  57.395  16.979  1.00  0.00    -0.550 OA
ENDBRANCH  21  22
ENDBRANCH  20  21
ENDBRANCH  19  20
ENDBRANCH  18  19
ENDBRANCH  17  18
ENDBRANCH  16  17
ENDBRANCH  15  16
ENDBRANCH  14  15
ENDBRANCH  13  14
ENDBRANCH   1  13
TORSDOF 20
ENDMDL
MODEL 6
REMARK VINA RESULT:    -5.124      1.415      2.182
REMARK INTER + INTRA:         -13.279
REMARK INTER:                 -11.514
REMARK INTRA:                  -1.764
REMARK UNBOUND:                -2.164
REMARK SMILES CCCCCCCCCCCCCCCCCCCCCC(=O)[O-]
REMARK SMILES IDX 12 1 11 2 10 3 9 4 8 5 7 6 6 7 5 8 4 9 3 10 2 11 1 12 13 13
REMARK SMILES IDX 14 14 15 15 16 16 17 17 18 18 19 19 20 20 21 21 22 22 23 23
REMARK SMILES IDX 24 24
REMARK H PARENT
REMARK Flexibility Score: inf
ROOT
ATOM      1  C   UNL     1       2.640  59.335  21.202  1.00  0.00     0.000 C 
ENDROOT
BRANCH   1   2
ATOM      2  C   UNL     1       3.079  58.006  21.836  1.00  0.00     0.000 C 
BRANCH   2   3
ATOM      3  C   UNL     1       4.469  58.089  22.488  1.00  0.00     0.000 C 
BRANCH   3   4
ATOM      4  C   UNL     1       5.207  56.740  22.478  1.00  0.00    -0.000 C 
BRANCH   4   5
ATOM      5  C   UNL     1       6.723  56.896  22.271  1.00  0.00    -0.000 C 
BRANCH   5   6
ATOM      6  C   UNL     1       7.274  55.945  21.194  1.00  0.00    -0.000 C 
BRANCH   6   7
ATOM      7  C   UNL     1       8.093  54.789  21.790  1.00  0.00    -0.000 C 
BRANCH   7   8
ATOM      8  C   UNL     1       7.244  53.845  22.655  1.00  0.00    -0.000 C 
BRANCH   8   9
ATOM      9  C   UNL     1       8.096  53.191  23.751  1.00  0.00    -0.000 C 
BRANCH   9  10
ATOM     10  C   UNL     1       8.686  54.247  24.693  1.00  0.00    -0.000 C 
BRANCH  10  11
ATOM     11  C   UNL     1      10.216  54.154  24.734  1.00  0.00    -0.003 C 
ATOM     12  C   UNL     1      10.767  54.711  26.043  1.00  0.00     0.004 C 
ENDBRANCH  10  11
ENDBRANCH   9  10
ENDBRANCH   8   9
ENDBRANCH   7   8
ENDBRANCH   6   7
ENDBRANCH   5   6
ENDBRANCH   4   5
ENDBRANCH   3   4
ENDBRANCH   2   3
ENDBRANCH   1   2
BRANCH   1  13
ATOM     13  C   UNL     1       1.154  59.605  21.472  1.00  0.00     0.000 C 
BRANCH  13  14
ATOM     14  C   UNL     1       0.697  60.903  20.797  1.00  0.00     0.000 C 
BRANCH  14  15
ATOM     15  C   UNL     1      -0.723  61.283  21.241  1.00  0.00     0.000 C 
BRANCH  15  16
ATOM     16  C   UNL     1      -1.737  61.262  20.084  1.00  0.00     0.000 C 
BRANCH  16  17
ATOM     17  C   UNL     1      -1.127  61.430  18.679  1.00  0.00     0.000 C 
BRANCH  17  18
ATOM     18  C   UNL     1      -1.495  60.326  17.668  1.00  0.00     0.000 C 
BRANCH  18  19
ATOM     19  C   UNL     1      -1.014  58.910  18.041  1.00  0.00     0.000 C 
BRANCH  19  20
ATOM     20  C   UNL     1       0.184  58.386  17.225  1.00  0.00     0.006 C 
BRANCH  20  21
ATOM     21  C   UNL     1       1.532  59.016  17.619  1.00  0.00     0.053 C 
BRANCH  21  22
ATOM     22  C   UNL     1       2.108  59.865  16.526  1.00  0.00     0.041 C 
ATOM     23  O   UNL     1       3.046  59.427  15.809  1.00  0.00    -0.550 OA
ATOM     24  O   UNL     1       1.636  61.157  16.324  1.00  0.00    -0.550 OA
ENDBRANCH  21  22
ENDBRANCH  20  21
ENDBRANCH  19  20
ENDBRANCH  18  19
ENDBRANCH  17  18
ENDBRANCH  16  17
ENDBRANCH  15  16
ENDBRANCH  14  15
ENDBRANCH  13  14
ENDBRANCH   1  13
TORSDOF 20
ENDMDL
MODEL 7
REMARK VINA RESULT:    -5.084      8.099     14.327
REMARK INTER + INTRA:         -13.192
REMARK INTER:                 -10.985
REMARK INTRA:                  -2.207
REMARK UNBOUND:                -2.164
REMARK SMILES CCCCCCCCCCCCCCCCCCCCCC(=O)[O-]
REMARK SMILES IDX 12 1 11 2 10 3 9 4 8 5 7 6 6 7 5 8 4 9 3 10 2 11 1 12 13 13
REMARK SMILES IDX 14 14 15 15 16 16 17 17 18 18 19 19 20 20 21 21 22 22 23 23
REMARK SMILES IDX 24 24
REMARK H PARENT
REMARK Flexibility Score: inf
ROOT
ATOM      1  C   UNL     1      10.216  49.006  24.773  1.00  0.00     0.000 C 
ENDROOT
BRANCH   1   2
ATOM      2  C   UNL     1      10.669  50.010  23.702  1.00  0.00     0.000 C 
BRANCH   2   3
ATOM      3  C   UNL     1       9.878  51.328  23.751  1.00  0.00     0.000 C 
BRANCH   3   4
ATOM      4  C   UNL     1      10.576  52.464  22.984  1.00  0.00    -0.000 C 
BRANCH   4   5
ATOM      5  C   UNL     1       9.941  53.838  23.255  1.00  0.00    -0.000 C 
BRANCH   5   6
ATOM      6  C   UNL     1       9.679  54.083  24.751  1.00  0.00    -0.000 C 
BRANCH   6   7
ATOM      7  C   UNL     1       8.253  54.586  25.026  1.00  0.00    -0.000 C 
BRANCH   7   8
ATOM      8  C   UNL     1       7.180  53.748  24.313  1.00  0.00    -0.000 C 
BRANCH   8   9
ATOM      9  C   UNL     1       6.381  54.606  23.325  1.00  0.00    -0.000 C 
BRANCH   9  10
ATOM     10  C   UNL     1       6.425  54.006  21.914  1.00  0.00    -0.000 C 
BRANCH  10  11
ATOM     11  C   UNL     1       7.288  54.862  20.979  1.00  0.00    -0.003 C 
ATOM     12  C   UNL     1       7.565  56.233  21.586  1.00  0.00     0.004 C 
ENDBRANCH  10  11
ENDBRANCH   9  10
ENDBRANCH   8   9
ENDBRANCH   7   8
ENDBRANCH   6   7
ENDBRANCH   5   6
ENDBRANCH   4   5
ENDBRANCH   3   4
ENDBRANCH   2   3
ENDBRANCH   1   2
BRANCH   1  13
ATOM     13  C   UNL     1      10.359  47.565  24.266  1.00  0.00     0.000 C 
BRANCH  13  14
ATOM     14  C   UNL     1       9.548  46.592  25.130  1.00  0.00     0.000 C 
BRANCH  14  15
ATOM     15  C   UNL     1       9.772  45.141  24.681  1.00  0.00     0.000 C 
BRANCH  15  16
ATOM     16  C   UNL     1      10.623  44.332  25.676  1.00  0.00     0.000 C 
BRANCH  16  17
ATOM     17  C   UNL     1      11.114  45.121  26.905  1.00  0.00     0.000 C 
BRANCH  17  18
ATOM     18  C   UNL     1      12.628  45.407  26.939  1.00  0.00     0.000 C 
BRANCH  18  19
ATOM     19  C   UNL     1      13.020  46.884  26.740  1.00  0.00     0.000 C 
BRANCH  19  20
ATOM     20  C   UNL     1      12.162  47.902  27.516  1.00  0.00     0.006 C 
BRANCH  20  21
ATOM     21  C   UNL     1      12.615  48.122  28.971  1.00  0.00     0.053 C 
BRANCH  21  22
ATOM     22  C   UNL     1      14.078  48.428  29.075  1.00  0.00     0.041 C 
ATOM     23  O   UNL     1      14.496  49.601  28.890  1.00  0.00    -0.550 OA
ATOM     24  O   UNL     1      14.986  47.409  29.338  1.00  0.00    -0.550 OA
ENDBRANCH  21  22
ENDBRANCH  20  21
ENDBRANCH  19  20
ENDBRANCH  18  19
ENDBRANCH  17  18
ENDBRANCH  16  17
ENDBRANCH  15  16
ENDBRANCH  14  15
ENDBRANCH  13  14
ENDBRANCH   1  13
TORSDOF 20
ENDMDL
MODEL 8
REMARK VINA RESULT:    -5.044      4.182     10.176
REMARK INTER + INTRA:         -13.105
REMARK INTER:                 -11.032
REMARK INTRA:                  -2.073
REMARK UNBOUND:                -2.164
REMARK SMILES CCCCCCCCCCCCCCCCCCCCCC(=O)[O-]
REMARK SMILES IDX 12 1 11 2 10 3 9 4 8 5 7 6 6 7 5 8 4 9 3 10 2 11 1 12 13 13
REMARK SMILES IDX 14 14 15 15 16 16 17 17 18 18 19 19 20 20 21 21 22 22 23 23
REMARK SMILES IDX 24 24
REMARK H PARENT
REMARK Flexibility Score: inf
ROOT
ATOM      1  C   UNL     1       4.622  57.765  22.736  1.00  0.00     0.000 C 
ENDROOT
BRANCH   1   2
ATOM      2  C   UNL     1       3.868  58.403  21.559  1.00  0.00     0.000 C 
BRANCH   2   3
ATOM      3  C   UNL     1       2.419  58.777  21.914  1.00  0.00     0.000 C 
BRANCH   3   4
ATOM      4  C   UNL     1       2.339  59.852  23.012  1.00  0.00    -0.000 C 
BRANCH   4   5
ATOM      5  C   UNL     1       1.151  59.637  23.965  1.00  0.00    -0.000 C 
BRANCH   5   6
ATOM      6  C   UNL     1      -0.189  59.514  23.218  1.00  0.00    -0.000 C 
BRANCH   6   7
ATOM      7  C   UNL     1      -0.551  60.790  22.442  1.00  0.00    -0.000 C 
BRANCH   7   8
ATOM      8  C   UNL     1      -0.746  60.535  20.939  1.00  0.00    -0.000 C 
BRANCH   8   9
ATOM      9  C   UNL     1       0.285  61.314  20.112  1.00  0.00    -0.000 C 
BRANCH   9  10
ATOM     10  C   UNL     1       0.884  60.433  19.009  1.00  0.00    -0.000 C 
BRANCH  10  11
ATOM     11  C   UNL     1      -0.167  59.475  18.438  1.00  0.00    -0.003 C 
ATOM     12  C   UNL     1       0.444  58.542  17.398  1.00  0.00     0.004 C 
ENDBRANCH  10  11
ENDBRANCH   9  10
ENDBRANCH   8   9
ENDBRANCH   7   8
ENDBRANCH   6   7
ENDBRANCH   5   6
ENDBRANCH   4   5
ENDBRANCH   3   4
ENDBRANCH   2   3
ENDBRANCH   1   2
BRANCH   1  13
ATOM     13  C   UNL     1       5.562  56.657  22.245  1.00  0.00     0.000 C 
BRANCH  13  14
ATOM     14  C   UNL     1       7.027  57.005  22.538  1.00  0.00     0.000 C 
BRANCH  14  15
ATOM     15  C   UNL     1       7.949  56.473  21.432  1.00  0.00     0.000 C 
BRANCH  15  16
ATOM     16  C   UNL     1       7.250  55.463  20.504  1.00  0.00     0.000 C 
BRANCH  16  17
ATOM     17  C   UNL     1       7.385  53.988  20.929  1.00  0.00     0.000 C 
BRANCH  17  18
ATOM     18  C   UNL     1       8.377  53.725  22.080  1.00  0.00     0.000 C 
BRANCH  18  19
ATOM     19  C   UNL     1       7.738  53.257  23.402  1.00  0.00     0.000 C 
BRANCH  19  20
ATOM     20  C   UNL     1       8.034  54.146  24.626  1.00  0.00     0.006 C 
BRANCH  20  21
ATOM     21  C   UNL     1       9.431  54.791  24.608  1.00  0.00     0.053 C 
BRANCH  21  22
ATOM     22  C   UNL     1      10.128  54.684  25.930  1.00  0.00     0.041 C 
ATOM     23  O   UNL     1      11.370  54.480  25.978  1.00  0.00    -0.550 OA
ATOM     24  O   UNL     1       9.401  54.770  27.111  1.00  0.00    -0.550 OA
ENDBRANCH  21  22
ENDBRANCH  20  21
ENDBRANCH  19  20
ENDBRANCH  18  19
ENDBRANCH  17  18
ENDBRANCH  16  17
ENDBRANCH  15  16
ENDBRANCH  14  15
ENDBRANCH  13  14
ENDBRANCH   1  13
TORSDOF 20
ENDMDL
MODEL 9
REMARK VINA RESULT:    -5.014      3.974     10.140
REMARK INTER + INTRA:         -13.041
REMARK INTER:                 -11.218
REMARK INTRA:                  -1.823
REMARK UNBOUND:                -2.164
REMARK SMILES CCCCCCCCCCCCCCCCCCCCCC(=O)[O-]
REMARK SMILES IDX 12 1 11 2 10 3 9 4 8 5 7 6 6 7 5 8 4 9 3 10 2 11 1 12 13 13
REMARK SMILES IDX 14 14 15 15 16 16 17 17 18 18 19 19 20 20 21 21 22 22 23 23
REMARK SMILES IDX 24 24
REMARK H PARENT
REMARK Flexibility Score: inf
ROOT
ATOM      1  C   UNL     1       3.493  59.597  21.503  1.00  0.00     0.000 C 
ENDROOT
BRANCH   1   2
ATOM      2  C   UNL     1       2.371  59.854  20.485  1.00  0.00     0.000 C 
BRANCH   2   3
ATOM      3  C   UNL     1       1.011  59.306  20.947  1.00  0.00     0.000 C 
BRANCH   3   4
ATOM      4  C   UNL     1       0.326  60.218  21.979  1.00  0.00    -0.000 C 
BRANCH   4   5
ATOM      5  C   UNL     1      -0.948  60.881  21.429  1.00  0.00    -0.000 C 
BRANCH   5   6
ATOM      6  C   UNL     1      -1.813  59.908  20.609  1.00  0.00    -0.000 C 
BRANCH   6   7
ATOM      7  C   UNL     1      -2.079  60.413  19.182  1.00  0.00    -0.000 C 
BRANCH   7   8
ATOM      8  C   UNL     1      -1.710  59.379  18.107  1.00  0.00    -0.000 C 
BRANCH   8   9
ATOM      9  C   UNL     1      -0.399  59.759  17.408  1.00  0.00    -0.000 C 
BRANCH   9  10
ATOM     10  C   UNL     1       0.545  58.553  17.315  1.00  0.00    -0.000 C 
BRANCH  10  11
ATOM     11  C   UNL     1       1.940  58.982  16.844  1.00  0.00    -0.003 C 
ATOM     12  C   UNL     1       2.003  60.486  16.606  1.00  0.00     0.004 C 
ENDBRANCH  10  11
ENDBRANCH   9  10
ENDBRANCH   8   9
ENDBRANCH   7   8
ENDBRANCH   6   7
ENDBRANCH   5   6
ENDBRANCH   4   5
ENDBRANCH   3   4
ENDBRANCH   2   3
ENDBRANCH   1   2
BRANCH   1  13
ATOM     13  C   UNL     1       3.570  58.109  21.867  1.00  0.00     0.000 C 
BRANCH  13  14
ATOM     14  C   UNL     1       4.833  57.804  22.681  1.00  0.00     0.000 C 
BRANCH  14  15
ATOM     15  C   UNL     1       5.620  56.642  22.058  1.00  0.00     0.000 C 
BRANCH  15  16
ATOM     16  C   UNL     1       7.105  56.640  22.464  1.00  0.00     0.000 C 
BRANCH  16  17
ATOM     17  C   UNL     1       8.031  55.822  21.543  1.00  0.00     0.000 C 
BRANCH  17  18
ATOM     18  C   UNL     1       7.754  54.305  21.516  1.00  0.00     0.000 C 
BRANCH  18  19
ATOM     19  C   UNL     1       7.114  53.733  22.795  1.00  0.00     0.000 C 
BRANCH  19  20
ATOM     20  C   UNL     1       8.071  52.950  23.716  1.00  0.00     0.006 C 
BRANCH  20  21
ATOM     21  C   UNL     1       8.590  53.762  24.915  1.00  0.00     0.053 C 
BRANCH  21  22
ATOM     22  C   UNL     1       9.984  54.271  24.701  1.00  0.00     0.041 C 
ATOM     23  O   UNL     1      10.610  53.983  23.647  1.00  0.00    -0.550 OA
ATOM     24  O   UNL     1      10.607  55.032  25.683  1.00  0.00    -0.550 OA
ENDBRANCH  21  22
ENDBRANCH  20  21
ENDBRANCH  19  20
ENDBRANCH  18  19
ENDBRANCH  17  18
ENDBRANCH  16  17
ENDBRANCH  15  16
ENDBRANCH  14  15
ENDBRANCH  13  14
ENDBRANCH   1  13
TORSDOF 20
ENDMDL
