MODEL 1
REMARK VINA RESULT:    -0.073      0.000      0.000
REMARK INTER + INTRA:          -0.974
REMARK INTER:                  -0.137
REMARK INTRA:                  -0.837
REMARK UNBOUND:                -0.837
REMARK SMILES CCCCCCCCC=CCCCCCCCC(=O)[O-]
REMARK SMILES IDX 10 1 9 2 11 3 12 4 13 5 14 6 15 7 16 8 17 9 18 10 19 11
REMARK SMILES IDX 20 12 8 13 7 14 6 15 5 16 4 17 3 18 2 19 1 20
REMARK H PARENT
REMARK Flexibility Score: inf
ROOT
ATOM      1  C   UNL     1     -10.865  -7.557  24.995  1.00  0.00    -0.031 C 
ATOM      2  C   UNL     1      -9.749  -6.995  25.483  1.00  0.00    -0.031 C 
ENDROOT
BRANCH   1   3
ATOM      3  C   UNL     1     -10.886  -8.986  24.525  1.00  0.00     0.027 C 
BRANCH   3   4
ATOM      4  C   UNL     1      -9.875  -9.213  23.394  1.00  0.00     0.004 C 
BRANCH   4   5
ATOM      5  C   UNL     1     -10.036  -8.152  22.294  1.00  0.00     0.000 C 
BRANCH   5   6
ATOM      6  C   UNL     1      -8.914  -8.208  21.245  1.00  0.00     0.000 C 
BRANCH   6   7
ATOM      7  C   UNL     1      -9.300  -9.043  20.012  1.00  0.00     0.000 C 
BRANCH   7   8
ATOM      8  C   UNL     1      -8.515  -8.640  18.750  1.00  0.00     0.006 C 
BRANCH   8   9
ATOM      9  C   UNL     1      -7.152  -9.337  18.601  1.00  0.00     0.053 C 
BRANCH   9  10
ATOM     10  C   UNL     1      -6.012  -8.396  18.845  1.00  0.00     0.041 C 
ATOM     11  O   UNL     1      -5.256  -8.058  17.897  1.00  0.00    -0.550 OA
ATOM     12  O   UNL     1      -5.767  -7.919  20.126  1.00  0.00    -0.550 OA
ENDBRANCH   9  10
ENDBRANCH   8   9
ENDBRANCH   7   8
ENDBRANCH   6   7
ENDBRANCH   5   6
ENDBRANCH   4   5
ENDBRANCH   3   4
ENDBRANCH   1   3
BRANCH   2  13
ATOM     13  C   UNL     1      -9.726  -5.565  25.952  1.00  0.00     0.027 C 
BRANCH  13  14
ATOM     14  C   UNL     1     -11.037  -5.191  26.655  1.00  0.00     0.004 C 
BRANCH  14  15
ATOM     15  C   UNL     1     -10.796  -4.879  28.138  1.00  0.00     0.000 C 
BRANCH  15  16
ATOM     16  C   UNL     1      -9.864  -5.896  28.820  1.00  0.00     0.000 C 
BRANCH  16  17
ATOM     17  C   UNL     1     -10.557  -7.171  29.341  1.00  0.00    -0.000 C 
BRANCH  17  18
ATOM     18  C   UNL     1     -11.636  -7.753  28.412  1.00  0.00    -0.000 C 
BRANCH  18  19
ATOM     19  C   UNL     1     -11.839  -9.262  28.605  1.00  0.00    -0.003 C 
ATOM     20  C   UNL     1     -12.784  -9.547  29.768  1.00  0.00     0.004 C 
ENDBRANCH  18  19
ENDBRANCH  17  18
ENDBRANCH  16  17
ENDBRANCH  15  16
ENDBRANCH  14  15
ENDBRANCH  13  14
ENDBRANCH   2  13
TORSDOF 15
ENDMDL
MODEL 2
REMARK VINA RESULT:     0.147     12.155     15.073
REMARK INTER + INTRA:          -0.561
REMARK INTER:                   0.807
REMARK INTRA:                  -1.368
REMARK UNBOUND:                -0.837
REMARK SMILES CCCCCCCCC=CCCCCCCCC(=O)[O-]
REMARK SMILES IDX 10 1 9 2 11 3 12 4 13 5 14 6 15 7 16 8 17 9 18 10 19 11
REMARK SMILES IDX 20 12 8 13 7 14 6 15 5 16 4 17 3 18 2 19 1 20
REMARK H PARENT
REMARK Flexibility Score: inf
ROOT
ATOM      1  C   UNL     1      -7.658   2.834  14.596  1.00  0.00    -0.031 C 
ATOM      2  C   UNL     1      -8.752   2.835  15.373  1.00  0.00    -0.031 C 
ENDROOT
BRANCH   1   3
ATOM      3  C   UNL     1      -7.657   2.184  13.239  1.00  0.00     0.027 C 
BRANCH   3   4
ATOM      4  C   UNL     1      -7.671   0.654  13.357  1.00  0.00     0.004 C 
BRANCH   4   5
ATOM      5  C   UNL     1      -9.086   0.100  13.130  1.00  0.00     0.000 C 
BRANCH   5   6
ATOM      6  C   UNL     1      -9.376  -1.152  13.973  1.00  0.00     0.000 C 
BRANCH   6   7
ATOM      7  C   UNL     1      -9.384  -2.440  13.132  1.00  0.00     0.000 C 
BRANCH   7   8
ATOM      8  C   UNL     1     -10.053  -3.622  13.859  1.00  0.00     0.006 C 
BRANCH   8   9
ATOM      9  C   UNL     1     -11.324  -4.151  13.175  1.00  0.00     0.053 C 
BRANCH   9  10
ATOM     10  C   UNL     1     -12.558  -3.833  13.962  1.00  0.00     0.041 C 
ATOM     11  O   UNL     1     -13.390  -4.739  14.231  1.00  0.00    -0.550 OA
ATOM     12  O   UNL     1     -12.804  -2.528  14.372  1.00  0.00    -0.550 OA
ENDBRANCH   9  10
ENDBRANCH   8   9
ENDBRANCH   7   8
ENDBRANCH   6   7
ENDBRANCH   5   6
ENDBRANCH   4   5
ENDBRANCH   3   4
ENDBRANCH   1   3
BRANCH   2  13
ATOM     13  C   UNL     1      -8.754   3.484  16.730  1.00  0.00     0.027 C 
BRANCH  13  14
ATOM     14  C   UNL     1      -7.594   4.478  16.872  1.00  0.00     0.004 C 
BRANCH  14  15
ATOM     15  C   UNL     1      -8.115   5.888  17.185  1.00  0.00     0.000 C 
BRANCH  15  16
ATOM     16  C   UNL     1      -8.910   6.504  16.020  1.00  0.00     0.000 C 
BRANCH  16  17
ATOM     17  C   UNL     1      -8.053   7.067  14.869  1.00  0.00    -0.000 C 
BRANCH  17  18
ATOM     18  C   UNL     1      -7.824   6.101  13.694  1.00  0.00    -0.000 C 
BRANCH  18  19
ATOM     19  C   UNL     1      -6.340   5.929  13.343  1.00  0.00    -0.003 C 
ATOM     20  C   UNL     1      -5.943   6.828  12.176  1.00  0.00     0.004 C 
ENDBRANCH  18  19
ENDBRANCH  17  18
ENDBRANCH  16  17
ENDBRANCH  15  16
ENDBRANCH  14  15
ENDBRANCH  13  14
ENDBRANCH   2  13
TORSDOF 15
ENDMDL
MODEL 3
REMARK VINA RESULT:     0.264      3.774      9.066
REMARK INTER + INTRA:          -0.342
REMARK INTER:                   0.787
REMARK INTRA:                  -1.129
REMARK UNBOUND:                -0.837
REMARK SMILES CCCCCCCCC=CCCCCCCCC(=O)[O-]
REMARK SMILES IDX 10 1 9 2 11 3 12 4 13 5 14 6 15 7 16 8 17 9 18 10 19 11
REMARK SMILES IDX 20 12 8 13 7 14 6 15 5 16 4 17 3 18 2 19 1 20
REMARK H PARENT
REMARK Flexibility Score: inf
ROOT
ATOM      1  C   UNL     1     -10.656  -8.532  24.108  1.00  0.00    -0.031 C 
ATOM      2  C   UNL     1      -9.737  -8.238  23.176  1.00  0.00    -0.031 C 
ENDROOT
BRANCH   1   3
ATOM      3  C   UNL     1     -10.940  -7.601  25.255  1.00  0.00     0.027 C 
BRANCH   3   4
ATOM      4  C   UNL     1      -9.723  -6.724  25.573  1.00  0.00     0.004 C 
BRANCH   4   5
ATOM      5  C   UNL     1     -10.147  -5.269  25.829  1.00  0.00     0.000 C 
BRANCH   5   6
ATOM      6  C   UNL     1     -10.931  -5.101  27.141  1.00  0.00     0.000 C 
BRANCH   6   7
ATOM      7  C   UNL     1     -10.027  -5.183  28.383  1.00  0.00     0.000 C 
BRANCH   7   8
ATOM      8  C   UNL     1     -10.531  -6.206  29.419  1.00  0.00     0.006 C 
BRANCH   8   9
ATOM      9  C   UNL     1     -10.430  -7.671  28.965  1.00  0.00     0.053 C 
BRANCH   9  10
ATOM     10  C   UNL     1     -11.779  -8.308  28.823  1.00  0.00     0.041 C 
ATOM     11  O   UNL     1     -12.008  -9.430  29.345  1.00  0.00    -0.550 OA
ATOM     12  O   UNL     1     -12.772  -7.675  28.087  1.00  0.00    -0.550 OA
ENDBRANCH   9  10
ENDBRANCH   8   9
ENDBRANCH   7   8
ENDBRANCH   6   7
ENDBRANCH   5   6
ENDBRANCH   4   5
ENDBRANCH   3   4
ENDBRANCH   1   3
BRANCH   2  13
ATOM     13  C   UNL     1      -9.451  -9.169  22.030  1.00  0.00     0.027 C 
BRANCH  13  14
ATOM     14  C   UNL     1      -9.379  -8.408  20.700  1.00  0.00     0.004 C 
BRANCH  14  15
ATOM     15  C   UNL     1      -8.908  -9.328  19.565  1.00  0.00     0.000 C 
BRANCH  15  16
ATOM     16  C   UNL     1      -8.050  -8.595  18.518  1.00  0.00     0.000 C 
BRANCH  16  17
ATOM     17  C   UNL     1      -6.575  -9.039  18.456  1.00  0.00    -0.000 C 
BRANCH  17  18
ATOM     18  C   UNL     1      -5.565  -8.028  19.025  1.00  0.00    -0.000 C 
BRANCH  18  19
ATOM     19  C   UNL     1      -5.929  -7.554  20.439  1.00  0.00    -0.003 C 
ATOM     20  C   UNL     1      -4.703  -7.537  21.347  1.00  0.00     0.004 C 
ENDBRANCH  18  19
ENDBRANCH  17  18
ENDBRANCH  16  17
ENDBRANCH  15  16
ENDBRANCH  14  15
ENDBRANCH  13  14
ENDBRANCH   2  13
TORSDOF 15
ENDMDL
MODEL 4
REMARK VINA RESULT:     0.613     12.349     15.079
REMARK INTER + INTRA:           0.313
REMARK INTER:                   1.234
REMARK INTRA:                  -0.921
REMARK UNBOUND:                -0.837
REMARK SMILES CCCCCCCCC=CCCCCCCCC(=O)[O-]
REMARK SMILES IDX 10 1 9 2 11 3 12 4 13 5 14 6 15 7 16 8 17 9 18 10 19 11
REMARK SMILES IDX 20 12 8 13 7 14 6 15 5 16 4 17 3 18 2 19 1 20
REMARK H PARENT
REMARK Flexibility Score: inf
ROOT
ATOM      1  C   UNL     1      -8.012   1.528  13.700  1.00  0.00    -0.031 C 
ATOM      2  C   UNL     1      -8.734   0.470  14.099  1.00  0.00    -0.031 C 
ENDROOT
BRANCH   1   3
ATOM      3  C   UNL     1      -7.687   2.659  14.637  1.00  0.00     0.027 C 
BRANCH   3   4
ATOM      4  C   UNL     1      -8.915   3.067  15.461  1.00  0.00     0.004 C 
BRANCH   4   5
ATOM      5  C   UNL     1      -8.502   3.533  16.866  1.00  0.00     0.000 C 
BRANCH   5   6
ATOM      6  C   UNL     1      -7.763   4.881  16.852  1.00  0.00     0.000 C 
BRANCH   6   7
ATOM      7  C   UNL     1      -8.687   6.056  16.492  1.00  0.00     0.000 C 
BRANCH   7   8
ATOM      8  C   UNL     1      -8.093   6.968  15.402  1.00  0.00     0.006 C 
BRANCH   8   9
ATOM      9  C   UNL     1      -8.130   6.372  13.985  1.00  0.00     0.053 C 
BRANCH   9  10
ATOM     10  C   UNL     1      -6.756   6.103  13.453  1.00  0.00     0.041 C 
ATOM     11  O   UNL     1      -5.980   5.324  14.066  1.00  0.00    -0.550 OA
ATOM     12  O   UNL     1      -6.322   6.738  12.296  1.00  0.00    -0.550 OA
ENDBRANCH   9  10
ENDBRANCH   8   9
ENDBRANCH   7   8
ENDBRANCH   6   7
ENDBRANCH   5   6
ENDBRANCH   4   5
ENDBRANCH   3   4
ENDBRANCH   1   3
BRANCH   2  13
ATOM     13  C   UNL     1      -9.061  -0.660  13.162  1.00  0.00     0.027 C 
BRANCH  13  14
ATOM     14  C   UNL     1      -9.213  -1.985  13.921  1.00  0.00     0.004 C 
BRANCH  14  15
ATOM     15  C   UNL     1      -9.759  -3.085  13.000  1.00  0.00     0.000 C 
BRANCH  15  16
ATOM     16  C   UNL     1     -10.475  -4.209  13.770  1.00  0.00     0.000 C 
BRANCH  16  17
ATOM     17  C   UNL     1     -11.943  -4.446  13.364  1.00  0.00    -0.000 C 
BRANCH  17  18
ATOM     18  C   UNL     1     -12.987  -3.747  14.253  1.00  0.00    -0.000 C 
BRANCH  18  19
ATOM     19  C   UNL     1     -12.679  -2.261  14.477  1.00  0.00    -0.003 C 
ATOM     20  C   UNL     1     -13.944  -1.484  14.830  1.00  0.00     0.004 C 
ENDBRANCH  18  19
ENDBRANCH  17  18
ENDBRANCH  16  17
ENDBRANCH  15  16
ENDBRANCH  14  15
ENDBRANCH  13  14
ENDBRANCH   2  13
TORSDOF 15
ENDMDL
MODEL 5
REMARK VINA RESULT:     0.716      3.755      9.024
REMARK INTER + INTRA:           0.507
REMARK INTER:                   0.477
REMARK INTRA:                   0.030
REMARK UNBOUND:                -0.837
REMARK SMILES CCCCCCCCC=CCCCCCCCC(=O)[O-]
REMARK SMILES IDX 10 1 9 2 11 3 12 4 13 5 14 6 15 7 16 8 17 9 18 10 19 11
REMARK SMILES IDX 20 12 8 13 7 14 6 15 5 16 4 17 3 18 2 19 1 20
REMARK H PARENT
REMARK Flexibility Score: inf
ROOT
ATOM      1  C   UNL     1     -10.355  -8.244  23.000  1.00  0.00    -0.031 C 
ATOM      2  C   UNL     1      -9.662  -8.936  22.082  1.00  0.00    -0.031 C 
ENDROOT
BRANCH   1   3
ATOM      3  C   UNL     1     -10.862  -8.894  24.258  1.00  0.00     0.027 C 
BRANCH   3   4
ATOM      4  C   UNL     1     -10.845  -7.910  25.435  1.00  0.00     0.004 C 
BRANCH   4   5
ATOM      5  C   UNL     1      -9.719  -6.878  25.270  1.00  0.00     0.000 C 
BRANCH   5   6
ATOM      6  C   UNL     1     -10.004  -5.563  26.014  1.00  0.00     0.000 C 
BRANCH   6   7
ATOM      7  C   UNL     1     -11.062  -5.727  27.118  1.00  0.00     0.000 C 
BRANCH   7   8
ATOM      8  C   UNL     1     -10.448  -5.764  28.531  1.00  0.00     0.006 C 
BRANCH   8   9
ATOM      9  C   UNL     1     -10.443  -7.156  29.185  1.00  0.00     0.053 C 
BRANCH   9  10
ATOM     10  C   UNL     1     -11.602  -7.991  28.734  1.00  0.00     0.041 C 
ATOM     11  O   UNL     1     -12.572  -7.458  28.133  1.00  0.00    -0.550 OA
ATOM     12  O   UNL     1     -11.624  -9.353  29.004  1.00  0.00    -0.550 OA
ENDBRANCH   9  10
ENDBRANCH   8   9
ENDBRANCH   7   8
ENDBRANCH   6   7
ENDBRANCH   5   6
ENDBRANCH   4   5
ENDBRANCH   3   4
ENDBRANCH   1   3
BRANCH   2  13
ATOM     13  C   UNL     1      -9.156  -8.287  20.823  1.00  0.00     0.027 C 
BRANCH  13  14
ATOM     14  C   UNL     1      -9.077  -9.297  19.671  1.00  0.00     0.004 C 
BRANCH  14  15
ATOM     15  C   UNL     1      -8.275  -8.726  18.494  1.00  0.00     0.000 C 
BRANCH  15  16
ATOM     16  C   UNL     1      -6.822  -9.232  18.458  1.00  0.00     0.000 C 
BRANCH  16  17
ATOM     17  C   UNL     1      -5.765  -8.162  18.117  1.00  0.00    -0.000 C 
BRANCH  17  18
ATOM     18  C   UNL     1      -4.952  -7.642  19.315  1.00  0.00    -0.000 C 
BRANCH  18  19
ATOM     19  C   UNL     1      -5.649  -7.890  20.660  1.00  0.00    -0.003 C 
ATOM     20  C   UNL     1      -4.922  -7.177  21.796  1.00  0.00     0.004 C 
ENDBRANCH  18  19
ENDBRANCH  17  18
ENDBRANCH  16  17
ENDBRANCH  15  16
ENDBRANCH  14  15
ENDBRANCH  13  14
ENDBRANCH   2  13
TORSDOF 15
ENDMDL
MODEL 6
REMARK VINA RESULT:     1.088      2.788      8.540
REMARK INTER + INTRA:           1.205
REMARK INTER:                   1.545
REMARK INTRA:                  -0.340
REMARK UNBOUND:                -0.837
REMARK SMILES CCCCCCCCC=CCCCCCCCC(=O)[O-]
REMARK SMILES IDX 10 1 9 2 11 3 12 4 13 5 14 6 15 7 16 8 17 9 18 10 19 11
REMARK SMILES IDX 20 12 8 13 7 14 6 15 5 16 4 17 3 18 2 19 1 20
REMARK H PARENT
REMARK Flexibility Score: inf
ROOT
ATOM      1  C   UNL     1     -10.114  -9.273  23.426  1.00  0.00    -0.031 C 
ATOM      2  C   UNL     1     -10.165  -8.202  22.621  1.00  0.00    -0.031 C 
ENDROOT
BRANCH   1   3
ATOM      3  C   UNL     1     -11.105  -9.468  24.541  1.00  0.00     0.027 C 
BRANCH   3   4
ATOM      4  C   UNL     1     -11.028  -8.323  25.558  1.00  0.00     0.004 C 
BRANCH   4   5
ATOM      5  C   UNL     1     -11.449  -8.803  26.956  1.00  0.00     0.000 C 
BRANCH   5   6
ATOM      6  C   UNL     1     -11.881  -7.649  27.876  1.00  0.00     0.000 C 
BRANCH   6   7
ATOM      7  C   UNL     1     -10.829  -7.325  28.950  1.00  0.00     0.000 C 
BRANCH   7   8
ATOM      8  C   UNL     1     -10.061  -6.022  28.656  1.00  0.00     0.006 C 
BRANCH   8   9
ATOM      9  C   UNL     1     -10.806  -5.038  27.739  1.00  0.00     0.053 C 
BRANCH   9  10
ATOM     10  C   UNL     1     -10.183  -4.956  26.380  1.00  0.00     0.041 C 
ATOM     11  O   UNL     1     -10.324  -3.920  25.679  1.00  0.00    -0.550 OA
ATOM     12  O   UNL     1      -9.472  -6.038  25.875  1.00  0.00    -0.550 OA
ENDBRANCH   9  10
ENDBRANCH   8   9
ENDBRANCH   7   8
ENDBRANCH   6   7
ENDBRANCH   5   6
ENDBRANCH   4   5
ENDBRANCH   3   4
ENDBRANCH   1   3
BRANCH   2  13
ATOM     13  C   UNL     1      -9.173  -8.006  21.507  1.00  0.00     0.027 C 
BRANCH  13  14
ATOM     14  C   UNL     1      -9.421  -8.995  20.362  1.00  0.00     0.004 C 
BRANCH  14  15
ATOM     15  C   UNL     1      -8.715  -8.537  19.078  1.00  0.00     0.000 C 
BRANCH  15  16
ATOM     16  C   UNL     1      -7.449  -9.355  18.767  1.00  0.00     0.000 C 
BRANCH  16  17
ATOM     17  C   UNL     1      -6.297  -8.558  18.122  1.00  0.00    -0.000 C 
BRANCH  17  18
ATOM     18  C   UNL     1      -5.357  -7.852  19.115  1.00  0.00    -0.000 C 
BRANCH  18  19
ATOM     19  C   UNL     1      -5.802  -8.013  20.575  1.00  0.00    -0.003 C 
ATOM     20  C   UNL     1      -4.937  -7.173  21.510  1.00  0.00     0.004 C 
ENDBRANCH  18  19
ENDBRANCH  17  18
ENDBRANCH  16  17
ENDBRANCH  15  16
ENDBRANCH  14  15
ENDBRANCH  13  14
ENDBRANCH   2  13
TORSDOF 15
ENDMDL
MODEL 7
REMARK VINA RESULT:     1.335      0.845      2.715
REMARK INTER + INTRA:           1.669
REMARK INTER:                   2.895
REMARK INTRA:                  -1.226
REMARK UNBOUND:                -0.837
REMARK SMILES CCCCCCCCC=CCCCCCCCC(=O)[O-]
REMARK SMILES IDX 10 1 9 2 11 3 12 4 13 5 14 6 15 7 16 8 17 9 18 10 19 11
REMARK SMILES IDX 20 12 8 13 7 14 6 15 5 16 4 17 3 18 2 19 1 20
REMARK H PARENT
REMARK Flexibility Score: inf
ROOT
ATOM      1  C   UNL     1     -11.215  -7.608  25.644  1.00  0.00    -0.031 C 
ATOM      2  C   UNL     1     -11.185  -8.217  26.839  1.00  0.00    -0.031 C 
ENDROOT
BRANCH   1   3
ATOM      3  C   UNL     1     -10.119  -7.806  24.632  1.00  0.00     0.027 C 
BRANCH   3   4
ATOM      4  C   UNL     1     -10.655  -8.469  23.357  1.00  0.00     0.004 C 
BRANCH   4   5
ATOM      5  C   UNL     1      -9.512  -9.093  22.542  1.00  0.00     0.000 C 
BRANCH   5   6
ATOM      6  C   UNL     1      -9.237  -8.340  21.230  1.00  0.00     0.000 C 
BRANCH   6   7
ATOM      7  C   UNL     1      -9.141  -9.282  20.018  1.00  0.00     0.000 C 
BRANCH   7   8
ATOM      8  C   UNL     1      -8.457  -8.625  18.805  1.00  0.00     0.006 C 
BRANCH   8   9
ATOM      9  C   UNL     1      -7.103  -9.248  18.425  1.00  0.00     0.053 C 
BRANCH   9  10
ATOM     10  C   UNL     1      -5.954  -8.365  18.803  1.00  0.00     0.041 C 
ATOM     11  O   UNL     1      -5.122  -8.000  17.932  1.00  0.00    -0.550 OA
ATOM     12  O   UNL     1      -5.785  -7.971  20.125  1.00  0.00    -0.550 OA
ENDBRANCH   9  10
ENDBRANCH   8   9
ENDBRANCH   7   8
ENDBRANCH   6   7
ENDBRANCH   5   6
ENDBRANCH   4   5
ENDBRANCH   3   4
ENDBRANCH   1   3
BRANCH   2  13
ATOM     13  C   UNL     1     -12.280  -8.018  27.852  1.00  0.00     0.027 C 
BRANCH  13  14
ATOM     14  C   UNL     1     -11.764  -8.244  29.279  1.00  0.00     0.004 C 
BRANCH  14  15
ATOM     15  C   UNL     1     -10.285  -7.849  29.397  1.00  0.00     0.000 C 
BRANCH  15  16
ATOM     16  C   UNL     1     -10.089  -6.364  29.751  1.00  0.00     0.000 C 
BRANCH  16  17
ATOM     17  C   UNL     1      -9.778  -5.441  28.556  1.00  0.00    -0.000 C 
BRANCH  17  18
ATOM     18  C   UNL     1     -10.880  -4.423  28.213  1.00  0.00    -0.000 C 
BRANCH  18  19
ATOM     19  C   UNL     1     -11.207  -4.381  26.714  1.00  0.00    -0.003 C 
ATOM     20  C   UNL     1      -9.944  -4.527  25.871  1.00  0.00     0.004 C 
ENDBRANCH  18  19
ENDBRANCH  17  18
ENDBRANCH  16  17
ENDBRANCH  15  16
ENDBRANCH  14  15
ENDBRANCH  13  14
ENDBRANCH   2  13
TORSDOF 15
ENDMDL
MODEL 8
REMARK VINA RESULT:     1.359      1.073      2.313
REMARK INTER + INTRA:           1.713
REMARK INTER:                   2.021
REMARK INTRA:                  -0.307
REMARK UNBOUND:                -0.837
REMARK SMILES CCCCCCCCC=CCCCCCCCC(=O)[O-]
REMARK SMILES IDX 10 1 9 2 11 3 12 4 13 5 14 6 15 7 16 8 17 9 18 10 19 11
REMARK SMILES IDX 20 12 8 13 7 14 6 15 5 16 4 17 3 18 2 19 1 20
REMARK H PARENT
REMARK Flexibility Score: inf
ROOT
ATOM      1  C   UNL     1     -10.004  -8.019  23.380  1.00  0.00    -0.031 C 
ATOM      2  C   UNL     1     -10.663  -8.359  24.498  1.00  0.00    -0.031 C 
ENDROOT
BRANCH   1   3
ATOM      3  C   UNL     1      -9.758  -9.012  22.278  1.00  0.00     0.027 C 
BRANCH   3   4
ATOM      4  C   UNL     1      -9.384  -8.305  20.968  1.00  0.00     0.004 C 
BRANCH   4   5
ATOM      5  C   UNL     1      -9.058  -9.327  19.868  1.00  0.00     0.000 C 
BRANCH   5   6
ATOM      6  C   UNL     1      -8.559  -8.667  18.573  1.00  0.00     0.000 C 
BRANCH   6   7
ATOM      7  C   UNL     1      -7.173  -9.180  18.145  1.00  0.00     0.000 C 
BRANCH   7   8
ATOM      8  C   UNL     1      -6.021  -8.345  18.735  1.00  0.00     0.006 C 
BRANCH   8   9
ATOM      9  C   UNL     1      -6.018  -8.263  20.271  1.00  0.00     0.053 C 
BRANCH   9  10
ATOM     10  C   UNL     1      -4.945  -7.352  20.782  1.00  0.00     0.041 C 
ATOM     11  O   UNL     1      -4.840  -7.126  22.016  1.00  0.00    -0.550 OA
ATOM     12  O   UNL     1      -4.080  -6.728  19.891  1.00  0.00    -0.550 OA
ENDBRANCH   9  10
ENDBRANCH   8   9
ENDBRANCH   7   8
ENDBRANCH   6   7
ENDBRANCH   5   6
ENDBRANCH   4   5
ENDBRANCH   3   4
ENDBRANCH   1   3
BRANCH   2  13
ATOM     13  C   UNL     1     -10.909  -7.367  25.602  1.00  0.00     0.027 C 
BRANCH  13  14
ATOM     14  C   UNL     1      -9.782  -6.329  25.676  1.00  0.00     0.004 C 
BRANCH  14  15
ATOM     15  C   UNL     1     -10.283  -5.018  26.298  1.00  0.00     0.000 C 
BRANCH  15  16
ATOM     16  C   UNL     1     -10.910  -5.217  27.689  1.00  0.00     0.000 C 
BRANCH  16  17
ATOM     17  C   UNL     1      -9.989  -5.878  28.734  1.00  0.00    -0.000 C 
BRANCH  17  18
ATOM     18  C   UNL     1     -10.534  -7.176  29.356  1.00  0.00    -0.000 C 
BRANCH  18  19
ATOM     19  C   UNL     1     -11.591  -7.860  28.478  1.00  0.00    -0.003 C 
ATOM     20  C   UNL     1     -12.141  -9.112  29.155  1.00  0.00     0.004 C 
ENDBRANCH  18  19
ENDBRANCH  17  18
ENDBRANCH  16  17
ENDBRANCH  15  16
ENDBRANCH  14  15
ENDBRANCH  13  14
ENDBRANCH   2  13
TORSDOF 15
ENDMDL
MODEL 9
REMARK VINA RESULT:     1.460     12.540     15.546
REMARK INTER + INTRA:           1.903
REMARK INTER:                   2.665
REMARK INTRA:                  -0.762
REMARK UNBOUND:                -0.837
REMARK SMILES CCCCCCCCC=CCCCCCCCC(=O)[O-]
REMARK SMILES IDX 10 1 9 2 11 3 12 4 13 5 14 6 15 7 16 8 17 9 18 10 19 11
REMARK SMILES IDX 20 12 8 13 7 14 6 15 5 16 4 17 3 18 2 19 1 20
REMARK H PARENT
REMARK Flexibility Score: inf
ROOT
ATOM      1  C   UNL     1      -8.036   3.103  15.164  1.00  0.00    -0.031 C 
ATOM      2  C   UNL     1      -8.358   1.942  14.574  1.00  0.00    -0.031 C 
ENDROOT
BRANCH   1   3
ATOM      3  C   UNL     1      -8.656   3.523  16.469  1.00  0.00     0.027 C 
BRANCH   3   4
ATOM      4  C   UNL     1      -7.591   4.019  17.455  1.00  0.00     0.004 C 
BRANCH   4   5
ATOM      5  C   UNL     1      -7.593   5.553  17.538  1.00  0.00     0.000 C 
BRANCH   5   6
ATOM      6  C   UNL     1      -8.873   6.178  16.958  1.00  0.00     0.000 C 
BRANCH   6   7
ATOM      7  C   UNL     1      -8.596   7.052  15.723  1.00  0.00     0.000 C 
BRANCH   7   8
ATOM      8  C   UNL     1      -8.303   6.221  14.460  1.00  0.00     0.006 C 
BRANCH   8   9
ATOM      9  C   UNL     1      -7.593   6.999  13.339  1.00  0.00     0.053 C 
BRANCH   9  10
ATOM     10  C   UNL     1      -6.291   6.365  12.954  1.00  0.00     0.041 C 
ATOM     11  O   UNL     1      -5.686   6.741  11.916  1.00  0.00    -0.550 OA
ATOM     12  O   UNL     1      -5.763   5.338  13.726  1.00  0.00    -0.550 OA
ENDBRANCH   9  10
ENDBRANCH   8   9
ENDBRANCH   7   8
ENDBRANCH   6   7
ENDBRANCH   5   6
ENDBRANCH   4   5
ENDBRANCH   3   4
ENDBRANCH   1   3
BRANCH   2  13
ATOM     13  C   UNL     1      -7.739   1.522  13.269  1.00  0.00     0.027 C 
BRANCH  13  14
ATOM     14  C   UNL     1      -8.620   0.500  12.540  1.00  0.00     0.004 C 
BRANCH  14  15
ATOM     15  C   UNL     1      -9.593  -0.180  13.514  1.00  0.00     0.000 C 
BRANCH  15  16
ATOM     16  C   UNL     1      -9.125  -1.581  13.946  1.00  0.00     0.000 C 
BRANCH  16  17
ATOM     17  C   UNL     1      -9.534  -2.728  13.001  1.00  0.00    -0.000 C 
BRANCH  17  18
ATOM     18  C   UNL     1     -10.156  -3.953  13.693  1.00  0.00    -0.000 C 
BRANCH  18  19
ATOM     19  C   UNL     1     -11.513  -4.350  13.097  1.00  0.00    -0.003 C 
ATOM     20  C   UNL     1     -12.657  -3.979  14.036  1.00  0.00     0.004 C 
ENDBRANCH  18  19
ENDBRANCH  17  18
ENDBRANCH  16  17
ENDBRANCH  15  16
ENDBRANCH  14  15
ENDBRANCH  13  14
ENDBRANCH   2  13
TORSDOF 15
ENDMDL
