MODEL 1
REMARK VINA RESULT:    -0.887      0.000      0.000
REMARK INTER + INTRA:          -1.303
REMARK INTER:                  -1.069
REMARK INTRA:                  -0.234
REMARK UNBOUND:                -0.234
REMARK SMILES O=c1c(O)c(-c2ccc(O)cc2O)oc2cc(O)cc(O)c12
REMARK SMILES IDX 5 1 3 2 2 3 1 4 22 5 20 6 19 7 17 8 16 9 15 10 14 11 6 12
REMARK SMILES IDX 8 13 7 14 9 15 11 16 12 17 10 18 13 20 4 22 21 24 18 26
REMARK H PARENT 10 19 13 21 4 23 21 25 18 27
REMARK Flexibility Score: inf
ROOT
ATOM      1  C   UNL     1      16.042  -2.004  27.146  1.00  0.00     0.184 A 
ATOM      2  C   UNL     1      16.312  -1.550  28.448  1.00  0.00     0.208 A 
ATOM      3  C   UNL     1      16.104  -0.195  28.753  1.00  0.00     0.238 A 
ATOM      4  O   UNL     1      16.402   0.218  29.904  1.00  0.00    -0.285 OA
ATOM      5  C   UNL     1      15.610   0.683  27.758  1.00  0.00     0.111 A 
ATOM      6  C   UNL     1      15.325   2.066  27.967  1.00  0.00     0.134 A 
ATOM      7  C   UNL     1      14.962   2.868  26.877  1.00  0.00     0.093 A 
ATOM      8  C   UNL     1      14.811   2.323  25.600  1.00  0.00     0.123 A 
ATOM      9  C   UNL     1      15.030   0.962  25.398  1.00  0.00     0.094 A 
ATOM     10  C   UNL     1      15.428   0.144  26.458  1.00  0.00     0.146 A 
ATOM     11  O   UNL     1      15.637  -1.145  26.219  1.00  0.00    -0.451 OA
ENDROOT
BRANCH   1  12
ATOM     12  C   UNL     1      16.216  -3.425  26.763  1.00  0.00     0.063 A 
ATOM     13  C   UNL     1      15.278  -5.524  25.963  1.00  0.00     0.047 A 
ATOM     14  C   UNL     1      15.111  -4.192  26.351  1.00  0.00     0.020 A 
ATOM     15  C   UNL     1      16.551  -6.105  25.970  1.00  0.00     0.119 A 
ATOM     16  C   UNL     1      17.657  -5.346  26.365  1.00  0.00     0.093 A 
ATOM     17  C   UNL     1      17.498  -4.010  26.758  1.00  0.00     0.130 A 
BRANCH  15  18
ATOM     18  O   UNL     1      16.729  -7.431  25.584  1.00  0.00    -0.508 OA
ATOM     19  H   UNL     1      16.023  -7.927  25.051  1.00  0.00     0.293 HD
ENDBRANCH  15  18
BRANCH  17  20
ATOM     20  O   UNL     1      18.611  -3.267  27.156  1.00  0.00    -0.507 OA
ATOM     21  H   UNL     1      19.553  -3.549  26.914  1.00  0.00     0.293 HD
ENDBRANCH  17  20
ENDBRANCH   1  12
BRANCH   2  22
ATOM     22  O   UNL     1      16.811  -2.432  29.409  1.00  0.00    -0.502 OA
ATOM     23  H   UNL     1      16.914  -3.426  29.235  1.00  0.00     0.293 HD
ENDBRANCH   2  22
BRANCH   6  24
ATOM     24  O   UNL     1      15.356   2.690  29.217  1.00  0.00    -0.507 OA
ATOM     25  H   UNL     1      14.560   2.796  29.827  1.00  0.00     0.293 HD
ENDBRANCH   6  24
BRANCH   8  26
ATOM     26  O   UNL     1      14.433   3.125  24.525  1.00  0.00    -0.508 OA
ATOM     27  H   UNL     1      14.340   4.130  24.621  1.00  0.00     0.293 HD
ENDBRANCH   8  26
TORSDOF 6
ENDMDL
MODEL 2
REMARK VINA RESULT:    -0.085      2.786      6.159
REMARK INTER + INTRA:          -0.336
REMARK INTER:                  -0.073
REMARK INTRA:                  -0.263
REMARK UNBOUND:                -0.234
REMARK SMILES O=c1c(O)c(-c2ccc(O)cc2O)oc2cc(O)cc(O)c12
REMARK SMILES IDX 5 1 3 2 2 3 1 4 22 5 20 6 19 7 17 8 16 9 15 10 14 11 6 12
REMARK SMILES IDX 8 13 7 14 9 15 11 16 12 17 10 18 13 20 4 22 21 24 18 26
REMARK H PARENT 10 19 13 21 4 23 21 25 18 27
REMARK Flexibility Score: inf
ROOT
ATOM      1  C   UNL     1      16.249  -0.395  26.810  1.00  0.00     0.184 A 
ATOM      2  C   UNL     1      15.559  -0.852  27.944  1.00  0.00     0.208 A 
ATOM      3  C   UNL     1      16.217  -1.707  28.843  1.00  0.00     0.238 A 
ATOM      4  O   UNL     1      15.576  -2.159  29.827  1.00  0.00    -0.285 OA
ATOM      5  C   UNL     1      17.563  -2.078  28.604  1.00  0.00     0.111 A 
ATOM      6  C   UNL     1      18.340  -2.907  29.468  1.00  0.00     0.134 A 
ATOM      7  C   UNL     1      19.620  -3.313  29.067  1.00  0.00     0.093 A 
ATOM      8  C   UNL     1      20.174  -2.866  27.866  1.00  0.00     0.123 A 
ATOM      9  C   UNL     1      19.446  -2.009  27.044  1.00  0.00     0.094 A 
ATOM     10  C   UNL     1      18.153  -1.616  27.399  1.00  0.00     0.146 A 
ATOM     11  O   UNL     1      17.490  -0.807  26.582  1.00  0.00    -0.451 OA
ENDROOT
BRANCH   1  12
ATOM     12  C   UNL     1      15.623   0.528  25.834  1.00  0.00     0.063 A 
ATOM     13  C   UNL     1      14.699   0.949  23.622  1.00  0.00     0.047 A 
ATOM     14  C   UNL     1      15.315   0.088  24.533  1.00  0.00     0.020 A 
ATOM     15  C   UNL     1      14.372   2.257  23.998  1.00  0.00     0.119 A 
ATOM     16  C   UNL     1      14.661   2.698  25.292  1.00  0.00     0.093 A 
ATOM     17  C   UNL     1      15.282   1.842  26.214  1.00  0.00     0.130 A 
BRANCH  15  18
ATOM     18  O   UNL     1      13.757   3.123  23.097  1.00  0.00    -0.508 OA
ATOM     19  H   UNL     1      13.960   4.116  23.093  1.00  0.00     0.293 HD
ENDBRANCH  15  18
BRANCH  17  20
ATOM     20  O   UNL     1      15.571   2.299  27.500  1.00  0.00    -0.507 OA
ATOM     21  H   UNL     1      15.004   3.007  27.953  1.00  0.00     0.293 HD
ENDBRANCH  17  20
ENDBRANCH   1  12
BRANCH   2  22
ATOM     22  O   UNL     1      14.227  -0.483  28.151  1.00  0.00    -0.502 OA
ATOM     23  H   UNL     1      13.565  -0.384  27.390  1.00  0.00     0.293 HD
ENDBRANCH   2  22
BRANCH   6  24
ATOM     24  O   UNL     1      17.917  -3.334  30.730  1.00  0.00    -0.507 OA
ATOM     25  H   UNL     1      17.540  -2.730  31.444  1.00  0.00     0.293 HD
ENDBRANCH   6  24
BRANCH   8  26
ATOM     26  O   UNL     1      21.455  -3.261  27.483  1.00  0.00    -0.508 OA
ATOM     27  H   UNL     1      22.195  -2.585  27.334  1.00  0.00     0.293 HD
ENDBRANCH   8  26
TORSDOF 6
ENDMDL
MODEL 3
REMARK VINA RESULT:     0.230      2.699      6.369
REMARK INTER + INTRA:           0.043
REMARK INTER:                   0.407
REMARK INTRA:                  -0.364
REMARK UNBOUND:                -0.234
REMARK SMILES O=c1c(O)c(-c2ccc(O)cc2O)oc2cc(O)cc(O)c12
REMARK SMILES IDX 5 1 3 2 2 3 1 4 22 5 20 6 19 7 17 8 16 9 15 10 14 11 6 12
REMARK SMILES IDX 8 13 7 14 9 15 11 16 12 17 10 18 13 20 4 22 21 24 18 26
REMARK H PARENT 10 19 13 21 4 23 21 25 18 27
REMARK Flexibility Score: inf
ROOT
ATOM      1  C   UNL     1      16.707  -0.388  26.651  1.00  0.00     0.184 A 
ATOM      2  C   UNL     1      17.985  -0.816  26.254  1.00  0.00     0.208 A 
ATOM      3  C   UNL     1      18.689  -1.712  27.074  1.00  0.00     0.238 A 
ATOM      4  O   UNL     1      19.855  -2.047  26.743  1.00  0.00    -0.285 OA
ATOM      5  C   UNL     1      18.096  -2.185  28.272  1.00  0.00     0.111 A 
ATOM      6  C   UNL     1      18.702  -3.125  29.159  1.00  0.00     0.134 A 
ATOM      7  C   UNL     1      18.079  -3.422  30.377  1.00  0.00     0.093 A 
ATOM      8  C   UNL     1      16.844  -2.864  30.711  1.00  0.00     0.123 A 
ATOM      9  C   UNL     1      16.217  -1.991  29.825  1.00  0.00     0.094 A 
ATOM     10  C   UNL     1      16.830  -1.646  28.618  1.00  0.00     0.146 A 
ATOM     11  O   UNL     1      16.203  -0.802  27.808  1.00  0.00    -0.451 OA
ENDROOT
BRANCH   1  12
ATOM     12  C   UNL     1      15.901   0.537  25.821  1.00  0.00     0.063 A 
ATOM     13  C   UNL     1      14.770   1.051  23.727  1.00  0.00     0.047 A 
ATOM     14  C   UNL     1      15.554   0.192  24.501  1.00  0.00     0.020 A 
ATOM     15  C   UNL     1      14.312   2.261  24.262  1.00  0.00     0.119 A 
ATOM     16  C   UNL     1      14.640   2.605  25.577  1.00  0.00     0.093 A 
ATOM     17  C   UNL     1      15.428   1.750  26.361  1.00  0.00     0.130 A 
BRANCH  15  18
ATOM     18  O   UNL     1      13.530   3.124  23.499  1.00  0.00    -0.508 OA
ATOM     19  H   UNL     1      12.758   2.783  22.937  1.00  0.00     0.293 HD
ENDBRANCH  15  18
BRANCH  17  20
ATOM     20  O   UNL     1      15.752   2.110  27.669  1.00  0.00    -0.507 OA
ATOM     21  H   UNL     1      15.604   1.477  28.447  1.00  0.00     0.293 HD
ENDBRANCH  17  20
ENDBRANCH   1  12
BRANCH   2  22
ATOM     22  O   UNL     1      18.554  -0.325  25.076  1.00  0.00    -0.502 OA
ATOM     23  H   UNL     1      18.926   0.614  25.001  1.00  0.00     0.293 HD
ENDBRANCH   2  22
BRANCH   6  24
ATOM     24  O   UNL     1      19.888  -3.809  28.881  1.00  0.00    -0.507 OA
ATOM     25  H   UNL     1      20.322  -3.861  27.972  1.00  0.00     0.293 HD
ENDBRANCH   6  24
BRANCH   8  26
ATOM     26  O   UNL     1      16.223  -3.179  31.918  1.00  0.00    -0.508 OA
ATOM     27  H   UNL     1      15.574  -2.540  32.362  1.00  0.00     0.293 HD
ENDBRANCH   8  26
TORSDOF 6
ENDMDL
MODEL 4
REMARK VINA RESULT:     0.292      7.262     12.510
REMARK INTER + INTRA:           0.118
REMARK INTER:                   0.208
REMARK INTRA:                  -0.090
REMARK UNBOUND:                -0.234
REMARK SMILES O=c1c(O)c(-c2ccc(O)cc2O)oc2cc(O)cc(O)c12
REMARK SMILES IDX 5 1 3 2 2 3 1 4 22 5 20 6 19 7 17 8 16 9 15 10 14 11 6 12
REMARK SMILES IDX 8 13 7 14 9 15 11 16 12 17 10 18 13 20 4 22 21 24 18 26
REMARK H PARENT 10 19 13 21 4 23 21 25 18 27
REMARK Flexibility Score: inf
ROOT
ATOM      1  C   UNL     1      14.421 -11.409  28.154  1.00  0.00     0.184 A 
ATOM      2  C   UNL     1      14.046 -11.504  29.505  1.00  0.00     0.208 A 
ATOM      3  C   UNL     1      14.127 -12.749  30.149  1.00  0.00     0.238 A 
ATOM      4  O   UNL     1      13.737 -12.839  31.341  1.00  0.00    -0.285 OA
ATOM      5  C   UNL     1      14.602 -13.879  29.439  1.00  0.00     0.111 A 
ATOM      6  C   UNL     1      14.763 -15.181  30.002  1.00  0.00     0.134 A 
ATOM      7  C   UNL     1      15.118 -16.252  29.172  1.00  0.00     0.093 A 
ATOM      8  C   UNL     1      15.381 -16.056  27.815  1.00  0.00     0.123 A 
ATOM      9  C   UNL     1      15.283 -14.779  27.269  1.00  0.00     0.094 A 
ATOM     10  C   UNL     1      14.896 -13.696  28.062  1.00  0.00     0.146 A 
ATOM     11  O   UNL     1      14.804 -12.498  27.499  1.00  0.00    -0.451 OA
ENDROOT
BRANCH   1  12
ATOM     12  C   UNL     1      14.382 -10.122  27.421  1.00  0.00     0.063 A 
ATOM     13  C   UNL     1      15.504  -8.415  26.097  1.00  0.00     0.047 A 
ATOM     14  C   UNL     1      15.545  -9.614  26.812  1.00  0.00     0.020 A 
ATOM     15  C   UNL     1      14.300  -7.711  25.971  1.00  0.00     0.119 A 
ATOM     16  C   UNL     1      13.137  -8.215  26.560  1.00  0.00     0.093 A 
ATOM     17  C   UNL     1      13.170  -9.417  27.282  1.00  0.00     0.130 A 
BRANCH  15  18
ATOM     18  O   UNL     1      14.248  -6.515  25.259  1.00  0.00    -0.508 OA
ATOM     19  H   UNL     1      13.606  -6.385  24.486  1.00  0.00     0.293 HD
ENDBRANCH  15  18
BRANCH  17  20
ATOM     20  O   UNL     1      12.003  -9.905  27.871  1.00  0.00    -0.507 OA
ATOM     21  H   UNL     1      11.812  -9.777  28.859  1.00  0.00     0.293 HD
ENDBRANCH  17  20
ENDBRANCH   1  12
BRANCH   2  22
ATOM     22  O   UNL     1      13.569 -10.378  30.180  1.00  0.00    -0.502 OA
ATOM     23  H   UNL     1      14.119  -9.886  30.875  1.00  0.00     0.293 HD
ENDBRANCH   2  22
BRANCH   6  24
ATOM     24  O   UNL     1      14.615 -15.467  31.362  1.00  0.00    -0.507 OA
ATOM     25  H   UNL     1      14.066 -16.227  31.733  1.00  0.00     0.293 HD
ENDBRANCH   6  24
BRANCH   8  26
ATOM     26  O   UNL     1      15.750 -17.125  27.001  1.00  0.00    -0.508 OA
ATOM     27  H   UNL     1      16.704 -17.240  26.678  1.00  0.00     0.293 HD
ENDBRANCH   8  26
TORSDOF 6
ENDMDL
MODEL 5
REMARK VINA RESULT:     1.693     10.571     11.863
REMARK INTER + INTRA:           1.805
REMARK INTER:                   2.094
REMARK INTRA:                  -0.288
REMARK UNBOUND:                -0.234
REMARK SMILES O=c1c(O)c(-c2ccc(O)cc2O)oc2cc(O)cc(O)c12
REMARK SMILES IDX 5 1 3 2 2 3 1 4 22 5 20 6 19 7 17 8 16 9 15 10 14 11 6 12
REMARK SMILES IDX 8 13 7 14 9 15 11 16 12 17 10 18 13 20 4 22 21 24 18 26
REMARK H PARENT 10 19 13 21 4 23 21 25 18 27
REMARK Flexibility Score: inf
ROOT
ATOM      1  C   UNL     1      14.006 -12.932  28.771  1.00  0.00     0.184 A 
ATOM      2  C   UNL     1      14.708 -12.209  29.750  1.00  0.00     0.208 A 
ATOM      3  C   UNL     1      14.042 -11.193  30.454  1.00  0.00     0.238 A 
ATOM      4  O   UNL     1      14.690 -10.511  31.289  1.00  0.00    -0.285 OA
ATOM      5  C   UNL     1      12.677 -10.926  30.183  1.00  0.00     0.111 A 
ATOM      6  C   UNL     1      11.892  -9.947  30.863  1.00  0.00     0.134 A 
ATOM      7  C   UNL     1      10.589  -9.681  30.423  1.00  0.00     0.093 A 
ATOM      8  C   UNL     1      10.021 -10.404  29.373  1.00  0.00     0.123 A 
ATOM      9  C   UNL     1      10.759 -11.403  28.742  1.00  0.00     0.094 A 
ATOM     10  C   UNL     1      12.074 -11.667  29.132  1.00  0.00     0.146 A 
ATOM     11  O   UNL     1      12.746 -12.619  28.497  1.00  0.00    -0.451 OA
ENDROOT
BRANCH   1  12
ATOM     12  C   UNL     1      14.641 -14.032  28.008  1.00  0.00     0.063 A 
ATOM     13  C   UNL     1      15.608 -14.882  25.942  1.00  0.00     0.047 A 
ATOM     14  C   UNL     1      14.984 -13.855  26.654  1.00  0.00     0.020 A 
ATOM     15  C   UNL     1      15.908 -16.095  26.572  1.00  0.00     0.119 A 
ATOM     16  C   UNL     1      15.585 -16.274  27.921  1.00  0.00     0.093 A 
ATOM     17  C   UNL     1      14.956 -15.250  28.643  1.00  0.00     0.130 A 
BRANCH  15  18
ATOM     18  O   UNL     1      16.531 -17.125  25.871  1.00  0.00    -0.508 OA
ATOM     19  H   UNL     1      16.876 -17.954  26.341  1.00  0.00     0.293 HD
ENDBRANCH  15  18
BRANCH  17  20
ATOM     20  O   UNL     1      14.633 -15.446  29.986  1.00  0.00    -0.507 OA
ATOM     21  H   UNL     1      15.015 -16.220  30.518  1.00  0.00     0.293 HD
ENDBRANCH  17  20
ENDBRANCH   1  12
BRANCH   2  22
ATOM     22  O   UNL     1      16.057 -12.481  29.990  1.00  0.00    -0.502 OA
ATOM     23  H   UNL     1      16.469 -12.416  30.914  1.00  0.00     0.293 HD
ENDBRANCH   2  22
BRANCH   6  24
ATOM     24  O   UNL     1      12.331  -9.233  31.981  1.00  0.00    -0.507 OA
ATOM     25  H   UNL     1      11.766  -9.029  32.791  1.00  0.00     0.293 HD
ENDBRANCH   6  24
BRANCH   8  26
ATOM     26  O   UNL     1       8.718 -10.145  28.953  1.00  0.00    -0.508 OA
ATOM     27  H   UNL     1       8.462  -9.257  28.537  1.00  0.00     0.293 HD
ENDBRANCH   8  26
TORSDOF 6
ENDMDL
MODEL 6
REMARK VINA RESULT:     1.796      7.212     10.683
REMARK INTER + INTRA:           1.929
REMARK INTER:                   2.320
REMARK INTRA:                  -0.390
REMARK UNBOUND:                -0.234
REMARK SMILES O=c1c(O)c(-c2ccc(O)cc2O)oc2cc(O)cc(O)c12
REMARK SMILES IDX 5 1 3 2 2 3 1 4 22 5 20 6 19 7 17 8 16 9 15 10 14 11 6 12
REMARK SMILES IDX 8 13 7 14 9 15 11 16 12 17 10 18 13 20 4 22 21 24 18 26
REMARK H PARENT 10 19 13 21 4 23 21 25 18 27
REMARK Flexibility Score: inf
ROOT
ATOM      1  C   UNL     1      14.049 -11.999  28.380  1.00  0.00     0.184 A 
ATOM      2  C   UNL     1      12.739 -11.496  28.448  1.00  0.00     0.208 A 
ATOM      3  C   UNL     1      12.461 -10.240  27.884  1.00  0.00     0.238 A 
ATOM      4  O   UNL     1      11.300  -9.770  27.998  1.00  0.00    -0.285 OA
ATOM      5  C   UNL     1      13.494  -9.512  27.243  1.00  0.00     0.111 A 
ATOM      6  C   UNL     1      13.317  -8.248  26.603  1.00  0.00     0.134 A 
ATOM      7  C   UNL     1      14.435  -7.562  26.113  1.00  0.00     0.093 A 
ATOM      8  C   UNL     1      15.712  -8.121  26.182  1.00  0.00     0.123 A 
ATOM      9  C   UNL     1      15.886  -9.381  26.751  1.00  0.00     0.094 A 
ATOM     10  C   UNL     1      14.796 -10.075  27.282  1.00  0.00     0.146 A 
ATOM     11  O   UNL     1      15.008 -11.267  27.825  1.00  0.00    -0.451 OA
ENDROOT
BRANCH   1  12
ATOM     12  C   UNL     1      14.405 -13.326  28.933  1.00  0.00     0.063 A 
ATOM     13  C   UNL     1      14.643 -14.823  30.838  1.00  0.00     0.047 A 
ATOM     14  C   UNL     1      14.334 -13.563  30.318  1.00  0.00     0.020 A 
ATOM     15  C   UNL     1      15.017 -15.866  29.982  1.00  0.00     0.119 A 
ATOM     16  C   UNL     1      15.076 -15.643  28.604  1.00  0.00     0.093 A 
ATOM     17  C   UNL     1      14.770 -14.382  28.073  1.00  0.00     0.130 A 
BRANCH  15  18
ATOM     18  O   UNL     1      15.326 -17.125  30.491  1.00  0.00    -0.508 OA
ATOM     19  H   UNL     1      14.683 -17.625  31.094  1.00  0.00     0.293 HD
ENDBRANCH  15  18
BRANCH  17  20
ATOM     20  O   UNL     1      14.841 -14.172  26.695  1.00  0.00    -0.507 OA
ATOM     21  H   UNL     1      14.166 -13.591  26.211  1.00  0.00     0.293 HD
ENDBRANCH  17  20
ENDBRANCH   1  12
BRANCH   2  22
ATOM     22  O   UNL     1      11.740 -12.226  29.098  1.00  0.00    -0.502 OA
ATOM     23  H   UNL     1      11.428 -13.133  28.769  1.00  0.00     0.293 HD
ENDBRANCH   2  22
BRANCH   6  24
ATOM     24  O   UNL     1      12.074  -7.643  26.400  1.00  0.00    -0.507 OA
ATOM     25  H   UNL     1      11.185  -8.107  26.503  1.00  0.00     0.293 HD
ENDBRANCH   6  24
BRANCH   8  26
ATOM     26  O   UNL     1      16.817  -7.438  25.676  1.00  0.00    -0.508 OA
ATOM     27  H   UNL     1      17.620  -7.228  26.257  1.00  0.00     0.293 HD
ENDBRANCH   8  26
TORSDOF 6
ENDMDL
