MODEL 1
REMARK VINA RESULT:     1.328      0.000      0.000
REMARK INTER + INTRA:           1.562
REMARK INTER:                   2.415
REMARK INTRA:                  -0.853
REMARK UNBOUND:                -0.853
REMARK SMILES CCCCCCCCCCCCCCCC(=O)[O-]
REMARK SMILES IDX 9 1 10 2 11 3 12 4 13 5 14 6 15 7 16 8 17 9 18 10 8 11 7 12
REMARK SMILES IDX 6 13 5 14 4 15 3 16 2 17 1 18
REMARK H PARENT
REMARK Flexibility Score: inf
ROOT
ATOM      1  C   UNL     1     103.348 104.231 102.480  1.00  0.00     0.000 C 
ENDROOT
BRANCH   1   2
ATOM      2  C   UNL     1     103.751 102.760 102.286  1.00  0.00     0.000 C 
BRANCH   2   3
ATOM      3  C   UNL     1     103.470 101.903 103.533  1.00  0.00     0.000 C 
BRANCH   3   4
ATOM      4  C   UNL     1     103.206 102.753 104.787  1.00  0.00     0.000 C 
BRANCH   4   5
ATOM      5  C   UNL     1     103.507 101.998 106.090  1.00  0.00     0.000 C 
BRANCH   5   6
ATOM      6  C   UNL     1     103.650 102.970 107.268  1.00  0.00     0.006 C 
BRANCH   6   7
ATOM      7  C   UNL     1     103.389 104.412 106.825  1.00  0.00     0.053 C 
BRANCH   7   8
ATOM      8  C   UNL     1     104.529 105.297 107.219  1.00  0.00     0.041 C 
ATOM      9  O   UNL     1     105.691 104.825 107.323  1.00  0.00    -0.550 OA
ATOM     10  O   UNL     1     104.316 106.654 107.424  1.00  0.00    -0.550 OA
ENDBRANCH   7   8
ENDBRANCH   6   7
ENDBRANCH   5   6
ENDBRANCH   4   5
ENDBRANCH   3   4
ENDBRANCH   2   3
ENDBRANCH   1   2
BRANCH   1  11
ATOM     11  C   UNL     1     104.565 105.171 102.555  1.00  0.00     0.000 C 
BRANCH  11  12
ATOM     12  C   UNL     1     104.645 106.131 101.357  1.00  0.00    -0.000 C 
BRANCH  12  13
ATOM     13  C   UNL     1     104.704 105.397 100.009  1.00  0.00    -0.000 C 
BRANCH  13  14
ATOM     14  C   UNL     1     104.617 106.387  98.841  1.00  0.00    -0.000 C 
BRANCH  14  15
ATOM     15  C   UNL     1     104.202 105.675  97.545  1.00  0.00    -0.000 C 
BRANCH  15  16
ATOM     16  C   UNL     1     104.538 104.175  97.561  1.00  0.00    -0.000 C 
BRANCH  16  17
ATOM     17  C   UNL     1     103.288 103.290  97.679  1.00  0.00    -0.003 C 
ATOM     18  C   UNL     1     103.662 101.812  97.726  1.00  0.00     0.004 C 
ENDBRANCH  16  17
ENDBRANCH  15  16
ENDBRANCH  14  15
ENDBRANCH  13  14
ENDBRANCH  12  13
ENDBRANCH  11  12
ENDBRANCH   1  11
TORSDOF 14
ENDMDL
MODEL 2
REMARK VINA RESULT:     1.377      3.008      4.748
REMARK INTER + INTRA:           1.651
REMARK INTER:                   2.536
REMARK INTRA:                  -0.886
REMARK UNBOUND:                -0.853
REMARK SMILES CCCCCCCCCCCCCCCC(=O)[O-]
REMARK SMILES IDX 9 1 10 2 11 3 12 4 13 5 14 6 15 7 16 8 17 9 18 10 8 11 7 12
REMARK SMILES IDX 6 13 5 14 4 15 3 16 2 17 1 18
REMARK H PARENT
REMARK Flexibility Score: inf
ROOT
ATOM      1  C   UNL     1     103.398 104.071 107.030  1.00  0.00     0.000 C 
ENDROOT
BRANCH   1   2
ATOM      2  C   UNL     1     103.924 102.630 107.129  1.00  0.00     0.000 C 
BRANCH   2   3
ATOM      3  C   UNL     1     103.313 101.860 108.312  1.00  0.00     0.000 C 
BRANCH   3   4
ATOM      4  C   UNL     1     103.164 102.731 109.570  1.00  0.00     0.000 C 
BRANCH   4   5
ATOM      5  C   UNL     1     103.452 101.958 110.865  1.00  0.00     0.000 C 
BRANCH   5   6
ATOM      6  C   UNL     1     103.721 102.919 112.030  1.00  0.00     0.006 C 
BRANCH   6   7
ATOM      7  C   UNL     1     103.368 104.359 111.647  1.00  0.00     0.053 C 
BRANCH   7   8
ATOM      8  C   UNL     1     104.503 105.280 111.967  1.00  0.00     0.041 C 
ATOM      9  O   UNL     1     105.672 104.829 112.081  1.00  0.00    -0.550 OA
ATOM     10  O   UNL     1     104.276 106.644 112.091  1.00  0.00    -0.550 OA
ENDBRANCH   7   8
ENDBRANCH   6   7
ENDBRANCH   5   6
ENDBRANCH   4   5
ENDBRANCH   3   4
ENDBRANCH   2   3
ENDBRANCH   1   2
BRANCH   1  11
ATOM     11  C   UNL     1     104.495 105.118 107.298  1.00  0.00     0.000 C 
BRANCH  11  12
ATOM     12  C   UNL     1     104.700 106.075 106.113  1.00  0.00    -0.000 C 
BRANCH  12  13
ATOM     13  C   UNL     1     104.669 105.358 104.755  1.00  0.00    -0.000 C 
BRANCH  13  14
ATOM     14  C   UNL     1     104.641 106.367 103.601  1.00  0.00    -0.000 C 
BRANCH  14  15
ATOM     15  C   UNL     1     104.255 105.684 102.281  1.00  0.00    -0.000 C 
BRANCH  15  16
ATOM     16  C   UNL     1     104.564 104.179 102.282  1.00  0.00    -0.000 C 
BRANCH  16  17
ATOM     17  C   UNL     1     103.295 103.314 102.276  1.00  0.00    -0.003 C 
ATOM     18  C   UNL     1     103.616 101.862 102.618  1.00  0.00     0.004 C 
ENDBRANCH  16  17
ENDBRANCH  15  16
ENDBRANCH  14  15
ENDBRANCH  13  14
ENDBRANCH  12  13
ENDBRANCH  11  12
ENDBRANCH   1  11
TORSDOF 14
ENDMDL
MODEL 3
REMARK VINA RESULT:     1.385      3.496      8.034
REMARK INTER + INTRA:           1.666
REMARK INTER:                   2.442
REMARK INTRA:                  -0.775
REMARK UNBOUND:                -0.853
REMARK SMILES CCCCCCCCCCCCCCCC(=O)[O-]
REMARK SMILES IDX 9 1 10 2 11 3 12 4 13 5 14 6 15 7 16 8 17 9 18 10 8 11 7 12
REMARK SMILES IDX 6 13 5 14 4 15 3 16 2 17 1 18
REMARK H PARENT
REMARK Flexibility Score: inf
ROOT
ATOM      1  C   UNL     1     104.635 104.469 102.272  1.00  0.00     0.000 C 
ENDROOT
BRANCH   1   2
ATOM      2  C   UNL     1     104.360 105.978 102.380  1.00  0.00     0.000 C 
BRANCH   2   3
ATOM      3  C   UNL     1     104.569 106.712 101.045  1.00  0.00     0.000 C 
BRANCH   3   4
ATOM      4  C   UNL     1     104.752 105.747  99.862  1.00  0.00     0.000 C 
BRANCH   4   5
ATOM      5  C   UNL     1     104.522 106.424  98.503  1.00  0.00     0.000 C 
BRANCH   5   6
ATOM      6  C   UNL     1     104.095 105.400  97.444  1.00  0.00     0.006 C 
BRANCH   6   7
ATOM      7  C   UNL     1     104.625 104.004  97.784  1.00  0.00     0.053 C 
BRANCH   7   8
ATOM      8  C   UNL     1     103.511 103.006  97.789  1.00  0.00     0.041 C 
ATOM      9  O   UNL     1     102.314 103.393  97.740  1.00  0.00    -0.550 OA
ATOM     10  O   UNL     1     103.795 101.647  97.798  1.00  0.00    -0.550 OA
ENDBRANCH   7   8
ENDBRANCH   6   7
ENDBRANCH   5   6
ENDBRANCH   4   5
ENDBRANCH   3   4
ENDBRANCH   2   3
ENDBRANCH   1   2
BRANCH   1  11
ATOM     11  C   UNL     1     103.351 103.626 102.369  1.00  0.00     0.000 C 
BRANCH  11  12
ATOM     12  C   UNL     1     103.635 102.152 102.698  1.00  0.00    -0.000 C 
BRANCH  12  13
ATOM     13  C   UNL     1     103.320 101.797 104.159  1.00  0.00    -0.000 C 
BRANCH  13  14
ATOM     14  C   UNL     1     103.518 103.012 105.074  1.00  0.00    -0.000 C 
BRANCH  14  15
ATOM     15  C   UNL     1     103.494 102.598 106.553  1.00  0.00    -0.000 C 
BRANCH  15  16
ATOM     16  C   UNL     1     103.615 103.798 107.505  1.00  0.00    -0.000 C 
BRANCH  16  17
ATOM     17  C   UNL     1     104.729 104.771 107.093  1.00  0.00    -0.003 C 
ATOM     18  C   UNL     1     104.280 106.221 107.247  1.00  0.00     0.004 C 
ENDBRANCH  16  17
ENDBRANCH  15  16
ENDBRANCH  14  15
ENDBRANCH  13  14
ENDBRANCH  12  13
ENDBRANCH  11  12
ENDBRANCH   1  11
TORSDOF 14
ENDMDL
MODEL 4
REMARK VINA RESULT:     1.411      1.668      3.343
REMARK INTER + INTRA:           1.714
REMARK INTER:                   2.611
REMARK INTRA:                  -0.897
REMARK UNBOUND:                -0.853
REMARK SMILES CCCCCCCCCCCCCCCC(=O)[O-]
REMARK SMILES IDX 9 1 10 2 11 3 12 4 13 5 14 6 15 7 16 8 17 9 18 10 8 11 7 12
REMARK SMILES IDX 6 13 5 14 4 15 3 16 2 17 1 18
REMARK H PARENT
REMARK Flexibility Score: inf
ROOT
ATOM      1  C   UNL     1     103.332 104.198 102.234  1.00  0.00     0.000 C 
ENDROOT
BRANCH   1   2
ATOM      2  C   UNL     1     104.599 105.069 102.231  1.00  0.00     0.000 C 
BRANCH   2   3
ATOM      3  C   UNL     1     104.666 106.016 103.442  1.00  0.00     0.000 C 
BRANCH   3   4
ATOM      4  C   UNL     1     104.712 105.260 104.780  1.00  0.00     0.000 C 
BRANCH   4   5
ATOM      5  C   UNL     1     104.413 106.167 105.984  1.00  0.00     0.000 C 
BRANCH   5   6
ATOM      6  C   UNL     1     104.284 105.344 107.272  1.00  0.00     0.006 C 
BRANCH   6   7
ATOM      7  C   UNL     1     104.645 103.876 107.026  1.00  0.00     0.053 C 
BRANCH   7   8
ATOM      8  C   UNL     1     103.456 102.998 107.254  1.00  0.00     0.041 C 
ATOM      9  O   UNL     1     102.296 103.483 107.223  1.00  0.00    -0.550 OA
ATOM     10  O   UNL     1     103.628 101.634 107.452  1.00  0.00    -0.550 OA
ENDBRANCH   7   8
ENDBRANCH   6   7
ENDBRANCH   5   6
ENDBRANCH   4   5
ENDBRANCH   3   4
ENDBRANCH   2   3
ENDBRANCH   1   2
BRANCH   1  11
ATOM     11  C   UNL     1     103.635 102.717 102.521  1.00  0.00     0.000 C 
BRANCH  11  12
ATOM     12  C   UNL     1     103.494 101.832 101.272  1.00  0.00    -0.000 C 
BRANCH  12  13
ATOM     13  C   UNL     1     103.228 102.643  99.995  1.00  0.00    -0.000 C 
BRANCH  13  14
ATOM     14  C   UNL     1     103.547 101.816  98.743  1.00  0.00    -0.000 C 
BRANCH  14  15
ATOM     15  C   UNL     1     103.565 102.701  97.488  1.00  0.00    -0.000 C 
BRANCH  15  16
ATOM     16  C   UNL     1     103.368 104.190  97.812  1.00  0.00    -0.000 C 
BRANCH  16  17
ATOM     17  C   UNL     1     104.665 105.001  97.679  1.00  0.00    -0.003 C 
ATOM     18  C   UNL     1     104.392 106.499  97.780  1.00  0.00     0.004 C 
ENDBRANCH  16  17
ENDBRANCH  15  16
ENDBRANCH  14  15
ENDBRANCH  13  14
ENDBRANCH  12  13
ENDBRANCH  11  12
ENDBRANCH   1  11
TORSDOF 14
ENDMDL
MODEL 5
REMARK VINA RESULT:     1.414      3.409      7.301
REMARK INTER + INTRA:           1.719
REMARK INTER:                   2.532
REMARK INTRA:                  -0.813
REMARK UNBOUND:                -0.853
REMARK SMILES CCCCCCCCCCCCCCCC(=O)[O-]
REMARK SMILES IDX 9 1 10 2 11 3 12 4 13 5 14 6 15 7 16 8 17 9 18 10 8 11 7 12
REMARK SMILES IDX 6 13 5 14 4 15 3 16 2 17 1 18
REMARK H PARENT
REMARK Flexibility Score: inf
ROOT
ATOM      1  C   UNL     1     103.305 103.734 102.261  1.00  0.00     0.000 C 
ENDROOT
BRANCH   1   2
ATOM      2  C   UNL     1     103.551 102.218 102.348  1.00  0.00     0.000 C 
BRANCH   2   3
ATOM      3  C   UNL     1     103.417 101.520 100.984  1.00  0.00     0.000 C 
BRANCH   3   4
ATOM      4  C   UNL     1     103.276 102.516  99.822  1.00  0.00     0.000 C 
BRANCH   4   5
ATOM      5  C   UNL     1     103.502 101.863  98.450  1.00  0.00     0.000 C 
BRANCH   5   6
ATOM      6  C   UNL     1     103.904 102.910  97.403  1.00  0.00     0.006 C 
BRANCH   6   7
ATOM      7  C   UNL     1     103.382 104.298  97.786  1.00  0.00     0.053 C 
BRANCH   7   8
ATOM      8  C   UNL     1     104.496 105.297  97.785  1.00  0.00     0.041 C 
ATOM      9  O   UNL     1     105.692 104.910  97.742  1.00  0.00    -0.550 OA
ATOM     10  O   UNL     1     104.210 106.655  97.782  1.00  0.00    -0.550 OA
ENDBRANCH   7   8
ENDBRANCH   6   7
ENDBRANCH   5   6
ENDBRANCH   4   5
ENDBRANCH   3   4
ENDBRANCH   2   3
ENDBRANCH   1   2
BRANCH   1  11
ATOM     11  C   UNL     1     104.604 104.550 102.380  1.00  0.00     0.000 C 
BRANCH  11  12
ATOM     12  C   UNL     1     104.343 106.040 102.651  1.00  0.00    -0.000 C 
BRANCH  12  13
ATOM     13  C   UNL     1     104.692 106.454 104.089  1.00  0.00    -0.000 C 
BRANCH  13  14
ATOM     14  C   UNL     1     104.685 105.240 105.026  1.00  0.00    -0.000 C 
BRANCH  14  15
ATOM     15  C   UNL     1     104.357 105.659 106.467  1.00  0.00    -0.000 C 
BRANCH  15  16
ATOM     16  C   UNL     1     104.357 104.472 107.443  1.00  0.00    -0.000 C 
BRANCH  16  17
ATOM     17  C   UNL     1     103.197 103.498 107.189  1.00  0.00    -0.003 C 
ATOM     18  C   UNL     1     103.689 102.054 107.146  1.00  0.00     0.004 C 
ENDBRANCH  16  17
ENDBRANCH  15  16
ENDBRANCH  14  15
ENDBRANCH  13  14
ENDBRANCH  12  13
ENDBRANCH  11  12
ENDBRANCH   1  11
TORSDOF 14
ENDMDL
MODEL 6
REMARK VINA RESULT:     1.417      3.323      9.134
REMARK INTER + INTRA:           1.724
REMARK INTER:                   2.556
REMARK INTRA:                  -0.832
REMARK UNBOUND:                -0.853
REMARK SMILES CCCCCCCCCCCCCCCC(=O)[O-]
REMARK SMILES IDX 9 1 10 2 11 3 12 4 13 5 14 6 15 7 16 8 17 9 18 10 8 11 7 12
REMARK SMILES IDX 6 13 5 14 4 15 3 16 2 17 1 18
REMARK H PARENT
REMARK Flexibility Score: inf
ROOT
ATOM      1  C   UNL     1     103.430 104.091 107.131  1.00  0.00     0.000 C 
ENDROOT
BRANCH   1   2
ATOM      2  C   UNL     1     104.638 105.042 107.172  1.00  0.00     0.000 C 
BRANCH   2   3
ATOM      3  C   UNL     1     104.647 106.034 105.996  1.00  0.00     0.000 C 
BRANCH   3   4
ATOM      4  C   UNL     1     104.883 105.344 104.643  1.00  0.00     0.000 C 
BRANCH   4   5
ATOM      5  C   UNL     1     104.535 106.245 103.449  1.00  0.00     0.000 C 
BRANCH   5   6
ATOM      6  C   UNL     1     104.111 105.409 102.235  1.00  0.00     0.006 C 
BRANCH   6   7
ATOM      7  C   UNL     1     104.637 103.975 102.344  1.00  0.00     0.053 C 
BRANCH   7   8
ATOM      8  C   UNL     1     103.505 103.010 102.498  1.00  0.00     0.041 C 
ATOM      9  O   UNL     1     102.315 103.418 102.456  1.00  0.00    -0.550 OA
ATOM     10  O   UNL     1     103.763 101.653 102.637  1.00  0.00    -0.550 OA
ENDBRANCH   7   8
ENDBRANCH   6   7
ENDBRANCH   5   6
ENDBRANCH   4   5
ENDBRANCH   3   4
ENDBRANCH   2   3
ENDBRANCH   1   2
BRANCH   1  11
ATOM     11  C   UNL     1     103.847 102.610 107.077  1.00  0.00     0.000 C 
BRANCH  11  12
ATOM     12  C   UNL     1     103.289 101.796 108.255  1.00  0.00    -0.000 C 
BRANCH  12  13
ATOM     13  C   UNL     1     103.177 102.619 109.548  1.00  0.00    -0.000 C 
BRANCH  13  14
ATOM     14  C   UNL     1     103.526 101.766 110.774  1.00  0.00    -0.000 C 
BRANCH  14  15
ATOM     15  C   UNL     1     103.566 102.623 112.048  1.00  0.00    -0.000 C 
BRANCH  15  16
ATOM     16  C   UNL     1     103.416 104.124 111.755  1.00  0.00    -0.000 C 
BRANCH  16  17
ATOM     17  C   UNL     1     104.702 104.914 112.042  1.00  0.00    -0.003 C 
ATOM     18  C   UNL     1     104.431 106.416 112.068  1.00  0.00     0.004 C 
ENDBRANCH  16  17
ENDBRANCH  15  16
ENDBRANCH  14  15
ENDBRANCH  13  14
ENDBRANCH  12  13
ENDBRANCH  11  12
ENDBRANCH   1  11
TORSDOF 14
ENDMDL
MODEL 7
REMARK VINA RESULT:     1.464      3.219      5.840
REMARK INTER + INTRA:           1.810
REMARK INTER:                   2.717
REMARK INTRA:                  -0.907
REMARK UNBOUND:                -0.853
REMARK SMILES CCCCCCCCCCCCCCCC(=O)[O-]
REMARK SMILES IDX 9 1 10 2 11 3 12 4 13 5 14 6 15 7 16 8 17 9 18 10 8 11 7 12
REMARK SMILES IDX 6 13 5 14 4 15 3 16 2 17 1 18
REMARK H PARENT
REMARK Flexibility Score: inf
ROOT
ATOM      1  C   UNL     1     104.711 104.290 107.131  1.00  0.00     0.000 C 
ENDROOT
BRANCH   1   2
ATOM      2  C   UNL     1     104.310 105.774 107.094  1.00  0.00     0.000 C 
BRANCH   2   3
ATOM      3  C   UNL     1     104.603 106.497 108.419  1.00  0.00     0.000 C 
BRANCH   3   4
ATOM      4  C   UNL     1     104.730 105.528 109.606  1.00  0.00     0.000 C 
BRANCH   4   5
ATOM      5  C   UNL     1     104.645 106.238 110.965  1.00  0.00     0.000 C 
BRANCH   5   6
ATOM      6  C   UNL     1     104.129 105.286 112.051  1.00  0.00     0.006 C 
BRANCH   6   7
ATOM      7  C   UNL     1     104.541 103.841 111.757  1.00  0.00     0.053 C 
BRANCH   7   8
ATOM      8  C   UNL     1     103.403 102.907 112.021  1.00  0.00     0.041 C 
ATOM      9  O   UNL     1     102.220 103.334 112.023  1.00  0.00    -0.550 OA
ATOM     10  O   UNL     1     103.647 101.554 112.217  1.00  0.00    -0.550 OA
ENDBRANCH   7   8
ENDBRANCH   6   7
ENDBRANCH   5   6
ENDBRANCH   4   5
ENDBRANCH   3   4
ENDBRANCH   2   3
ENDBRANCH   1   2
BRANCH   1  11
ATOM     11  C   UNL     1     103.493 103.349 107.139  1.00  0.00     0.000 C 
BRANCH  11  12
ATOM     12  C   UNL     1     103.526 102.329 105.990  1.00  0.00    -0.000 C 
BRANCH  12  13
ATOM     13  C   UNL     1     103.071 102.927 104.650  1.00  0.00    -0.000 C 
BRANCH  13  14
ATOM     14  C   UNL     1     103.329 101.949 103.497  1.00  0.00    -0.000 C 
BRANCH  14  15
ATOM     15  C   UNL     1     103.928 102.675 102.283  1.00  0.00    -0.000 C 
BRANCH  15  16
ATOM     16  C   UNL     1     103.559 104.167 102.245  1.00  0.00    -0.000 C 
BRANCH  16  17
ATOM     17  C   UNL     1     104.789 105.082 102.337  1.00  0.00    -0.003 C 
ATOM     18  C   UNL     1     104.390 106.502 102.727  1.00  0.00     0.004 C 
ENDBRANCH  16  17
ENDBRANCH  15  16
ENDBRANCH  14  15
ENDBRANCH  13  14
ENDBRANCH  12  13
ENDBRANCH  11  12
ENDBRANCH   1  11
TORSDOF 14
ENDMDL
MODEL 8
REMARK VINA RESULT:     1.515      2.990      8.523
REMARK INTER + INTRA:           1.902
REMARK INTER:                   2.652
REMARK INTRA:                  -0.750
REMARK UNBOUND:                -0.853
REMARK SMILES CCCCCCCCCCCCCCCC(=O)[O-]
REMARK SMILES IDX 9 1 10 2 11 3 12 4 13 5 14 6 15 7 16 8 17 9 18 10 8 11 7 12
REMARK SMILES IDX 6 13 5 14 4 15 3 16 2 17 1 18
REMARK H PARENT
REMARK Flexibility Score: inf
ROOT
ATOM      1  C   UNL     1     103.405 104.312 107.058  1.00  0.00     0.000 C 
ENDROOT
BRANCH   1   2
ATOM      2  C   UNL     1     103.719 102.814 107.199  1.00  0.00     0.000 C 
BRANCH   2   3
ATOM      3  C   UNL     1     103.322 102.008 105.950  1.00  0.00     0.000 C 
BRANCH   3   4
ATOM      4  C   UNL     1     103.298 102.869 104.676  1.00  0.00     0.000 C 
BRANCH   4   5
ATOM      5  C   UNL     1     103.437 102.035 103.394  1.00  0.00     0.000 C 
BRANCH   5   6
ATOM      6  C   UNL     1     103.843 102.917 102.206  1.00  0.00     0.006 C 
BRANCH   6   7
ATOM      7  C   UNL     1     103.335 104.350 102.387  1.00  0.00     0.053 C 
BRANCH   7   8
ATOM      8  C   UNL     1     104.482 105.306 102.482  1.00  0.00     0.041 C 
ATOM      9  O   UNL     1     104.270 106.544 102.560  1.00  0.00    -0.550 OA
ATOM     10  O   UNL     1     105.784 104.825 102.534  1.00  0.00    -0.550 OA
ENDBRANCH   7   8
ENDBRANCH   6   7
ENDBRANCH   5   6
ENDBRANCH   4   5
ENDBRANCH   3   4
ENDBRANCH   2   3
ENDBRANCH   1   2
BRANCH   1  11
ATOM     11  C   UNL     1     104.676 105.180 107.025  1.00  0.00     0.000 C 
BRANCH  11  12
ATOM     12  C   UNL     1     104.741 106.178 108.193  1.00  0.00    -0.000 C 
BRANCH  12  13
ATOM     13  C   UNL     1     104.757 105.487 109.565  1.00  0.00    -0.000 C 
BRANCH  13  14
ATOM     14  C   UNL     1     104.424 106.482 110.684  1.00  0.00    -0.000 C 
BRANCH  14  15
ATOM     15  C   UNL     1     104.424 105.790 112.055  1.00  0.00    -0.000 C 
BRANCH  15  16
ATOM     16  C   UNL     1     104.633 104.271 111.950  1.00  0.00    -0.000 C 
BRANCH  16  17
ATOM     17  C   UNL     1     103.317 103.485 112.042  1.00  0.00    -0.003 C 
ATOM     18  C   UNL     1     103.565 101.982 111.944  1.00  0.00     0.004 C 
ENDBRANCH  16  17
ENDBRANCH  15  16
ENDBRANCH  14  15
ENDBRANCH  13  14
ENDBRANCH  12  13
ENDBRANCH  11  12
ENDBRANCH   1  11
TORSDOF 14
ENDMDL
MODEL 9
REMARK VINA RESULT:     2.784      1.100      2.443
REMARK INTER + INTRA:           4.209
REMARK INTER:                   5.133
REMARK INTRA:                  -0.924
REMARK UNBOUND:                -0.853
REMARK SMILES CCCCCCCCCCCCCCCC(=O)[O-]
REMARK SMILES IDX 9 1 10 2 11 3 12 4 13 5 14 6 15 7 16 8 17 9 18 10 8 11 7 12
REMARK SMILES IDX 6 13 5 14 4 15 3 16 2 17 1 18
REMARK H PARENT
REMARK Flexibility Score: inf
ROOT
ATOM      1  C   UNL     1     104.729 106.125 101.642  1.00  0.00     0.000 C 
ENDROOT
BRANCH   1   2
ATOM      2  C   UNL     1     104.489 105.010 102.673  1.00  0.00     0.000 C 
BRANCH   2   3
ATOM      3  C   UNL     1     103.343 104.068 102.266  1.00  0.00     0.000 C 
BRANCH   3   4
ATOM      4  C   UNL     1     103.767 102.591 102.256  1.00  0.00     0.000 C 
BRANCH   4   5
ATOM      5  C   UNL     1     103.351 101.845 103.533  1.00  0.00     0.000 C 
BRANCH   5   6
ATOM      6  C   UNL     1     103.379 102.780 104.749  1.00  0.00     0.006 C 
BRANCH   6   7
ATOM      7  C   UNL     1     103.487 101.983 106.052  1.00  0.00     0.053 C 
BRANCH   7   8
ATOM      8  C   UNL     1     103.619 102.906 107.222  1.00  0.00     0.041 C 
ATOM      9  O   UNL     1     103.998 104.094 107.052  1.00  0.00    -0.550 OA
ATOM     10  O   UNL     1     103.275 102.468 108.494  1.00  0.00    -0.550 OA
ENDBRANCH   7   8
ENDBRANCH   6   7
ENDBRANCH   5   6
ENDBRANCH   4   5
ENDBRANCH   3   4
ENDBRANCH   2   3
ENDBRANCH   1   2
BRANCH   1  11
ATOM     11  C   UNL     1     104.718 105.602 100.194  1.00  0.00     0.000 C 
BRANCH  11  12
ATOM     12  C   UNL     1     104.602 106.731  99.158  1.00  0.00    -0.000 C 
BRANCH  12  13
ATOM     13  C   UNL     1     104.292 106.214  97.746  1.00  0.00    -0.000 C 
BRANCH  13  14
ATOM     14  C   UNL     1     104.756 104.762  97.579  1.00  0.00    -0.000 C 
BRANCH  14  15
ATOM     15  C   UNL     1     103.613 103.875  97.061  1.00  0.00    -0.000 C 
BRANCH  15  16
ATOM     16  C   UNL     1     102.835 103.191  98.196  1.00  0.00    -0.000 C 
BRANCH  16  17
ATOM     17  C   UNL     1     103.356 101.779  98.503  1.00  0.00    -0.003 C 
ATOM     18  C   UNL     1     103.752 101.048  97.223  1.00  0.00     0.004 C 
ENDBRANCH  16  17
ENDBRANCH  15  16
ENDBRANCH  14  15
ENDBRANCH  13  14
ENDBRANCH  12  13
ENDBRANCH  11  12
ENDBRANCH   1  11
TORSDOF 14
ENDMDL
