MODEL 1
REMARK VINA RESULT:    -4.166      0.000      0.000
REMARK INTER + INTRA:         -11.413
REMARK INTER:                  -9.525
REMARK INTRA:                  -1.888
REMARK UNBOUND:                -1.888
REMARK SMILES CCCCCCCCCCCCCCCCCCCCCCCC(=O)[O-]
REMARK SMILES IDX 13 1 14 2 15 3 16 4 17 5 18 6 19 7 20 8 21 9 22 10 23 11
REMARK SMILES IDX 24 12 25 13 26 14 12 15 11 16 10 17 9 18 8 19 7 20 6 21 5 22
REMARK SMILES IDX 4 23 3 24 2 25 1 26
REMARK H PARENT
REMARK Flexibility Score: inf
ROOT
ATOM      1  C   UNL     1      -5.355  17.549  -7.125  1.00  0.00     0.000 C 
ENDROOT
BRANCH   1   2
ATOM      2  C   UNL     1      -6.592  17.007  -7.862  1.00  0.00     0.000 C 
BRANCH   2   3
ATOM      3  C   UNL     1      -6.226  16.259  -9.152  1.00  0.00     0.000 C 
BRANCH   3   4
ATOM      4  C   UNL     1      -4.713  16.234  -9.416  1.00  0.00     0.000 C 
BRANCH   4   5
ATOM      5  C   UNL     1      -4.407  16.661 -10.857  1.00  0.00     0.000 C 
BRANCH   5   6
ATOM      6  C   UNL     1      -4.628  18.169 -11.049  1.00  0.00     0.000 C 
BRANCH   6   7
ATOM      7  C   UNL     1      -5.156  18.508 -12.460  1.00  0.00     0.000 C 
BRANCH   7   8
ATOM      8  C   UNL     1      -6.621  18.983 -12.477  1.00  0.00     0.000 C 
BRANCH   8   9
ATOM      9  C   UNL     1      -7.227  19.273 -11.091  1.00  0.00     0.000 C 
BRANCH   9  10
ATOM     10  C   UNL     1      -8.752  19.077 -10.994  1.00  0.00     0.006 C 
BRANCH  10  11
ATOM     11  C   UNL     1      -9.174  17.603 -11.085  1.00  0.00     0.053 C 
BRANCH  11  12
ATOM     12  C   UNL     1     -10.588  17.476 -11.562  1.00  0.00     0.041 C 
ATOM     13  O   UNL     1     -10.991  16.400 -12.081  1.00  0.00    -0.550 OA
ATOM     14  O   UNL     1     -11.457  18.556 -11.453  1.00  0.00    -0.550 OA
ENDBRANCH  11  12
ENDBRANCH  10  11
ENDBRANCH   9  10
ENDBRANCH   8   9
ENDBRANCH   7   8
ENDBRANCH   6   7
ENDBRANCH   5   6
ENDBRANCH   4   5
ENDBRANCH   3   4
ENDBRANCH   2   3
ENDBRANCH   1   2
BRANCH   1  15
ATOM     15  C   UNL     1      -4.986  16.692  -5.900  1.00  0.00     0.000 C 
BRANCH  15  16
ATOM     16  C   UNL     1      -4.227  17.479  -4.807  1.00  0.00     0.000 C 
BRANCH  16  17
ATOM     17  C   UNL     1      -3.996  18.962  -5.159  1.00  0.00     0.000 C 
BRANCH  17  18
ATOM     18  C   UNL     1      -4.175  19.937  -3.981  1.00  0.00    -0.000 C 
BRANCH  18  19
ATOM     19  C   UNL     1      -4.309  19.267  -2.599  1.00  0.00    -0.000 C 
BRANCH  19  20
ATOM     20  C   UNL     1      -5.092  20.114  -1.572  1.00  0.00    -0.000 C 
BRANCH  20  21
ATOM     21  C   UNL     1      -4.921  19.592  -0.135  1.00  0.00    -0.000 C 
BRANCH  21  22
ATOM     22  C   UNL     1      -5.178  20.674   0.926  1.00  0.00    -0.000 C 
BRANCH  22  23
ATOM     23  C   UNL     1      -5.039  20.146   2.361  1.00  0.00    -0.000 C 
BRANCH  23  24
ATOM     24  C   UNL     1      -6.350  19.500   2.836  1.00  0.00    -0.000 C 
BRANCH  24  25
ATOM     25  C   UNL     1      -6.139  18.526   4.005  1.00  0.00    -0.003 C 
ATOM     26  C   UNL     1      -4.788  17.812   3.947  1.00  0.00     0.004 C 
ENDBRANCH  24  25
ENDBRANCH  23  24
ENDBRANCH  22  23
ENDBRANCH  21  22
ENDBRANCH  20  21
ENDBRANCH  19  20
ENDBRANCH  18  19
ENDBRANCH  17  18
ENDBRANCH  16  17
ENDBRANCH  15  16
ENDBRANCH   1  15
TORSDOF 22
ENDMDL
MODEL 2
REMARK VINA RESULT:    -4.094      4.586     11.005
REMARK INTER + INTRA:         -11.247
REMARK INTER:                  -9.142
REMARK INTRA:                  -2.105
REMARK UNBOUND:                -1.888
REMARK SMILES CCCCCCCCCCCCCCCCCCCCCCCC(=O)[O-]
REMARK SMILES IDX 13 1 14 2 15 3 16 4 17 5 18 6 19 7 20 8 21 9 22 10 23 11
REMARK SMILES IDX 24 12 25 13 26 14 12 15 11 16 10 17 9 18 8 19 7 20 6 21 5 22
REMARK SMILES IDX 4 23 3 24 2 25 1 26
REMARK H PARENT
REMARK Flexibility Score: inf
ROOT
ATOM      1  C   UNL     1      -6.458  17.204  -7.313  1.00  0.00     0.000 C 
ENDROOT
BRANCH   1   2
ATOM      2  C   UNL     1      -5.274  16.583  -6.552  1.00  0.00     0.000 C 
BRANCH   2   3
ATOM      3  C   UNL     1      -4.340  17.644  -5.952  1.00  0.00     0.000 C 
BRANCH   3   4
ATOM      4  C   UNL     1      -4.776  19.077  -6.287  1.00  0.00     0.000 C 
BRANCH   4   5
ATOM      5  C   UNL     1      -4.189  20.072  -5.278  1.00  0.00     0.000 C 
BRANCH   5   6
ATOM      6  C   UNL     1      -4.105  19.457  -3.874  1.00  0.00     0.000 C 
BRANCH   6   7
ATOM      7  C   UNL     1      -4.853  20.302  -2.819  1.00  0.00     0.000 C 
BRANCH   7   8
ATOM      8  C   UNL     1      -4.278  20.167  -1.396  1.00  0.00     0.000 C 
BRANCH   8   9
ATOM      9  C   UNL     1      -5.277  19.671  -0.334  1.00  0.00     0.000 C 
BRANCH   9  10
ATOM     10  C   UNL     1      -5.192  20.389   1.025  1.00  0.00     0.006 C 
BRANCH  10  11
ATOM     11  C   UNL     1      -5.012  19.421   2.204  1.00  0.00     0.053 C 
BRANCH  11  12
ATOM     12  C   UNL     1      -6.073  19.631   3.240  1.00  0.00     0.041 C 
ATOM     13  O   UNL     1      -6.752  18.657   3.663  1.00  0.00    -0.550 OA
ATOM     14  O   UNL     1      -6.327  20.909   3.725  1.00  0.00    -0.550 OA
ENDBRANCH  11  12
ENDBRANCH  10  11
ENDBRANCH   9  10
ENDBRANCH   8   9
ENDBRANCH   7   8
ENDBRANCH   6   7
ENDBRANCH   5   6
ENDBRANCH   4   5
ENDBRANCH   3   4
ENDBRANCH   2   3
ENDBRANCH   1   2
BRANCH   1  15
ATOM     15  C   UNL     1      -6.662  16.560  -8.696  1.00  0.00     0.000 C 
BRANCH  15  16
ATOM     16  C   UNL     1      -5.338  16.170  -9.393  1.00  0.00     0.000 C 
BRANCH  16  17
ATOM     17  C   UNL     1      -4.983  17.067 -10.596  1.00  0.00     0.000 C 
BRANCH  17  18
ATOM     18  C   UNL     1      -4.469  18.469 -10.222  1.00  0.00    -0.000 C 
BRANCH  18  19
ATOM     19  C   UNL     1      -5.551  19.567 -10.177  1.00  0.00    -0.000 C 
BRANCH  19  20
ATOM     20  C   UNL     1      -5.884  20.167 -11.560  1.00  0.00    -0.000 C 
BRANCH  20  21
ATOM     21  C   UNL     1      -7.165  19.564 -12.164  1.00  0.00    -0.000 C 
BRANCH  21  22
ATOM     22  C   UNL     1      -8.125  19.018 -11.096  1.00  0.00    -0.000 C 
BRANCH  22  23
ATOM     23  C   UNL     1      -9.497  19.707 -11.120  1.00  0.00    -0.000 C 
BRANCH  23  24
ATOM     24  C   UNL     1     -10.631  18.669 -11.140  1.00  0.00    -0.000 C 
BRANCH  24  25
ATOM     25  C   UNL     1     -10.111  17.224 -11.098  1.00  0.00    -0.003 C 
ATOM     26  C   UNL     1     -10.680  16.356 -12.221  1.00  0.00     0.004 C 
ENDBRANCH  24  25
ENDBRANCH  23  24
ENDBRANCH  22  23
ENDBRANCH  21  22
ENDBRANCH  20  21
ENDBRANCH  19  20
ENDBRANCH  18  19
ENDBRANCH  17  18
ENDBRANCH  16  17
ENDBRANCH  15  16
ENDBRANCH   1  15
TORSDOF 22
ENDMDL
MODEL 3
REMARK VINA RESULT:    -3.989      4.442      7.197
REMARK INTER + INTRA:         -11.008
REMARK INTER:                  -7.643
REMARK INTRA:                  -3.366
REMARK UNBOUND:                -1.888
REMARK SMILES CCCCCCCCCCCCCCCCCCCCCCCC(=O)[O-]
REMARK SMILES IDX 13 1 14 2 15 3 16 4 17 5 18 6 19 7 20 8 21 9 22 10 23 11
REMARK SMILES IDX 24 12 25 13 26 14 12 15 11 16 10 17 9 18 8 19 7 20 6 21 5 22
REMARK SMILES IDX 4 23 3 24 2 25 1 26
REMARK H PARENT
REMARK Flexibility Score: inf
ROOT
ATOM      1  C   UNL     1     -10.053  17.496 -11.019  1.00  0.00     0.000 C 
ENDROOT
BRANCH   1   2
ATOM      2  C   UNL     1     -10.799  16.709 -12.111  1.00  0.00     0.000 C 
BRANCH   2   3
ATOM      3  C   UNL     1     -12.112  17.387 -12.531  1.00  0.00     0.000 C 
BRANCH   3   4
ATOM      4  C   UNL     1     -12.101  18.903 -12.288  1.00  0.00     0.000 C 
BRANCH   4   5
ATOM      5  C   UNL     1     -12.224  19.665 -13.614  1.00  0.00     0.000 C 
BRANCH   5   6
ATOM      6  C   UNL     1     -11.672  21.093 -13.488  1.00  0.00     0.000 C 
BRANCH   6   7
ATOM      7  C   UNL     1     -10.128  21.124 -13.461  1.00  0.00     0.000 C 
BRANCH   7   8
ATOM      8  C   UNL     1      -9.472  20.238 -14.537  1.00  0.00     0.000 C 
BRANCH   8   9
ATOM      9  C   UNL     1      -8.589  19.099 -13.993  1.00  0.00     0.000 C 
BRANCH   9  10
ATOM     10  C   UNL     1      -7.628  19.505 -12.860  1.00  0.00     0.006 C 
BRANCH  10  11
ATOM     11  C   UNL     1      -6.302  20.083 -13.376  1.00  0.00     0.053 C 
BRANCH  11  12
ATOM     12  C   UNL     1      -5.135  19.306 -12.848  1.00  0.00     0.041 C 
ATOM     13  O   UNL     1      -5.291  18.129 -12.427  1.00  0.00    -0.550 OA
ATOM     14  O   UNL     1      -3.875  19.892 -12.803  1.00  0.00    -0.550 OA
ENDBRANCH  11  12
ENDBRANCH  10  11
ENDBRANCH   9  10
ENDBRANCH   8   9
ENDBRANCH   7   8
ENDBRANCH   6   7
ENDBRANCH   5   6
ENDBRANCH   4   5
ENDBRANCH   3   4
ENDBRANCH   2   3
ENDBRANCH   1   2
BRANCH   1  15
ATOM     15  C   UNL     1      -9.057  16.614 -10.246  1.00  0.00     0.000 C 
BRANCH  15  16
ATOM     16  C   UNL     1      -7.726  17.332  -9.921  1.00  0.00     0.000 C 
BRANCH  16  17
ATOM     17  C   UNL     1      -6.866  16.597  -8.874  1.00  0.00     0.000 C 
BRANCH  17  18
ATOM     18  C   UNL     1      -5.384  16.436  -9.259  1.00  0.00    -0.000 C 
BRANCH  18  19
ATOM     19  C   UNL     1      -4.391  16.578  -8.089  1.00  0.00    -0.000 C 
BRANCH  19  20
ATOM     20  C   UNL     1      -5.051  17.018  -6.763  1.00  0.00    -0.000 C 
BRANCH  20  21
ATOM     21  C   UNL     1      -4.045  17.670  -5.800  1.00  0.00    -0.000 C 
BRANCH  21  22
ATOM     22  C   UNL     1      -4.436  19.105  -5.414  1.00  0.00    -0.000 C 
BRANCH  22  23
ATOM     23  C   UNL     1      -4.376  20.078  -6.600  1.00  0.00    -0.000 C 
BRANCH  23  24
ATOM     24  C   UNL     1      -5.727  20.781  -6.802  1.00  0.00    -0.000 C 
BRANCH  24  25
ATOM     25  C   UNL     1      -6.492  20.254  -8.025  1.00  0.00    -0.003 C 
ATOM     26  C   UNL     1      -5.629  20.197  -9.286  1.00  0.00     0.004 C 
ENDBRANCH  24  25
ENDBRANCH  23  24
ENDBRANCH  22  23
ENDBRANCH  21  22
ENDBRANCH  20  21
ENDBRANCH  19  20
ENDBRANCH  18  19
ENDBRANCH  17  18
ENDBRANCH  16  17
ENDBRANCH  15  16
ENDBRANCH   1  15
TORSDOF 22
ENDMDL
MODEL 4
REMARK VINA RESULT:    -3.971      4.358      6.988
REMARK INTER + INTRA:         -10.966
REMARK INTER:                  -7.862
REMARK INTRA:                  -3.104
REMARK UNBOUND:                -1.888
REMARK SMILES CCCCCCCCCCCCCCCCCCCCCCCC(=O)[O-]
REMARK SMILES IDX 13 1 14 2 15 3 16 4 17 5 18 6 19 7 20 8 21 9 22 10 23 11
REMARK SMILES IDX 24 12 25 13 26 14 12 15 11 16 10 17 9 18 8 19 7 20 6 21 5 22
REMARK SMILES IDX 4 23 3 24 2 25 1 26
REMARK H PARENT
REMARK Flexibility Score: inf
ROOT
ATOM      1  C   UNL     1      -7.993  19.403 -10.934  1.00  0.00     0.000 C 
ENDROOT
BRANCH   1   2
ATOM      2  C   UNL     1      -6.975  18.839 -11.940  1.00  0.00     0.000 C 
BRANCH   2   3
ATOM      3  C   UNL     1      -6.841  19.715 -13.194  1.00  0.00     0.000 C 
BRANCH   3   4
ATOM      4  C   UNL     1      -8.025  19.557 -14.158  1.00  0.00     0.000 C 
BRANCH   4   5
ATOM      5  C   UNL     1      -8.438  20.916 -14.736  1.00  0.00     0.000 C 
BRANCH   5   6
ATOM      6  C   UNL     1      -9.964  21.016 -14.886  1.00  0.00     0.000 C 
BRANCH   6   7
ATOM      7  C   UNL     1     -10.636  19.629 -14.969  1.00  0.00     0.000 C 
BRANCH   7   8
ATOM      8  C   UNL     1     -12.088  19.612 -14.454  1.00  0.00     0.000 C 
BRANCH   8   9
ATOM      9  C   UNL     1     -12.283  20.181 -13.036  1.00  0.00     0.000 C 
BRANCH   9  10
ATOM     10  C   UNL     1     -11.517  19.438 -11.925  1.00  0.00     0.006 C 
BRANCH  10  11
ATOM     11  C   UNL     1     -11.910  17.958 -11.814  1.00  0.00     0.053 C 
BRANCH  11  12
ATOM     12  C   UNL     1     -10.697  17.079 -11.791  1.00  0.00     0.041 C 
ATOM     13  O   UNL     1      -9.996  16.933 -12.829  1.00  0.00    -0.550 OA
ATOM     14  O   UNL     1     -10.351  16.403 -10.627  1.00  0.00    -0.550 OA
ENDBRANCH  11  12
ENDBRANCH  10  11
ENDBRANCH   9  10
ENDBRANCH   8   9
ENDBRANCH   7   8
ENDBRANCH   6   7
ENDBRANCH   5   6
ENDBRANCH   4   5
ENDBRANCH   3   4
ENDBRANCH   2   3
ENDBRANCH   1   2
BRANCH   1  15
ATOM     15  C   UNL     1      -7.360  19.675  -9.557  1.00  0.00     0.000 C 
BRANCH  15  16
ATOM     16  C   UNL     1      -6.201  20.698  -9.606  1.00  0.00     0.000 C 
BRANCH  16  17
ATOM     17  C   UNL     1      -4.819  20.083  -9.311  1.00  0.00     0.000 C 
BRANCH  17  18
ATOM     18  C   UNL     1      -4.222  20.470  -7.946  1.00  0.00    -0.000 C 
BRANCH  18  19
ATOM     19  C   UNL     1      -5.085  20.086  -6.728  1.00  0.00    -0.000 C 
BRANCH  19  20
ATOM     20  C   UNL     1      -4.468  18.968  -5.858  1.00  0.00    -0.000 C 
BRANCH  20  21
ATOM     21  C   UNL     1      -4.038  17.750  -6.694  1.00  0.00    -0.000 C 
BRANCH  21  22
ATOM     22  C   UNL     1      -5.088  16.627  -6.692  1.00  0.00    -0.000 C 
BRANCH  22  23
ATOM     23  C   UNL     1      -6.293  16.937  -7.591  1.00  0.00    -0.000 C 
BRANCH  23  24
ATOM     24  C   UNL     1      -6.192  16.177  -8.923  1.00  0.00    -0.000 C 
BRANCH  24  25
ATOM     25  C   UNL     1      -5.018  16.656  -9.790  1.00  0.00    -0.003 C 
ATOM     26  C   UNL     1      -4.122  15.511 -10.263  1.00  0.00     0.004 C 
ENDBRANCH  24  25
ENDBRANCH  23  24
ENDBRANCH  22  23
ENDBRANCH  21  22
ENDBRANCH  20  21
ENDBRANCH  19  20
ENDBRANCH  18  19
ENDBRANCH  17  18
ENDBRANCH  16  17
ENDBRANCH  15  16
ENDBRANCH   1  15
TORSDOF 22
ENDMDL
MODEL 5
REMARK VINA RESULT:    -3.929      1.480      3.116
REMARK INTER + INTRA:         -10.870
REMARK INTER:                  -8.459
REMARK INTRA:                  -2.411
REMARK UNBOUND:                -1.888
REMARK SMILES CCCCCCCCCCCCCCCCCCCCCCCC(=O)[O-]
REMARK SMILES IDX 13 1 14 2 15 3 16 4 17 5 18 6 19 7 20 8 21 9 22 10 23 11
REMARK SMILES IDX 24 12 25 13 26 14 12 15 11 16 10 17 9 18 8 19 7 20 6 21 5 22
REMARK SMILES IDX 4 23 3 24 2 25 1 26
REMARK H PARENT
REMARK Flexibility Score: inf
ROOT
ATOM      1  C   UNL     1      -6.913  17.133  -9.766  1.00  0.00     0.000 C 
ENDROOT
BRANCH   1   2
ATOM      2  C   UNL     1      -6.432  18.581  -9.561  1.00  0.00     0.000 C 
BRANCH   2   3
ATOM      3  C   UNL     1      -5.049  18.833 -10.179  1.00  0.00     0.000 C 
BRANCH   3   4
ATOM      4  C   UNL     1      -4.682  17.802 -11.255  1.00  0.00     0.000 C 
BRANCH   4   5
ATOM      5  C   UNL     1      -4.933  18.369 -12.658  1.00  0.00     0.000 C 
BRANCH   5   6
ATOM      6  C   UNL     1      -5.047  19.900 -12.626  1.00  0.00     0.000 C 
BRANCH   6   7
ATOM      7  C   UNL     1      -6.478  20.387 -12.941  1.00  0.00     0.000 C 
BRANCH   7   8
ATOM      8  C   UNL     1      -7.394  19.289 -13.514  1.00  0.00     0.000 C 
BRANCH   8   9
ATOM      9  C   UNL     1      -8.864  19.363 -13.057  1.00  0.00     0.000 C 
BRANCH   9  10
ATOM     10  C   UNL     1      -9.321  18.206 -12.149  1.00  0.00     0.006 C 
BRANCH  10  11
ATOM     11  C   UNL     1     -10.620  18.517 -11.390  1.00  0.00     0.053 C 
BRANCH  11  12
ATOM     12  C   UNL     1     -11.814  18.373 -12.284  1.00  0.00     0.041 C 
ATOM     13  O   UNL     1     -12.252  17.230 -12.581  1.00  0.00    -0.550 OA
ATOM     14  O   UNL     1     -12.430  19.505 -12.806  1.00  0.00    -0.550 OA
ENDBRANCH  11  12
ENDBRANCH  10  11
ENDBRANCH   9  10
ENDBRANCH   8   9
ENDBRANCH   7   8
ENDBRANCH   6   7
ENDBRANCH   5   6
ENDBRANCH   4   5
ENDBRANCH   3   4
ENDBRANCH   2   3
ENDBRANCH   1   2
BRANCH   1  15
ATOM     15  C   UNL     1      -6.623  16.246  -8.541  1.00  0.00     0.000 C 
BRANCH  15  16
ATOM     16  C   UNL     1      -6.391  17.051  -7.242  1.00  0.00     0.000 C 
BRANCH  16  17
ATOM     17  C   UNL     1      -5.178  16.569  -6.423  1.00  0.00     0.000 C 
BRANCH  17  18
ATOM     18  C   UNL     1      -4.258  17.694  -5.915  1.00  0.00    -0.000 C 
BRANCH  18  19
ATOM     19  C   UNL     1      -4.603  19.101  -6.440  1.00  0.00    -0.000 C 
BRANCH  19  20
ATOM     20  C   UNL     1      -3.886  20.240  -5.682  1.00  0.00    -0.000 C 
BRANCH  20  21
ATOM     21  C   UNL     1      -4.767  20.854  -4.581  1.00  0.00    -0.000 C 
BRANCH  21  22
ATOM     22  C   UNL     1      -4.065  20.903  -3.215  1.00  0.00    -0.000 C 
BRANCH  22  23
ATOM     23  C   UNL     1      -4.280  19.626  -2.389  1.00  0.00    -0.000 C 
BRANCH  23  24
ATOM     24  C   UNL     1      -5.218  19.894  -1.201  1.00  0.00    -0.000 C 
BRANCH  24  25
ATOM     25  C   UNL     1      -4.587  19.515   0.147  1.00  0.00    -0.003 C 
ATOM     26  C   UNL     1      -5.462  19.898   1.341  1.00  0.00     0.004 C 
ENDBRANCH  24  25
ENDBRANCH  23  24
ENDBRANCH  22  23
ENDBRANCH  21  22
ENDBRANCH  20  21
ENDBRANCH  19  20
ENDBRANCH  18  19
ENDBRANCH  17  18
ENDBRANCH  16  17
ENDBRANCH  15  16
ENDBRANCH   1  15
TORSDOF 22
ENDMDL
MODEL 6
REMARK VINA RESULT:    -3.767      5.289      7.907
REMARK INTER + INTRA:         -10.501
REMARK INTER:                  -6.951
REMARK INTRA:                  -3.550
REMARK UNBOUND:                -1.888
REMARK SMILES CCCCCCCCCCCCCCCCCCCCCCCC(=O)[O-]
REMARK SMILES IDX 13 1 14 2 15 3 16 4 17 5 18 6 19 7 20 8 21 9 22 10 23 11
REMARK SMILES IDX 24 12 25 13 26 14 12 15 11 16 10 17 9 18 8 19 7 20 6 21 5 22
REMARK SMILES IDX 4 23 3 24 2 25 1 26
REMARK H PARENT
REMARK Flexibility Score: inf
ROOT
ATOM      1  C   UNL     1      -9.510  17.007 -11.018  1.00  0.00     0.000 C 
ENDROOT
BRANCH   1   2
ATOM      2  C   UNL     1     -10.749  16.601 -11.836  1.00  0.00     0.000 C 
BRANCH   2   3
ATOM      3  C   UNL     1     -11.699  17.781 -12.088  1.00  0.00     0.000 C 
BRANCH   3   4
ATOM      4  C   UNL     1     -12.780  17.460 -13.129  1.00  0.00     0.000 C 
BRANCH   4   5
ATOM      5  C   UNL     1     -13.237  18.737 -13.847  1.00  0.00     0.000 C 
BRANCH   5   6
ATOM      6  C   UNL     1     -12.157  19.249 -14.811  1.00  0.00     0.000 C 
BRANCH   6   7
ATOM      7  C   UNL     1     -11.484  20.542 -14.302  1.00  0.00     0.000 C 
BRANCH   7   8
ATOM      8  C   UNL     1     -10.009  20.680 -14.724  1.00  0.00     0.000 C 
BRANCH   8   9
ATOM      9  C   UNL     1      -9.038  21.057 -13.589  1.00  0.00     0.000 C 
BRANCH   9  10
ATOM     10  C   UNL     1      -7.544  20.959 -13.951  1.00  0.00     0.006 C 
BRANCH  10  11
ATOM     11  C   UNL     1      -7.040  19.511 -14.029  1.00  0.00     0.053 C 
BRANCH  11  12
ATOM     12  C   UNL     1      -5.550  19.450 -13.881  1.00  0.00     0.041 C 
ATOM     13  O   UNL     1      -4.956  18.339 -13.872  1.00  0.00    -0.550 OA
ATOM     14  O   UNL     1      -4.820  20.623 -13.731  1.00  0.00    -0.550 OA
ENDBRANCH  11  12
ENDBRANCH  10  11
ENDBRANCH   9  10
ENDBRANCH   8   9
ENDBRANCH   7   8
ENDBRANCH   6   7
ENDBRANCH   5   6
ENDBRANCH   4   5
ENDBRANCH   3   4
ENDBRANCH   2   3
ENDBRANCH   1   2
BRANCH   1  15
ATOM     15  C   UNL     1      -9.273  18.527 -11.039  1.00  0.00     0.000 C 
BRANCH  15  16
ATOM     16  C   UNL     1      -7.835  18.929 -10.638  1.00  0.00     0.000 C 
BRANCH  16  17
ATOM     17  C   UNL     1      -7.703  20.401 -10.198  1.00  0.00     0.000 C 
BRANCH  17  18
ATOM     18  C   UNL     1      -6.257  20.875  -9.966  1.00  0.00    -0.000 C 
BRANCH  18  19
ATOM     19  C   UNL     1      -5.171  19.834 -10.303  1.00  0.00    -0.000 C 
BRANCH  19  20
ATOM     20  C   UNL     1      -4.172  19.584  -9.152  1.00  0.00    -0.000 C 
BRANCH  20  21
ATOM     21  C   UNL     1      -4.774  19.916  -7.776  1.00  0.00    -0.000 C 
BRANCH  21  22
ATOM     22  C   UNL     1      -5.106  18.662  -6.953  1.00  0.00    -0.000 C 
BRANCH  22  23
ATOM     23  C   UNL     1      -6.307  17.885  -7.512  1.00  0.00    -0.000 C 
BRANCH  23  24
ATOM     24  C   UNL     1      -5.910  16.443  -7.867  1.00  0.00    -0.000 C 
BRANCH  24  25
ATOM     25  C   UNL     1      -5.936  16.178  -9.380  1.00  0.00    -0.003 C 
ATOM     26  C   UNL     1      -4.541  15.965  -9.969  1.00  0.00     0.004 C 
ENDBRANCH  24  25
ENDBRANCH  23  24
ENDBRANCH  22  23
ENDBRANCH  21  22
ENDBRANCH  20  21
ENDBRANCH  19  20
ENDBRANCH  18  19
ENDBRANCH  17  18
ENDBRANCH  16  17
ENDBRANCH  15  16
ENDBRANCH   1  15
TORSDOF 22
ENDMDL
MODEL 7
REMARK VINA RESULT:    -3.528      6.041      9.755
REMARK INTER + INTRA:          -9.954
REMARK INTER:                  -6.437
REMARK INTRA:                  -3.516
REMARK UNBOUND:                -1.888
REMARK SMILES CCCCCCCCCCCCCCCCCCCCCCCC(=O)[O-]
REMARK SMILES IDX 13 1 14 2 15 3 16 4 17 5 18 6 19 7 20 8 21 9 22 10 23 11
REMARK SMILES IDX 24 12 25 13 26 14 12 15 11 16 10 17 9 18 8 19 7 20 6 21 5 22
REMARK SMILES IDX 4 23 3 24 2 25 1 26
REMARK H PARENT
REMARK Flexibility Score: inf
ROOT
ATOM      1  C   UNL     1      -8.326  19.345 -13.810  1.00  0.00     0.000 C 
ENDROOT
BRANCH   1   2
ATOM      2  C   UNL     1      -7.075  20.222 -13.628  1.00  0.00     0.000 C 
BRANCH   2   3
ATOM      3  C   UNL     1      -6.391  20.555 -14.962  1.00  0.00     0.000 C 
BRANCH   3   4
ATOM      4  C   UNL     1      -5.034  19.855 -15.124  1.00  0.00     0.000 C 
BRANCH   4   5
ATOM      5  C   UNL     1      -5.190  18.334 -15.001  1.00  0.00     0.000 C 
BRANCH   5   6
ATOM      6  C   UNL     1      -4.151  17.745 -14.036  1.00  0.00     0.000 C 
BRANCH   6   7
ATOM      7  C   UNL     1      -3.948  18.627 -12.785  1.00  0.00     0.000 C 
BRANCH   7   8
ATOM      8  C   UNL     1      -4.514  18.009 -11.492  1.00  0.00     0.000 C 
BRANCH   8   9
ATOM      9  C   UNL     1      -4.184  18.783 -10.202  1.00  0.00     0.000 C 
BRANCH   9  10
ATOM     10  C   UNL     1      -4.020  17.909  -8.944  1.00  0.00     0.006 C 
BRANCH  10  11
ATOM     11  C   UNL     1      -4.738  16.557  -9.055  1.00  0.00     0.053 C 
BRANCH  11  12
ATOM     12  C   UNL     1      -5.774  16.407  -7.983  1.00  0.00     0.041 C 
ATOM     13  O   UNL     1      -5.429  16.267  -6.779  1.00  0.00    -0.550 OA
ATOM     14  O   UNL     1      -7.123  16.401  -8.318  1.00  0.00    -0.550 OA
ENDBRANCH  11  12
ENDBRANCH  10  11
ENDBRANCH   9  10
ENDBRANCH   8   9
ENDBRANCH   7   8
ENDBRANCH   6   7
ENDBRANCH   5   6
ENDBRANCH   4   5
ENDBRANCH   3   4
ENDBRANCH   2   3
ENDBRANCH   1   2
BRANCH   1  15
ATOM     15  C   UNL     1      -9.154  19.762 -15.039  1.00  0.00     0.000 C 
BRANCH  15  16
ATOM     16  C   UNL     1     -10.394  20.613 -14.683  1.00  0.00     0.000 C 
BRANCH  16  17
ATOM     17  C   UNL     1     -10.660  20.719 -13.169  1.00  0.00     0.000 C 
BRANCH  17  18
ATOM     18  C   UNL     1     -11.981  20.081 -12.702  1.00  0.00    -0.000 C 
BRANCH  18  19
ATOM     19  C   UNL     1     -12.304  18.716 -13.341  1.00  0.00    -0.000 C 
BRANCH  19  20
ATOM     20  C   UNL     1     -12.118  17.521 -12.381  1.00  0.00    -0.000 C 
BRANCH  20  21
ATOM     21  C   UNL     1     -10.754  16.833 -12.563  1.00  0.00    -0.000 C 
BRANCH  21  22
ATOM     22  C   UNL     1      -9.965  16.720 -11.249  1.00  0.00    -0.000 C 
BRANCH  22  23
ATOM     23  C   UNL     1      -9.607  18.088 -10.650  1.00  0.00    -0.000 C 
BRANCH  23  24
ATOM     24  C   UNL     1      -8.089  18.319 -10.681  1.00  0.00    -0.000 C 
BRANCH  24  25
ATOM     25  C   UNL     1      -7.672  19.610  -9.960  1.00  0.00    -0.003 C 
ATOM     26  C   UNL     1      -8.605  20.784 -10.258  1.00  0.00     0.004 C 
ENDBRANCH  24  25
ENDBRANCH  23  24
ENDBRANCH  22  23
ENDBRANCH  21  22
ENDBRANCH  20  21
ENDBRANCH  19  20
ENDBRANCH  18  19
ENDBRANCH  17  18
ENDBRANCH  16  17
ENDBRANCH  15  16
ENDBRANCH   1  15
TORSDOF 22
ENDMDL
