MODEL 1
REMARK VINA RESULT:    -4.179      0.000      0.000
REMARK INTER + INTRA:         -11.608
REMARK INTER:                  -9.555
REMARK INTRA:                  -2.053
REMARK UNBOUND:                -2.053
REMARK SMILES CCCCCCCCCCCCCCCCCCCCCCCC(=O)[O-]
REMARK SMILES IDX 13 1 14 2 15 3 16 4 17 5 18 6 19 7 20 8 21 9 22 10 23 11
REMARK SMILES IDX 24 12 25 13 26 14 12 15 11 16 10 17 9 18 8 19 7 20 6 21 5 22
REMARK SMILES IDX 4 23 3 24 2 25 1 26
REMARK H PARENT
REMARK Flexibility Score: inf
ROOT
ATOM      1  C   UNL     1      -1.641   0.810   9.505  1.00  0.00     0.000 C 
ENDROOT
BRANCH   1   2
ATOM      2  C   UNL     1      -3.164   0.615   9.625  1.00  0.00     0.000 C 
BRANCH   2   3
ATOM      3  C   UNL     1      -3.836   0.007   8.378  1.00  0.00     0.000 C 
BRANCH   3   4
ATOM      4  C   UNL     1      -4.554  -1.336   8.613  1.00  0.00     0.000 C 
BRANCH   4   5
ATOM      5  C   UNL     1      -3.974  -2.195   9.754  1.00  0.00     0.000 C 
BRANCH   5   6
ATOM      6  C   UNL     1      -4.363  -3.679   9.632  1.00  0.00     0.000 C 
BRANCH   6   7
ATOM      7  C   UNL     1      -5.242  -3.968   8.400  1.00  0.00     0.000 C 
BRANCH   7   8
ATOM      8  C   UNL     1      -6.430  -4.919   8.671  1.00  0.00     0.000 C 
BRANCH   8   9
ATOM      9  C   UNL     1      -7.282  -5.235   7.426  1.00  0.00     0.000 C 
BRANCH   9  10
ATOM     10  C   UNL     1      -6.482  -5.546   6.150  1.00  0.00     0.006 C 
BRANCH  10  11
ATOM     11  C   UNL     1      -7.102  -4.916   4.891  1.00  0.00     0.053 C 
BRANCH  11  12
ATOM     12  C   UNL     1      -7.712  -5.954   3.998  1.00  0.00     0.041 C 
ATOM     13  O   UNL     1      -7.074  -7.000   3.702  1.00  0.00    -0.550 OA
ATOM     14  O   UNL     1      -8.971  -5.737   3.447  1.00  0.00    -0.550 OA
ENDBRANCH  11  12
ENDBRANCH  10  11
ENDBRANCH   9  10
ENDBRANCH   8   9
ENDBRANCH   7   8
ENDBRANCH   6   7
ENDBRANCH   5   6
ENDBRANCH   4   5
ENDBRANCH   3   4
ENDBRANCH   2   3
ENDBRANCH   1   2
BRANCH   1  15
ATOM     15  C   UNL     1      -1.122   0.969   8.062  1.00  0.00     0.000 C 
BRANCH  15  16
ATOM     16  C   UNL     1      -0.152  -0.134   7.590  1.00  0.00     0.000 C 
BRANCH  16  17
ATOM     17  C   UNL     1       0.881  -0.584   8.639  1.00  0.00     0.000 C 
BRANCH  17  18
ATOM     18  C   UNL     1       0.919  -2.107   8.821  1.00  0.00    -0.000 C 
BRANCH  18  19
ATOM     19  C   UNL     1      -0.495  -2.704   8.756  1.00  0.00    -0.000 C 
BRANCH  19  20
ATOM     20  C   UNL     1      -0.481  -4.239   8.665  1.00  0.00    -0.000 C 
BRANCH  20  21
ATOM     21  C   UNL     1       0.575  -4.763   7.675  1.00  0.00    -0.000 C 
BRANCH  21  22
ATOM     22  C   UNL     1       0.055  -5.949   6.847  1.00  0.00    -0.000 C 
BRANCH  22  23
ATOM     23  C   UNL     1       0.403  -5.847   5.344  1.00  0.00    -0.000 C 
BRANCH  23  24
ATOM     24  C   UNL     1       1.136  -7.087   4.805  1.00  0.00    -0.000 C 
BRANCH  24  25
ATOM     25  C   UNL     1       2.031  -6.805   3.584  1.00  0.00    -0.003 C 
ATOM     26  C   UNL     1       3.446  -6.375   3.974  1.00  0.00     0.004 C 
ENDBRANCH  24  25
ENDBRANCH  23  24
ENDBRANCH  22  23
ENDBRANCH  21  22
ENDBRANCH  20  21
ENDBRANCH  19  20
ENDBRANCH  18  19
ENDBRANCH  17  18
ENDBRANCH  16  17
ENDBRANCH  15  16
ENDBRANCH   1  15
TORSDOF 22
ENDMDL
MODEL 2
REMARK VINA RESULT:    -4.172      4.269      8.018
REMARK INTER + INTRA:         -11.591
REMARK INTER:                  -8.016
REMARK INTRA:                  -3.575
REMARK UNBOUND:                -2.053
REMARK SMILES CCCCCCCCCCCCCCCCCCCCCCCC(=O)[O-]
REMARK SMILES IDX 13 1 14 2 15 3 16 4 17 5 18 6 19 7 20 8 21 9 22 10 23 11
REMARK SMILES IDX 24 12 25 13 26 14 12 15 11 16 10 17 9 18 8 19 7 20 6 21 5 22
REMARK SMILES IDX 4 23 3 24 2 25 1 26
REMARK H PARENT
REMARK Flexibility Score: inf
ROOT
ATOM      1  C   UNL     1      -4.166   0.105   8.439  1.00  0.00     0.000 C 
ENDROOT
BRANCH   1   2
ATOM      2  C   UNL     1      -3.203  -0.560   9.441  1.00  0.00     0.000 C 
BRANCH   2   3
ATOM      3  C   UNL     1      -1.732  -0.116   9.313  1.00  0.00     0.000 C 
BRANCH   3   4
ATOM      4  C   UNL     1      -1.374   0.582   7.987  1.00  0.00     0.000 C 
BRANCH   4   5
ATOM      5  C   UNL     1       0.132   0.654   7.673  1.00  0.00     0.000 C 
BRANCH   5   6
ATOM      6  C   UNL     1       0.983   0.933   8.925  1.00  0.00     0.000 C 
BRANCH   6   7
ATOM      7  C   UNL     1       2.113  -0.095   9.121  1.00  0.00     0.000 C 
BRANCH   7   8
ATOM      8  C   UNL     1       1.671  -1.410   9.802  1.00  0.00     0.000 C 
BRANCH   8   9
ATOM      9  C   UNL     1       1.644  -2.630   8.861  1.00  0.00     0.000 C 
BRANCH   9  10
ATOM     10  C   UNL     1       0.289  -2.903   8.185  1.00  0.00     0.006 C 
BRANCH  10  11
ATOM     11  C   UNL     1      -0.191  -4.351   8.378  1.00  0.00     0.053 C 
BRANCH  11  12
ATOM     12  C   UNL     1       0.520  -5.296   7.457  1.00  0.00     0.041 C 
ATOM     13  O   UNL     1       1.579  -5.874   7.823  1.00  0.00    -0.550 OA
ATOM     14  O   UNL     1       0.039  -5.497   6.167  1.00  0.00    -0.550 OA
ENDBRANCH  11  12
ENDBRANCH  10  11
ENDBRANCH   9  10
ENDBRANCH   8   9
ENDBRANCH   7   8
ENDBRANCH   6   7
ENDBRANCH   5   6
ENDBRANCH   4   5
ENDBRANCH   3   4
ENDBRANCH   2   3
ENDBRANCH   1   2
BRANCH   1  15
ATOM     15  C   UNL     1      -5.179   1.082   9.068  1.00  0.00     0.000 C 
BRANCH  15  16
ATOM     16  C   UNL     1      -4.578   2.105  10.054  1.00  0.00     0.000 C 
BRANCH  16  17
ATOM     17  C   UNL     1      -4.891   3.578   9.732  1.00  0.00     0.000 C 
BRANCH  17  18
ATOM     18  C   UNL     1      -3.629   4.415   9.488  1.00  0.00    -0.000 C 
BRANCH  18  19
ATOM     19  C   UNL     1      -2.363   3.617   9.837  1.00  0.00    -0.000 C 
BRANCH  19  20
ATOM     20  C   UNL     1      -1.143   4.056   9.011  1.00  0.00    -0.000 C 
BRANCH  20  21
ATOM     21  C   UNL     1       0.054   4.454   9.893  1.00  0.00    -0.000 C 
BRANCH  21  22
ATOM     22  C   UNL     1       1.351   4.593   9.081  1.00  0.00    -0.000 C 
BRANCH  22  23
ATOM     23  C   UNL     1       1.136   4.469   7.554  1.00  0.00    -0.000 C 
BRANCH  23  24
ATOM     24  C   UNL     1       2.289   3.747   6.835  1.00  0.00    -0.000 C 
BRANCH  24  25
ATOM     25  C   UNL     1       3.648   3.873   7.547  1.00  0.00    -0.003 C 
ATOM     26  C   UNL     1       4.379   2.535   7.667  1.00  0.00     0.004 C 
ENDBRANCH  24  25
ENDBRANCH  23  24
ENDBRANCH  22  23
ENDBRANCH  21  22
ENDBRANCH  20  21
ENDBRANCH  19  20
ENDBRANCH  18  19
ENDBRANCH  17  18
ENDBRANCH  16  17
ENDBRANCH  15  16
ENDBRANCH   1  15
TORSDOF 22
ENDMDL
MODEL 3
REMARK VINA RESULT:    -4.158      6.256     10.261
REMARK INTER + INTRA:         -11.559
REMARK INTER:                  -8.756
REMARK INTRA:                  -2.803
REMARK UNBOUND:                -2.053
REMARK SMILES CCCCCCCCCCCCCCCCCCCCCCCC(=O)[O-]
REMARK SMILES IDX 13 1 14 2 15 3 16 4 17 5 18 6 19 7 20 8 21 9 22 10 23 11
REMARK SMILES IDX 24 12 25 13 26 14 12 15 11 16 10 17 9 18 8 19 7 20 6 21 5 22
REMARK SMILES IDX 4 23 3 24 2 25 1 26
REMARK H PARENT
REMARK Flexibility Score: inf
ROOT
ATOM      1  C   UNL     1      -1.164   1.340   9.386  1.00  0.00     0.000 C 
ENDROOT
BRANCH   1   2
ATOM      2  C   UNL     1      -0.499   2.630   9.902  1.00  0.00     0.000 C 
BRANCH   2   3
ATOM      3  C   UNL     1      -0.925   3.915   9.164  1.00  0.00     0.000 C 
BRANCH   3   4
ATOM      4  C   UNL     1       0.232   4.733   8.558  1.00  0.00     0.000 C 
BRANCH   4   5
ATOM      5  C   UNL     1       0.566   4.403   7.091  1.00  0.00     0.000 C 
BRANCH   5   6
ATOM      6  C   UNL     1       2.055   4.071   6.885  1.00  0.00     0.000 C 
BRANCH   6   7
ATOM      7  C   UNL     1       2.562   2.978   7.845  1.00  0.00     0.000 C 
BRANCH   7   8
ATOM      8  C   UNL     1       4.102   2.878   7.945  1.00  0.00     0.000 C 
BRANCH   8   9
ATOM      9  C   UNL     1       4.607   1.606   8.654  1.00  0.00     0.000 C 
BRANCH   9  10
ATOM     10  C   UNL     1       5.856   1.799   9.529  1.00  0.00     0.006 C 
BRANCH  10  11
ATOM     11  C   UNL     1       7.156   1.409   8.804  1.00  0.00     0.053 C 
BRANCH  11  12
ATOM     12  C   UNL     1       7.856   2.609   8.241  1.00  0.00     0.041 C 
ATOM     13  O   UNL     1       7.773   2.882   7.013  1.00  0.00    -0.550 OA
ATOM     14  O   UNL     1       8.648   3.398   9.069  1.00  0.00    -0.550 OA
ENDBRANCH  11  12
ENDBRANCH  10  11
ENDBRANCH   9  10
ENDBRANCH   8   9
ENDBRANCH   7   8
ENDBRANCH   6   7
ENDBRANCH   5   6
ENDBRANCH   4   5
ENDBRANCH   3   4
ENDBRANCH   2   3
ENDBRANCH   1   2
BRANCH   1  15
ATOM     15  C   UNL     1      -0.718   0.903   7.977  1.00  0.00     0.000 C 
BRANCH  15  16
ATOM     16  C   UNL     1       0.099  -0.405   7.924  1.00  0.00     0.000 C 
BRANCH  16  17
ATOM     17  C   UNL     1       1.417  -0.379   8.721  1.00  0.00     0.000 C 
BRANCH  17  18
ATOM     18  C   UNL     1       1.926  -1.782   9.075  1.00  0.00    -0.000 C 
BRANCH  18  19
ATOM     19  C   UNL     1       0.917  -2.858   8.643  1.00  0.00    -0.000 C 
BRANCH  19  20
ATOM     20  C   UNL     1       0.037  -3.340   9.808  1.00  0.00    -0.000 C 
BRANCH  20  21
ATOM     21  C   UNL     1      -1.418  -3.603   9.379  1.00  0.00    -0.000 C 
BRANCH  21  22
ATOM     22  C   UNL     1      -2.361  -2.467   9.805  1.00  0.00    -0.000 C 
BRANCH  22  23
ATOM     23  C   UNL     1      -3.842  -2.731   9.446  1.00  0.00    -0.000 C 
BRANCH  23  24
ATOM     24  C   UNL     1      -4.715  -1.465   9.499  1.00  0.00    -0.000 C 
BRANCH  24  25
ATOM     25  C   UNL     1      -4.303  -0.377   8.492  1.00  0.00    -0.003 C 
ATOM     26  C   UNL     1      -4.779   1.018   8.899  1.00  0.00     0.004 C 
ENDBRANCH  24  25
ENDBRANCH  23  24
ENDBRANCH  22  23
ENDBRANCH  21  22
ENDBRANCH  20  21
ENDBRANCH  19  20
ENDBRANCH  18  19
ENDBRANCH  17  18
ENDBRANCH  16  17
ENDBRANCH  15  16
ENDBRANCH   1  15
TORSDOF 22
ENDMDL
MODEL 4
REMARK VINA RESULT:    -4.141      4.459      7.055
REMARK INTER + INTRA:         -11.520
REMARK INTER:                  -8.078
REMARK INTRA:                  -3.443
REMARK UNBOUND:                -2.053
REMARK SMILES CCCCCCCCCCCCCCCCCCCCCCCC(=O)[O-]
REMARK SMILES IDX 13 1 14 2 15 3 16 4 17 5 18 6 19 7 20 8 21 9 22 10 23 11
REMARK SMILES IDX 24 12 25 13 26 14 12 15 11 16 10 17 9 18 8 19 7 20 6 21 5 22
REMARK SMILES IDX 4 23 3 24 2 25 1 26
REMARK H PARENT
REMARK Flexibility Score: inf
ROOT
ATOM      1  C   UNL     1      -0.562   0.363   7.682  1.00  0.00     0.000 C 
ENDROOT
BRANCH   1   2
ATOM      2  C   UNL     1       0.427   1.497   8.015  1.00  0.00     0.000 C 
BRANCH   2   3
ATOM      3  C   UNL     1      -0.189   2.686   8.780  1.00  0.00     0.000 C 
BRANCH   3   4
ATOM      4  C   UNL     1      -0.457   2.431  10.276  1.00  0.00     0.000 C 
BRANCH   4   5
ATOM      5  C   UNL     1      -1.944   2.401  10.677  1.00  0.00     0.000 C 
BRANCH   5   6
ATOM      6  C   UNL     1      -2.877   2.790   9.516  1.00  0.00     0.000 C 
BRANCH   6   7
ATOM      7  C   UNL     1      -4.362   2.525   9.828  1.00  0.00     0.000 C 
BRANCH   7   8
ATOM      8  C   UNL     1      -4.770   1.035   9.778  1.00  0.00     0.000 C 
BRANCH   8   9
ATOM      9  C   UNL     1      -4.089   0.231   8.653  1.00  0.00     0.000 C 
BRANCH   9  10
ATOM     10  C   UNL     1      -4.488  -1.253   8.579  1.00  0.00     0.006 C 
BRANCH  10  11
ATOM     11  C   UNL     1      -4.628  -1.901   9.967  1.00  0.00     0.053 C 
BRANCH  11  12
ATOM     12  C   UNL     1      -3.293  -2.260  10.547  1.00  0.00     0.041 C 
ATOM     13  O   UNL     1      -2.668  -3.274  10.137  1.00  0.00    -0.550 OA
ATOM     14  O   UNL     1      -2.763  -1.499  11.584  1.00  0.00    -0.550 OA
ENDBRANCH  11  12
ENDBRANCH  10  11
ENDBRANCH   9  10
ENDBRANCH   8   9
ENDBRANCH   7   8
ENDBRANCH   6   7
ENDBRANCH   5   6
ENDBRANCH   4   5
ENDBRANCH   3   4
ENDBRANCH   2   3
ENDBRANCH   1   2
BRANCH   1  15
ATOM     15  C   UNL     1      -0.525  -0.832   8.655  1.00  0.00     0.000 C 
BRANCH  15  16
ATOM     16  C   UNL     1       0.142  -2.108   8.101  1.00  0.00     0.000 C 
BRANCH  16  17
ATOM     17  C   UNL     1       1.433  -2.534   8.824  1.00  0.00     0.000 C 
BRANCH  17  18
ATOM     18  C   UNL     1       2.005  -1.428   9.720  1.00  0.00    -0.000 C 
BRANCH  18  19
ATOM     19  C   UNL     1       3.538  -1.507   9.780  1.00  0.00    -0.000 C 
BRANCH  19  20
ATOM     20  C   UNL     1       4.187  -0.138  10.043  1.00  0.00    -0.000 C 
BRANCH  20  21
ATOM     21  C   UNL     1       3.153   0.951  10.378  1.00  0.00    -0.000 C 
BRANCH  21  22
ATOM     22  C   UNL     1       3.589   2.338   9.880  1.00  0.00    -0.000 C 
BRANCH  22  23
ATOM     23  C   UNL     1       4.859   2.302   8.999  1.00  0.00    -0.000 C 
BRANCH  23  24
ATOM     24  C   UNL     1       4.578   2.599   7.515  1.00  0.00    -0.000 C 
BRANCH  24  25
ATOM     25  C   UNL     1       3.414   3.579   7.283  1.00  0.00    -0.003 C 
ATOM     26  C   UNL     1       3.851   4.854   6.558  1.00  0.00     0.004 C 
ENDBRANCH  24  25
ENDBRANCH  23  24
ENDBRANCH  22  23
ENDBRANCH  21  22
ENDBRANCH  20  21
ENDBRANCH  19  20
ENDBRANCH  18  19
ENDBRANCH  17  18
ENDBRANCH  16  17
ENDBRANCH  15  16
ENDBRANCH   1  15
TORSDOF 22
ENDMDL
MODEL 5
REMARK VINA RESULT:    -4.139      2.506      6.073
REMARK INTER + INTRA:         -11.515
REMARK INTER:                  -7.698
REMARK INTRA:                  -3.816
REMARK UNBOUND:                -2.053
REMARK SMILES CCCCCCCCCCCCCCCCCCCCCCCC(=O)[O-]
REMARK SMILES IDX 13 1 14 2 15 3 16 4 17 5 18 6 19 7 20 8 21 9 22 10 23 11
REMARK SMILES IDX 24 12 25 13 26 14 12 15 11 16 10 17 9 18 8 19 7 20 6 21 5 22
REMARK SMILES IDX 4 23 3 24 2 25 1 26
REMARK H PARENT
REMARK Flexibility Score: inf
ROOT
ATOM      1  C   UNL     1      -0.460   0.324   7.619  1.00  0.00     0.000 C 
ENDROOT
BRANCH   1   2
ATOM      2  C   UNL     1       0.336  -0.888   8.140  1.00  0.00     0.000 C 
BRANCH   2   3
ATOM      3  C   UNL     1       1.513  -0.535   9.071  1.00  0.00     0.000 C 
BRANCH   3   4
ATOM      4  C   UNL     1       2.372  -1.734   9.520  1.00  0.00     0.000 C 
BRANCH   4   5
ATOM      5  C   UNL     1       1.598  -3.050   9.725  1.00  0.00     0.000 C 
BRANCH   5   6
ATOM      6  C   UNL     1       2.204  -4.221   8.930  1.00  0.00     0.000 C 
BRANCH   6   7
ATOM      7  C   UNL     1       1.630  -5.588   9.348  1.00  0.00     0.000 C 
BRANCH   7   8
ATOM      8  C   UNL     1       0.669  -6.222   8.316  1.00  0.00     0.000 C 
BRANCH   8   9
ATOM      9  C   UNL     1       0.259  -5.274   7.171  1.00  0.00     0.000 C 
BRANCH   9  10
ATOM     10  C   UNL     1      -0.036  -5.963   5.829  1.00  0.00     0.006 C 
BRANCH  10  11
ATOM     11  C   UNL     1      -1.367  -6.735   5.836  1.00  0.00     0.053 C 
BRANCH  11  12
ATOM     12  C   UNL     1      -1.999  -6.759   4.477  1.00  0.00     0.041 C 
ATOM     13  O   UNL     1      -3.149  -6.276   4.296  1.00  0.00    -0.550 OA
ATOM     14  O   UNL     1      -1.335  -7.369   3.417  1.00  0.00    -0.550 OA
ENDBRANCH  11  12
ENDBRANCH  10  11
ENDBRANCH   9  10
ENDBRANCH   8   9
ENDBRANCH   7   8
ENDBRANCH   6   7
ENDBRANCH   5   6
ENDBRANCH   4   5
ENDBRANCH   3   4
ENDBRANCH   2   3
ENDBRANCH   1   2
BRANCH   1  15
ATOM     15  C   UNL     1      -1.492   0.893   8.613  1.00  0.00     0.000 C 
BRANCH  15  16
ATOM     16  C   UNL     1      -2.931   0.366   8.436  1.00  0.00     0.000 C 
BRANCH  16  17
ATOM     17  C   UNL     1      -3.245  -0.935   9.196  1.00  0.00     0.000 C 
BRANCH  17  18
ATOM     18  C   UNL     1      -2.541  -1.014  10.557  1.00  0.00    -0.000 C 
BRANCH  18  19
ATOM     19  C   UNL     1      -2.058  -2.444  10.844  1.00  0.00    -0.000 C 
BRANCH  19  20
ATOM     20  C   UNL     1      -2.070  -3.332   9.589  1.00  0.00    -0.000 C 
BRANCH  20  21
ATOM     21  C   UNL     1      -2.238  -4.825   9.926  1.00  0.00    -0.000 C 
BRANCH  21  22
ATOM     22  C   UNL     1      -3.092  -5.562   8.882  1.00  0.00    -0.000 C 
BRANCH  22  23
ATOM     23  C   UNL     1      -4.595  -5.609   9.242  1.00  0.00    -0.000 C 
BRANCH  23  24
ATOM     24  C   UNL     1      -5.414  -4.491   8.573  1.00  0.00    -0.000 C 
BRANCH  24  25
ATOM     25  C   UNL     1      -5.788  -3.336   9.519  1.00  0.00    -0.003 C 
ATOM     26  C   UNL     1      -5.706  -3.730  10.994  1.00  0.00     0.004 C 
ENDBRANCH  24  25
ENDBRANCH  23  24
ENDBRANCH  22  23
ENDBRANCH  21  22
ENDBRANCH  20  21
ENDBRANCH  19  20
ENDBRANCH  18  19
ENDBRANCH  17  18
ENDBRANCH  16  17
ENDBRANCH  15  16
ENDBRANCH   1  15
TORSDOF 22
ENDMDL
MODEL 6
REMARK VINA RESULT:    -4.124      5.967      8.791
REMARK INTER + INTRA:         -11.481
REMARK INTER:                  -7.659
REMARK INTRA:                  -3.821
REMARK UNBOUND:                -2.053
REMARK SMILES CCCCCCCCCCCCCCCCCCCCCCCC(=O)[O-]
REMARK SMILES IDX 13 1 14 2 15 3 16 4 17 5 18 6 19 7 20 8 21 9 22 10 23 11
REMARK SMILES IDX 24 12 25 13 26 14 12 15 11 16 10 17 9 18 8 19 7 20 6 21 5 22
REMARK SMILES IDX 4 23 3 24 2 25 1 26
REMARK H PARENT
REMARK Flexibility Score: inf
ROOT
ATOM      1  C   UNL     1       0.140  -1.221   8.143  1.00  0.00     0.000 C 
ENDROOT
BRANCH   1   2
ATOM      2  C   UNL     1      -0.215   0.160   7.562  1.00  0.00     0.000 C 
BRANCH   2   3
ATOM      3  C   UNL     1      -1.529   0.766   8.094  1.00  0.00     0.000 C 
BRANCH   3   4
ATOM      4  C   UNL     1      -2.390  -0.189   8.943  1.00  0.00     0.000 C 
BRANCH   4   5
ATOM      5  C   UNL     1      -3.872  -0.272   8.532  1.00  0.00     0.000 C 
BRANCH   5   6
ATOM      6  C   UNL     1      -4.679   0.961   8.978  1.00  0.00     0.000 C 
BRANCH   6   7
ATOM      7  C   UNL     1      -4.274   1.468  10.375  1.00  0.00     0.000 C 
BRANCH   7   8
ATOM      8  C   UNL     1      -4.490   2.982  10.594  1.00  0.00     0.000 C 
BRANCH   8   9
ATOM      9  C   UNL     1      -3.828   3.875   9.527  1.00  0.00     0.000 C 
BRANCH   9  10
ATOM     10  C   UNL     1      -2.295   3.962   9.610  1.00  0.00     0.006 C 
BRANCH  10  11
ATOM     11  C   UNL     1      -1.806   5.282  10.233  1.00  0.00     0.053 C 
BRANCH  11  12
ATOM     12  C   UNL     1      -1.469   6.296   9.182  1.00  0.00     0.041 C 
ATOM     13  O   UNL     1      -1.370   7.517   9.478  1.00  0.00    -0.550 OA
ATOM     14  O   UNL     1      -1.316   5.895   7.858  1.00  0.00    -0.550 OA
ENDBRANCH  11  12
ENDBRANCH  10  11
ENDBRANCH   9  10
ENDBRANCH   8   9
ENDBRANCH   7   8
ENDBRANCH   6   7
ENDBRANCH   5   6
ENDBRANCH   4   5
ENDBRANCH   3   4
ENDBRANCH   2   3
ENDBRANCH   1   2
BRANCH   1  15
ATOM     15  C   UNL     1       1.473  -1.272   8.917  1.00  0.00     0.000 C 
BRANCH  15  16
ATOM     16  C   UNL     1       2.189   0.085   9.079  1.00  0.00     0.000 C 
BRANCH  16  17
ATOM     17  C   UNL     1       2.508   0.482  10.532  1.00  0.00     0.000 C 
BRANCH  17  18
ATOM     18  C   UNL     1       2.339   1.984  10.789  1.00  0.00    -0.000 C 
BRANCH  18  19
ATOM     19  C   UNL     1       1.130   2.541  10.023  1.00  0.00    -0.000 C 
BRANCH  19  20
ATOM     20  C   UNL     1       1.484   3.780   9.183  1.00  0.00    -0.000 C 
BRANCH  20  21
ATOM     21  C   UNL     1       1.348   3.526   7.671  1.00  0.00    -0.000 C 
BRANCH  21  22
ATOM     22  C   UNL     1       2.625   3.904   6.903  1.00  0.00    -0.000 C 
BRANCH  22  23
ATOM     23  C   UNL     1       3.912   3.775   7.751  1.00  0.00    -0.000 C 
BRANCH  23  24
ATOM     24  C   UNL     1       4.689   2.475   7.478  1.00  0.00    -0.000 C 
BRANCH  24  25
ATOM     25  C   UNL     1       5.422   1.913   8.710  1.00  0.00    -0.003 C 
ATOM     26  C   UNL     1       6.928   1.767   8.488  1.00  0.00     0.004 C 
ENDBRANCH  24  25
ENDBRANCH  23  24
ENDBRANCH  22  23
ENDBRANCH  21  22
ENDBRANCH  20  21
ENDBRANCH  19  20
ENDBRANCH  18  19
ENDBRANCH  17  18
ENDBRANCH  16  17
ENDBRANCH  15  16
ENDBRANCH   1  15
TORSDOF 22
ENDMDL
MODEL 7
REMARK VINA RESULT:    -4.121      2.177      3.464
REMARK INTER + INTRA:         -11.473
REMARK INTER:                  -8.739
REMARK INTRA:                  -2.734
REMARK UNBOUND:                -2.053
REMARK SMILES CCCCCCCCCCCCCCCCCCCCCCCC(=O)[O-]
REMARK SMILES IDX 13 1 14 2 15 3 16 4 17 5 18 6 19 7 20 8 21 9 22 10 23 11
REMARK SMILES IDX 24 12 25 13 26 14 12 15 11 16 10 17 9 18 8 19 7 20 6 21 5 22
REMARK SMILES IDX 4 23 3 24 2 25 1 26
REMARK H PARENT
REMARK Flexibility Score: inf
ROOT
ATOM      1  C   UNL     1      -3.503   1.526   9.181  1.00  0.00     0.000 C 
ENDROOT
BRANCH   1   2
ATOM      2  C   UNL     1      -4.402   0.370   8.703  1.00  0.00     0.000 C 
BRANCH   2   3
ATOM      3  C   UNL     1      -4.476  -0.831   9.667  1.00  0.00     0.000 C 
BRANCH   3   4
ATOM      4  C   UNL     1      -4.313  -2.212   9.003  1.00  0.00     0.000 C 
BRANCH   4   5
ATOM      5  C   UNL     1      -5.099  -3.355   9.673  1.00  0.00     0.000 C 
BRANCH   5   6
ATOM      6  C   UNL     1      -5.701  -4.336   8.650  1.00  0.00     0.000 C 
BRANCH   6   7
ATOM      7  C   UNL     1      -7.214  -4.551   8.846  1.00  0.00     0.000 C 
BRANCH   7   8
ATOM      8  C   UNL     1      -7.801  -5.736   8.046  1.00  0.00     0.000 C 
BRANCH   8   9
ATOM      9  C   UNL     1      -8.346  -5.350   6.657  1.00  0.00     0.000 C 
BRANCH   9  10
ATOM     10  C   UNL     1      -7.392  -5.627   5.483  1.00  0.00     0.006 C 
BRANCH  10  11
ATOM     11  C   UNL     1      -7.879  -5.008   4.161  1.00  0.00     0.053 C 
BRANCH  11  12
ATOM     12  C   UNL     1      -8.679  -5.988   3.356  1.00  0.00     0.041 C 
ATOM     13  O   UNL     1      -9.855  -6.287   3.694  1.00  0.00    -0.550 OA
ATOM     14  O   UNL     1      -8.100  -6.614   2.256  1.00  0.00    -0.550 OA
ENDBRANCH  11  12
ENDBRANCH  10  11
ENDBRANCH   9  10
ENDBRANCH   8   9
ENDBRANCH   7   8
ENDBRANCH   6   7
ENDBRANCH   5   6
ENDBRANCH   4   5
ENDBRANCH   3   4
ENDBRANCH   2   3
ENDBRANCH   1   2
BRANCH   1  15
ATOM     15  C   UNL     1      -2.533   1.160  10.322  1.00  0.00     0.000 C 
BRANCH  15  16
ATOM     16  C   UNL     1      -1.046   1.082   9.918  1.00  0.00     0.000 C 
BRANCH  16  17
ATOM     17  C   UNL     1      -0.749   1.462   8.456  1.00  0.00     0.000 C 
BRANCH  17  18
ATOM     18  C   UNL     1      -0.364   0.254   7.594  1.00  0.00    -0.000 C 
BRANCH  18  19
ATOM     19  C   UNL     1      -0.239  -1.016   8.450  1.00  0.00    -0.000 C 
BRANCH  19  20
ATOM     20  C   UNL     1       1.219  -1.475   8.612  1.00  0.00    -0.000 C 
BRANCH  20  21
ATOM     21  C   UNL     1       1.328  -2.940   9.072  1.00  0.00    -0.000 C 
BRANCH  21  22
ATOM     22  C   UNL     1       0.552  -3.895   8.150  1.00  0.00    -0.000 C 
BRANCH  22  23
ATOM     23  C   UNL     1      -0.226  -4.989   8.917  1.00  0.00    -0.000 C 
BRANCH  23  24
ATOM     24  C   UNL     1      -1.591  -4.509   9.442  1.00  0.00    -0.000 C 
BRANCH  24  25
ATOM     25  C   UNL     1      -1.641  -4.314  10.968  1.00  0.00    -0.003 C 
ATOM     26  C   UNL     1      -1.530  -2.845  11.381  1.00  0.00     0.004 C 
ENDBRANCH  24  25
ENDBRANCH  23  24
ENDBRANCH  22  23
ENDBRANCH  21  22
ENDBRANCH  20  21
ENDBRANCH  19  20
ENDBRANCH  18  19
ENDBRANCH  17  18
ENDBRANCH  16  17
ENDBRANCH  15  16
ENDBRANCH   1  15
TORSDOF 22
ENDMDL
MODEL 8
REMARK VINA RESULT:    -4.114      2.793      4.992
REMARK INTER + INTRA:         -11.459
REMARK INTER:                  -9.453
REMARK INTRA:                  -2.006
REMARK UNBOUND:                -2.053
REMARK SMILES CCCCCCCCCCCCCCCCCCCCCCCC(=O)[O-]
REMARK SMILES IDX 13 1 14 2 15 3 16 4 17 5 18 6 19 7 20 8 21 9 22 10 23 11
REMARK SMILES IDX 24 12 25 13 26 14 12 15 11 16 10 17 9 18 8 19 7 20 6 21 5 22
REMARK SMILES IDX 4 23 3 24 2 25 1 26
REMARK H PARENT
REMARK Flexibility Score: inf
ROOT
ATOM      1  C   UNL     1      -1.154   1.015   8.220  1.00  0.00     0.000 C 
ENDROOT
BRANCH   1   2
ATOM      2  C   UNL     1      -2.279   0.417   9.086  1.00  0.00     0.000 C 
BRANCH   2   3
ATOM      3  C   UNL     1      -3.637   0.273   8.371  1.00  0.00     0.000 C 
BRANCH   3   4
ATOM      4  C   UNL     1      -4.367  -1.061   8.619  1.00  0.00     0.000 C 
BRANCH   4   5
ATOM      5  C   UNL     1      -3.764  -1.937   9.734  1.00  0.00     0.000 C 
BRANCH   5   6
ATOM      6  C   UNL     1      -4.081  -3.432   9.548  1.00  0.00     0.000 C 
BRANCH   6   7
ATOM      7  C   UNL     1      -5.438  -3.674   8.861  1.00  0.00     0.000 C 
BRANCH   7   8
ATOM      8  C   UNL     1      -5.832  -5.163   8.728  1.00  0.00     0.000 C 
BRANCH   8   9
ATOM      9  C   UNL     1      -7.048  -5.415   7.815  1.00  0.00     0.000 C 
BRANCH   9  10
ATOM     10  C   UNL     1      -6.712  -5.640   6.331  1.00  0.00     0.006 C 
BRANCH  10  11
ATOM     11  C   UNL     1      -7.831  -5.162   5.389  1.00  0.00     0.053 C 
BRANCH  11  12
ATOM     12  C   UNL     1      -7.871  -5.969   4.126  1.00  0.00     0.041 C 
ATOM     13  O   UNL     1      -6.895  -6.698   3.799  1.00  0.00    -0.550 OA
ATOM     14  O   UNL     1      -8.970  -5.871   3.278  1.00  0.00    -0.550 OA
ENDBRANCH  11  12
ENDBRANCH  10  11
ENDBRANCH   9  10
ENDBRANCH   8   9
ENDBRANCH   7   8
ENDBRANCH   6   7
ENDBRANCH   5   6
ENDBRANCH   4   5
ENDBRANCH   3   4
ENDBRANCH   2   3
ENDBRANCH   1   2
BRANCH   1  15
ATOM     15  C   UNL     1      -0.179  -0.019   7.624  1.00  0.00     0.000 C 
BRANCH  15  16
ATOM     16  C   UNL     1      -0.283  -1.438   8.222  1.00  0.00     0.000 C 
BRANCH  16  17
ATOM     17  C   UNL     1       0.610  -1.692   9.451  1.00  0.00     0.000 C 
BRANCH  17  18
ATOM     18  C   UNL     1       1.793  -2.619   9.146  1.00  0.00    -0.000 C 
BRANCH  18  19
ATOM     19  C   UNL     1       3.127  -1.941   9.492  1.00  0.00    -0.000 C 
BRANCH  19  20
ATOM     20  C   UNL     1       2.971  -0.432   9.748  1.00  0.00    -0.000 C 
BRANCH  20  21
ATOM     21  C   UNL     1       4.279   0.344   9.512  1.00  0.00    -0.000 C 
BRANCH  21  22
ATOM     22  C   UNL     1       4.077   1.864   9.612  1.00  0.00    -0.000 C 
BRANCH  22  23
ATOM     23  C   UNL     1       2.668   2.326   9.175  1.00  0.00    -0.000 C 
BRANCH  23  24
ATOM     24  C   UNL     1       2.666   3.086   7.836  1.00  0.00    -0.000 C 
BRANCH  24  25
ATOM     25  C   UNL     1       1.267   3.521   7.365  1.00  0.00    -0.003 C 
ATOM     26  C   UNL     1       1.234   4.968   6.870  1.00  0.00     0.004 C 
ENDBRANCH  24  25
ENDBRANCH  23  24
ENDBRANCH  22  23
ENDBRANCH  21  22
ENDBRANCH  20  21
ENDBRANCH  19  20
ENDBRANCH  18  19
ENDBRANCH  17  18
ENDBRANCH  16  17
ENDBRANCH  15  16
ENDBRANCH   1  15
TORSDOF 22
ENDMDL
MODEL 9
REMARK VINA RESULT:    -4.102      5.897      9.190
REMARK INTER + INTRA:         -11.431
REMARK INTER:                  -6.753
REMARK INTRA:                  -4.678
REMARK UNBOUND:                -2.053
REMARK SMILES CCCCCCCCCCCCCCCCCCCCCCCC(=O)[O-]
REMARK SMILES IDX 13 1 14 2 15 3 16 4 17 5 18 6 19 7 20 8 21 9 22 10 23 11
REMARK SMILES IDX 24 12 25 13 26 14 12 15 11 16 10 17 9 18 8 19 7 20 6 21 5 22
REMARK SMILES IDX 4 23 3 24 2 25 1 26
REMARK H PARENT
REMARK Flexibility Score: inf
ROOT
ATOM      1  C   UNL     1       0.273   1.485   8.010  1.00  0.00     0.000 C 
ENDROOT
BRANCH   1   2
ATOM      2  C   UNL     1      -0.477   2.474   8.922  1.00  0.00     0.000 C 
BRANCH   2   3
ATOM      3  C   UNL     1       0.336   2.982  10.129  1.00  0.00     0.000 C 
BRANCH   3   4
ATOM      4  C   UNL     1       0.902   1.879  11.045  1.00  0.00     0.000 C 
BRANCH   4   5
ATOM      5  C   UNL     1       2.437   1.861  11.173  1.00  0.00     0.000 C 
BRANCH   5   6
ATOM      6  C   UNL     1       3.127   2.773  10.142  1.00  0.00     0.000 C 
BRANCH   6   7
ATOM      7  C   UNL     1       3.944   1.987   9.100  1.00  0.00     0.000 C 
BRANCH   7   8
ATOM      8  C   UNL     1       3.871   2.559   7.665  1.00  0.00     0.000 C 
BRANCH   8   9
ATOM      9  C   UNL     1       3.459   4.042   7.598  1.00  0.00     0.000 C 
BRANCH   9  10
ATOM     10  C   UNL     1       2.125   4.316   6.884  1.00  0.00     0.006 C 
BRANCH  10  11
ATOM     11  C   UNL     1       1.411   5.570   7.418  1.00  0.00     0.053 C 
BRANCH  11  12
ATOM     12  C   UNL     1       0.002   5.660   6.914  1.00  0.00     0.041 C 
ATOM     13  O   UNL     1      -0.232   5.760   5.679  1.00  0.00    -0.550 OA
ATOM     14  O   UNL     1      -1.055   5.689   7.818  1.00  0.00    -0.550 OA
ENDBRANCH  11  12
ENDBRANCH  10  11
ENDBRANCH   9  10
ENDBRANCH   8   9
ENDBRANCH   7   8
ENDBRANCH   6   7
ENDBRANCH   5   6
ENDBRANCH   4   5
ENDBRANCH   3   4
ENDBRANCH   2   3
ENDBRANCH   1   2
BRANCH   1  15
ATOM     15  C   UNL     1      -0.485   0.176   7.715  1.00  0.00     0.000 C 
BRANCH  15  16
ATOM     16  C   UNL     1       0.264  -1.117   8.102  1.00  0.00     0.000 C 
BRANCH  16  17
ATOM     17  C   UNL     1       1.613  -0.898   8.811  1.00  0.00     0.000 C 
BRANCH  17  18
ATOM     18  C   UNL     1       2.090  -2.139   9.576  1.00  0.00    -0.000 C 
BRANCH  18  19
ATOM     19  C   UNL     1       1.596  -2.114  11.030  1.00  0.00    -0.000 C 
BRANCH  19  20
ATOM     20  C   UNL     1       0.626  -3.266  11.342  1.00  0.00    -0.000 C 
BRANCH  20  21
ATOM     21  C   UNL     1      -0.667  -2.780  12.021  1.00  0.00    -0.000 C 
BRANCH  21  22
ATOM     22  C   UNL     1      -1.606  -2.066  11.035  1.00  0.00    -0.000 C 
BRANCH  22  23
ATOM     23  C   UNL     1      -1.799  -0.564  11.350  1.00  0.00    -0.000 C 
BRANCH  23  24
ATOM     24  C   UNL     1      -2.865   0.109  10.468  1.00  0.00    -0.000 C 
BRANCH  24  25
ATOM     25  C   UNL     1      -3.552  -0.847   9.476  1.00  0.00    -0.003 C 
ATOM     26  C   UNL     1      -4.237  -0.111   8.323  1.00  0.00     0.004 C 
ENDBRANCH  24  25
ENDBRANCH  23  24
ENDBRANCH  22  23
ENDBRANCH  21  22
ENDBRANCH  20  21
ENDBRANCH  19  20
ENDBRANCH  18  19
ENDBRANCH  17  18
ENDBRANCH  16  17
ENDBRANCH  15  16
ENDBRANCH   1  15
TORSDOF 22
ENDMDL
