MODEL 1
REMARK VINA RESULT:     9.520      0.000      0.000
REMARK INTER + INTRA:          17.956
REMARK INTER:                  18.425
REMARK INTRA:                  -0.469
REMARK UNBOUND:                -0.469
REMARK SMILES CCCCCCCCCCCCCCCCCC(=O)[O-]
REMARK SMILES IDX 10 1 11 2 12 3 13 4 14 5 15 6 16 7 17 8 18 9 19 10 20 11
REMARK SMILES IDX 9 12 8 13 7 14 6 15 5 16 4 17 3 18 2 19 1 20
REMARK H PARENT
REMARK Flexibility Score: inf
ROOT
ATOM      1  C   UNL     1      -5.441  15.746 -11.241  1.00  0.00     0.000 C 
ENDROOT
BRANCH   1   2
ATOM      2  C   UNL     1      -4.045  15.532 -10.629  1.00  0.00     0.000 C 
BRANCH   2   3
ATOM      3  C   UNL     1      -3.235  16.820 -10.370  1.00  0.00     0.000 C 
BRANCH   3   4
ATOM      4  C   UNL     1      -3.715  18.058 -11.147  1.00  0.00     0.000 C 
BRANCH   4   5
ATOM      5  C   UNL     1      -2.995  19.348 -10.717  1.00  0.00     0.000 C 
BRANCH   5   6
ATOM      6  C   UNL     1      -3.899  20.587 -10.806  1.00  0.00     0.000 C 
BRANCH   6   7
ATOM      7  C   UNL     1      -5.393  20.224 -10.886  1.00  0.00     0.006 C 
BRANCH   7   8
ATOM      8  C   UNL     1      -6.194  21.246 -11.704  1.00  0.00     0.053 C 
BRANCH   8   9
ATOM      9  C   UNL     1      -6.743  20.646 -12.962  1.00  0.00     0.041 C 
ATOM     10  O   UNL     1      -7.101  19.440 -12.984  1.00  0.00    -0.550 OA
ATOM     11  O   UNL     1      -6.831  21.412 -14.117  1.00  0.00    -0.550 OA
ENDBRANCH   8   9
ENDBRANCH   7   8
ENDBRANCH   6   7
ENDBRANCH   5   6
ENDBRANCH   4   5
ENDBRANCH   3   4
ENDBRANCH   2   3
ENDBRANCH   1   2
BRANCH   1  12
ATOM     12  C   UNL     1      -6.295  16.750 -10.448  1.00  0.00     0.000 C 
BRANCH  12  13
ATOM     13  C   UNL     1      -7.734  16.256 -10.229  1.00  0.00    -0.000 C 
BRANCH  13  14
ATOM     14  C   UNL     1      -8.076  16.067  -8.743  1.00  0.00    -0.000 C 
BRANCH  14  15
ATOM     15  C   UNL     1      -9.594  15.973  -8.537  1.00  0.00    -0.000 C 
BRANCH  15  16
ATOM     16  C   UNL     1     -10.076  17.008  -7.510  1.00  0.00    -0.000 C 
BRANCH  16  17
ATOM     17  C   UNL     1     -11.585  16.913  -7.233  1.00  0.00    -0.000 C 
BRANCH  17  18
ATOM     18  C   UNL     1     -11.895  16.298  -5.857  1.00  0.00    -0.000 C 
BRANCH  18  19
ATOM     19  C   UNL     1     -13.143  15.401  -5.882  1.00  0.00    -0.003 C 
ATOM     20  C   UNL     1     -12.976  14.129  -5.050  1.00  0.00     0.004 C 
ENDBRANCH  18  19
ENDBRANCH  17  18
ENDBRANCH  16  17
ENDBRANCH  15  16
ENDBRANCH  14  15
ENDBRANCH  13  14
ENDBRANCH  12  13
ENDBRANCH   1  12
TORSDOF 16
ENDMDL
MODEL 2
REMARK VINA RESULT:    10.179      5.045      7.063
REMARK INTER + INTRA:          19.230
REMARK INTER:                  19.299
REMARK INTRA:                  -0.068
REMARK UNBOUND:                -0.469
REMARK SMILES CCCCCCCCCCCCCCCCCC(=O)[O-]
REMARK SMILES IDX 10 1 11 2 12 3 13 4 14 5 15 6 16 7 17 8 18 9 19 10 20 11
REMARK SMILES IDX 9 12 8 13 7 14 6 15 5 16 4 17 3 18 2 19 1 20
REMARK H PARENT
REMARK Flexibility Score: inf
ROOT
ATOM      1  C   UNL     1      -6.652  20.067 -12.554  1.00  0.00     0.000 C 
ENDROOT
BRANCH   1   2
ATOM      2  C   UNL     1      -6.211  21.537 -12.675  1.00  0.00     0.000 C 
BRANCH   2   3
ATOM      3  C   UNL     1      -5.654  22.167 -11.381  1.00  0.00     0.000 C 
BRANCH   3   4
ATOM      4  C   UNL     1      -4.300  22.881 -11.536  1.00  0.00     0.000 C 
BRANCH   4   5
ATOM      5  C   UNL     1      -4.449  24.367 -11.903  1.00  0.00     0.000 C 
BRANCH   5   6
ATOM      6  C   UNL     1      -3.285  25.225 -11.383  1.00  0.00     0.000 C 
BRANCH   6   7
ATOM      7  C   UNL     1      -3.757  26.367 -10.466  1.00  0.00     0.006 C 
BRANCH   7   8
ATOM      8  C   UNL     1      -4.586  27.413 -11.223  1.00  0.00     0.053 C 
BRANCH   8   9
ATOM      9  C   UNL     1      -6.039  27.338 -10.865  1.00  0.00     0.041 C 
ATOM     10  O   UNL     1      -6.914  27.707 -11.691  1.00  0.00    -0.550 OA
ATOM     11  O   UNL     1      -6.424  26.891  -9.608  1.00  0.00    -0.550 OA
ENDBRANCH   8   9
ENDBRANCH   7   8
ENDBRANCH   6   7
ENDBRANCH   5   6
ENDBRANCH   4   5
ENDBRANCH   3   4
ENDBRANCH   2   3
ENDBRANCH   1   2
BRANCH   1  12
ATOM     12  C   UNL     1      -6.717  19.580 -11.096  1.00  0.00     0.000 C 
BRANCH  12  13
ATOM     13  C   UNL     1      -5.634  18.538 -10.774  1.00  0.00    -0.000 C 
BRANCH  13  14
ATOM     14  C   UNL     1      -4.232  19.155 -10.658  1.00  0.00    -0.000 C 
BRANCH  14  15
ATOM     15  C   UNL     1      -3.158  18.170 -11.138  1.00  0.00    -0.000 C 
BRANCH  15  16
ATOM     16  C   UNL     1      -3.273  16.828 -10.400  1.00  0.00    -0.000 C 
BRANCH  16  17
ATOM     17  C   UNL     1      -3.971  15.746 -11.240  1.00  0.00    -0.000 C 
BRANCH  17  18
ATOM     18  C   UNL     1      -4.459  14.561 -10.389  1.00  0.00    -0.000 C 
BRANCH  18  19
ATOM     19  C   UNL     1      -3.317  13.881  -9.618  1.00  0.00    -0.003 C 
ATOM     20  C   UNL     1      -1.934  14.258 -10.150  1.00  0.00     0.004 C 
ENDBRANCH  18  19
ENDBRANCH  17  18
ENDBRANCH  16  17
ENDBRANCH  15  16
ENDBRANCH  14  15
ENDBRANCH  13  14
ENDBRANCH  12  13
ENDBRANCH   1  12
TORSDOF 16
ENDMDL
MODEL 3
REMARK VINA RESULT:    10.247      5.113      6.990
REMARK INTER + INTRA:          19.362
REMARK INTER:                  19.152
REMARK INTRA:                   0.210
REMARK UNBOUND:                -0.469
REMARK SMILES CCCCCCCCCCCCCCCCCC(=O)[O-]
REMARK SMILES IDX 10 1 11 2 12 3 13 4 14 5 15 6 16 7 17 8 18 9 19 10 20 11
REMARK SMILES IDX 9 12 8 13 7 14 6 15 5 16 4 17 3 18 2 19 1 20
REMARK H PARENT
REMARK Flexibility Score: inf
ROOT
ATOM      1  C   UNL     1      -6.073  21.148 -11.007  1.00  0.00     0.000 C 
ENDROOT
BRANCH   1   2
ATOM      2  C   UNL     1      -6.604  19.929 -11.783  1.00  0.00     0.000 C 
BRANCH   2   3
ATOM      3  C   UNL     1      -6.963  20.193 -13.260  1.00  0.00     0.000 C 
BRANCH   3   4
ATOM      4  C   UNL     1      -6.820  21.657 -13.712  1.00  0.00     0.000 C 
BRANCH   4   5
ATOM      5  C   UNL     1      -6.362  21.786 -15.175  1.00  0.00     0.000 C 
BRANCH   5   6
ATOM      6  C   UNL     1      -6.684  20.536 -16.008  1.00  0.00     0.000 C 
BRANCH   6   7
ATOM      7  C   UNL     1      -5.589  20.218 -17.042  1.00  0.00     0.006 C 
BRANCH   7   8
ATOM      8  C   UNL     1      -6.134  19.425 -18.237  1.00  0.00     0.053 C 
BRANCH   8   9
ATOM      9  C   UNL     1      -5.830  17.962 -18.123  1.00  0.00     0.041 C 
ATOM     10  O   UNL     1      -6.754  17.114 -18.219  1.00  0.00    -0.550 OA
ATOM     11  O   UNL     1      -4.530  17.539 -17.878  1.00  0.00    -0.550 OA
ENDBRANCH   8   9
ENDBRANCH   7   8
ENDBRANCH   6   7
ENDBRANCH   5   6
ENDBRANCH   4   5
ENDBRANCH   3   4
ENDBRANCH   2   3
ENDBRANCH   1   2
BRANCH   1  12
ATOM     12  C   UNL     1      -4.603  21.468 -11.328  1.00  0.00     0.000 C 
BRANCH  12  13
ATOM     13  C   UNL     1      -3.635  20.417 -10.761  1.00  0.00    -0.000 C 
BRANCH  13  14
ATOM     14  C   UNL     1      -4.292  19.039 -10.584  1.00  0.00    -0.000 C 
BRANCH  14  15
ATOM     15  C   UNL     1      -3.354  17.919 -11.053  1.00  0.00    -0.000 C 
BRANCH  15  16
ATOM     16  C   UNL     1      -3.714  16.584 -10.385  1.00  0.00    -0.000 C 
BRANCH  16  17
ATOM     17  C   UNL     1      -4.332  15.576 -11.367  1.00  0.00    -0.000 C 
BRANCH  17  18
ATOM     18  C   UNL     1      -4.426  14.158 -10.777  1.00  0.00    -0.000 C 
BRANCH  18  19
ATOM     19  C   UNL     1      -3.404  13.918  -9.655  1.00  0.00    -0.003 C 
ATOM     20  C   UNL     1      -1.962  13.890 -10.162  1.00  0.00     0.004 C 
ENDBRANCH  18  19
ENDBRANCH  17  18
ENDBRANCH  16  17
ENDBRANCH  15  16
ENDBRANCH  14  15
ENDBRANCH  13  14
ENDBRANCH  12  13
ENDBRANCH   1  12
TORSDOF 16
ENDMDL
MODEL 4
REMARK VINA RESULT:    10.509      5.372      8.504
REMARK INTER + INTRA:          19.869
REMARK INTER:                  20.458
REMARK INTRA:                  -0.590
REMARK UNBOUND:                -0.469
REMARK SMILES CCCCCCCCCCCCCCCCCC(=O)[O-]
REMARK SMILES IDX 10 1 11 2 12 3 13 4 14 5 15 6 16 7 17 8 18 9 19 10 20 11
REMARK SMILES IDX 9 12 8 13 7 14 6 15 5 16 4 17 3 18 2 19 1 20
REMARK H PARENT
REMARK Flexibility Score: inf
ROOT
ATOM      1  C   UNL     1      -6.696  20.331 -11.785  1.00  0.00     0.000 C 
ENDROOT
BRANCH   1   2
ATOM      2  C   UNL     1      -5.731  21.446 -11.342  1.00  0.00     0.000 C 
BRANCH   2   3
ATOM      3  C   UNL     1      -4.277  20.996 -11.086  1.00  0.00     0.000 C 
BRANCH   3   4
ATOM      4  C   UNL     1      -4.132  19.628 -10.396  1.00  0.00     0.000 C 
BRANCH   4   5
ATOM      5  C   UNL     1      -2.849  18.887 -10.809  1.00  0.00     0.000 C 
BRANCH   5   6
ATOM      6  C   UNL     1      -3.019  17.360 -10.797  1.00  0.00     0.000 C 
BRANCH   6   7
ATOM      7  C   UNL     1      -4.497  16.930 -10.797  1.00  0.00     0.006 C 
BRANCH   7   8
ATOM      8  C   UNL     1      -4.660  15.419 -11.011  1.00  0.00     0.053 C 
BRANCH   8   9
ATOM      9  C   UNL     1      -3.676  14.631 -10.203  1.00  0.00     0.041 C 
ATOM     10  O   UNL     1      -2.458  14.627 -10.517  1.00  0.00    -0.550 OA
ATOM     11  O   UNL     1      -4.110  13.875  -9.122  1.00  0.00    -0.550 OA
ENDBRANCH   8   9
ENDBRANCH   7   8
ENDBRANCH   6   7
ENDBRANCH   5   6
ENDBRANCH   4   5
ENDBRANCH   3   4
ENDBRANCH   2   3
ENDBRANCH   1   2
BRANCH   1  12
ATOM     12  C   UNL     1      -6.765  20.173 -13.313  1.00  0.00     0.000 C 
BRANCH  12  13
ATOM     13  C   UNL     1      -7.086  21.495 -14.029  1.00  0.00    -0.000 C 
BRANCH  13  14
ATOM     14  C   UNL     1      -6.648  21.494 -15.502  1.00  0.00    -0.000 C 
BRANCH  14  15
ATOM     15  C   UNL     1      -6.028  20.145 -15.889  1.00  0.00    -0.000 C 
BRANCH  15  16
ATOM     16  C   UNL     1      -5.457  20.191 -17.314  1.00  0.00    -0.000 C 
BRANCH  16  17
ATOM     17  C   UNL     1      -6.239  19.305 -18.297  1.00  0.00    -0.000 C 
BRANCH  17  18
ATOM     18  C   UNL     1      -5.913  17.810 -18.133  1.00  0.00    -0.000 C 
BRANCH  18  19
ATOM     19  C   UNL     1      -7.169  16.957 -17.895  1.00  0.00    -0.003 C 
ATOM     20  C   UNL     1      -7.509  16.057 -19.083  1.00  0.00     0.004 C 
ENDBRANCH  18  19
ENDBRANCH  17  18
ENDBRANCH  16  17
ENDBRANCH  15  16
ENDBRANCH  14  15
ENDBRANCH  13  14
ENDBRANCH  12  13
ENDBRANCH   1  12
TORSDOF 16
ENDMDL
MODEL 5
REMARK VINA RESULT:    10.562      3.560      8.117
REMARK INTER + INTRA:          19.973
REMARK INTER:                  19.902
REMARK INTRA:                   0.071
REMARK UNBOUND:                -0.469
REMARK SMILES CCCCCCCCCCCCCCCCCC(=O)[O-]
REMARK SMILES IDX 10 1 11 2 12 3 13 4 14 5 15 6 16 7 17 8 18 9 19 10 20 11
REMARK SMILES IDX 9 12 8 13 7 14 6 15 5 16 4 17 3 18 2 19 1 20
REMARK H PARENT
REMARK Flexibility Score: inf
ROOT
ATOM      1  C   UNL     1      -5.444  15.529 -11.389  1.00  0.00     0.000 C 
ENDROOT
BRANCH   1   2
ATOM      2  C   UNL     1      -6.140  16.759 -10.778  1.00  0.00     0.000 C 
BRANCH   2   3
ATOM      3  C   UNL     1      -7.551  16.503 -10.208  1.00  0.00     0.000 C 
BRANCH   3   4
ATOM      4  C   UNL     1      -7.704  16.778  -8.702  1.00  0.00     0.000 C 
BRANCH   4   5
ATOM      5  C   UNL     1      -8.962  16.126  -8.102  1.00  0.00     0.000 C 
BRANCH   5   6
ATOM      6  C   UNL     1     -10.028  17.156  -7.700  1.00  0.00     0.000 C 
BRANCH   6   7
ATOM      7  C   UNL     1     -11.406  16.515  -7.458  1.00  0.00     0.006 C 
BRANCH   7   8
ATOM      8  C   UNL     1     -11.607  16.108  -5.993  1.00  0.00     0.053 C 
BRANCH   8   9
ATOM      9  C   UNL     1     -12.955  15.497  -5.762  1.00  0.00     0.041 C 
ATOM     10  O   UNL     1     -13.990  16.068  -6.194  1.00  0.00    -0.550 OA
ATOM     11  O   UNL     1     -13.070  14.315  -5.043  1.00  0.00    -0.550 OA
ENDBRANCH   8   9
ENDBRANCH   7   8
ENDBRANCH   6   7
ENDBRANCH   5   6
ENDBRANCH   4   5
ENDBRANCH   3   4
ENDBRANCH   2   3
ENDBRANCH   1   2
BRANCH   1  12
ATOM     12  C   UNL     1      -4.171  15.123 -10.627  1.00  0.00     0.000 C 
BRANCH  12  13
ATOM     13  C   UNL     1      -3.273  16.326 -10.297  1.00  0.00    -0.000 C 
BRANCH  13  14
ATOM     14  C   UNL     1      -3.595  17.560 -11.154  1.00  0.00    -0.000 C 
BRANCH  14  15
ATOM     15  C   UNL     1      -3.195  18.852 -10.430  1.00  0.00    -0.000 C 
BRANCH  15  16
ATOM     16  C   UNL     1      -3.936  20.064 -11.015  1.00  0.00    -0.000 C 
BRANCH  16  17
ATOM     17  C   UNL     1      -5.464  19.919 -10.939  1.00  0.00    -0.000 C 
BRANCH  17  18
ATOM     18  C   UNL     1      -6.202  21.046 -11.682  1.00  0.00    -0.000 C 
BRANCH  18  19
ATOM     19  C   UNL     1      -6.688  20.614 -13.074  1.00  0.00    -0.003 C 
ATOM     20  C   UNL     1      -6.848  21.789 -14.039  1.00  0.00     0.004 C 
ENDBRANCH  18  19
ENDBRANCH  17  18
ENDBRANCH  16  17
ENDBRANCH  15  16
ENDBRANCH  14  15
ENDBRANCH  13  14
ENDBRANCH  12  13
ENDBRANCH   1  12
TORSDOF 16
ENDMDL
MODEL 6
REMARK VINA RESULT:    10.707      3.353      7.780
REMARK INTER + INTRA:          20.253
REMARK INTER:                  21.236
REMARK INTRA:                  -0.983
REMARK UNBOUND:                -0.469
REMARK SMILES CCCCCCCCCCCCCCCCCC(=O)[O-]
REMARK SMILES IDX 10 1 11 2 12 3 13 4 14 5 15 6 16 7 17 8 18 9 19 10 20 11
REMARK SMILES IDX 9 12 8 13 7 14 6 15 5 16 4 17 3 18 2 19 1 20
REMARK H PARENT
REMARK Flexibility Score: inf
ROOT
ATOM      1  C   UNL     1      -4.465  15.082 -10.361  1.00  0.00     0.000 C 
ENDROOT
BRANCH   1   2
ATOM      2  C   UNL     1      -5.637  15.622 -11.201  1.00  0.00     0.000 C 
BRANCH   2   3
ATOM      3  C   UNL     1      -6.530  16.663 -10.494  1.00  0.00     0.000 C 
BRANCH   3   4
ATOM      4  C   UNL     1      -7.146  16.195  -9.163  1.00  0.00     0.000 C 
BRANCH   4   5
ATOM      5  C   UNL     1      -8.682  16.120  -9.212  1.00  0.00     0.000 C 
BRANCH   5   6
ATOM      6  C   UNL     1      -9.323  16.224  -7.820  1.00  0.00     0.000 C 
BRANCH   6   7
ATOM      7  C   UNL     1     -10.565  17.133  -7.808  1.00  0.00     0.006 C 
BRANCH   7   8
ATOM      8  C   UNL     1     -11.862  16.340  -7.599  1.00  0.00     0.053 C 
BRANCH   8   9
ATOM      9  C   UNL     1     -12.131  16.083  -6.147  1.00  0.00     0.041 C 
ATOM     10  O   UNL     1     -11.492  16.712  -5.264  1.00  0.00    -0.550 OA
ATOM     11  O   UNL     1     -13.066  15.128  -5.772  1.00  0.00    -0.550 OA
ENDBRANCH   8   9
ENDBRANCH   7   8
ENDBRANCH   6   7
ENDBRANCH   5   6
ENDBRANCH   4   5
ENDBRANCH   3   4
ENDBRANCH   2   3
ENDBRANCH   1   2
BRANCH   1  12
ATOM     12  C   UNL     1      -3.370  16.134 -10.116  1.00  0.00     0.000 C 
BRANCH  12  13
ATOM     13  C   UNL     1      -3.236  17.126 -11.283  1.00  0.00    -0.000 C 
BRANCH  13  14
ATOM     14  C   UNL     1      -3.052  18.577 -10.810  1.00  0.00    -0.000 C 
BRANCH  14  15
ATOM     15  C   UNL     1      -4.396  19.316 -10.772  1.00  0.00    -0.000 C 
BRANCH  15  16
ATOM     16  C   UNL     1      -4.194  20.832 -10.912  1.00  0.00    -0.000 C 
BRANCH  16  17
ATOM     17  C   UNL     1      -5.452  21.554 -11.420  1.00  0.00    -0.000 C 
BRANCH  17  18
ATOM     18  C   UNL     1      -6.606  20.584 -11.730  1.00  0.00    -0.000 C 
BRANCH  18  19
ATOM     19  C   UNL     1      -6.762  20.319 -13.236  1.00  0.00    -0.003 C 
ATOM     20  C   UNL     1      -6.729  21.599 -14.071  1.00  0.00     0.004 C 
ENDBRANCH  18  19
ENDBRANCH  17  18
ENDBRANCH  16  17
ENDBRANCH  15  16
ENDBRANCH  14  15
ENDBRANCH  13  14
ENDBRANCH  12  13
ENDBRANCH   1  12
TORSDOF 16
ENDMDL
MODEL 7
REMARK VINA RESULT:    10.794      5.277      8.862
REMARK INTER + INTRA:          20.422
REMARK INTER:                  20.717
REMARK INTRA:                  -0.296
REMARK UNBOUND:                -0.469
REMARK SMILES CCCCCCCCCCCCCCCCCC(=O)[O-]
REMARK SMILES IDX 10 1 11 2 12 3 13 4 14 5 15 6 16 7 17 8 18 9 19 10 20 11
REMARK SMILES IDX 9 12 8 13 7 14 6 15 5 16 4 17 3 18 2 19 1 20
REMARK H PARENT
REMARK Flexibility Score: inf
ROOT
ATOM      1  C   UNL     1      -6.361  20.278 -12.157  1.00  0.00     0.000 C 
ENDROOT
BRANCH   1   2
ATOM      2  C   UNL     1      -6.194  19.188 -11.083  1.00  0.00     0.000 C 
BRANCH   2   3
ATOM      3  C   UNL     1      -5.055  19.431 -10.070  1.00  0.00     0.000 C 
BRANCH   3   4
ATOM      4  C   UNL     1      -3.637  19.399 -10.667  1.00  0.00     0.000 C 
BRANCH   4   5
ATOM      5  C   UNL     1      -3.394  18.172 -11.561  1.00  0.00     0.000 C 
BRANCH   5   6
ATOM      6  C   UNL     1      -3.441  16.851 -10.778  1.00  0.00     0.000 C 
BRANCH   6   7
ATOM      7  C   UNL     1      -4.690  16.014 -11.107  1.00  0.00     0.006 C 
BRANCH   7   8
ATOM      8  C   UNL     1      -4.438  14.509 -10.944  1.00  0.00     0.053 C 
BRANCH   8   9
ATOM      9  C   UNL     1      -3.280  14.232 -10.034  1.00  0.00     0.041 C 
ATOM     10  O   UNL     1      -2.102  14.295 -10.473  1.00  0.00    -0.550 OA
ATOM     11  O   UNL     1      -3.504  13.875  -8.711  1.00  0.00    -0.550 OA
ENDBRANCH   8   9
ENDBRANCH   7   8
ENDBRANCH   6   7
ENDBRANCH   5   6
ENDBRANCH   4   5
ENDBRANCH   3   4
ENDBRANCH   2   3
ENDBRANCH   1   2
BRANCH   1  12
ATOM     12  C   UNL     1      -6.319  21.702 -11.577  1.00  0.00     0.000 C 
BRANCH  12  13
ATOM     13  C   UNL     1      -4.899  22.289 -11.559  1.00  0.00    -0.000 C 
BRANCH  13  14
ATOM     14  C   UNL     1      -4.877  23.800 -11.837  1.00  0.00    -0.000 C 
BRANCH  14  15
ATOM     15  C   UNL     1      -3.531  24.413 -11.432  1.00  0.00    -0.000 C 
BRANCH  15  16
ATOM     16  C   UNL     1      -3.536  25.936 -11.638  1.00  0.00    -0.000 C 
BRANCH  16  17
ATOM     17  C   UNL     1      -4.014  26.702 -10.394  1.00  0.00    -0.000 C 
BRANCH  17  18
ATOM     18  C   UNL     1      -4.948  27.873 -10.744  1.00  0.00    -0.000 C 
BRANCH  18  19
ATOM     19  C   UNL     1      -6.251  27.407 -11.412  1.00  0.00    -0.003 C 
ATOM     20  C   UNL     1      -7.141  26.593 -10.472  1.00  0.00     0.004 C 
ENDBRANCH  18  19
ENDBRANCH  17  18
ENDBRANCH  16  17
ENDBRANCH  15  16
ENDBRANCH  14  15
ENDBRANCH  13  14
ENDBRANCH  12  13
ENDBRANCH   1  12
TORSDOF 16
ENDMDL
MODEL 8
REMARK VINA RESULT:    10.868      1.632      2.343
REMARK INTER + INTRA:          20.563
REMARK INTER:                  21.779
REMARK INTRA:                  -1.216
REMARK UNBOUND:                -0.469
REMARK SMILES CCCCCCCCCCCCCCCCCC(=O)[O-]
REMARK SMILES IDX 10 1 11 2 12 3 13 4 14 5 15 6 16 7 17 8 18 9 19 10 20 11
REMARK SMILES IDX 9 12 8 13 7 14 6 15 5 16 4 17 3 18 2 19 1 20
REMARK H PARENT
REMARK Flexibility Score: inf
ROOT
ATOM      1  C   UNL     1      -7.118  16.382 -12.102  1.00  0.00     0.000 C 
ENDROOT
BRANCH   1   2
ATOM      2  C   UNL     1      -6.164  16.059 -10.938  1.00  0.00     0.000 C 
BRANCH   2   3
ATOM      3  C   UNL     1      -4.944  15.190 -11.307  1.00  0.00     0.000 C 
BRANCH   3   4
ATOM      4  C   UNL     1      -3.593  15.710 -10.786  1.00  0.00     0.000 C 
BRANCH   4   5
ATOM      5  C   UNL     1      -3.686  17.132 -10.206  1.00  0.00     0.000 C 
BRANCH   5   6
ATOM      6  C   UNL     1      -3.395  18.218 -11.252  1.00  0.00     0.000 C 
BRANCH   6   7
ATOM      7  C   UNL     1      -4.025  19.574 -10.887  1.00  0.00     0.006 C 
BRANCH   7   8
ATOM      8  C   UNL     1      -5.554  19.553 -11.008  1.00  0.00     0.053 C 
BRANCH   8   9
ATOM      9  C   UNL     1      -6.067  20.709 -11.813  1.00  0.00     0.041 C 
ATOM     10  O   UNL     1      -5.824  21.889 -11.451  1.00  0.00    -0.550 OA
ATOM     11  O   UNL     1      -6.838  20.480 -12.945  1.00  0.00    -0.550 OA
ENDBRANCH   8   9
ENDBRANCH   7   8
ENDBRANCH   6   7
ENDBRANCH   5   6
ENDBRANCH   4   5
ENDBRANCH   3   4
ENDBRANCH   2   3
ENDBRANCH   1   2
BRANCH   1  12
ATOM     12  C   UNL     1      -8.062  15.216 -12.443  1.00  0.00     0.000 C 
BRANCH  12  13
ATOM     13  C   UNL     1      -9.477  15.418 -11.877  1.00  0.00    -0.000 C 
BRANCH  13  14
ATOM     14  C   UNL     1     -10.164  14.094 -11.510  1.00  0.00    -0.000 C 
BRANCH  14  15
ATOM     15  C   UNL     1     -10.609  14.094 -10.042  1.00  0.00    -0.000 C 
BRANCH  15  16
ATOM     16  C   UNL     1     -10.277  15.433  -9.367  1.00  0.00    -0.000 C 
BRANCH  16  17
ATOM     17  C   UNL     1     -11.452  15.995  -8.551  1.00  0.00    -0.000 C 
BRANCH  17  18
ATOM     18  C   UNL     1     -10.989  16.777  -7.309  1.00  0.00    -0.000 C 
BRANCH  18  19
ATOM     19  C   UNL     1     -11.551  16.193  -6.003  1.00  0.00    -0.003 C 
ATOM     20  C   UNL     1     -12.972  15.652  -6.158  1.00  0.00     0.004 C 
ENDBRANCH  18  19
ENDBRANCH  17  18
ENDBRANCH  16  17
ENDBRANCH  15  16
ENDBRANCH  14  15
ENDBRANCH  13  14
ENDBRANCH  12  13
ENDBRANCH   1  12
TORSDOF 16
ENDMDL
