MODEL 1
REMARK VINA RESULT:    -3.669      0.000      0.000
REMARK INTER + INTRA:         -12.879
REMARK INTER:                  -8.387
REMARK INTRA:                  -4.491
REMARK UNBOUND:                -4.491
REMARK SMILES CCCCCCCCCCCCCCCCCCCCCCCC(=O)[O-]
REMARK SMILES IDX 13 1 14 2 15 3 16 4 17 5 18 6 19 7 20 8 21 9 22 10 23 11
REMARK SMILES IDX 24 12 25 13 26 14 12 15 11 16 10 17 9 18 8 19 7 20 6 21 5 22
REMARK SMILES IDX 4 23 3 24 2 25 1 26
REMARK H PARENT
REMARK Flexibility Score: inf
ROOT
ATOM      1  C   UNL     1       1.772   5.976  -2.855  1.00  0.00     0.000 C 
ENDROOT
BRANCH   1   2
ATOM      2  C   UNL     1       0.785   6.975  -2.224  1.00  0.00     0.000 C 
BRANCH   2   3
ATOM      3  C   UNL     1       1.094   8.431  -2.611  1.00  0.00     0.000 C 
BRANCH   3   4
ATOM      4  C   UNL     1       0.283   9.445  -1.789  1.00  0.00     0.000 C 
BRANCH   4   5
ATOM      5  C   UNL     1      -0.828   8.745  -0.997  1.00  0.00     0.000 C 
BRANCH   5   6
ATOM      6  C   UNL     1      -0.725   9.072   0.501  1.00  0.00     0.000 C 
BRANCH   6   7
ATOM      7  C   UNL     1       0.620   8.649   1.117  1.00  0.00     0.000 C 
BRANCH   7   8
ATOM      8  C   UNL     1       0.520   7.600   2.239  1.00  0.00     0.000 C 
BRANCH   8   9
ATOM      9  C   UNL     1       0.389   6.165   1.706  1.00  0.00     0.000 C 
BRANCH   9  10
ATOM     10  C   UNL     1       0.856   5.144   2.756  1.00  0.00     0.006 C 
BRANCH  10  11
ATOM     11  C   UNL     1       0.785   5.705   4.182  1.00  0.00     0.053 C 
BRANCH  11  12
ATOM     12  C   UNL     1       2.074   5.507   4.920  1.00  0.00     0.041 C 
ATOM     13  O   UNL     1       2.711   4.427   4.804  1.00  0.00    -0.550 OA
ATOM     14  O   UNL     1       2.587   6.529   5.708  1.00  0.00    -0.550 OA
ENDBRANCH  11  12
ENDBRANCH  10  11
ENDBRANCH   9  10
ENDBRANCH   8   9
ENDBRANCH   7   8
ENDBRANCH   6   7
ENDBRANCH   5   6
ENDBRANCH   4   5
ENDBRANCH   3   4
ENDBRANCH   2   3
ENDBRANCH   1   2
BRANCH   1  15
ATOM     15  C   UNL     1       2.664   6.621  -3.927  1.00  0.00     0.000 C 
BRANCH  15  16
ATOM     16  C   UNL     1       4.154   6.302  -3.735  1.00  0.00     0.000 C 
BRANCH  16  17
ATOM     17  C   UNL     1       4.548   6.394  -2.255  1.00  0.00     0.000 C 
BRANCH  17  18
ATOM     18  C   UNL     1       4.752   7.854  -1.828  1.00  0.00    -0.000 C 
BRANCH  18  19
ATOM     19  C   UNL     1       4.223   8.142  -0.412  1.00  0.00    -0.000 C 
BRANCH  19  20
ATOM     20  C   UNL     1       3.583   6.914   0.271  1.00  0.00    -0.000 C 
BRANCH  20  21
ATOM     21  C   UNL     1       4.113   6.700   1.698  1.00  0.00    -0.000 C 
BRANCH  21  22
ATOM     22  C   UNL     1       4.898   5.386   1.854  1.00  0.00    -0.000 C 
BRANCH  22  23
ATOM     23  C   UNL     1       6.428   5.579   1.887  1.00  0.00    -0.000 C 
BRANCH  23  24
ATOM     24  C   UNL     1       7.083   5.267   0.529  1.00  0.00    -0.000 C 
BRANCH  24  25
ATOM     25  C   UNL     1       7.740   6.502  -0.107  1.00  0.00    -0.003 C 
ATOM     26  C   UNL     1       7.725   7.721   0.815  1.00  0.00     0.004 C 
ENDBRANCH  24  25
ENDBRANCH  23  24
ENDBRANCH  22  23
ENDBRANCH  21  22
ENDBRANCH  20  21
ENDBRANCH  19  20
ENDBRANCH  18  19
ENDBRANCH  17  18
ENDBRANCH  16  17
ENDBRANCH  15  16
ENDBRANCH   1  15
TORSDOF 22
ENDMDL
MODEL 2
REMARK VINA RESULT:    -3.651      1.451      2.051
REMARK INTER + INTRA:         -12.838
REMARK INTER:                  -8.285
REMARK INTRA:                  -4.552
REMARK UNBOUND:                -4.491
REMARK SMILES CCCCCCCCCCCCCCCCCCCCCCCC(=O)[O-]
REMARK SMILES IDX 13 1 14 2 15 3 16 4 17 5 18 6 19 7 20 8 21 9 22 10 23 11
REMARK SMILES IDX 24 12 25 13 26 14 12 15 11 16 10 17 9 18 8 19 7 20 6 21 5 22
REMARK SMILES IDX 4 23 3 24 2 25 1 26
REMARK H PARENT
REMARK Flexibility Score: inf
ROOT
ATOM      1  C   UNL     1       3.585   6.303  -2.611  1.00  0.00     0.000 C 
ENDROOT
BRANCH   1   2
ATOM      2  C   UNL     1       2.321   6.429  -3.480  1.00  0.00     0.000 C 
BRANCH   2   3
ATOM      3  C   UNL     1       1.028   6.337  -2.655  1.00  0.00     0.000 C 
BRANCH   3   4
ATOM      4  C   UNL     1       1.121   7.099  -1.324  1.00  0.00     0.000 C 
BRANCH   4   5
ATOM      5  C   UNL     1       0.538   8.511  -1.459  1.00  0.00     0.000 C 
BRANCH   5   6
ATOM      6  C   UNL     1      -0.501   8.785  -0.361  1.00  0.00     0.000 C 
BRANCH   6   7
ATOM      7  C   UNL     1       0.132   8.994   1.026  1.00  0.00     0.000 C 
BRANCH   7   8
ATOM      8  C   UNL     1      -0.506   8.175   2.162  1.00  0.00     0.000 C 
BRANCH   8   9
ATOM      9  C   UNL     1       0.476   7.191   2.816  1.00  0.00     0.000 C 
BRANCH   9  10
ATOM     10  C   UNL     1       0.435   5.825   2.114  1.00  0.00     0.006 C 
BRANCH  10  11
ATOM     11  C   UNL     1       0.991   4.701   2.998  1.00  0.00     0.053 C 
BRANCH  11  12
ATOM     12  C   UNL     1      -0.038   3.644   3.263  1.00  0.00     0.041 C 
ATOM     13  O   UNL     1      -0.811   3.269   2.344  1.00  0.00    -0.550 OA
ATOM     14  O   UNL     1      -0.117   3.052   4.516  1.00  0.00    -0.550 OA
ENDBRANCH  11  12
ENDBRANCH  10  11
ENDBRANCH   9  10
ENDBRANCH   8   9
ENDBRANCH   7   8
ENDBRANCH   6   7
ENDBRANCH   5   6
ENDBRANCH   4   5
ENDBRANCH   3   4
ENDBRANCH   2   3
ENDBRANCH   1   2
BRANCH   1  15
ATOM     15  C   UNL     1       4.862   6.719  -3.358  1.00  0.00     0.000 C 
BRANCH  15  16
ATOM     16  C   UNL     1       5.584   7.902  -2.696  1.00  0.00     0.000 C 
BRANCH  16  17
ATOM     17  C   UNL     1       4.583   8.847  -2.021  1.00  0.00     0.000 C 
BRANCH  17  18
ATOM     18  C   UNL     1       4.967   9.103  -0.557  1.00  0.00    -0.000 C 
BRANCH  18  19
ATOM     19  C   UNL     1       3.747   9.175   0.377  1.00  0.00    -0.000 C 
BRANCH  19  20
ATOM     20  C   UNL     1       3.785   8.144   1.525  1.00  0.00    -0.000 C 
BRANCH  20  21
ATOM     21  C   UNL     1       3.808   6.696   1.006  1.00  0.00    -0.000 C 
BRANCH  21  22
ATOM     22  C   UNL     1       4.438   5.712   2.007  1.00  0.00    -0.000 C 
BRANCH  22  23
ATOM     23  C   UNL     1       5.672   4.969   1.453  1.00  0.00    -0.000 C 
BRANCH  23  24
ATOM     24  C   UNL     1       6.097   5.499   0.072  1.00  0.00    -0.000 C 
BRANCH  24  25
ATOM     25  C   UNL     1       7.513   6.094   0.078  1.00  0.00    -0.003 C 
ATOM     26  C   UNL     1       7.665   7.250   1.067  1.00  0.00     0.004 C 
ENDBRANCH  24  25
ENDBRANCH  23  24
ENDBRANCH  22  23
ENDBRANCH  21  22
ENDBRANCH  20  21
ENDBRANCH  19  20
ENDBRANCH  18  19
ENDBRANCH  17  18
ENDBRANCH  16  17
ENDBRANCH  15  16
ENDBRANCH   1  15
TORSDOF 22
ENDMDL
MODEL 3
REMARK VINA RESULT:    -3.614      1.485      3.234
REMARK INTER + INTRA:         -12.753
REMARK INTER:                  -9.340
REMARK INTRA:                  -3.413
REMARK UNBOUND:                -4.491
REMARK SMILES CCCCCCCCCCCCCCCCCCCCCCCC(=O)[O-]
REMARK SMILES IDX 13 1 14 2 15 3 16 4 17 5 18 6 19 7 20 8 21 9 22 10 23 11
REMARK SMILES IDX 24 12 25 13 26 14 12 15 11 16 10 17 9 18 8 19 7 20 6 21 5 22
REMARK SMILES IDX 4 23 3 24 2 25 1 26
REMARK H PARENT
REMARK Flexibility Score: inf
ROOT
ATOM      1  C   UNL     1       0.179   9.471  -2.118  1.00  0.00     0.000 C 
ENDROOT
BRANCH   1   2
ATOM      2  C   UNL     1      -1.053   8.797  -1.490  1.00  0.00     0.000 C 
BRANCH   2   3
ATOM      3  C   UNL     1      -1.254   9.191  -0.018  1.00  0.00     0.000 C 
BRANCH   3   4
ATOM      4  C   UNL     1       0.007   9.812   0.603  1.00  0.00     0.000 C 
BRANCH   4   5
ATOM      5  C   UNL     1       0.478   9.000   1.815  1.00  0.00     0.000 C 
BRANCH   5   6
ATOM      6  C   UNL     1      -0.610   8.018   2.277  1.00  0.00     0.000 C 
BRANCH   6   7
ATOM      7  C   UNL     1      -0.041   6.797   3.020  1.00  0.00     0.000 C 
BRANCH   7   8
ATOM      8  C   UNL     1       0.266   5.579   2.130  1.00  0.00     0.000 C 
BRANCH   8   9
ATOM      9  C   UNL     1      -0.195   4.252   2.751  1.00  0.00     0.000 C 
BRANCH   9  10
ATOM     10  C   UNL     1       0.705   3.855   3.931  1.00  0.00     0.006 C 
BRANCH  10  11
ATOM     11  C   UNL     1      -0.107   3.470   5.175  1.00  0.00     0.053 C 
BRANCH  11  12
ATOM     12  C   UNL     1       0.215   4.354   6.342  1.00  0.00     0.041 C 
ATOM     13  O   UNL     1       1.376   4.817   6.484  1.00  0.00    -0.550 OA
ATOM     14  O   UNL     1      -0.779   4.693   7.250  1.00  0.00    -0.550 OA
ENDBRANCH  11  12
ENDBRANCH  10  11
ENDBRANCH   9  10
ENDBRANCH   8   9
ENDBRANCH   7   8
ENDBRANCH   6   7
ENDBRANCH   5   6
ENDBRANCH   4   5
ENDBRANCH   3   4
ENDBRANCH   2   3
ENDBRANCH   1   2
BRANCH   1  15
ATOM     15  C   UNL     1       1.244   8.458  -2.566  1.00  0.00     0.000 C 
BRANCH  15  16
ATOM     16  C   UNL     1       1.025   7.058  -1.973  1.00  0.00     0.000 C 
BRANCH  16  17
ATOM     17  C   UNL     1       1.614   5.977  -2.888  1.00  0.00     0.000 C 
BRANCH  17  18
ATOM     18  C   UNL     1       2.560   6.591  -3.929  1.00  0.00    -0.000 C 
BRANCH  18  19
ATOM     19  C   UNL     1       4.011   6.099  -3.782  1.00  0.00    -0.000 C 
BRANCH  19  20
ATOM     20  C   UNL     1       4.766   6.744  -2.601  1.00  0.00    -0.000 C 
BRANCH  20  21
ATOM     21  C   UNL     1       5.152   5.716  -1.525  1.00  0.00    -0.000 C 
BRANCH  21  22
ATOM     22  C   UNL     1       5.155   6.308  -0.105  1.00  0.00    -0.000 C 
BRANCH  22  23
ATOM     23  C   UNL     1       4.029   7.334   0.140  1.00  0.00    -0.000 C 
BRANCH  23  24
ATOM     24  C   UNL     1       3.442   7.225   1.559  1.00  0.00    -0.000 C 
BRANCH  24  25
ATOM     25  C   UNL     1       4.113   6.122   2.392  1.00  0.00    -0.003 C 
ATOM     26  C   UNL     1       3.607   6.080   3.834  1.00  0.00     0.004 C 
ENDBRANCH  24  25
ENDBRANCH  23  24
ENDBRANCH  22  23
ENDBRANCH  21  22
ENDBRANCH  20  21
ENDBRANCH  19  20
ENDBRANCH  18  19
ENDBRANCH  17  18
ENDBRANCH  16  17
ENDBRANCH  15  16
ENDBRANCH   1  15
TORSDOF 22
ENDMDL
MODEL 4
REMARK VINA RESULT:    -3.613      1.550      4.911
REMARK INTER + INTRA:         -12.750
REMARK INTER:                  -8.149
REMARK INTRA:                  -4.602
REMARK UNBOUND:                -4.491
REMARK SMILES CCCCCCCCCCCCCCCCCCCCCCCC(=O)[O-]
REMARK SMILES IDX 13 1 14 2 15 3 16 4 17 5 18 6 19 7 20 8 21 9 22 10 23 11
REMARK SMILES IDX 24 12 25 13 26 14 12 15 11 16 10 17 9 18 8 19 7 20 6 21 5 22
REMARK SMILES IDX 4 23 3 24 2 25 1 26
REMARK H PARENT
REMARK Flexibility Score: inf
ROOT
ATOM      1  C   UNL     1       2.142   6.364  -3.649  1.00  0.00     0.000 C 
ENDROOT
BRANCH   1   2
ATOM      2  C   UNL     1       3.393   6.230  -2.763  1.00  0.00     0.000 C 
BRANCH   2   3
ATOM      3  C   UNL     1       4.698   6.407  -3.555  1.00  0.00     0.000 C 
BRANCH   3   4
ATOM      4  C   UNL     1       5.637   7.445  -2.922  1.00  0.00     0.000 C 
BRANCH   4   5
ATOM      5  C   UNL     1       5.172   7.815  -1.509  1.00  0.00     0.000 C 
BRANCH   5   6
ATOM      6  C   UNL     1       6.258   7.492  -0.470  1.00  0.00     0.000 C 
BRANCH   6   7
ATOM      7  C   UNL     1       6.405   5.983  -0.205  1.00  0.00     0.000 C 
BRANCH   7   8
ATOM      8  C   UNL     1       5.493   5.425   0.902  1.00  0.00     0.000 C 
BRANCH   8   9
ATOM      9  C   UNL     1       5.813   6.003   2.289  1.00  0.00     0.000 C 
BRANCH   9  10
ATOM     10  C   UNL     1       4.789   5.529   3.332  1.00  0.00     0.006 C 
BRANCH  10  11
ATOM     11  C   UNL     1       3.894   4.404   2.796  1.00  0.00     0.053 C 
BRANCH  11  12
ATOM     12  C   UNL     1       2.568   4.371   3.492  1.00  0.00     0.041 C 
ATOM     13  O   UNL     1       1.503   4.307   2.823  1.00  0.00    -0.550 OA
ATOM     14  O   UNL     1       2.512   4.377   4.879  1.00  0.00    -0.550 OA
ENDBRANCH  11  12
ENDBRANCH  10  11
ENDBRANCH   9  10
ENDBRANCH   8   9
ENDBRANCH   7   8
ENDBRANCH   6   7
ENDBRANCH   5   6
ENDBRANCH   4   5
ENDBRANCH   3   4
ENDBRANCH   2   3
ENDBRANCH   1   2
BRANCH   1  15
ATOM     15  C   UNL     1       1.738   7.827  -3.887  1.00  0.00     0.000 C 
BRANCH  15  16
ATOM     16  C   UNL     1       1.472   8.594  -2.583  1.00  0.00     0.000 C 
BRANCH  16  17
ATOM     17  C   UNL     1       0.122   8.191  -1.977  1.00  0.00     0.000 C 
BRANCH  17  18
ATOM     18  C   UNL     1       0.216   8.077  -0.449  1.00  0.00    -0.000 C 
BRANCH  18  19
ATOM     19  C   UNL     1       0.976   6.821   0.012  1.00  0.00    -0.000 C 
BRANCH  19  20
ATOM     20  C   UNL     1       2.350   7.127   0.643  1.00  0.00    -0.000 C 
BRANCH  20  21
ATOM     21  C   UNL     1       2.486   8.601   1.057  1.00  0.00    -0.000 C 
BRANCH  21  22
ATOM     22  C   UNL     1       3.407   8.799   2.273  1.00  0.00    -0.000 C 
BRANCH  22  23
ATOM     23  C   UNL     1       2.711   8.539   3.626  1.00  0.00    -0.000 C 
BRANCH  23  24
ATOM     24  C   UNL     1       1.192   8.778   3.554  1.00  0.00    -0.000 C 
BRANCH  24  25
ATOM     25  C   UNL     1       0.379   7.533   3.940  1.00  0.00    -0.003 C 
ATOM     26  C   UNL     1      -0.930   7.416   3.159  1.00  0.00     0.004 C 
ENDBRANCH  24  25
ENDBRANCH  23  24
ENDBRANCH  22  23
ENDBRANCH  21  22
ENDBRANCH  20  21
ENDBRANCH  19  20
ENDBRANCH  18  19
ENDBRANCH  17  18
ENDBRANCH  16  17
ENDBRANCH  15  16
ENDBRANCH   1  15
TORSDOF 22
ENDMDL
MODEL 5
REMARK VINA RESULT:    -3.598      1.343      4.375
REMARK INTER + INTRA:         -12.717
REMARK INTER:                  -8.267
REMARK INTRA:                  -4.451
REMARK UNBOUND:                -4.491
REMARK SMILES CCCCCCCCCCCCCCCCCCCCCCCC(=O)[O-]
REMARK SMILES IDX 13 1 14 2 15 3 16 4 17 5 18 6 19 7 20 8 21 9 22 10 23 11
REMARK SMILES IDX 24 12 25 13 26 14 12 15 11 16 10 17 9 18 8 19 7 20 6 21 5 22
REMARK SMILES IDX 4 23 3 24 2 25 1 26
REMARK H PARENT
REMARK Flexibility Score: inf
ROOT
ATOM      1  C   UNL     1       5.068   6.139  -0.375  1.00  0.00     0.000 C 
ENDROOT
BRANCH   1   2
ATOM      2  C   UNL     1       5.284   5.611   1.054  1.00  0.00     0.000 C 
BRANCH   2   3
ATOM      3  C   UNL     1       4.135   5.990   2.001  1.00  0.00     0.000 C 
BRANCH   3   4
ATOM      4  C   UNL     1       4.449   7.237   2.842  1.00  0.00     0.000 C 
BRANCH   4   5
ATOM      5  C   UNL     1       3.189   8.084   3.058  1.00  0.00     0.000 C 
BRANCH   5   6
ATOM      6  C   UNL     1       2.296   8.071   1.808  1.00  0.00     0.000 C 
BRANCH   6   7
ATOM      7  C   UNL     1       0.816   8.350   2.125  1.00  0.00     0.000 C 
BRANCH   7   8
ATOM      8  C   UNL     1      -0.004   7.115   2.540  1.00  0.00     0.000 C 
BRANCH   8   9
ATOM      9  C   UNL     1       0.518   5.812   1.917  1.00  0.00     0.000 C 
BRANCH   9  10
ATOM     10  C   UNL     1       0.402   4.644   2.908  1.00  0.00     0.006 C 
BRANCH  10  11
ATOM     11  C   UNL     1       0.107   5.121   4.335  1.00  0.00     0.053 C 
BRANCH  11  12
ATOM     12  C   UNL     1       1.097   4.576   5.318  1.00  0.00     0.041 C 
ATOM     13  O   UNL     1       0.733   3.742   6.188  1.00  0.00    -0.550 OA
ATOM     14  O   UNL     1       2.429   4.964   5.250  1.00  0.00    -0.550 OA
ENDBRANCH  11  12
ENDBRANCH  10  11
ENDBRANCH   9  10
ENDBRANCH   8   9
ENDBRANCH   7   8
ENDBRANCH   6   7
ENDBRANCH   5   6
ENDBRANCH   4   5
ENDBRANCH   3   4
ENDBRANCH   2   3
ENDBRANCH   1   2
BRANCH   1  15
ATOM     15  C   UNL     1       6.149   7.143  -0.806  1.00  0.00     0.000 C 
BRANCH  15  16
ATOM     16  C   UNL     1       5.742   8.603  -0.558  1.00  0.00     0.000 C 
BRANCH  16  17
ATOM     17  C   UNL     1       4.289   8.846  -0.981  1.00  0.00     0.000 C 
BRANCH  17  18
ATOM     18  C   UNL     1       4.221   9.648  -2.288  1.00  0.00    -0.000 C 
BRANCH  18  19
ATOM     19  C   UNL     1       2.779   9.945  -2.734  1.00  0.00    -0.000 C 
BRANCH  19  20
ATOM     20  C   UNL     1       1.729   9.709  -1.627  1.00  0.00    -0.000 C 
BRANCH  20  21
ATOM     21  C   UNL     1       0.518   8.910  -2.135  1.00  0.00    -0.000 C 
BRANCH  21  22
ATOM     22  C   UNL     1       0.383   7.534  -1.460  1.00  0.00    -0.000 C 
BRANCH  22  23
ATOM     23  C   UNL     1       1.578   6.595  -1.724  1.00  0.00    -0.000 C 
BRANCH  23  24
ATOM     24  C   UNL     1       1.463   5.875  -3.079  1.00  0.00    -0.000 C 
BRANCH  24  25
ATOM     25  C   UNL     1       2.458   6.412  -4.120  1.00  0.00    -0.003 C 
ATOM     26  C   UNL     1       3.910   6.324  -3.651  1.00  0.00     0.004 C 
ENDBRANCH  24  25
ENDBRANCH  23  24
ENDBRANCH  22  23
ENDBRANCH  21  22
ENDBRANCH  20  21
ENDBRANCH  19  20
ENDBRANCH  18  19
ENDBRANCH  17  18
ENDBRANCH  16  17
ENDBRANCH  15  16
ENDBRANCH   1  15
TORSDOF 22
ENDMDL
MODEL 6
REMARK VINA RESULT:    -3.571      1.707      2.825
REMARK INTER + INTRA:         -12.655
REMARK INTER:                  -8.749
REMARK INTRA:                  -3.906
REMARK UNBOUND:                -4.491
REMARK SMILES CCCCCCCCCCCCCCCCCCCCCCCC(=O)[O-]
REMARK SMILES IDX 13 1 14 2 15 3 16 4 17 5 18 6 19 7 20 8 21 9 22 10 23 11
REMARK SMILES IDX 24 12 25 13 26 14 12 15 11 16 10 17 9 18 8 19 7 20 6 21 5 22
REMARK SMILES IDX 4 23 3 24 2 25 1 26
REMARK H PARENT
REMARK Flexibility Score: inf
ROOT
ATOM      1  C   UNL     1       1.943   7.470  -3.999  1.00  0.00     0.000 C 
ENDROOT
BRANCH   1   2
ATOM      2  C   UNL     1       1.553   6.460  -2.905  1.00  0.00     0.000 C 
BRANCH   2   3
ATOM      3  C   UNL     1       0.576   7.054  -1.877  1.00  0.00     0.000 C 
BRANCH   3   4
ATOM      4  C   UNL     1       1.046   6.848  -0.429  1.00  0.00     0.000 C 
BRANCH   4   5
ATOM      5  C   UNL     1       0.684   8.057   0.442  1.00  0.00     0.000 C 
BRANCH   5   6
ATOM      6  C   UNL     1       1.385   7.981   1.808  1.00  0.00     0.000 C 
BRANCH   6   7
ATOM      7  C   UNL     1       0.398   7.895   2.985  1.00  0.00     0.000 C 
BRANCH   7   8
ATOM      8  C   UNL     1      -0.484   6.633   3.004  1.00  0.00     0.000 C 
BRANCH   8   9
ATOM      9  C   UNL     1       0.321   5.338   2.816  1.00  0.00     0.000 C 
BRANCH   9  10
ATOM     10  C   UNL     1      -0.458   4.126   3.349  1.00  0.00     0.006 C 
BRANCH  10  11
ATOM     11  C   UNL     1       0.309   3.382   4.451  1.00  0.00     0.053 C 
BRANCH  11  12
ATOM     12  C   UNL     1       0.293   4.139   5.744  1.00  0.00     0.041 C 
ATOM     13  O   UNL     1       1.364   4.596   6.223  1.00  0.00    -0.550 OA
ATOM     14  O   UNL     1      -0.909   4.367   6.400  1.00  0.00    -0.550 OA
ENDBRANCH  11  12
ENDBRANCH  10  11
ENDBRANCH   9  10
ENDBRANCH   8   9
ENDBRANCH   7   8
ENDBRANCH   6   7
ENDBRANCH   5   6
ENDBRANCH   4   5
ENDBRANCH   3   4
ENDBRANCH   2   3
ENDBRANCH   1   2
BRANCH   1  15
ATOM     15  C   UNL     1       1.600   8.918  -3.618  1.00  0.00     0.000 C 
BRANCH  15  16
ATOM     16  C   UNL     1       2.838   9.747  -3.242  1.00  0.00     0.000 C 
BRANCH  16  17
ATOM     17  C   UNL     1       2.965   9.881  -1.720  1.00  0.00     0.000 C 
BRANCH  17  18
ATOM     18  C   UNL     1       4.206   9.140  -1.202  1.00  0.00    -0.000 C 
BRANCH  18  19
ATOM     19  C   UNL     1       4.986   8.426  -2.320  1.00  0.00    -0.000 C 
BRANCH  19  20
ATOM     20  C   UNL     1       5.489   7.022  -1.924  1.00  0.00    -0.000 C 
BRANCH  20  21
ATOM     21  C   UNL     1       4.616   6.377  -0.834  1.00  0.00    -0.000 C 
BRANCH  21  22
ATOM     22  C   UNL     1       5.443   5.663   0.249  1.00  0.00    -0.000 C 
BRANCH  22  23
ATOM     23  C   UNL     1       4.954   5.940   1.686  1.00  0.00    -0.000 C 
BRANCH  23  24
ATOM     24  C   UNL     1       4.406   4.674   2.368  1.00  0.00    -0.000 C 
BRANCH  24  25
ATOM     25  C   UNL     1       3.965   4.928   3.818  1.00  0.00    -0.003 C 
ATOM     26  C   UNL     1       3.706   6.406   4.107  1.00  0.00     0.004 C 
ENDBRANCH  24  25
ENDBRANCH  23  24
ENDBRANCH  22  23
ENDBRANCH  21  22
ENDBRANCH  20  21
ENDBRANCH  19  20
ENDBRANCH  18  19
ENDBRANCH  17  18
ENDBRANCH  16  17
ENDBRANCH  15  16
ENDBRANCH   1  15
TORSDOF 22
ENDMDL
MODEL 7
REMARK VINA RESULT:    -3.546      1.658      3.036
REMARK INTER + INTRA:         -12.597
REMARK INTER:                  -8.349
REMARK INTRA:                  -4.248
REMARK UNBOUND:                -4.491
REMARK SMILES CCCCCCCCCCCCCCCCCCCCCCCC(=O)[O-]
REMARK SMILES IDX 13 1 14 2 15 3 16 4 17 5 18 6 19 7 20 8 21 9 22 10 23 11
REMARK SMILES IDX 24 12 25 13 26 14 12 15 11 16 10 17 9 18 8 19 7 20 6 21 5 22
REMARK SMILES IDX 4 23 3 24 2 25 1 26
REMARK H PARENT
REMARK Flexibility Score: inf
ROOT
ATOM      1  C   UNL     1       1.258   8.364  -2.932  1.00  0.00     0.000 C 
ENDROOT
BRANCH   1   2
ATOM      2  C   UNL     1       0.358   9.456  -2.327  1.00  0.00     0.000 C 
BRANCH   2   3
ATOM      3  C   UNL     1      -0.936   8.885  -1.725  1.00  0.00     0.000 C 
BRANCH   3   4
ATOM      4  C   UNL     1      -1.169   9.350  -0.279  1.00  0.00     0.000 C 
BRANCH   4   5
ATOM      5  C   UNL     1      -0.179   8.678   0.680  1.00  0.00     0.000 C 
BRANCH   5   6
ATOM      6  C   UNL     1      -0.583   8.914   2.144  1.00  0.00     0.000 C 
BRANCH   6   7
ATOM      7  C   UNL     1       0.624   8.974   3.097  1.00  0.00     0.000 C 
BRANCH   7   8
ATOM      8  C   UNL     1       0.739   7.790   4.075  1.00  0.00     0.000 C 
BRANCH   8   9
ATOM      9  C   UNL     1      -0.485   6.863   4.039  1.00  0.00     0.000 C 
BRANCH   9  10
ATOM     10  C   UNL     1      -0.061   5.390   4.143  1.00  0.00     0.006 C 
BRANCH  10  11
ATOM     11  C   UNL     1       0.992   5.014   3.093  1.00  0.00     0.053 C 
BRANCH  11  12
ATOM     12  C   UNL     1       2.215   4.419   3.723  1.00  0.00     0.041 C 
ATOM     13  O   UNL     1       3.009   3.726   3.034  1.00  0.00    -0.550 OA
ATOM     14  O   UNL     1       2.493   4.660   5.062  1.00  0.00    -0.550 OA
ENDBRANCH  11  12
ENDBRANCH  10  11
ENDBRANCH   9  10
ENDBRANCH   8   9
ENDBRANCH   7   8
ENDBRANCH   6   7
ENDBRANCH   5   6
ENDBRANCH   4   5
ENDBRANCH   3   4
ENDBRANCH   2   3
ENDBRANCH   1   2
BRANCH   1  15
ATOM     15  C   UNL     1       1.030   6.986  -2.291  1.00  0.00     0.000 C 
BRANCH  15  16
ATOM     16  C   UNL     1       2.065   5.941  -2.737  1.00  0.00     0.000 C 
BRANCH  16  17
ATOM     17  C   UNL     1       2.808   6.408  -3.994  1.00  0.00     0.000 C 
BRANCH  17  18
ATOM     18  C   UNL     1       4.329   6.341  -3.792  1.00  0.00    -0.000 C 
BRANCH  18  19
ATOM     19  C   UNL     1       4.729   6.167  -2.317  1.00  0.00    -0.000 C 
BRANCH  19  20
ATOM     20  C   UNL     1       5.468   7.387  -1.728  1.00  0.00    -0.000 C 
BRANCH  20  21
ATOM     21  C   UNL     1       4.948   8.715  -2.302  1.00  0.00    -0.000 C 
BRANCH  21  22
ATOM     22  C   UNL     1       4.570   9.731  -1.211  1.00  0.00    -0.000 C 
BRANCH  22  23
ATOM     23  C   UNL     1       3.499   9.214  -0.227  1.00  0.00    -0.000 C 
BRANCH  23  24
ATOM     24  C   UNL     1       4.037   9.099   1.210  1.00  0.00    -0.000 C 
BRANCH  24  25
ATOM     25  C   UNL     1       3.767   7.721   1.833  1.00  0.00    -0.003 C 
ATOM     26  C   UNL     1       3.013   6.783   0.890  1.00  0.00     0.004 C 
ENDBRANCH  24  25
ENDBRANCH  23  24
ENDBRANCH  22  23
ENDBRANCH  21  22
ENDBRANCH  20  21
ENDBRANCH  19  20
ENDBRANCH  18  19
ENDBRANCH  17  18
ENDBRANCH  16  17
ENDBRANCH  15  16
ENDBRANCH   1  15
TORSDOF 22
ENDMDL
MODEL 8
REMARK VINA RESULT:    -3.538      1.688      3.079
REMARK INTER + INTRA:         -12.579
REMARK INTER:                  -8.395
REMARK INTRA:                  -4.184
REMARK UNBOUND:                -4.491
REMARK SMILES CCCCCCCCCCCCCCCCCCCCCCCC(=O)[O-]
REMARK SMILES IDX 13 1 14 2 15 3 16 4 17 5 18 6 19 7 20 8 21 9 22 10 23 11
REMARK SMILES IDX 24 12 25 13 26 14 12 15 11 16 10 17 9 18 8 19 7 20 6 21 5 22
REMARK SMILES IDX 4 23 3 24 2 25 1 26
REMARK H PARENT
REMARK Flexibility Score: inf
ROOT
ATOM      1  C   UNL     1       0.629   8.797  -2.637  1.00  0.00     0.000 C 
ENDROOT
BRANCH   1   2
ATOM      2  C   UNL     1       1.357   9.836  -1.766  1.00  0.00     0.000 C 
BRANCH   2   3
ATOM      3  C   UNL     1       2.885   9.775  -1.929  1.00  0.00     0.000 C 
BRANCH   3   4
ATOM      4  C   UNL     1       3.617   9.645  -0.585  1.00  0.00     0.000 C 
BRANCH   4   5
ATOM      5  C   UNL     1       3.101   8.437   0.207  1.00  0.00     0.000 C 
BRANCH   5   6
ATOM      6  C   UNL     1       2.670   8.850   1.623  1.00  0.00     0.000 C 
BRANCH   6   7
ATOM      7  C   UNL     1       1.166   9.161   1.726  1.00  0.00     0.000 C 
BRANCH   7   8
ATOM      8  C   UNL     1       0.247   7.926   1.754  1.00  0.00     0.000 C 
BRANCH   8   9
ATOM      9  C   UNL     1       1.025   6.602   1.788  1.00  0.00     0.000 C 
BRANCH   9  10
ATOM     10  C   UNL     1       0.833   5.886   3.134  1.00  0.00     0.006 C 
BRANCH  10  11
ATOM     11  C   UNL     1      -0.560   5.255   3.262  1.00  0.00     0.053 C 
BRANCH  11  12
ATOM     12  C   UNL     1      -0.485   3.762   3.362  1.00  0.00     0.041 C 
ATOM     13  O   UNL     1      -0.724   3.047   2.354  1.00  0.00    -0.550 OA
ATOM     14  O   UNL     1      -0.117   3.165   4.560  1.00  0.00    -0.550 OA
ENDBRANCH  11  12
ENDBRANCH  10  11
ENDBRANCH   9  10
ENDBRANCH   8   9
ENDBRANCH   7   8
ENDBRANCH   6   7
ENDBRANCH   5   6
ENDBRANCH   4   5
ENDBRANCH   3   4
ENDBRANCH   2   3
ENDBRANCH   1   2
BRANCH   1  15
ATOM     15  C   UNL     1       0.356   7.483  -1.888  1.00  0.00     0.000 C 
BRANCH  15  16
ATOM     16  C   UNL     1       1.353   6.371  -2.250  1.00  0.00     0.000 C 
BRANCH  16  17
ATOM     17  C   UNL     1       1.728   6.433  -3.735  1.00  0.00     0.000 C 
BRANCH  17  18
ATOM     18  C   UNL     1       3.249   6.351  -3.924  1.00  0.00    -0.000 C 
BRANCH  18  19
ATOM     19  C   UNL     1       4.008   6.180  -2.596  1.00  0.00    -0.000 C 
BRANCH  19  20
ATOM     20  C   UNL     1       5.354   6.934  -2.552  1.00  0.00    -0.000 C 
BRANCH  20  21
ATOM     21  C   UNL     1       6.043   6.815  -1.182  1.00  0.00    -0.000 C 
BRANCH  21  22
ATOM     22  C   UNL     1       5.542   5.613  -0.363  1.00  0.00    -0.000 C 
BRANCH  22  23
ATOM     23  C   UNL     1       5.745   5.773   1.158  1.00  0.00    -0.000 C 
BRANCH  23  24
ATOM     24  C   UNL     1       4.488   5.386   1.956  1.00  0.00    -0.000 C 
BRANCH  24  25
ATOM     25  C   UNL     1       4.555   5.843   3.422  1.00  0.00    -0.003 C 
ATOM     26  C   UNL     1       5.286   7.174   3.594  1.00  0.00     0.004 C 
ENDBRANCH  24  25
ENDBRANCH  23  24
ENDBRANCH  22  23
ENDBRANCH  21  22
ENDBRANCH  20  21
ENDBRANCH  19  20
ENDBRANCH  18  19
ENDBRANCH  17  18
ENDBRANCH  16  17
ENDBRANCH  15  16
ENDBRANCH   1  15
TORSDOF 22
ENDMDL
MODEL 9
REMARK VINA RESULT:    -3.477      1.350      2.046
REMARK INTER + INTRA:         -12.440
REMARK INTER:                  -8.735
REMARK INTRA:                  -3.705
REMARK UNBOUND:                -4.491
REMARK SMILES CCCCCCCCCCCCCCCCCCCCCCCC(=O)[O-]
REMARK SMILES IDX 13 1 14 2 15 3 16 4 17 5 18 6 19 7 20 8 21 9 22 10 23 11
REMARK SMILES IDX 24 12 25 13 26 14 12 15 11 16 10 17 9 18 8 19 7 20 6 21 5 22
REMARK SMILES IDX 4 23 3 24 2 25 1 26
REMARK H PARENT
REMARK Flexibility Score: inf
ROOT
ATOM      1  C   UNL     1       2.243   6.321  -2.600  1.00  0.00     0.000 C 
ENDROOT
BRANCH   1   2
ATOM      2  C   UNL     1       0.987   7.210  -2.630  1.00  0.00     0.000 C 
BRANCH   2   3
ATOM      3  C   UNL     1       1.256   8.589  -3.255  1.00  0.00     0.000 C 
BRANCH   3   4
ATOM      4  C   UNL     1       0.431   9.706  -2.597  1.00  0.00     0.000 C 
BRANCH   4   5
ATOM      5  C   UNL     1      -0.774   9.128  -1.846  1.00  0.00     0.000 C 
BRANCH   5   6
ATOM      6  C   UNL     1      -0.785   9.596  -0.382  1.00  0.00     0.000 C 
BRANCH   6   7
ATOM      7  C   UNL     1      -0.254   8.530   0.593  1.00  0.00     0.000 C 
BRANCH   7   8
ATOM      8  C   UNL     1      -0.516   8.822   2.081  1.00  0.00     0.000 C 
BRANCH   8   9
ATOM      9  C   UNL     1       0.302   7.923   3.021  1.00  0.00     0.000 C 
BRANCH   9  10
ATOM     10  C   UNL     1      -0.455   6.624   3.336  1.00  0.00     0.006 C 
BRANCH  10  11
ATOM     11  C   UNL     1       0.442   5.581   4.016  1.00  0.00     0.053 C 
BRANCH  11  12
ATOM     12  C   UNL     1       0.815   4.474   3.077  1.00  0.00     0.041 C 
ATOM     13  O   UNL     1      -0.026   4.036   2.249  1.00  0.00    -0.550 OA
ATOM     14  O   UNL     1       2.102   3.953   3.094  1.00  0.00    -0.550 OA
ENDBRANCH  11  12
ENDBRANCH  10  11
ENDBRANCH   9  10
ENDBRANCH   8   9
ENDBRANCH   7   8
ENDBRANCH   6   7
ENDBRANCH   5   6
ENDBRANCH   4   5
ENDBRANCH   3   4
ENDBRANCH   2   3
ENDBRANCH   1   2
BRANCH   1  15
ATOM     15  C   UNL     1       3.010   6.335  -3.931  1.00  0.00     0.000 C 
BRANCH  15  16
ATOM     16  C   UNL     1       4.534   6.379  -3.743  1.00  0.00     0.000 C 
BRANCH  16  17
ATOM     17  C   UNL     1       4.904   6.309  -2.256  1.00  0.00     0.000 C 
BRANCH  17  18
ATOM     18  C   UNL     1       5.709   7.544  -1.829  1.00  0.00    -0.000 C 
BRANCH  18  19
ATOM     19  C   UNL     1       4.954   8.863  -2.074  1.00  0.00    -0.000 C 
BRANCH  19  20
ATOM     20  C   UNL     1       3.918   9.194  -0.980  1.00  0.00    -0.000 C 
BRANCH  20  21
ATOM     21  C   UNL     1       4.291   8.582   0.381  1.00  0.00    -0.000 C 
BRANCH  21  22
ATOM     22  C   UNL     1       3.296   7.505   0.845  1.00  0.00    -0.000 C 
BRANCH  22  23
ATOM     23  C   UNL     1       3.969   6.288   1.515  1.00  0.00    -0.000 C 
BRANCH  23  24
ATOM     24  C   UNL     1       5.464   6.529   1.791  1.00  0.00    -0.000 C 
BRANCH  24  25
ATOM     25  C   UNL     1       6.370   5.538   1.044  1.00  0.00    -0.003 C 
ATOM     26  C   UNL     1       6.172   4.094   1.503  1.00  0.00     0.004 C 
ENDBRANCH  24  25
ENDBRANCH  23  24
ENDBRANCH  22  23
ENDBRANCH  21  22
ENDBRANCH  20  21
ENDBRANCH  19  20
ENDBRANCH  18  19
ENDBRANCH  17  18
ENDBRANCH  16  17
ENDBRANCH  15  16
ENDBRANCH   1  15
TORSDOF 22
ENDMDL
