MODEL 1
REMARK VINA RESULT:    -3.655      0.000      0.000
REMARK INTER + INTRA:         -11.385
REMARK INTER:                  -7.929
REMARK INTRA:                  -3.456
REMARK UNBOUND:                -3.456
REMARK SMILES CCCCCCCCCCCCCCCCCCCCCC(=O)[O-]
REMARK SMILES IDX 12 1 11 2 10 3 9 4 8 5 7 6 6 7 5 8 4 9 3 10 2 11 1 12 13 13
REMARK SMILES IDX 14 14 15 15 16 16 17 17 18 18 19 19 20 20 21 21 22 22 23 23
REMARK SMILES IDX 24 24
REMARK H PARENT
REMARK Flexibility Score: inf
ROOT
ATOM      1  C   UNL     1      30.463   9.626  44.713  1.00  0.00     0.000 C 
ENDROOT
BRANCH   1   2
ATOM      2  C   UNL     1      31.587  10.677  44.623  1.00  0.00     0.000 C 
BRANCH   2   3
ATOM      3  C   UNL     1      32.787  10.442  45.560  1.00  0.00     0.000 C 
BRANCH   3   4
ATOM      4  C   UNL     1      33.995   9.740  44.912  1.00  0.00    -0.000 C 
BRANCH   4   5
ATOM      5  C   UNL     1      34.152   8.282  45.370  1.00  0.00    -0.000 C 
BRANCH   5   6
ATOM      6  C   UNL     1      33.364   7.982  46.656  1.00  0.00    -0.000 C 
BRANCH   6   7
ATOM      7  C   UNL     1      32.463   6.742  46.520  1.00  0.00    -0.000 C 
BRANCH   7   8
ATOM      8  C   UNL     1      31.119   6.911  47.247  1.00  0.00    -0.000 C 
BRANCH   8   9
ATOM      9  C   UNL     1      30.523   5.571  47.714  1.00  0.00    -0.000 C 
BRANCH   9  10
ATOM     10  C   UNL     1      30.662   5.352  49.231  1.00  0.00    -0.000 C 
BRANCH  10  11
ATOM     11  C   UNL     1      31.996   4.724  49.673  1.00  0.00    -0.003 C 
ATOM     12  C   UNL     1      32.193   3.303  49.146  1.00  0.00     0.004 C 
ENDBRANCH  10  11
ENDBRANCH   9  10
ENDBRANCH   8   9
ENDBRANCH   7   8
ENDBRANCH   6   7
ENDBRANCH   5   6
ENDBRANCH   4   5
ENDBRANCH   3   4
ENDBRANCH   2   3
ENDBRANCH   1   2
BRANCH   1  13
ATOM     13  C   UNL     1      30.645   8.427  43.758  1.00  0.00     0.000 C 
BRANCH  13  14
ATOM     14  C   UNL     1      31.341   8.813  42.440  1.00  0.00     0.000 C 
BRANCH  14  15
ATOM     15  C   UNL     1      32.546   7.913  42.117  1.00  0.00     0.000 C 
BRANCH  15  16
ATOM     16  C   UNL     1      32.394   6.466  42.636  1.00  0.00     0.000 C 
BRANCH  16  17
ATOM     17  C   UNL     1      32.982   5.437  41.652  1.00  0.00     0.000 C 
BRANCH  17  18
ATOM     18  C   UNL     1      32.441   5.611  40.223  1.00  0.00     0.000 C 
BRANCH  18  19
ATOM     19  C   UNL     1      31.028   5.018  40.017  1.00  0.00     0.000 C 
BRANCH  19  20
ATOM     20  C   UNL     1      29.917   6.084  39.975  1.00  0.00     0.006 C 
BRANCH  20  21
ATOM     21  C   UNL     1      29.087   6.165  41.265  1.00  0.00     0.053 C 
BRANCH  21  22
ATOM     22  C   UNL     1      28.755   4.804  41.799  1.00  0.00     0.041 C 
ATOM     23  O   UNL     1      29.326   4.376  42.836  1.00  0.00    -0.550 OA
ATOM     24  O   UNL     1      27.831   4.000  41.142  1.00  0.00    -0.550 OA
ENDBRANCH  21  22
ENDBRANCH  20  21
ENDBRANCH  19  20
ENDBRANCH  18  19
ENDBRANCH  17  18
ENDBRANCH  16  17
ENDBRANCH  15  16
ENDBRANCH  14  15
ENDBRANCH  13  14
ENDBRANCH   1  13
TORSDOF 20
ENDMDL
MODEL 2
REMARK VINA RESULT:    -3.651      2.567      6.731
REMARK INTER + INTRA:         -11.375
REMARK INTER:                  -7.856
REMARK INTRA:                  -3.520
REMARK UNBOUND:                -3.456
REMARK SMILES CCCCCCCCCCCCCCCCCCCCCC(=O)[O-]
REMARK SMILES IDX 12 1 11 2 10 3 9 4 8 5 7 6 6 7 5 8 4 9 3 10 2 11 1 12 13 13
REMARK SMILES IDX 14 14 15 15 16 16 17 17 18 18 19 19 20 20 21 21 22 22 23 23
REMARK SMILES IDX 24 24
REMARK H PARENT
REMARK Flexibility Score: inf
ROOT
ATOM      1  C   UNL     1      34.286   7.751  45.728  1.00  0.00     0.000 C 
ENDROOT
BRANCH   1   2
ATOM      2  C   UNL     1      33.532   6.924  44.668  1.00  0.00     0.000 C 
BRANCH   2   3
ATOM      3  C   UNL     1      33.360   7.607  43.298  1.00  0.00     0.000 C 
BRANCH   3   4
ATOM      4  C   UNL     1      31.988   7.393  42.630  1.00  0.00    -0.000 C 
BRANCH   4   5
ATOM      5  C   UNL     1      31.508   8.627  41.849  1.00  0.00    -0.000 C 
BRANCH   5   6
ATOM      6  C   UNL     1      30.898   8.258  40.486  1.00  0.00    -0.000 C 
BRANCH   6   7
ATOM      7  C   UNL     1      31.813   7.335  39.662  1.00  0.00    -0.000 C 
BRANCH   7   8
ATOM      8  C   UNL     1      31.023   6.280  38.871  1.00  0.00    -0.000 C 
BRANCH   8   9
ATOM      9  C   UNL     1      30.785   4.989  39.674  1.00  0.00    -0.000 C 
BRANCH   9  10
ATOM     10  C   UNL     1      29.373   4.916  40.282  1.00  0.00    -0.000 C 
BRANCH  10  11
ATOM     11  C   UNL     1      29.318   5.095  41.810  1.00  0.00    -0.003 C 
ATOM     12  C   UNL     1      28.250   6.091  42.259  1.00  0.00     0.004 C 
ENDBRANCH  10  11
ENDBRANCH   9  10
ENDBRANCH   8   9
ENDBRANCH   7   8
ENDBRANCH   6   7
ENDBRANCH   5   6
ENDBRANCH   4   5
ENDBRANCH   3   4
ENDBRANCH   2   3
ENDBRANCH   1   2
BRANCH   1  13
ATOM     13  C   UNL     1      33.375   8.646  46.595  1.00  0.00     0.000 C 
BRANCH  13  14
ATOM     14  C   UNL     1      33.096  10.016  45.950  1.00  0.00     0.000 C 
BRANCH  14  15
ATOM     15  C   UNL     1      31.661  10.141  45.412  1.00  0.00     0.000 C 
BRANCH  15  16
ATOM     16  C   UNL     1      30.627   9.315  46.209  1.00  0.00     0.000 C 
BRANCH  16  17
ATOM     17  C   UNL     1      29.866   8.324  45.311  1.00  0.00     0.000 C 
BRANCH  17  18
ATOM     18  C   UNL     1      29.971   6.873  45.812  1.00  0.00     0.000 C 
BRANCH  18  19
ATOM     19  C   UNL     1      30.201   6.757  47.336  1.00  0.00     0.000 C 
BRANCH  19  20
ATOM     20  C   UNL     1      30.856   5.429  47.758  1.00  0.00     0.006 C 
BRANCH  20  21
ATOM     21  C   UNL     1      31.856   5.571  48.915  1.00  0.00     0.053 C 
BRANCH  21  22
ATOM     22  C   UNL     1      32.118   4.257  49.588  1.00  0.00     0.041 C 
ATOM     23  O   UNL     1      32.286   4.208  50.834  1.00  0.00    -0.550 OA
ATOM     24  O   UNL     1      32.199   3.090  48.837  1.00  0.00    -0.550 OA
ENDBRANCH  21  22
ENDBRANCH  20  21
ENDBRANCH  19  20
ENDBRANCH  18  19
ENDBRANCH  17  18
ENDBRANCH  16  17
ENDBRANCH  15  16
ENDBRANCH  14  15
ENDBRANCH  13  14
ENDBRANCH   1  13
TORSDOF 20
ENDMDL
MODEL 3
REMARK VINA RESULT:    -3.622      3.029      5.351
REMARK INTER + INTRA:         -11.314
REMARK INTER:                  -8.354
REMARK INTRA:                  -2.959
REMARK UNBOUND:                -3.456
REMARK SMILES CCCCCCCCCCCCCCCCCCCCCC(=O)[O-]
REMARK SMILES IDX 12 1 11 2 10 3 9 4 8 5 7 6 6 7 5 8 4 9 3 10 2 11 1 12 13 13
REMARK SMILES IDX 14 14 15 15 16 16 17 17 18 18 19 19 20 20 21 21 22 22 23 23
REMARK SMILES IDX 24 24
REMARK H PARENT
REMARK Flexibility Score: inf
ROOT
ATOM      1  C   UNL     1      29.538   8.230  40.290  1.00  0.00     0.000 C 
ENDROOT
BRANCH   1   2
ATOM      2  C   UNL     1      30.674   7.562  39.491  1.00  0.00     0.000 C 
BRANCH   2   3
ATOM      3  C   UNL     1      30.354   6.162  38.932  1.00  0.00     0.000 C 
BRANCH   3   4
ATOM      4  C   UNL     1      30.736   4.988  39.854  1.00  0.00    -0.000 C 
BRANCH   4   5
ATOM      5  C   UNL     1      32.092   5.192  40.546  1.00  0.00    -0.000 C 
BRANCH   5   6
ATOM      6  C   UNL     1      31.973   5.202  42.079  1.00  0.00    -0.000 C 
BRANCH   6   7
ATOM      7  C   UNL     1      32.809   6.320  42.728  1.00  0.00    -0.000 C 
BRANCH   7   8
ATOM      8  C   UNL     1      32.894   6.177  44.256  1.00  0.00    -0.000 C 
BRANCH   8   9
ATOM      9  C   UNL     1      32.015   7.199  44.998  1.00  0.00    -0.000 C 
BRANCH   9  10
ATOM     10  C   UNL     1      30.742   6.570  45.594  1.00  0.00    -0.000 C 
BRANCH  10  11
ATOM     11  C   UNL     1      30.725   6.482  47.131  1.00  0.00    -0.003 C 
ATOM     12  C   UNL     1      31.325   5.181  47.663  1.00  0.00     0.004 C 
ENDBRANCH  10  11
ENDBRANCH   9  10
ENDBRANCH   8   9
ENDBRANCH   7   8
ENDBRANCH   6   7
ENDBRANCH   5   6
ENDBRANCH   4   5
ENDBRANCH   3   4
ENDBRANCH   2   3
ENDBRANCH   1   2
BRANCH   1  13
ATOM     13  C   UNL     1      29.797   8.305  41.810  1.00  0.00     0.000 C 
BRANCH  13  14
ATOM     14  C   UNL     1      28.622   7.761  42.644  1.00  0.00     0.000 C 
BRANCH  14  15
ATOM     15  C   UNL     1      28.057   6.442  42.089  1.00  0.00     0.000 C 
BRANCH  15  16
ATOM     16  C   UNL     1      28.423   5.206  42.939  1.00  0.00     0.000 C 
BRANCH  16  17
ATOM     17  C   UNL     1      28.026   3.891  42.244  1.00  0.00     0.000 C 
BRANCH  17  18
ATOM     18  C   UNL     1      27.246   4.126  40.939  1.00  0.00     0.000 C 
BRANCH  18  19
ATOM     19  C   UNL     1      25.722   3.907  41.079  1.00  0.00     0.000 C 
BRANCH  19  20
ATOM     20  C   UNL     1      25.119   3.053  39.947  1.00  0.00     0.006 C 
BRANCH  20  21
ATOM     21  C   UNL     1      23.842   2.302  40.351  1.00  0.00     0.053 C 
BRANCH  21  22
ATOM     22  C   UNL     1      23.500   1.220  39.372  1.00  0.00     0.041 C 
ATOM     23  O   UNL     1      24.002   0.073  39.497  1.00  0.00    -0.550 OA
ATOM     24  O   UNL     1      22.644   1.482  38.309  1.00  0.00    -0.550 OA
ENDBRANCH  21  22
ENDBRANCH  20  21
ENDBRANCH  19  20
ENDBRANCH  18  19
ENDBRANCH  17  18
ENDBRANCH  16  17
ENDBRANCH  15  16
ENDBRANCH  14  15
ENDBRANCH  13  14
ENDBRANCH   1  13
TORSDOF 20
ENDMDL
MODEL 4
REMARK VINA RESULT:    -3.617      3.068      4.923
REMARK INTER + INTRA:         -11.302
REMARK INTER:                  -9.716
REMARK INTRA:                  -1.585
REMARK UNBOUND:                -3.456
REMARK SMILES CCCCCCCCCCCCCCCCCCCCCC(=O)[O-]
REMARK SMILES IDX 12 1 11 2 10 3 9 4 8 5 7 6 6 7 5 8 4 9 3 10 2 11 1 12 13 13
REMARK SMILES IDX 14 14 15 15 16 16 17 17 18 18 19 19 20 20 21 21 22 22 23 23
REMARK SMILES IDX 24 24
REMARK H PARENT
REMARK Flexibility Score: inf
ROOT
ATOM      1  C   UNL     1      31.677   6.743  39.929  1.00  0.00     0.000 C 
ENDROOT
BRANCH   1   2
ATOM      2  C   UNL     1      32.940   5.884  40.135  1.00  0.00     0.000 C 
BRANCH   2   3
ATOM      3  C   UNL     1      33.536   5.916  41.555  1.00  0.00     0.000 C 
BRANCH   3   4
ATOM      4  C   UNL     1      33.171   7.159  42.389  1.00  0.00    -0.000 C 
BRANCH   4   5
ATOM      5  C   UNL     1      33.191   6.889  43.901  1.00  0.00    -0.000 C 
BRANCH   5   6
ATOM      6  C   UNL     1      32.073   5.928  44.340  1.00  0.00    -0.000 C 
BRANCH   6   7
ATOM      7  C   UNL     1      30.906   6.657  45.028  1.00  0.00    -0.000 C 
BRANCH   7   8
ATOM      8  C   UNL     1      31.298   7.227  46.401  1.00  0.00    -0.000 C 
BRANCH   8   9
ATOM      9  C   UNL     1      30.697   6.427  47.570  1.00  0.00    -0.000 C 
BRANCH   9  10
ATOM     10  C   UNL     1      31.472   5.130  47.868  1.00  0.00    -0.000 C 
BRANCH  10  11
ATOM     11  C   UNL     1      31.738   4.867  49.361  1.00  0.00    -0.003 C 
ATOM     12  C   UNL     1      32.214   3.442  49.642  1.00  0.00     0.004 C 
ENDBRANCH  10  11
ENDBRANCH   9  10
ENDBRANCH   8   9
ENDBRANCH   7   8
ENDBRANCH   6   7
ENDBRANCH   5   6
ENDBRANCH   4   5
ENDBRANCH   3   4
ENDBRANCH   2   3
ENDBRANCH   1   2
BRANCH   1  13
ATOM     13  C   UNL     1      30.526   6.007  39.209  1.00  0.00     0.000 C 
BRANCH  13  14
ATOM     14  C   UNL     1      29.883   4.911  40.077  1.00  0.00     0.000 C 
BRANCH  14  15
ATOM     15  C   UNL     1      29.561   5.391  41.503  1.00  0.00     0.000 C 
BRANCH  15  16
ATOM     16  C   UNL     1      28.089   5.168  41.913  1.00  0.00     0.000 C 
BRANCH  16  17
ATOM     17  C   UNL     1      27.431   4.036  41.104  1.00  0.00     0.000 C 
BRANCH  17  18
ATOM     18  C   UNL     1      25.994   3.738  41.566  1.00  0.00     0.000 C 
BRANCH  18  19
ATOM     19  C   UNL     1      24.936   3.906  40.450  1.00  0.00     0.000 C 
BRANCH  19  20
ATOM     20  C   UNL     1      24.961   2.772  39.408  1.00  0.00     0.006 C 
BRANCH  20  21
ATOM     21  C   UNL     1      23.640   1.996  39.305  1.00  0.00     0.053 C 
BRANCH  21  22
ATOM     22  C   UNL     1      23.639   0.779  40.179  1.00  0.00     0.041 C 
ATOM     23  O   UNL     1      23.935  -0.345  39.697  1.00  0.00    -0.550 OA
ATOM     24  O   UNL     1      23.292   0.881  41.521  1.00  0.00    -0.550 OA
ENDBRANCH  21  22
ENDBRANCH  20  21
ENDBRANCH  19  20
ENDBRANCH  18  19
ENDBRANCH  17  18
ENDBRANCH  16  17
ENDBRANCH  15  16
ENDBRANCH  14  15
ENDBRANCH  13  14
ENDBRANCH   1  13
TORSDOF 20
ENDMDL
MODEL 5
REMARK VINA RESULT:    -3.580      2.744      5.219
REMARK INTER + INTRA:         -11.222
REMARK INTER:                  -8.416
REMARK INTRA:                  -2.806
REMARK UNBOUND:                -3.456
REMARK SMILES CCCCCCCCCCCCCCCCCCCCCC(=O)[O-]
REMARK SMILES IDX 12 1 11 2 10 3 9 4 8 5 7 6 6 7 5 8 4 9 3 10 2 11 1 12 13 13
REMARK SMILES IDX 14 14 15 15 16 16 17 17 18 18 19 19 20 20 21 21 22 22 23 23
REMARK SMILES IDX 24 24
REMARK H PARENT
REMARK Flexibility Score: inf
ROOT
ATOM      1  C   UNL     1      28.036   4.803  41.087  1.00  0.00     0.000 C 
ENDROOT
BRANCH   1   2
ATOM      2  C   UNL     1      28.321   4.033  42.392  1.00  0.00     0.000 C 
BRANCH   2   3
ATOM      3  C   UNL     1      27.834   4.718  43.683  1.00  0.00     0.000 C 
BRANCH   3   4
ATOM      4  C   UNL     1      28.948   5.301  44.573  1.00  0.00    -0.000 C 
BRANCH   4   5
ATOM      5  C   UNL     1      28.966   6.837  44.575  1.00  0.00    -0.000 C 
BRANCH   5   6
ATOM      6  C   UNL     1      30.109   7.410  45.429  1.00  0.00    -0.000 C 
BRANCH   6   7
ATOM      7  C   UNL     1      30.842   6.324  46.237  1.00  0.00    -0.000 C 
BRANCH   7   8
ATOM      8  C   UNL     1      30.671   6.504  47.754  1.00  0.00    -0.000 C 
BRANCH   8   9
ATOM      9  C   UNL     1      31.758   5.780  48.566  1.00  0.00    -0.000 C 
BRANCH   9  10
ATOM     10  C   UNL     1      31.876   4.287  48.208  1.00  0.00    -0.000 C 
BRANCH  10  11
ATOM     11  C   UNL     1      31.990   3.341  49.417  1.00  0.00    -0.003 C 
ATOM     12  C   UNL     1      32.306   4.072  50.722  1.00  0.00     0.004 C 
ENDBRANCH  10  11
ENDBRANCH   9  10
ENDBRANCH   8   9
ENDBRANCH   7   8
ENDBRANCH   6   7
ENDBRANCH   5   6
ENDBRANCH   4   5
ENDBRANCH   3   4
ENDBRANCH   2   3
ENDBRANCH   1   2
BRANCH   1  13
ATOM     13  C   UNL     1      28.572   4.108  39.817  1.00  0.00     0.000 C 
BRANCH  13  14
ATOM     14  C   UNL     1      29.940   4.655  39.370  1.00  0.00     0.000 C 
BRANCH  14  15
ATOM     15  C   UNL     1      30.217   6.073  39.900  1.00  0.00     0.000 C 
BRANCH  15  16
ATOM     16  C   UNL     1      31.578   6.210  40.617  1.00  0.00     0.000 C 
BRANCH  16  17
ATOM     17  C   UNL     1      31.750   5.160  41.730  1.00  0.00     0.000 C 
BRANCH  17  18
ATOM     18  C   UNL     1      32.360   5.754  43.012  1.00  0.00     0.000 C 
BRANCH  18  19
ATOM     19  C   UNL     1      32.982   7.156  42.812  1.00  0.00     0.000 C 
BRANCH  19  20
ATOM     20  C   UNL     1      33.728   7.677  44.054  1.00  0.00     0.006 C 
BRANCH  20  21
ATOM     21  C   UNL     1      33.270   9.069  44.513  1.00  0.00     0.053 C 
BRANCH  21  22
ATOM     22  C   UNL     1      33.394   9.235  45.998  1.00  0.00     0.041 C 
ATOM     23  O   UNL     1      33.770   8.269  46.712  1.00  0.00    -0.550 OA
ATOM     24  O   UNL     1      33.076  10.448  46.596  1.00  0.00    -0.550 OA
ENDBRANCH  21  22
ENDBRANCH  20  21
ENDBRANCH  19  20
ENDBRANCH  18  19
ENDBRANCH  17  18
ENDBRANCH  16  17
ENDBRANCH  15  16
ENDBRANCH  14  15
ENDBRANCH  13  14
ENDBRANCH   1  13
TORSDOF 20
ENDMDL
MODEL 6
REMARK VINA RESULT:    -3.548      2.604      4.629
REMARK INTER + INTRA:         -11.154
REMARK INTER:                  -7.485
REMARK INTRA:                  -3.668
REMARK UNBOUND:                -3.456
REMARK SMILES CCCCCCCCCCCCCCCCCCCCCC(=O)[O-]
REMARK SMILES IDX 12 1 11 2 10 3 9 4 8 5 7 6 6 7 5 8 4 9 3 10 2 11 1 12 13 13
REMARK SMILES IDX 14 14 15 15 16 16 17 17 18 18 19 19 20 20 21 21 22 22 23 23
REMARK SMILES IDX 24 24
REMARK H PARENT
REMARK Flexibility Score: inf
ROOT
ATOM      1  C   UNL     1      33.062   6.580  45.221  1.00  0.00     0.000 C 
ENDROOT
BRANCH   1   2
ATOM      2  C   UNL     1      32.987   6.162  43.739  1.00  0.00     0.000 C 
BRANCH   2   3
ATOM      3  C   UNL     1      31.584   6.226  43.105  1.00  0.00     0.000 C 
BRANCH   3   4
ATOM      4  C   UNL     1      30.437   6.532  44.088  1.00  0.00    -0.000 C 
BRANCH   4   5
ATOM      5  C   UNL     1      29.892   7.961  43.939  1.00  0.00    -0.000 C 
BRANCH   5   6
ATOM      6  C   UNL     1      29.232   8.475  45.229  1.00  0.00    -0.000 C 
BRANCH   6   7
ATOM      7  C   UNL     1      30.035   8.105  46.489  1.00  0.00    -0.000 C 
BRANCH   7   8
ATOM      8  C   UNL     1      29.135   7.629  47.640  1.00  0.00    -0.000 C 
BRANCH   8   9
ATOM      9  C   UNL     1      29.404   6.169  48.042  1.00  0.00    -0.000 C 
BRANCH   9  10
ATOM     10  C   UNL     1      30.900   5.807  48.013  1.00  0.00    -0.000 C 
BRANCH  10  11
ATOM     11  C   UNL     1      31.456   5.260  49.340  1.00  0.00    -0.003 C 
ATOM     12  C   UNL     1      32.019   3.844  49.216  1.00  0.00     0.004 C 
ENDBRANCH  10  11
ENDBRANCH   9  10
ENDBRANCH   8   9
ENDBRANCH   7   8
ENDBRANCH   6   7
ENDBRANCH   5   6
ENDBRANCH   4   5
ENDBRANCH   3   4
ENDBRANCH   2   3
ENDBRANCH   1   2
BRANCH   1  13
ATOM     13  C   UNL     1      34.174   7.605  45.530  1.00  0.00     0.000 C 
BRANCH  13  14
ATOM     14  C   UNL     1      33.686   8.768  46.411  1.00  0.00     0.000 C 
BRANCH  14  15
ATOM     15  C   UNL     1      32.979   9.871  45.604  1.00  0.00     0.000 C 
BRANCH  15  16
ATOM     16  C   UNL     1      33.707  10.240  44.293  1.00  0.00     0.000 C 
BRANCH  16  17
ATOM     17  C   UNL     1      32.800  10.058  43.061  1.00  0.00     0.000 C 
BRANCH  17  18
ATOM     18  C   UNL     1      33.490   9.275  41.931  1.00  0.00     0.000 C 
BRANCH  18  19
ATOM     19  C   UNL     1      34.991   9.006  42.188  1.00  0.00     0.000 C 
BRANCH  19  20
ATOM     20  C   UNL     1      35.606   7.986  41.211  1.00  0.00     0.006 C 
BRANCH  20  21
ATOM     21  C   UNL     1      34.581   7.025  40.593  1.00  0.00     0.053 C 
BRANCH  21  22
ATOM     22  C   UNL     1      35.172   5.671  40.337  1.00  0.00     0.041 C 
ATOM     23  O   UNL     1      35.936   5.491  39.353  1.00  0.00    -0.550 OA
ATOM     24  O   UNL     1      34.864   4.604  41.172  1.00  0.00    -0.550 OA
ENDBRANCH  21  22
ENDBRANCH  20  21
ENDBRANCH  19  20
ENDBRANCH  18  19
ENDBRANCH  17  18
ENDBRANCH  16  17
ENDBRANCH  15  16
ENDBRANCH  14  15
ENDBRANCH  13  14
ENDBRANCH   1  13
TORSDOF 20
ENDMDL
MODEL 7
REMARK VINA RESULT:    -3.525      2.671      7.085
REMARK INTER + INTRA:         -11.103
REMARK INTER:                  -8.549
REMARK INTRA:                  -2.553
REMARK UNBOUND:                -3.456
REMARK SMILES CCCCCCCCCCCCCCCCCCCCCC(=O)[O-]
REMARK SMILES IDX 12 1 11 2 10 3 9 4 8 5 7 6 6 7 5 8 4 9 3 10 2 11 1 12 13 13
REMARK SMILES IDX 14 14 15 15 16 16 17 17 18 18 19 19 20 20 21 21 22 22 23 23
REMARK SMILES IDX 24 24
REMARK H PARENT
REMARK Flexibility Score: inf
ROOT
ATOM      1  C   UNL     1      32.432   5.338  42.128  1.00  0.00     0.000 C 
ENDROOT
BRANCH   1   2
ATOM      2  C   UNL     1      32.468   5.550  40.602  1.00  0.00     0.000 C 
BRANCH   2   3
ATOM      3  C   UNL     1      31.265   4.978  39.827  1.00  0.00     0.000 C 
BRANCH   3   4
ATOM      4  C   UNL     1      30.387   6.026  39.117  1.00  0.00    -0.000 C 
BRANCH   4   5
ATOM      5  C   UNL     1      30.247   7.328  39.922  1.00  0.00    -0.000 C 
BRANCH   5   6
ATOM      6  C   UNL     1      29.021   7.315  40.850  1.00  0.00    -0.000 C 
BRANCH   6   7
ATOM      7  C   UNL     1      29.407   7.174  42.333  1.00  0.00    -0.000 C 
BRANCH   7   8
ATOM      8  C   UNL     1      28.801   5.919  42.980  1.00  0.00    -0.000 C 
BRANCH   8   9
ATOM      9  C   UNL     1      28.211   4.943  41.948  1.00  0.00    -0.000 C 
BRANCH   9  10
ATOM     10  C   UNL     1      26.674   4.866  42.008  1.00  0.00    -0.000 C 
BRANCH  10  11
ATOM     11  C   UNL     1      26.044   3.820  41.071  1.00  0.00    -0.003 C 
ATOM     12  C   UNL     1      26.853   3.594  39.794  1.00  0.00     0.004 C 
ENDBRANCH  10  11
ENDBRANCH   9  10
ENDBRANCH   8   9
ENDBRANCH   7   8
ENDBRANCH   6   7
ENDBRANCH   5   6
ENDBRANCH   4   5
ENDBRANCH   3   4
ENDBRANCH   2   3
ENDBRANCH   1   2
BRANCH   1  13
ATOM     13  C   UNL     1      33.326   6.316  42.921  1.00  0.00     0.000 C 
BRANCH  13  14
ATOM     14  C   UNL     1      33.007   7.792  42.621  1.00  0.00     0.000 C 
BRANCH  14  15
ATOM     15  C   UNL     1      33.578   8.752  43.680  1.00  0.00     0.000 C 
BRANCH  15  16
ATOM     16  C   UNL     1      34.024   8.045  44.979  1.00  0.00     0.000 C 
BRANCH  16  17
ATOM     17  C   UNL     1      33.155   8.453  46.183  1.00  0.00     0.000 C 
BRANCH  17  18
ATOM     18  C   UNL     1      32.827   7.264  47.103  1.00  0.00     0.000 C 
BRANCH  18  19
ATOM     19  C   UNL     1      31.529   6.519  46.715  1.00  0.00     0.000 C 
BRANCH  19  20
ATOM     20  C   UNL     1      31.251   5.279  47.586  1.00  0.00     0.006 C 
BRANCH  20  21
ATOM     21  C   UNL     1      31.778   5.401  49.023  1.00  0.00     0.053 C 
BRANCH  21  22
ATOM     22  C   UNL     1      32.133   4.065  49.601  1.00  0.00     0.041 C 
ATOM     23  O   UNL     1      32.170   3.047  48.863  1.00  0.00    -0.550 OA
ATOM     24  O   UNL     1      32.403   3.939  50.959  1.00  0.00    -0.550 OA
ENDBRANCH  21  22
ENDBRANCH  20  21
ENDBRANCH  19  20
ENDBRANCH  18  19
ENDBRANCH  17  18
ENDBRANCH  16  17
ENDBRANCH  15  16
ENDBRANCH  14  15
ENDBRANCH  13  14
ENDBRANCH   1  13
TORSDOF 20
ENDMDL
MODEL 8
REMARK VINA RESULT:    -3.523      2.337      4.132
REMARK INTER + INTRA:         -11.099
REMARK INTER:                  -8.479
REMARK INTRA:                  -2.621
REMARK UNBOUND:                -3.456
REMARK SMILES CCCCCCCCCCCCCCCCCCCCCC(=O)[O-]
REMARK SMILES IDX 12 1 11 2 10 3 9 4 8 5 7 6 6 7 5 8 4 9 3 10 2 11 1 12 13 13
REMARK SMILES IDX 14 14 15 15 16 16 17 17 18 18 19 19 20 20 21 21 22 22 23 23
REMARK SMILES IDX 24 24
REMARK H PARENT
REMARK Flexibility Score: inf
ROOT
ATOM      1  C   UNL     1      30.780   6.667  38.701  1.00  0.00     0.000 C 
ENDROOT
BRANCH   1   2
ATOM      2  C   UNL     1      30.972   5.384  39.533  1.00  0.00     0.000 C 
BRANCH   2   3
ATOM      3  C   UNL     1      32.102   5.438  40.578  1.00  0.00     0.000 C 
BRANCH   3   4
ATOM      4  C   UNL     1      31.691   5.026  42.005  1.00  0.00    -0.000 C 
BRANCH   4   5
ATOM      5  C   UNL     1      32.445   5.809  43.091  1.00  0.00    -0.000 C 
BRANCH   5   6
ATOM      6  C   UNL     1      31.568   6.101  44.320  1.00  0.00    -0.000 C 
BRANCH   6   7
ATOM      7  C   UNL     1      32.400   6.392  45.581  1.00  0.00    -0.000 C 
BRANCH   7   8
ATOM      8  C   UNL     1      31.525   6.762  46.790  1.00  0.00    -0.000 C 
BRANCH   8   9
ATOM      9  C   UNL     1      31.995   6.092  48.092  1.00  0.00    -0.000 C 
BRANCH   9  10
ATOM     10  C   UNL     1      31.186   4.829  48.440  1.00  0.00    -0.000 C 
BRANCH  10  11
ATOM     11  C   UNL     1      32.003   3.700  49.094  1.00  0.00    -0.003 C 
ATOM     12  C   UNL     1      32.378   3.995  50.546  1.00  0.00     0.004 C 
ENDBRANCH  10  11
ENDBRANCH   9  10
ENDBRANCH   8   9
ENDBRANCH   7   8
ENDBRANCH   6   7
ENDBRANCH   5   6
ENDBRANCH   4   5
ENDBRANCH   3   4
ENDBRANCH   2   3
ENDBRANCH   1   2
BRANCH   1  13
ATOM     13  C   UNL     1      31.726   7.822  39.097  1.00  0.00     0.000 C 
BRANCH  13  14
ATOM     14  C   UNL     1      31.001   8.960  39.837  1.00  0.00     0.000 C 
BRANCH  14  15
ATOM     15  C   UNL     1      29.539   9.128  39.386  1.00  0.00     0.000 C 
BRANCH  15  16
ATOM     16  C   UNL     1      28.519   9.019  40.540  1.00  0.00     0.000 C 
BRANCH  16  17
ATOM     17  C   UNL     1      28.912   7.927  41.553  1.00  0.00     0.000 C 
BRANCH  17  18
ATOM     18  C   UNL     1      27.938   6.736  41.544  1.00  0.00     0.000 C 
BRANCH  18  19
ATOM     19  C   UNL     1      28.199   5.713  42.673  1.00  0.00     0.000 C 
BRANCH  19  20
ATOM     20  C   UNL     1      28.053   4.248  42.218  1.00  0.00     0.006 C 
BRANCH  20  21
ATOM     21  C   UNL     1      27.638   4.095  40.748  1.00  0.00     0.053 C 
BRANCH  21  22
ATOM     22  C   UNL     1      26.219   3.629  40.615  1.00  0.00     0.041 C 
ATOM     23  O   UNL     1      25.422   3.749  41.581  1.00  0.00    -0.550 OA
ATOM     24  O   UNL     1      25.782   3.042  39.434  1.00  0.00    -0.550 OA
ENDBRANCH  21  22
ENDBRANCH  20  21
ENDBRANCH  19  20
ENDBRANCH  18  19
ENDBRANCH  17  18
ENDBRANCH  16  17
ENDBRANCH  15  16
ENDBRANCH  14  15
ENDBRANCH  13  14
ENDBRANCH   1  13
TORSDOF 20
ENDMDL
MODEL 9
REMARK VINA RESULT:    -3.469      3.144      5.818
REMARK INTER + INTRA:         -10.982
REMARK INTER:                  -8.192
REMARK INTRA:                  -2.790
REMARK UNBOUND:                -3.456
REMARK SMILES CCCCCCCCCCCCCCCCCCCCCC(=O)[O-]
REMARK SMILES IDX 12 1 11 2 10 3 9 4 8 5 7 6 6 7 5 8 4 9 3 10 2 11 1 12 13 13
REMARK SMILES IDX 14 14 15 15 16 16 17 17 18 18 19 19 20 20 21 21 22 22 23 23
REMARK SMILES IDX 24 24
REMARK H PARENT
REMARK Flexibility Score: inf
ROOT
ATOM      1  C   UNL     1      29.241   5.024  40.633  1.00  0.00     0.000 C 
ENDROOT
BRANCH   1   2
ATOM      2  C   UNL     1      30.693   5.035  40.117  1.00  0.00     0.000 C 
BRANCH   2   3
ATOM      3  C   UNL     1      31.640   6.019  40.830  1.00  0.00     0.000 C 
BRANCH   3   4
ATOM      4  C   UNL     1      32.706   5.364  41.729  1.00  0.00    -0.000 C 
BRANCH   4   5
ATOM      5  C   UNL     1      32.782   6.002  43.125  1.00  0.00    -0.000 C 
BRANCH   5   6
ATOM      6  C   UNL     1      31.574   6.905  43.423  1.00  0.00    -0.000 C 
BRANCH   6   7
ATOM      7  C   UNL     1      30.957   6.627  44.806  1.00  0.00    -0.000 C 
BRANCH   7   8
ATOM      8  C   UNL     1      31.997   6.129  45.823  1.00  0.00    -0.000 C 
BRANCH   8   9
ATOM      9  C   UNL     1      32.344   7.186  46.885  1.00  0.00    -0.000 C 
BRANCH   9  10
ATOM     10  C   UNL     1      33.558   8.049  46.494  1.00  0.00    -0.000 C 
BRANCH  10  11
ATOM     11  C   UNL     1      33.206   9.419  45.885  1.00  0.00    -0.003 C 
ATOM     12  C   UNL     1      33.765   9.610  44.476  1.00  0.00     0.004 C 
ENDBRANCH  10  11
ENDBRANCH   9  10
ENDBRANCH   8   9
ENDBRANCH   7   8
ENDBRANCH   6   7
ENDBRANCH   5   6
ENDBRANCH   4   5
ENDBRANCH   3   4
ENDBRANCH   2   3
ENDBRANCH   1   2
BRANCH   1  13
ATOM     13  C   UNL     1      29.095   4.546  42.094  1.00  0.00     0.000 C 
BRANCH  13  14
ATOM     14  C   UNL     1      28.011   5.316  42.869  1.00  0.00     0.000 C 
BRANCH  14  15
ATOM     15  C   UNL     1      27.520   6.568  42.122  1.00  0.00     0.000 C 
BRANCH  15  16
ATOM     16  C   UNL     1      26.064   6.457  41.619  1.00  0.00     0.000 C 
BRANCH  16  17
ATOM     17  C   UNL     1      25.269   5.388  42.392  1.00  0.00     0.000 C 
BRANCH  17  18
ATOM     18  C   UNL     1      24.709   4.289  41.472  1.00  0.00     0.000 C 
BRANCH  18  19
ATOM     19  C   UNL     1      25.599   3.996  40.242  1.00  0.00     0.000 C 
BRANCH  19  20
ATOM     20  C   UNL     1      25.134   2.775  39.427  1.00  0.00     0.006 C 
BRANCH  20  21
ATOM     21  C   UNL     1      23.682   2.360  39.706  1.00  0.00     0.053 C 
BRANCH  21  22
ATOM     22  C   UNL     1      23.604   1.014  40.361  1.00  0.00     0.041 C 
ATOM     23  O   UNL     1      23.900  -0.023  39.711  1.00  0.00    -0.550 OA
ATOM     24  O   UNL     1      23.185   0.901  41.681  1.00  0.00    -0.550 OA
ENDBRANCH  21  22
ENDBRANCH  20  21
ENDBRANCH  19  20
ENDBRANCH  18  19
ENDBRANCH  17  18
ENDBRANCH  16  17
ENDBRANCH  15  16
ENDBRANCH  14  15
ENDBRANCH  13  14
ENDBRANCH   1  13
TORSDOF 20
ENDMDL
