MODEL 1
REMARK VINA RESULT:    -5.511      0.000      0.000
REMARK INTER + INTRA:         -10.710
REMARK INTER:                 -10.022
REMARK INTRA:                  -0.688
REMARK UNBOUND:                -0.688
REMARK SMILES CCCCCCCCCCCCCCCC(=O)[O-]
REMARK SMILES IDX 9 1 10 2 11 3 12 4 13 5 14 6 15 7 16 8 17 9 18 10 8 11 7 12
REMARK SMILES IDX 6 13 5 14 4 15 3 16 2 17 1 18
REMARK H PARENT
REMARK Flexibility Score: inf
ROOT
ATOM      1  C   UNL     1      27.528  37.854  32.302  1.00  0.00     0.000 C 
ENDROOT
BRANCH   1   2
ATOM      2  C   UNL     1      27.847  39.156  33.060  1.00  0.00     0.000 C 
BRANCH   2   3
ATOM      3  C   UNL     1      28.077  40.352  32.120  1.00  0.00     0.000 C 
BRANCH   3   4
ATOM      4  C   UNL     1      27.605  41.681  32.732  1.00  0.00     0.000 C 
BRANCH   4   5
ATOM      5  C   UNL     1      27.694  41.687  34.269  1.00  0.00     0.000 C 
BRANCH   5   6
ATOM      6  C   UNL     1      26.852  42.806  34.903  1.00  0.00     0.006 C 
BRANCH   6   7
ATOM      7  C   UNL     1      25.459  42.328  35.332  1.00  0.00     0.053 C 
BRANCH   7   8
ATOM      8  C   UNL     1      24.694  43.449  35.963  1.00  0.00     0.041 C 
ATOM      9  O   UNL     1      24.921  43.779  37.156  1.00  0.00    -0.550 OA
ATOM     10  O   UNL     1      23.694  44.098  35.248  1.00  0.00    -0.550 OA
ENDBRANCH   7   8
ENDBRANCH   6   7
ENDBRANCH   5   6
ENDBRANCH   4   5
ENDBRANCH   3   4
ENDBRANCH   2   3
ENDBRANCH   1   2
BRANCH   1  11
ATOM     11  C   UNL     1      27.419  36.592  33.181  1.00  0.00     0.000 C 
BRANCH  11  12
ATOM     12  C   UNL     1      27.937  35.298  32.527  1.00  0.00    -0.000 C 
BRANCH  12  13
ATOM     13  C   UNL     1      28.523  35.533  31.125  1.00  0.00    -0.000 C 
BRANCH  13  14
ATOM     14  C   UNL     1      27.675  34.876  30.016  1.00  0.00    -0.000 C 
BRANCH  14  15
ATOM     15  C   UNL     1      27.031  33.537  30.427  1.00  0.00    -0.000 C 
BRANCH  15  16
ATOM     16  C   UNL     1      26.021  32.981  29.404  1.00  0.00    -0.000 C 
BRANCH  16  17
ATOM     17  C   UNL     1      24.572  33.358  29.744  1.00  0.00    -0.003 C 
ATOM     18  C   UNL     1      23.582  32.481  28.984  1.00  0.00     0.004 C 
ENDBRANCH  16  17
ENDBRANCH  15  16
ENDBRANCH  14  15
ENDBRANCH  13  14
ENDBRANCH  12  13
ENDBRANCH  11  12
ENDBRANCH   1  11
TORSDOF 14
ENDMDL
MODEL 2
REMARK VINA RESULT:    -5.330      1.458      3.074
REMARK INTER + INTRA:         -10.381
REMARK INTER:                  -9.804
REMARK INTRA:                  -0.577
REMARK UNBOUND:                -0.688
REMARK SMILES CCCCCCCCCCCCCCCC(=O)[O-]
REMARK SMILES IDX 9 1 10 2 11 3 12 4 13 5 14 6 15 7 16 8 17 9 18 10 8 11 7 12
REMARK SMILES IDX 6 13 5 14 4 15 3 16 2 17 1 18
REMARK H PARENT
REMARK Flexibility Score: inf
ROOT
ATOM      1  C   UNL     1      27.686  41.245  32.795  1.00  0.00     0.000 C 
ENDROOT
BRANCH   1   2
ATOM      2  C   UNL     1      26.948  41.738  34.053  1.00  0.00     0.000 C 
BRANCH   2   3
ATOM      3  C   UNL     1      27.693  42.875  34.775  1.00  0.00     0.000 C 
BRANCH   3   4
ATOM      4  C   UNL     1      26.744  43.791  35.565  1.00  0.00     0.000 C 
BRANCH   4   5
ATOM      5  C   UNL     1      25.398  43.115  35.880  1.00  0.00     0.000 C 
BRANCH   5   6
ATOM      6  C   UNL     1      24.254  44.129  36.048  1.00  0.00     0.006 C 
BRANCH   6   7
ATOM      7  C   UNL     1      23.024  43.779  35.199  1.00  0.00     0.053 C 
BRANCH   7   8
ATOM      8  C   UNL     1      21.889  44.699  35.524  1.00  0.00     0.041 C 
ATOM      9  O   UNL     1      21.530  44.864  36.719  1.00  0.00    -0.550 OA
ATOM     10  O   UNL     1      21.195  45.334  34.503  1.00  0.00    -0.550 OA
ENDBRANCH   7   8
ENDBRANCH   6   7
ENDBRANCH   5   6
ENDBRANCH   4   5
ENDBRANCH   3   4
ENDBRANCH   2   3
ENDBRANCH   1   2
BRANCH   1  11
ATOM     11  C   UNL     1      28.119  39.766  32.824  1.00  0.00     0.000 C 
BRANCH  11  12
ATOM     12  C   UNL     1      27.283  38.861  33.748  1.00  0.00    -0.000 C 
BRANCH  12  13
ATOM     13  C   UNL     1      27.516  37.364  33.485  1.00  0.00    -0.000 C 
BRANCH  13  14
ATOM     14  C   UNL     1      27.113  36.950  32.055  1.00  0.00    -0.000 C 
BRANCH  14  15
ATOM     15  C   UNL     1      27.462  35.491  31.700  1.00  0.00    -0.000 C 
BRANCH  15  16
ATOM     16  C   UNL     1      27.020  35.061  30.287  1.00  0.00    -0.000 C 
BRANCH  16  17
ATOM     17  C   UNL     1      26.653  33.572  30.215  1.00  0.00    -0.003 C 
ATOM     18  C   UNL     1      25.176  33.385  29.878  1.00  0.00     0.004 C 
ENDBRANCH  16  17
ENDBRANCH  15  16
ENDBRANCH  14  15
ENDBRANCH  13  14
ENDBRANCH  12  13
ENDBRANCH  11  12
ENDBRANCH   1  11
TORSDOF 14
ENDMDL
MODEL 3
REMARK VINA RESULT:    -5.276      4.293      9.338
REMARK INTER + INTRA:         -10.283
REMARK INTER:                  -9.554
REMARK INTRA:                  -0.728
REMARK UNBOUND:                -0.688
REMARK SMILES CCCCCCCCCCCCCCCC(=O)[O-]
REMARK SMILES IDX 9 1 10 2 11 3 12 4 13 5 14 6 15 7 16 8 17 9 18 10 8 11 7 12
REMARK SMILES IDX 6 13 5 14 4 15 3 16 2 17 1 18
REMARK H PARENT
REMARK Flexibility Score: inf
ROOT
ATOM      1  C   UNL     1      27.703  40.954  33.652  1.00  0.00     0.000 C 
ENDROOT
BRANCH   1   2
ATOM      2  C   UNL     1      27.903  40.468  32.205  1.00  0.00     0.000 C 
BRANCH   2   3
ATOM      3  C   UNL     1      27.947  38.934  32.091  1.00  0.00     0.000 C 
BRANCH   3   4
ATOM      4  C   UNL     1      27.536  38.236  33.398  1.00  0.00     0.000 C 
BRANCH   4   5
ATOM      5  C   UNL     1      27.365  36.716  33.226  1.00  0.00     0.000 C 
BRANCH   5   6
ATOM      6  C   UNL     1      27.710  36.241  31.805  1.00  0.00     0.006 C 
BRANCH   6   7
ATOM      7  C   UNL     1      26.495  35.673  31.060  1.00  0.00     0.053 C 
BRANCH   7   8
ATOM      8  C   UNL     1      26.763  34.267  30.622  1.00  0.00     0.041 C 
ATOM      9  O   UNL     1      25.813  33.524  30.260  1.00  0.00    -0.550 OA
ATOM     10  O   UNL     1      28.056  33.761  30.660  1.00  0.00    -0.550 OA
ENDBRANCH   7   8
ENDBRANCH   6   7
ENDBRANCH   5   6
ENDBRANCH   4   5
ENDBRANCH   3   4
ENDBRANCH   2   3
ENDBRANCH   1   2
BRANCH   1  11
ATOM     11  C   UNL     1      27.316  42.439  33.800  1.00  0.00     0.000 C 
BRANCH  11  12
ATOM     12  C   UNL     1      27.504  43.023  35.212  1.00  0.00    -0.000 C 
BRANCH  12  13
ATOM     13  C   UNL     1      26.176  43.440  35.865  1.00  0.00    -0.000 C 
BRANCH  13  14
ATOM     14  C   UNL     1      25.013  42.502  35.481  1.00  0.00    -0.000 C 
BRANCH  14  15
ATOM     15  C   UNL     1      23.667  43.223  35.268  1.00  0.00    -0.000 C 
BRANCH  15  16
ATOM     16  C   UNL     1      23.508  44.520  36.085  1.00  0.00    -0.000 C 
BRANCH  16  17
ATOM     17  C   UNL     1      22.037  44.905  36.297  1.00  0.00    -0.003 C 
ATOM     18  C   UNL     1      21.301  45.019  34.965  1.00  0.00     0.004 C 
ENDBRANCH  16  17
ENDBRANCH  15  16
ENDBRANCH  14  15
ENDBRANCH  13  14
ENDBRANCH  12  13
ENDBRANCH  11  12
ENDBRANCH   1  11
TORSDOF 14
ENDMDL
MODEL 4
REMARK VINA RESULT:    -5.161      1.411      2.663
REMARK INTER + INTRA:         -10.073
REMARK INTER:                  -9.393
REMARK INTRA:                  -0.680
REMARK UNBOUND:                -0.688
REMARK SMILES CCCCCCCCCCCCCCCC(=O)[O-]
REMARK SMILES IDX 9 1 10 2 11 3 12 4 13 5 14 6 15 7 16 8 17 9 18 10 8 11 7 12
REMARK SMILES IDX 6 13 5 14 4 15 3 16 2 17 1 18
REMARK H PARENT
REMARK Flexibility Score: inf
ROOT
ATOM      1  C   UNL     1      28.213  36.094  30.868  1.00  0.00     0.000 C 
ENDROOT
BRANCH   1   2
ATOM      2  C   UNL     1      27.323  36.644  31.998  1.00  0.00     0.000 C 
BRANCH   2   3
ATOM      3  C   UNL     1      27.511  38.154  32.222  1.00  0.00     0.000 C 
BRANCH   3   4
ATOM      4  C   UNL     1      27.412  38.545  33.706  1.00  0.00     0.000 C 
BRANCH   4   5
ATOM      5  C   UNL     1      28.173  39.844  34.026  1.00  0.00     0.000 C 
BRANCH   5   6
ATOM      6  C   UNL     1      27.414  41.100  33.572  1.00  0.00     0.006 C 
BRANCH   6   7
ATOM      7  C   UNL     1      27.472  42.234  34.604  1.00  0.00     0.053 C 
BRANCH   7   8
ATOM      8  C   UNL     1      26.115  42.479  35.186  1.00  0.00     0.041 C 
ATOM      9  O   UNL     1      25.266  41.550  35.230  1.00  0.00    -0.550 OA
ATOM     10  O   UNL     1      25.769  43.748  35.633  1.00  0.00    -0.550 OA
ENDBRANCH   7   8
ENDBRANCH   6   7
ENDBRANCH   5   6
ENDBRANCH   4   5
ENDBRANCH   3   4
ENDBRANCH   2   3
ENDBRANCH   1   2
BRANCH   1  11
ATOM     11  C   UNL     1      28.494  34.579  30.931  1.00  0.00     0.000 C 
BRANCH  11  12
ATOM     12  C   UNL     1      27.255  33.697  31.172  1.00  0.00    -0.000 C 
BRANCH  12  13
ATOM     13  C   UNL     1      26.480  33.392  29.879  1.00  0.00    -0.000 C 
BRANCH  13  14
ATOM     14  C   UNL     1      24.973  33.687  30.015  1.00  0.00    -0.000 C 
BRANCH  14  15
ATOM     15  C   UNL     1      24.067  32.701  29.250  1.00  0.00    -0.000 C 
BRANCH  15  16
ATOM     16  C   UNL     1      24.814  31.821  28.228  1.00  0.00    -0.000 C 
BRANCH  16  17
ATOM     17  C   UNL     1      24.007  30.579  27.823  1.00  0.00    -0.003 C 
ATOM     18  C   UNL     1      23.528  29.810  29.050  1.00  0.00     0.004 C 
ENDBRANCH  16  17
ENDBRANCH  15  16
ENDBRANCH  14  15
ENDBRANCH  13  14
ENDBRANCH  12  13
ENDBRANCH  11  12
ENDBRANCH   1  11
TORSDOF 14
ENDMDL
MODEL 5
REMARK VINA RESULT:    -5.118      4.323      9.714
REMARK INTER + INTRA:          -9.995
REMARK INTER:                  -9.321
REMARK INTRA:                  -0.674
REMARK UNBOUND:                -0.688
REMARK SMILES CCCCCCCCCCCCCCCC(=O)[O-]
REMARK SMILES IDX 9 1 10 2 11 3 12 4 13 5 14 6 15 7 16 8 17 9 18 10 8 11 7 12
REMARK SMILES IDX 6 13 5 14 4 15 3 16 2 17 1 18
REMARK H PARENT
REMARK Flexibility Score: inf
ROOT
ATOM      1  C   UNL     1      25.636  42.908  35.457  1.00  0.00     0.000 C 
ENDROOT
BRANCH   1   2
ATOM      2  C   UNL     1      26.994  43.585  35.195  1.00  0.00     0.000 C 
BRANCH   2   3
ATOM      3  C   UNL     1      27.900  42.763  34.262  1.00  0.00     0.000 C 
BRANCH   3   4
ATOM      4  C   UNL     1      27.174  41.551  33.656  1.00  0.00     0.000 C 
BRANCH   4   5
ATOM      5  C   UNL     1      27.904  40.981  32.425  1.00  0.00     0.000 C 
BRANCH   5   6
ATOM      6  C   UNL     1      27.914  39.444  32.406  1.00  0.00     0.006 C 
BRANCH   6   7
ATOM      7  C   UNL     1      27.555  38.832  33.766  1.00  0.00     0.053 C 
BRANCH   7   8
ATOM      8  C   UNL     1      27.428  37.346  33.652  1.00  0.00     0.041 C 
ATOM      9  O   UNL     1      27.585  36.780  32.539  1.00  0.00    -0.550 OA
ATOM     10  O   UNL     1      27.089  36.589  34.767  1.00  0.00    -0.550 OA
ENDBRANCH   7   8
ENDBRANCH   6   7
ENDBRANCH   5   6
ENDBRANCH   4   5
ENDBRANCH   3   4
ENDBRANCH   2   3
ENDBRANCH   1   2
BRANCH   1  11
ATOM     11  C   UNL     1      24.598  43.779  36.193  1.00  0.00     0.000 C 
BRANCH  11  12
ATOM     12  C   UNL     1      23.250  43.936  35.468  1.00  0.00    -0.000 C 
BRANCH  12  13
ATOM     13  C   UNL     1      22.389  45.070  36.050  1.00  0.00    -0.000 C 
BRANCH  13  14
ATOM     14  C   UNL     1      20.894  44.907  35.709  1.00  0.00    -0.000 C 
BRANCH  14  15
ATOM     15  C   UNL     1      20.239  46.175  35.127  1.00  0.00    -0.000 C 
BRANCH  15  16
ATOM     16  C   UNL     1      20.852  46.649  33.795  1.00  0.00    -0.000 C 
BRANCH  16  17
ATOM     17  C   UNL     1      19.973  46.297  32.585  1.00  0.00    -0.003 C 
ATOM     18  C   UNL     1      18.557  45.936  33.021  1.00  0.00     0.004 C 
ENDBRANCH  16  17
ENDBRANCH  15  16
ENDBRANCH  14  15
ENDBRANCH  13  14
ENDBRANCH  12  13
ENDBRANCH  11  12
ENDBRANCH   1  11
TORSDOF 14
ENDMDL
MODEL 6
REMARK VINA RESULT:    -5.052      2.801      5.359
REMARK INTER + INTRA:          -9.875
REMARK INTER:                  -9.092
REMARK INTRA:                  -0.783
REMARK UNBOUND:                -0.688
REMARK SMILES CCCCCCCCCCCCCCCC(=O)[O-]
REMARK SMILES IDX 9 1 10 2 11 3 12 4 13 5 14 6 15 7 16 8 17 9 18 10 8 11 7 12
REMARK SMILES IDX 6 13 5 14 4 15 3 16 2 17 1 18
REMARK H PARENT
REMARK Flexibility Score: inf
ROOT
ATOM      1  C   UNL     1      26.488  42.447  34.903  1.00  0.00     0.000 C 
ENDROOT
BRANCH   1   2
ATOM      2  C   UNL     1      25.173  41.684  35.143  1.00  0.00     0.000 C 
BRANCH   2   3
ATOM      3  C   UNL     1      23.943  42.608  35.170  1.00  0.00     0.000 C 
BRANCH   3   4
ATOM      4  C   UNL     1      24.230  43.949  35.863  1.00  0.00     0.000 C 
BRANCH   4   5
ATOM      5  C   UNL     1      22.949  44.760  36.133  1.00  0.00     0.000 C 
BRANCH   5   6
ATOM      6  C   UNL     1      21.905  44.600  35.017  1.00  0.00     0.006 C 
BRANCH   6   7
ATOM      7  C   UNL     1      20.821  45.686  35.060  1.00  0.00     0.053 C 
BRANCH   7   8
ATOM      8  C   UNL     1      20.409  46.066  33.673  1.00  0.00     0.041 C 
ATOM      9  O   UNL     1      20.842  47.127  33.151  1.00  0.00    -0.550 OA
ATOM     10  O   UNL     1      19.506  45.275  32.974  1.00  0.00    -0.550 OA
ENDBRANCH   7   8
ENDBRANCH   6   7
ENDBRANCH   5   6
ENDBRANCH   4   5
ENDBRANCH   3   4
ENDBRANCH   2   3
ENDBRANCH   1   2
BRANCH   1  11
ATOM     11  C   UNL     1      27.658  41.593  34.376  1.00  0.00     0.000 C 
BRANCH  11  12
ATOM     12  C   UNL     1      27.588  41.249  32.877  1.00  0.00    -0.000 C 
BRANCH  12  13
ATOM     13  C   UNL     1      27.985  39.793  32.580  1.00  0.00    -0.000 C 
BRANCH  13  14
ATOM     14  C   UNL     1      27.567  38.830  33.710  1.00  0.00    -0.000 C 
BRANCH  14  15
ATOM     15  C   UNL     1      27.509  37.350  33.286  1.00  0.00    -0.000 C 
BRANCH  15  16
ATOM     16  C   UNL     1      27.515  37.129  31.760  1.00  0.00    -0.000 C 
BRANCH  16  17
ATOM     17  C   UNL     1      27.569  35.641  31.382  1.00  0.00    -0.003 C 
ATOM     18  C   UNL     1      28.504  34.872  32.309  1.00  0.00     0.004 C 
ENDBRANCH  16  17
ENDBRANCH  15  16
ENDBRANCH  14  15
ENDBRANCH  13  14
ENDBRANCH  12  13
ENDBRANCH  11  12
ENDBRANCH   1  11
TORSDOF 14
ENDMDL
MODEL 7
REMARK VINA RESULT:    -4.883      3.288      6.510
REMARK INTER + INTRA:          -9.568
REMARK INTER:                  -8.726
REMARK INTRA:                  -0.842
REMARK UNBOUND:                -0.688
REMARK SMILES CCCCCCCCCCCCCCCC(=O)[O-]
REMARK SMILES IDX 9 1 10 2 11 3 12 4 13 5 14 6 15 7 16 8 17 9 18 10 8 11 7 12
REMARK SMILES IDX 6 13 5 14 4 15 3 16 2 17 1 18
REMARK H PARENT
REMARK Flexibility Score: inf
ROOT
ATOM      1  C   UNL     1      25.117  33.642  29.930  1.00  0.00     0.000 C 
ENDROOT
BRANCH   1   2
ATOM      2  C   UNL     1      26.516  33.701  30.569  1.00  0.00     0.000 C 
BRANCH   2   3
ATOM      3  C   UNL     1      27.460  34.679  29.848  1.00  0.00     0.000 C 
BRANCH   3   4
ATOM      4  C   UNL     1      28.364  35.450  30.823  1.00  0.00     0.000 C 
BRANCH   4   5
ATOM      5  C   UNL     1      27.938  35.271  32.291  1.00  0.00     0.000 C 
BRANCH   5   6
ATOM      6  C   UNL     1      27.534  36.598  32.954  1.00  0.00     0.006 C 
BRANCH   6   7
ATOM      7  C   UNL     1      27.486  37.765  31.960  1.00  0.00     0.053 C 
BRANCH   7   8
ATOM      8  C   UNL     1      27.901  39.038  32.630  1.00  0.00     0.041 C 
ATOM      9  O   UNL     1      28.170  40.057  31.943  1.00  0.00    -0.550 OA
ATOM     10  O   UNL     1      28.038  39.084  34.012  1.00  0.00    -0.550 OA
ENDBRANCH   7   8
ENDBRANCH   6   7
ENDBRANCH   5   6
ENDBRANCH   4   5
ENDBRANCH   3   4
ENDBRANCH   2   3
ENDBRANCH   1   2
BRANCH   1  11
ATOM     11  C   UNL     1      24.832  32.383  29.086  1.00  0.00     0.000 C 
BRANCH  11  12
ATOM     12  C   UNL     1      23.346  32.141  28.761  1.00  0.00    -0.000 C 
BRANCH  12  13
ATOM     13  C   UNL     1      22.781  30.892  29.458  1.00  0.00    -0.000 C 
BRANCH  13  14
ATOM     14  C   UNL     1      21.417  31.160  30.126  1.00  0.00    -0.000 C 
BRANCH  14  15
ATOM     15  C   UNL     1      20.270  30.280  29.591  1.00  0.00    -0.000 C 
BRANCH  15  16
ATOM     16  C   UNL     1      19.238  31.038  28.733  1.00  0.00    -0.000 C 
BRANCH  16  17
ATOM     17  C   UNL     1      19.632  32.504  28.500  1.00  0.00    -0.003 C 
ATOM     18  C   UNL     1      19.273  32.952  27.087  1.00  0.00     0.004 C 
ENDBRANCH  16  17
ENDBRANCH  15  16
ENDBRANCH  14  15
ENDBRANCH  13  14
ENDBRANCH  12  13
ENDBRANCH  11  12
ENDBRANCH   1  11
TORSDOF 14
ENDMDL
MODEL 8
REMARK VINA RESULT:    -4.871      4.120      7.870
REMARK INTER + INTRA:          -9.545
REMARK INTER:                  -8.843
REMARK INTRA:                  -0.703
REMARK UNBOUND:                -0.688
REMARK SMILES CCCCCCCCCCCCCCCC(=O)[O-]
REMARK SMILES IDX 9 1 10 2 11 3 12 4 13 5 14 6 15 7 16 8 17 9 18 10 8 11 7 12
REMARK SMILES IDX 6 13 5 14 4 15 3 16 2 17 1 18
REMARK H PARENT
REMARK Flexibility Score: inf
ROOT
ATOM      1  C   UNL     1      23.375  43.576  35.381  1.00  0.00     0.000 C 
ENDROOT
BRANCH   1   2
ATOM      2  C   UNL     1      23.321  44.846  36.249  1.00  0.00     0.000 C 
BRANCH   2   3
ATOM      3  C   UNL     1      21.912  45.461  36.319  1.00  0.00     0.000 C 
BRANCH   3   4
ATOM      4  C   UNL     1      21.021  45.023  35.146  1.00  0.00     0.000 C 
BRANCH   4   5
ATOM      5  C   UNL     1      20.794  46.150  34.123  1.00  0.00     0.000 C 
BRANCH   5   6
ATOM      6  C   UNL     1      19.777  45.766  33.037  1.00  0.00     0.006 C 
BRANCH   6   7
ATOM      7  C   UNL     1      18.324  45.963  33.489  1.00  0.00     0.053 C 
BRANCH   7   8
ATOM      8  C   UNL     1      17.615  44.647  33.555  1.00  0.00     0.041 C 
ATOM      9  O   UNL     1      17.717  43.923  34.580  1.00  0.00    -0.550 OA
ATOM     10  O   UNL     1      16.882  44.196  32.465  1.00  0.00    -0.550 OA
ENDBRANCH   7   8
ENDBRANCH   6   7
ENDBRANCH   5   6
ENDBRANCH   4   5
ENDBRANCH   3   4
ENDBRANCH   2   3
ENDBRANCH   1   2
BRANCH   1  11
ATOM     11  C   UNL     1      24.626  42.696  35.580  1.00  0.00     0.000 C 
BRANCH  11  12
ATOM     12  C   UNL     1      25.939  43.471  35.797  1.00  0.00    -0.000 C 
BRANCH  12  13
ATOM     13  C   UNL     1      27.117  42.878  35.007  1.00  0.00    -0.000 C 
BRANCH  13  14
ATOM     14  C   UNL     1      26.748  41.554  34.308  1.00  0.00    -0.000 C 
BRANCH  14  15
ATOM     15  C   UNL     1      27.962  40.685  33.924  1.00  0.00    -0.000 C 
BRANCH  15  16
ATOM     16  C   UNL     1      27.636  39.189  33.743  1.00  0.00    -0.000 C 
BRANCH  16  17
ATOM     17  C   UNL     1      27.738  38.738  32.279  1.00  0.00    -0.003 C 
ATOM     18  C   UNL     1      27.136  37.350  32.087  1.00  0.00     0.004 C 
ENDBRANCH  16  17
ENDBRANCH  15  16
ENDBRANCH  14  15
ENDBRANCH  13  14
ENDBRANCH  12  13
ENDBRANCH  11  12
ENDBRANCH   1  11
TORSDOF 14
ENDMDL
MODEL 9
REMARK VINA RESULT:    -4.800      5.184      8.789
REMARK INTER + INTRA:          -9.416
REMARK INTER:                  -8.231
REMARK INTRA:                  -1.185
REMARK UNBOUND:                -0.688
REMARK SMILES CCCCCCCCCCCCCCCC(=O)[O-]
REMARK SMILES IDX 9 1 10 2 11 3 12 4 13 5 14 6 15 7 16 8 17 9 18 10 8 11 7 12
REMARK SMILES IDX 6 13 5 14 4 15 3 16 2 17 1 18
REMARK H PARENT
REMARK Flexibility Score: inf
ROOT
ATOM      1  C   UNL     1      22.464  31.947  29.361  1.00  0.00     0.000 C 
ENDROOT
BRANCH   1   2
ATOM      2  C   UNL     1      23.540  32.116  28.273  1.00  0.00     0.000 C 
BRANCH   2   3
ATOM      3  C   UNL     1      24.951  32.310  28.855  1.00  0.00     0.000 C 
BRANCH   3   4
ATOM      4  C   UNL     1      24.999  33.414  29.925  1.00  0.00     0.000 C 
BRANCH   4   5
ATOM      5  C   UNL     1      26.439  33.786  30.324  1.00  0.00     0.000 C 
BRANCH   5   6
ATOM      6  C   UNL     1      26.583  35.271  30.694  1.00  0.00     0.006 C 
BRANCH   6   7
ATOM      7  C   UNL     1      27.959  35.603  31.286  1.00  0.00     0.053 C 
BRANCH   7   8
ATOM      8  C   UNL     1      27.940  35.439  32.773  1.00  0.00     0.041 C 
ATOM      9  O   UNL     1      28.348  34.370  33.298  1.00  0.00    -0.550 OA
ATOM     10  O   UNL     1      27.424  36.448  33.577  1.00  0.00    -0.550 OA
ENDBRANCH   7   8
ENDBRANCH   6   7
ENDBRANCH   5   6
ENDBRANCH   4   5
ENDBRANCH   3   4
ENDBRANCH   2   3
ENDBRANCH   1   2
BRANCH   1  11
ATOM     11  C   UNL     1      21.977  30.501  29.584  1.00  0.00     0.000 C 
BRANCH  11  12
ATOM     12  C   UNL     1      20.875  30.342  30.649  1.00  0.00    -0.000 C 
BRANCH  12  13
ATOM     13  C   UNL     1      19.647  29.580  30.125  1.00  0.00    -0.000 C 
BRANCH  13  14
ATOM     14  C   UNL     1      19.347  29.896  28.646  1.00  0.00    -0.000 C 
BRANCH  14  15
ATOM     15  C   UNL     1      18.287  30.996  28.439  1.00  0.00    -0.000 C 
BRANCH  15  16
ATOM     16  C   UNL     1      18.865  32.423  28.358  1.00  0.00    -0.000 C 
BRANCH  16  17
ATOM     17  C   UNL     1      18.963  32.936  26.914  1.00  0.00    -0.003 C 
ATOM     18  C   UNL     1      20.399  32.872  26.403  1.00  0.00     0.004 C 
ENDBRANCH  16  17
ENDBRANCH  15  16
ENDBRANCH  14  15
ENDBRANCH  13  14
ENDBRANCH  12  13
ENDBRANCH  11  12
ENDBRANCH   1  11
TORSDOF 14
ENDMDL
