MODEL 1
REMARK VINA RESULT:    31.260      0.000      0.000
REMARK INTER + INTRA:          36.425
REMARK INTER:                  36.743
REMARK INTRA:                  -0.318
REMARK UNBOUND:                -0.318
REMARK SMILES O=c1cc(-c2ccc(O)c(O)c2)oc2cc(O)cc(O)c12
REMARK SMILES IDX 4 1 3 2 2 3 1 4 21 5 19 6 18 7 16 8 15 9 14 10 13 11 5 12
REMARK SMILES IDX 6 13 7 14 8 15 12 16 10 17 9 18 11 20 20 22 17 24
REMARK H PARENT 9 19 11 21 20 23 17 25
REMARK Flexibility Score: inf
ROOT
ATOM      1  C   UNL     1      11.592  12.722  29.175  1.00  0.00     0.138 A 
ATOM      2  C   UNL     1      12.941  13.086  29.290  1.00  0.00     0.100 A 
ATOM      3  C   UNL     1      13.526  13.885  28.306  1.00  0.00     0.197 A 
ATOM      4  O   UNL     1      14.753  14.144  28.403  1.00  0.00    -0.289 OA
ATOM      5  C   UNL     1      12.746  14.345  27.218  1.00  0.00     0.107 A 
ATOM      6  C   UNL     1      13.225  15.199  26.179  1.00  0.00     0.134 A 
ATOM      7  C   UNL     1      12.393  15.494  25.091  1.00  0.00     0.093 A 
ATOM      8  C   UNL     1      11.080  15.018  25.038  1.00  0.00     0.123 A 
ATOM      9  C   UNL     1      10.587  14.230  26.074  1.00  0.00     0.094 A 
ATOM     10  C   UNL     1      11.403  13.888  27.154  1.00  0.00     0.146 A 
ATOM     11  O   UNL     1      10.897  13.122  28.115  1.00  0.00    -0.456 OA
ENDROOT
BRANCH   1  12
ATOM     12  C   UNL     1      10.920  11.875  30.193  1.00  0.00     0.021 A 
ATOM     13  C   UNL     1      11.540  11.555  31.416  1.00  0.00     0.016 A 
ATOM     14  C   UNL     1      10.880  10.765  32.360  1.00  0.00     0.051 A 
ATOM     15  C   UNL     1       9.590  10.286  32.105  1.00  0.00     0.157 A 
ATOM     16  C   UNL     1       9.619  11.400  29.949  1.00  0.00     0.062 A 
ATOM     17  C   UNL     1       8.955  10.608  30.893  1.00  0.00     0.158 A 
BRANCH  15  18
ATOM     18  O   UNL     1       8.935   9.496  33.048  1.00  0.00    -0.504 OA
ATOM     19  H   UNL     1       9.425   9.102  33.842  1.00  0.00     0.293 HD
ENDBRANCH  15  18
BRANCH  17  20
ATOM     20  O   UNL     1       7.669  10.149  30.609  1.00  0.00    -0.504 OA
ATOM     21  H   UNL     1       6.841  10.661  30.888  1.00  0.00     0.293 HD
ENDBRANCH  17  20
ENDBRANCH   1  12
BRANCH   6  22
ATOM     22  O   UNL     1      14.489  15.795  26.179  1.00  0.00    -0.507 OA
ATOM     23  H   UNL     1      14.714  16.668  25.728  1.00  0.00     0.293 HD
ENDBRANCH   6  22
BRANCH   8  24
ATOM     24  O   UNL     1      10.255  15.331  23.959  1.00  0.00    -0.508 OA
ATOM     25  H   UNL     1       9.610  16.111  23.994  1.00  0.00     0.293 HD
ENDBRANCH   8  24
TORSDOF 5
ENDMDL
MODEL 2
REMARK VINA RESULT:    33.145      1.986      3.321
REMARK INTER + INTRA:          38.641
REMARK INTER:                  38.928
REMARK INTRA:                  -0.287
REMARK UNBOUND:                -0.318
REMARK SMILES O=c1cc(-c2ccc(O)c(O)c2)oc2cc(O)cc(O)c12
REMARK SMILES IDX 4 1 3 2 2 3 1 4 21 5 19 6 18 7 16 8 15 9 14 10 13 11 5 12
REMARK SMILES IDX 6 13 7 14 8 15 12 16 10 17 9 18 11 20 20 22 17 24
REMARK H PARENT 9 19 11 21 20 23 17 25
REMARK Flexibility Score: inf
ROOT
ATOM      1  C   UNL     1      10.097  11.096  30.795  1.00  0.00     0.138 A 
ATOM      2  C   UNL     1      11.166  11.445  31.630  1.00  0.00     0.100 A 
ATOM      3  C   UNL     1      12.135  12.340  31.174  1.00  0.00     0.197 A 
ATOM      4  O   UNL     1      13.116  12.587  31.922  1.00  0.00    -0.289 OA
ATOM      5  C   UNL     1      12.014  12.910  29.884  1.00  0.00     0.107 A 
ATOM      6  C   UNL     1      12.919  13.865  29.329  1.00  0.00     0.134 A 
ATOM      7  C   UNL     1      12.762  14.271  27.998  1.00  0.00     0.093 A 
ATOM      8  C   UNL     1      11.697  13.804  27.222  1.00  0.00     0.123 A 
ATOM      9  C   UNL     1      10.778  12.914  27.772  1.00  0.00     0.094 A 
ATOM     10  C   UNL     1      10.927  12.463  29.086  1.00  0.00     0.146 A 
ATOM     11  O   UNL     1      10.036  11.603  29.567  1.00  0.00    -0.456 OA
ENDROOT
BRANCH   1  12
ATOM     12  C   UNL     1       9.039  10.150  31.230  1.00  0.00     0.021 A 
ATOM     13  C   UNL     1       7.749  10.171  30.666  1.00  0.00     0.016 A 
ATOM     14  C   UNL     1       6.776   9.262  31.086  1.00  0.00     0.051 A 
ATOM     15  C   UNL     1       7.072   8.312  32.071  1.00  0.00     0.157 A 
ATOM     16  C   UNL     1       9.332   9.183  32.209  1.00  0.00     0.062 A 
ATOM     17  C   UNL     1       8.359   8.272  32.633  1.00  0.00     0.158 A 
BRANCH  15  18
ATOM     18  O   UNL     1       6.098   7.408  32.489  1.00  0.00    -0.504 OA
ATOM     19  H   UNL     1       6.281   6.730  33.219  1.00  0.00     0.293 HD
ENDBRANCH  15  18
BRANCH  17  20
ATOM     20  O   UNL     1       8.688   7.336  33.613  1.00  0.00    -0.504 OA
ATOM     21  H   UNL     1       8.188   7.279  34.492  1.00  0.00     0.293 HD
ENDBRANCH  17  20
ENDBRANCH   1  12
BRANCH   6  22
ATOM     22  O   UNL     1      13.964  14.457  30.044  1.00  0.00    -0.507 OA
ATOM     23  H   UNL     1      14.681  15.039  29.641  1.00  0.00     0.293 HD
ENDBRANCH   6  22
BRANCH   8  24
ATOM     24  O   UNL     1      11.540  14.225  25.904  1.00  0.00    -0.508 OA
ATOM     25  H   UNL     1      11.868  13.666  25.126  1.00  0.00     0.293 HD
ENDBRANCH   8  24
TORSDOF 5
ENDMDL
MODEL 3
REMARK VINA RESULT:    33.681      3.089      3.990
REMARK INTER + INTRA:          39.270
REMARK INTER:                  39.557
REMARK INTRA:                  -0.287
REMARK UNBOUND:                -0.318
REMARK SMILES O=c1cc(-c2ccc(O)c(O)c2)oc2cc(O)cc(O)c12
REMARK SMILES IDX 4 1 3 2 2 3 1 4 21 5 19 6 18 7 16 8 15 9 14 10 13 11 5 12
REMARK SMILES IDX 6 13 7 14 8 15 12 16 10 17 9 18 11 20 20 22 17 24
REMARK H PARENT 9 19 11 21 20 23 17 25
REMARK Flexibility Score: inf
ROOT
ATOM      1  C   UNL     1      10.631  11.138  31.168  1.00  0.00     0.138 A 
ATOM      2  C   UNL     1      11.306  10.614  30.057  1.00  0.00     0.100 A 
ATOM      3  C   UNL     1      12.313  11.362  29.446  1.00  0.00     0.197 A 
ATOM      4  O   UNL     1      12.858  10.893  28.413  1.00  0.00    -0.289 OA
ATOM      5  C   UNL     1      12.665  12.629  29.970  1.00  0.00     0.107 A 
ATOM      6  C   UNL     1      13.703  13.462  29.455  1.00  0.00     0.134 A 
ATOM      7  C   UNL     1      13.884  14.746  29.983  1.00  0.00     0.093 A 
ATOM      8  C   UNL     1      13.104  15.202  31.050  1.00  0.00     0.123 A 
ATOM      9  C   UNL     1      12.125  14.377  31.595  1.00  0.00     0.094 A 
ATOM     10  C   UNL     1      11.897  13.104  31.067  1.00  0.00     0.146 A 
ATOM     11  O   UNL     1      10.943  12.353  31.607  1.00  0.00    -0.456 OA
ENDROOT
BRANCH   1  12
ATOM     12  C   UNL     1       9.552  10.385  31.857  1.00  0.00     0.021 A 
ATOM     13  C   UNL     1       9.236  10.616  33.209  1.00  0.00     0.016 A 
ATOM     14  C   UNL     1       8.208   9.901  33.829  1.00  0.00     0.051 A 
ATOM     15  C   UNL     1       7.475   8.949  33.111  1.00  0.00     0.157 A 
ATOM     16  C   UNL     1       8.802   9.436  31.139  1.00  0.00     0.062 A 
ATOM     17  C   UNL     1       7.773   8.718  31.758  1.00  0.00     0.158 A 
BRANCH  15  18
ATOM     18  O   UNL     1       6.452   8.236  33.734  1.00  0.00    -0.504 OA
ATOM     19  H   UNL     1       6.364   7.232  33.629  1.00  0.00     0.293 HD
ENDBRANCH  15  18
BRANCH  17  20
ATOM     20  O   UNL     1       7.060   7.778  31.013  1.00  0.00    -0.504 OA
ATOM     21  H   UNL     1       6.643   8.005  30.118  1.00  0.00     0.293 HD
ENDBRANCH  17  20
ENDBRANCH   1  12
BRANCH   6  22
ATOM     22  O   UNL     1      14.592  13.069  28.450  1.00  0.00    -0.507 OA
ATOM     23  H   UNL     1      14.527  13.345  27.483  1.00  0.00     0.293 HD
ENDBRANCH   6  22
BRANCH   8  24
ATOM     24  O   UNL     1      13.302  16.476  31.579  1.00  0.00    -0.508 OA
ATOM     25  H   UNL     1      13.218  16.656  32.573  1.00  0.00     0.293 HD
ENDBRANCH   8  24
TORSDOF 5
ENDMDL
MODEL 4
REMARK VINA RESULT:    33.802      2.640      4.251
REMARK INTER + INTRA:          39.413
REMARK INTER:                  39.701
REMARK INTRA:                  -0.289
REMARK UNBOUND:                -0.318
REMARK SMILES O=c1cc(-c2ccc(O)c(O)c2)oc2cc(O)cc(O)c12
REMARK SMILES IDX 4 1 3 2 2 3 1 4 21 5 19 6 18 7 16 8 15 9 14 10 13 11 5 12
REMARK SMILES IDX 6 13 7 14 8 15 12 16 10 17 9 18 11 20 20 22 17 24
REMARK H PARENT 9 19 11 21 20 23 17 25
REMARK Flexibility Score: inf
ROOT
ATOM      1  C   UNL     1      10.362  10.687  30.837  1.00  0.00     0.138 A 
ATOM      2  C   UNL     1       9.902  11.950  30.439  1.00  0.00     0.100 A 
ATOM      3  C   UNL     1      10.773  12.831  29.798  1.00  0.00     0.197 A 
ATOM      4  O   UNL     1      10.350  13.980  29.508  1.00  0.00    -0.289 OA
ATOM      5  C   UNL     1      12.105  12.433  29.528  1.00  0.00     0.107 A 
ATOM      6  C   UNL     1      13.069  13.232  28.843  1.00  0.00     0.134 A 
ATOM      7  C   UNL     1      14.390  12.778  28.736  1.00  0.00     0.093 A 
ATOM      8  C   UNL     1      14.764  11.528  29.235  1.00  0.00     0.123 A 
ATOM      9  C   UNL     1      13.818  10.717  29.856  1.00  0.00     0.094 A 
ATOM     10  C   UNL     1      12.501  11.156  30.009  1.00  0.00     0.146 A 
ATOM     11  O   UNL     1      11.632  10.358  30.621  1.00  0.00    -0.456 OA
ENDROOT
BRANCH   1  12
ATOM     12  C   UNL     1       9.478   9.711  31.522  1.00  0.00     0.021 A 
ATOM     13  C   UNL     1       9.764   8.332  31.529  1.00  0.00     0.016 A 
ATOM     14  C   UNL     1       8.920   7.437  32.191  1.00  0.00     0.051 A 
ATOM     15  C   UNL     1       7.783   7.899  32.863  1.00  0.00     0.157 A 
ATOM     16  C   UNL     1       8.341  10.169  32.211  1.00  0.00     0.062 A 
ATOM     17  C   UNL     1       7.494   9.274  32.874  1.00  0.00     0.158 A 
BRANCH  15  18
ATOM     18  O   UNL     1       6.943   7.003  33.520  1.00  0.00    -0.504 OA
ATOM     19  H   UNL     1       7.281   6.109  33.858  1.00  0.00     0.293 HD
ENDBRANCH  15  18
BRANCH  17  20
ATOM     20  O   UNL     1       6.371   9.769  33.537  1.00  0.00    -0.504 OA
ATOM     21  H   UNL     1       6.372   9.955  34.532  1.00  0.00     0.293 HD
ENDBRANCH  17  20
ENDBRANCH   1  12
BRANCH   6  22
ATOM     22  O   UNL     1      12.778  14.456  28.235  1.00  0.00    -0.507 OA
ATOM     23  H   UNL     1      13.436  15.010  27.710  1.00  0.00     0.293 HD
ENDBRANCH   6  22
BRANCH   8  24
ATOM     24  O   UNL     1      16.078  11.078  29.110  1.00  0.00    -0.508 OA
ATOM     25  H   UNL     1      16.836  11.508  29.625  1.00  0.00     0.293 HD
ENDBRANCH   8  24
TORSDOF 5
ENDMDL
