MODEL 1
REMARK VINA RESULT:    -7.044      0.000      0.000
REMARK INTER + INTRA:          -8.567
REMARK INTER:                  -8.279
REMARK INTRA:                  -0.287
REMARK UNBOUND:                -0.287
REMARK SMILES O=c1cc(-c2ccc(O)c(O)c2)oc2cc(O)cc(O)c12
REMARK SMILES IDX 4 1 3 2 2 3 1 4 21 5 19 6 18 7 16 8 15 9 14 10 13 11 5 12
REMARK SMILES IDX 6 13 7 14 8 15 12 16 10 17 9 18 11 20 20 22 17 24
REMARK H PARENT 9 19 11 21 20 23 17 25
REMARK Flexibility Score: inf
ROOT
ATOM      1  C   UNL     1      13.276   9.930  12.984  1.00  0.00     0.138 A 
ATOM      2  C   UNL     1      13.281  10.552  14.243  1.00  0.00     0.100 A 
ATOM      3  C   UNL     1      12.076  10.725  14.928  1.00  0.00     0.197 A 
ATOM      4  O   UNL     1      12.090  11.286  16.056  1.00  0.00    -0.289 OA
ATOM      5  C   UNL     1      10.874  10.277  14.345  1.00  0.00     0.107 A 
ATOM      6  C   UNL     1       9.612  10.412  14.970  1.00  0.00     0.134 A 
ATOM      7  C   UNL     1       8.460   9.944  14.321  1.00  0.00     0.093 A 
ATOM      8  C   UNL     1       8.548   9.345  13.058  1.00  0.00     0.123 A 
ATOM      9  C   UNL     1       9.791   9.210  12.437  1.00  0.00     0.094 A 
ATOM     10  C   UNL     1      10.951   9.669  13.069  1.00  0.00     0.146 A 
ATOM     11  O   UNL     1      12.122   9.527  12.457  1.00  0.00    -0.456 OA
ENDROOT
BRANCH   1  12
ATOM     12  C   UNL     1      14.526   9.720  12.209  1.00  0.00     0.021 A 
ATOM     13  C   UNL     1      14.635   8.604  11.363  1.00  0.00     0.016 A 
ATOM     14  C   UNL     1      15.803   8.381  10.629  1.00  0.00     0.051 A 
ATOM     15  C   UNL     1      16.884   9.259  10.736  1.00  0.00     0.157 A 
ATOM     16  C   UNL     1      15.623  10.596  12.324  1.00  0.00     0.062 A 
ATOM     17  C   UNL     1      16.797  10.371  11.589  1.00  0.00     0.158 A 
BRANCH  15  18
ATOM     18  O   UNL     1      18.036   9.011   9.989  1.00  0.00    -0.504 OA
ATOM     19  H   UNL     1      18.962   9.206  10.348  1.00  0.00     0.293 HD
ENDBRANCH  15  18
BRANCH  17  20
ATOM     20  O   UNL     1      17.876  11.246  11.708  1.00  0.00    -0.504 OA
ATOM     21  H   UNL     1      18.784  10.929  12.028  1.00  0.00     0.293 HD
ENDBRANCH  17  20
ENDBRANCH   1  12
BRANCH   6  22
ATOM     22  O   UNL     1       9.495  11.005  16.229  1.00  0.00    -0.507 OA
ATOM     23  H   UNL     1      10.259  10.995  16.895  1.00  0.00     0.293 HD
ENDBRANCH   6  22
BRANCH   8  24
ATOM     24  O   UNL     1       7.404   8.881  12.413  1.00  0.00    -0.508 OA
ATOM     25  H   UNL     1       6.476   9.098  12.757  1.00  0.00     0.293 HD
ENDBRANCH   8  24
TORSDOF 5
ENDMDL
MODEL 2
REMARK VINA RESULT:    -7.026      1.586      7.024
REMARK INTER + INTRA:          -8.546
REMARK INTER:                  -8.282
REMARK INTRA:                  -0.264
REMARK UNBOUND:                -0.287
REMARK SMILES O=c1cc(-c2ccc(O)c(O)c2)oc2cc(O)cc(O)c12
REMARK SMILES IDX 4 1 3 2 2 3 1 4 21 5 19 6 18 7 16 8 15 9 14 10 13 11 5 12
REMARK SMILES IDX 6 13 7 14 8 15 12 16 10 17 9 18 11 20 20 22 17 24
REMARK H PARENT 9 19 11 21 20 23 17 25
REMARK Flexibility Score: inf
ROOT
ATOM      1  C   UNL     1      12.146  10.412  12.591  1.00  0.00     0.138 A 
ATOM      2  C   UNL     1      12.560  11.658  12.092  1.00  0.00     0.100 A 
ATOM      3  C   UNL     1      13.817  11.776  11.496  1.00  0.00     0.197 A 
ATOM      4  O   UNL     1      14.181  12.899  11.053  1.00  0.00    -0.289 OA
ATOM      5  C   UNL     1      14.653  10.645  11.406  1.00  0.00     0.107 A 
ATOM      6  C   UNL     1      15.939  10.677  10.818  1.00  0.00     0.134 A 
ATOM      7  C   UNL     1      16.712   9.508  10.772  1.00  0.00     0.093 A 
ATOM      8  C   UNL     1      16.224   8.310  11.305  1.00  0.00     0.123 A 
ATOM      9  C   UNL     1      14.955   8.274  11.888  1.00  0.00     0.094 A 
ATOM     10  C   UNL     1      14.169   9.428  11.942  1.00  0.00     0.146 A 
ATOM     11  O   UNL     1      12.964   9.366  12.500  1.00  0.00    -0.456 OA
ENDROOT
BRANCH   1  12
ATOM     12  C   UNL     1      10.821  10.228  13.236  1.00  0.00     0.021 A 
ATOM     13  C   UNL     1       9.861   9.409  12.620  1.00  0.00     0.016 A 
ATOM     14  C   UNL     1       8.604   9.225  13.203  1.00  0.00     0.051 A 
ATOM     15  C   UNL     1       8.281   9.863  14.403  1.00  0.00     0.157 A 
ATOM     16  C   UNL     1      10.487  10.880  14.440  1.00  0.00     0.062 A 
ATOM     17  C   UNL     1       9.225  10.697  15.024  1.00  0.00     0.158 A 
BRANCH  15  18
ATOM     18  O   UNL     1       7.020   9.659  14.962  1.00  0.00    -0.504 OA
ATOM     19  H   UNL     1       6.577  10.347  15.557  1.00  0.00     0.293 HD
ENDBRANCH  15  18
BRANCH  17  20
ATOM     20  O   UNL     1       8.905  11.345  16.217  1.00  0.00    -0.504 OA
ATOM     21  H   UNL     1       9.622  11.696  16.840  1.00  0.00     0.293 HD
ENDBRANCH  17  20
ENDBRANCH   1  12
BRANCH   6  22
ATOM     22  O   UNL     1      16.452  11.859  10.278  1.00  0.00    -0.507 OA
ATOM     23  H   UNL     1      15.867  12.672  10.123  1.00  0.00     0.293 HD
ENDBRANCH   6  22
BRANCH   8  24
ATOM     24  O   UNL     1      16.992   7.148  11.261  1.00  0.00    -0.508 OA
ATOM     25  H   UNL     1      16.902   6.481  10.503  1.00  0.00     0.293 HD
ENDBRANCH   8  24
TORSDOF 5
ENDMDL
MODEL 3
REMARK VINA RESULT:    -6.693      1.744      7.090
REMARK INTER + INTRA:          -8.154
REMARK INTER:                  -7.839
REMARK INTRA:                  -0.315
REMARK UNBOUND:                -0.287
REMARK SMILES O=c1cc(-c2ccc(O)c(O)c2)oc2cc(O)cc(O)c12
REMARK SMILES IDX 4 1 3 2 2 3 1 4 21 5 19 6 18 7 16 8 15 9 14 10 13 11 5 12
REMARK SMILES IDX 6 13 7 14 8 15 12 16 10 17 9 18 11 20 20 22 17 24
REMARK H PARENT 9 19 11 21 20 23 17 25
REMARK Flexibility Score: inf
ROOT
ATOM      1  C   UNL     1      13.416  10.078  12.949  1.00  0.00     0.138 A 
ATOM      2  C   UNL     1      14.109  11.065  12.228  1.00  0.00     0.100 A 
ATOM      3  C   UNL     1      15.210  10.700  11.451  1.00  0.00     0.197 A 
ATOM      4  O   UNL     1      15.828  11.592  10.809  1.00  0.00    -0.289 OA
ATOM      5  C   UNL     1      15.611   9.350  11.403  1.00  0.00     0.107 A 
ATOM      6  C   UNL     1      16.713   8.896  10.640  1.00  0.00     0.134 A 
ATOM      7  C   UNL     1      17.051   7.535  10.649  1.00  0.00     0.093 A 
ATOM      8  C   UNL     1      16.309   6.621  11.407  1.00  0.00     0.123 A 
ATOM      9  C   UNL     1      15.221   7.065  12.161  1.00  0.00     0.094 A 
ATOM     10  C   UNL     1      14.867   8.418  12.164  1.00  0.00     0.146 A 
ATOM     11  O   UNL     1      13.826   8.814  12.890  1.00  0.00    -0.456 OA
ENDROOT
BRANCH   1  12
ATOM     12  C   UNL     1      12.239  10.408  13.793  1.00  0.00     0.021 A 
ATOM     13  C   UNL     1      12.011  11.742  14.168  1.00  0.00     0.016 A 
ATOM     14  C   UNL     1      10.915  12.078  14.968  1.00  0.00     0.051 A 
ATOM     15  C   UNL     1      10.037  11.088  15.416  1.00  0.00     0.157 A 
ATOM     16  C   UNL     1      11.359   9.411  14.258  1.00  0.00     0.062 A 
ATOM     17  C   UNL     1      10.260   9.747  15.063  1.00  0.00     0.158 A 
BRANCH  15  18
ATOM     18  O   UNL     1       8.951  11.453  16.212  1.00  0.00    -0.504 OA
ATOM     19  H   UNL     1       8.366  12.249  15.992  1.00  0.00     0.293 HD
ENDBRANCH  15  18
BRANCH  17  20
ATOM     20  O   UNL     1       9.394   8.753  15.516  1.00  0.00    -0.504 OA
ATOM     21  H   UNL     1       9.246   7.898  14.993  1.00  0.00     0.293 HD
ENDBRANCH  17  20
ENDBRANCH   1  12
BRANCH   6  22
ATOM     22  O   UNL     1      17.471   9.785   9.875  1.00  0.00    -0.507 OA
ATOM     23  H   UNL     1      17.083  10.654   9.528  1.00  0.00     0.293 HD
ENDBRANCH   6  22
BRANCH   8  24
ATOM     24  O   UNL     1      16.645   5.269  11.416  1.00  0.00    -0.508 OA
ATOM     25  H   UNL     1      15.958   4.551  11.224  1.00  0.00     0.293 HD
ENDBRANCH   8  24
TORSDOF 5
ENDMDL
MODEL 4
REMARK VINA RESULT:    -6.390      1.149      2.694
REMARK INTER + INTRA:          -7.798
REMARK INTER:                  -7.485
REMARK INTRA:                  -0.313
REMARK UNBOUND:                -0.287
REMARK SMILES O=c1cc(-c2ccc(O)c(O)c2)oc2cc(O)cc(O)c12
REMARK SMILES IDX 4 1 3 2 2 3 1 4 21 5 19 6 18 7 16 8 15 9 14 10 13 11 5 12
REMARK SMILES IDX 6 13 7 14 8 15 12 16 10 17 9 18 11 20 20 22 17 24
REMARK H PARENT 9 19 11 21 20 23 17 25
REMARK Flexibility Score: inf
ROOT
ATOM      1  C   UNL     1      12.828   9.681  11.972  1.00  0.00     0.138 A 
ATOM      2  C   UNL     1      11.795   9.321  11.091  1.00  0.00     0.100 A 
ATOM      3  C   UNL     1      10.490   9.209  11.573  1.00  0.00     0.197 A 
ATOM      4  O   UNL     1       9.569   8.884  10.776  1.00  0.00    -0.289 OA
ATOM      5  C   UNL     1      10.228   9.455  12.936  1.00  0.00     0.107 A 
ATOM      6  C   UNL     1       8.936   9.366  13.505  1.00  0.00     0.134 A 
ATOM      7  C   UNL     1       8.759   9.622  14.872  1.00  0.00     0.093 A 
ATOM      8  C   UNL     1       9.850   9.964  15.680  1.00  0.00     0.123 A 
ATOM      9  C   UNL     1      11.127  10.053  15.123  1.00  0.00     0.094 A 
ATOM     10  C   UNL     1      11.324   9.803  13.761  1.00  0.00     0.146 A 
ATOM     11  O   UNL     1      12.549   9.897  13.255  1.00  0.00    -0.456 OA
ENDROOT
BRANCH   1  12
ATOM     12  C   UNL     1      14.235   9.813  11.516  1.00  0.00     0.021 A 
ATOM     13  C   UNL     1      14.636   9.187  10.323  1.00  0.00     0.016 A 
ATOM     14  C   UNL     1      15.956   9.291   9.876  1.00  0.00     0.051 A 
ATOM     15  C   UNL     1      16.899  10.009  10.615  1.00  0.00     0.157 A 
ATOM     16  C   UNL     1      15.193  10.526  12.264  1.00  0.00     0.062 A 
ATOM     17  C   UNL     1      16.518  10.628  11.817  1.00  0.00     0.158 A 
BRANCH  15  18
ATOM     18  O   UNL     1      18.209  10.097  10.142  1.00  0.00    -0.504 OA
ATOM     19  H   UNL     1      18.713   9.288   9.801  1.00  0.00     0.293 HD
ENDBRANCH  15  18
BRANCH  17  20
ATOM     20  O   UNL     1      17.457  11.337  12.564  1.00  0.00    -0.504 OA
ATOM     21  H   UNL     1      17.496  12.349  12.547  1.00  0.00     0.293 HD
ENDBRANCH  17  20
ENDBRANCH   1  12
BRANCH   6  22
ATOM     22  O   UNL     1       7.830   9.026  12.724  1.00  0.00    -0.507 OA
ATOM     23  H   UNL     1       7.921   8.457  11.890  1.00  0.00     0.293 HD
ENDBRANCH   6  22
BRANCH   8  24
ATOM     24  O   UNL     1       9.675  10.217  17.039  1.00  0.00    -0.508 OA
ATOM     25  H   UNL     1       8.907  10.785  17.378  1.00  0.00     0.293 HD
ENDBRANCH   8  24
TORSDOF 5
ENDMDL
MODEL 5
REMARK VINA RESULT:    -6.309      3.862      7.541
REMARK INTER + INTRA:          -7.703
REMARK INTER:                  -7.387
REMARK INTRA:                  -0.316
REMARK UNBOUND:                -0.287
REMARK SMILES O=c1cc(-c2ccc(O)c(O)c2)oc2cc(O)cc(O)c12
REMARK SMILES IDX 4 1 3 2 2 3 1 4 21 5 19 6 18 7 16 8 15 9 14 10 13 11 5 12
REMARK SMILES IDX 6 13 7 14 8 15 12 16 10 17 9 18 11 20 20 22 17 24
REMARK H PARENT 9 19 11 21 20 23 17 25
REMARK Flexibility Score: inf
ROOT
ATOM      1  C   UNL     1      15.231   7.538  12.518  1.00  0.00     0.138 A 
ATOM      2  C   UNL     1      15.742   7.260  11.239  1.00  0.00     0.100 A 
ATOM      3  C   UNL     1      16.484   6.095  11.035  1.00  0.00     0.197 A 
ATOM      4  O   UNL     1      16.940   5.854   9.885  1.00  0.00    -0.289 OA
ATOM      5  C   UNL     1      16.713   5.217  12.114  1.00  0.00     0.107 A 
ATOM      6  C   UNL     1      17.452   4.017  11.992  1.00  0.00     0.134 A 
ATOM      7  C   UNL     1      17.640   3.199  13.116  1.00  0.00     0.093 A 
ATOM      8  C   UNL     1      17.103   3.561  14.358  1.00  0.00     0.123 A 
ATOM      9  C   UNL     1      16.373   4.745  14.482  1.00  0.00     0.094 A 
ATOM     10  C   UNL     1      16.174   5.573  13.373  1.00  0.00     0.146 A 
ATOM     11  O   UNL     1      15.474   6.693  13.518  1.00  0.00    -0.456 OA
ENDROOT
BRANCH   1  12
ATOM     12  C   UNL     1      14.437   8.761  12.795  1.00  0.00     0.021 A 
ATOM     13  C   UNL     1      13.965   9.535  11.722  1.00  0.00     0.016 A 
ATOM     14  C   UNL     1      13.221  10.695  11.955  1.00  0.00     0.051 A 
ATOM     15  C   UNL     1      12.946  11.108  13.261  1.00  0.00     0.157 A 
ATOM     16  C   UNL     1      14.168   9.189  14.110  1.00  0.00     0.062 A 
ATOM     17  C   UNL     1      13.424  10.354  14.346  1.00  0.00     0.158 A 
BRANCH  15  18
ATOM     18  O   UNL     1      12.199  12.269  13.464  1.00  0.00    -0.504 OA
ATOM     19  H   UNL     1      11.767  12.483  14.353  1.00  0.00     0.293 HD
ENDBRANCH  15  18
BRANCH  17  20
ATOM     20  O   UNL     1      13.162  10.766  15.651  1.00  0.00    -0.504 OA
ATOM     21  H   UNL     1      12.241  10.674  16.064  1.00  0.00     0.293 HD
ENDBRANCH  17  20
ENDBRANCH   1  12
BRANCH   6  22
ATOM     22  O   UNL     1      17.998   3.632  10.767  1.00  0.00    -0.507 OA
ATOM     23  H   UNL     1      18.793   3.005  10.711  1.00  0.00     0.293 HD
ENDBRANCH   6  22
BRANCH   8  24
ATOM     24  O   UNL     1      17.290   2.749  15.475  1.00  0.00    -0.508 OA
ATOM     25  H   UNL     1      16.700   2.831  16.294  1.00  0.00     0.293 HD
ENDBRANCH   8  24
TORSDOF 5
ENDMDL
MODEL 6
REMARK VINA RESULT:    -6.271      4.677      8.025
REMARK INTER + INTRA:          -7.658
REMARK INTER:                  -7.340
REMARK INTRA:                  -0.318
REMARK UNBOUND:                -0.287
REMARK SMILES O=c1cc(-c2ccc(O)c(O)c2)oc2cc(O)cc(O)c12
REMARK SMILES IDX 4 1 3 2 2 3 1 4 21 5 19 6 18 7 16 8 15 9 14 10 13 11 5 12
REMARK SMILES IDX 6 13 7 14 8 15 12 16 10 17 9 18 11 20 20 22 17 24
REMARK H PARENT 9 19 11 21 20 23 17 25
REMARK Flexibility Score: inf
ROOT
ATOM      1  C   UNL     1      15.591   6.476  12.581  1.00  0.00     0.138 A 
ATOM      2  C   UNL     1      15.822   6.007  11.276  1.00  0.00     0.100 A 
ATOM      3  C   UNL     1      16.418   4.759  11.091  1.00  0.00     0.197 A 
ATOM      4  O   UNL     1      16.623   4.348   9.917  1.00  0.00    -0.289 OA
ATOM      5  C   UNL     1      16.783   3.988  12.213  1.00  0.00     0.107 A 
ATOM      6  C   UNL     1      17.390   2.714  12.113  1.00  0.00     0.134 A 
ATOM      7  C   UNL     1      17.728   2.012  13.279  1.00  0.00     0.093 A 
ATOM      8  C   UNL     1      17.472   2.561  14.541  1.00  0.00     0.123 A 
ATOM      9  C   UNL     1      16.874   3.819  14.644  1.00  0.00     0.094 A 
ATOM     10  C   UNL     1      16.528   4.534  13.493  1.00  0.00     0.146 A 
ATOM     11  O   UNL     1      15.958   5.728  13.619  1.00  0.00    -0.456 OA
ENDROOT
BRANCH   1  12
ATOM     12  C   UNL     1      14.963   7.796  12.839  1.00  0.00     0.021 A 
ATOM     13  C   UNL     1      14.445   8.536  11.763  1.00  0.00     0.016 A 
ATOM     14  C   UNL     1      13.854   9.784  11.978  1.00  0.00     0.051 A 
ATOM     15  C   UNL     1      13.781  10.319  13.267  1.00  0.00     0.157 A 
ATOM     16  C   UNL     1      14.898   8.345  14.135  1.00  0.00     0.062 A 
ATOM     17  C   UNL     1      14.308   9.599  14.351  1.00  0.00     0.158 A 
BRANCH  15  18
ATOM     18  O   UNL     1      13.184  11.566  13.451  1.00  0.00    -0.504 OA
ATOM     19  H   UNL     1      12.804  11.855  14.344  1.00  0.00     0.293 HD
ENDBRANCH  15  18
BRANCH  17  20
ATOM     20  O   UNL     1      14.248  10.132  15.638  1.00  0.00    -0.504 OA
ATOM     21  H   UNL     1      13.463  10.696  15.944  1.00  0.00     0.293 HD
ENDBRANCH  17  20
ENDBRANCH   1  12
BRANCH   6  22
ATOM     22  O   UNL     1      17.658   2.142  10.868  1.00  0.00    -0.507 OA
ATOM     23  H   UNL     1      17.613   1.140  10.721  1.00  0.00     0.293 HD
ENDBRANCH   6  22
BRANCH   8  24
ATOM     24  O   UNL     1      17.809   1.864  15.700  1.00  0.00    -0.508 OA
ATOM     25  H   UNL     1      18.476   2.234  16.366  1.00  0.00     0.293 HD
ENDBRANCH   8  24
TORSDOF 5
ENDMDL
MODEL 7
REMARK VINA RESULT:    -6.156      3.218      4.821
REMARK INTER + INTRA:          -7.523
REMARK INTER:                  -7.209
REMARK INTRA:                  -0.314
REMARK UNBOUND:                -0.287
REMARK SMILES O=c1cc(-c2ccc(O)c(O)c2)oc2cc(O)cc(O)c12
REMARK SMILES IDX 4 1 3 2 2 3 1 4 21 5 19 6 18 7 16 8 15 9 14 10 13 11 5 12
REMARK SMILES IDX 6 13 7 14 8 15 12 16 10 17 9 18 11 20 20 22 17 24
REMARK H PARENT 9 19 11 21 20 23 17 25
REMARK Flexibility Score: inf
ROOT
ATOM      1  C   UNL     1      14.858   8.045  12.597  1.00  0.00     0.138 A 
ATOM      2  C   UNL     1      14.531   8.620  11.357  1.00  0.00     0.100 A 
ATOM      3  C   UNL     1      13.793   9.805  11.324  1.00  0.00     0.197 A 
ATOM      4  O   UNL     1      13.502  10.312  10.207  1.00  0.00    -0.289 OA
ATOM      5  C   UNL     1      13.386  10.405  12.532  1.00  0.00     0.107 A 
ATOM      6  C   UNL     1      12.638  11.605  12.587  1.00  0.00     0.134 A 
ATOM      7  C   UNL     1      12.266  12.136  13.831  1.00  0.00     0.093 A 
ATOM      8  C   UNL     1      12.627  11.489  15.018  1.00  0.00     0.123 A 
ATOM      9  C   UNL     1      13.365  10.304  14.968  1.00  0.00     0.094 A 
ATOM     10  C   UNL     1      13.746   9.760  13.738  1.00  0.00     0.146 A 
ATOM     11  O   UNL     1      14.449   8.632  13.719  1.00  0.00    -0.456 OA
ENDROOT
BRANCH   1  12
ATOM     12  C   UNL     1      15.639   6.785  12.693  1.00  0.00     0.021 A 
ATOM     13  C   UNL     1      16.367   6.337  11.579  1.00  0.00     0.016 A 
ATOM     14  C   UNL     1      17.104   5.151  11.642  1.00  0.00     0.051 A 
ATOM     15  C   UNL     1      17.117   4.388  12.812  1.00  0.00     0.157 A 
ATOM     16  C   UNL     1      15.644   6.006  13.867  1.00  0.00     0.062 A 
ATOM     17  C   UNL     1      16.382   4.815  13.930  1.00  0.00     0.158 A 
BRANCH  15  18
ATOM     18  O   UNL     1      17.863   3.210  12.846  1.00  0.00    -0.504 OA
ATOM     19  H   UNL     1      18.874   3.214  12.882  1.00  0.00     0.293 HD
ENDBRANCH  15  18
BRANCH  17  20
ATOM     20  O   UNL     1      16.382   4.052  15.097  1.00  0.00    -0.504 OA
ATOM     21  H   UNL     1      16.149   4.456  15.997  1.00  0.00     0.293 HD
ENDBRANCH  17  20
ENDBRANCH   1  12
BRANCH   6  22
ATOM     22  O   UNL     1      12.264  12.271  11.419  1.00  0.00    -0.507 OA
ATOM     23  H   UNL     1      12.473  13.253  11.275  1.00  0.00     0.293 HD
ENDBRANCH   6  22
BRANCH   8  24
ATOM     24  O   UNL     1      12.258  12.016  16.254  1.00  0.00    -0.508 OA
ATOM     25  H   UNL     1      11.493  11.624  16.791  1.00  0.00     0.293 HD
ENDBRANCH   8  24
TORSDOF 5
ENDMDL
MODEL 8
REMARK VINA RESULT:    -5.828      5.178      7.799
REMARK INTER + INTRA:          -7.137
REMARK INTER:                  -6.844
REMARK INTRA:                  -0.293
REMARK UNBOUND:                -0.287
REMARK SMILES O=c1cc(-c2ccc(O)c(O)c2)oc2cc(O)cc(O)c12
REMARK SMILES IDX 4 1 3 2 2 3 1 4 21 5 19 6 18 7 16 8 15 9 14 10 13 11 5 12
REMARK SMILES IDX 6 13 7 14 8 15 12 16 10 17 9 18 11 20 20 22 17 24
REMARK H PARENT 9 19 11 21 20 23 17 25
REMARK Flexibility Score: inf
ROOT
ATOM      1  C   UNL     1      15.740   5.920  13.138  1.00  0.00     0.138 A 
ATOM      2  C   UNL     1      16.239   5.460  14.368  1.00  0.00     0.100 A 
ATOM      3  C   UNL     1      16.693   4.144  14.475  1.00  0.00     0.197 A 
ATOM      4  O   UNL     1      17.138   3.739  15.583  1.00  0.00    -0.289 OA
ATOM      5  C   UNL     1      16.642   3.297  13.351  1.00  0.00     0.107 A 
ATOM      6  C   UNL     1      17.083   1.953  13.373  1.00  0.00     0.134 A 
ATOM      7  C   UNL     1      16.994   1.172  12.211  1.00  0.00     0.093 A 
ATOM      8  C   UNL     1      16.471   1.711  11.029  1.00  0.00     0.123 A 
ATOM      9  C   UNL     1      16.035   3.037  11.003  1.00  0.00     0.094 A 
ATOM     10  C   UNL     1      16.117   3.832  12.150  1.00  0.00     0.146 A 
ATOM     11  O   UNL     1      15.696   5.091  12.098  1.00  0.00    -0.456 OA
ENDROOT
BRANCH   1  12
ATOM     12  C   UNL     1      15.242   7.309  12.966  1.00  0.00     0.021 A 
ATOM     13  C   UNL     1      15.129   7.846  11.673  1.00  0.00     0.016 A 
ATOM     14  C   UNL     1      14.670   9.153  11.484  1.00  0.00     0.051 A 
ATOM     15  C   UNL     1      14.327   9.947  12.581  1.00  0.00     0.157 A 
ATOM     16  C   UNL     1      14.907   8.118  14.070  1.00  0.00     0.062 A 
ATOM     17  C   UNL     1      14.448   9.429  13.881  1.00  0.00     0.158 A 
BRANCH  15  18
ATOM     18  O   UNL     1      13.869  11.246  12.361  1.00  0.00    -0.504 OA
ATOM     19  H   UNL     1      14.153  11.788  11.555  1.00  0.00     0.293 HD
ENDBRANCH  15  18
BRANCH  17  20
ATOM     20  O   UNL     1      14.117  10.221  14.980  1.00  0.00    -0.504 OA
ATOM     21  H   UNL     1      13.434   9.920  15.665  1.00  0.00     0.293 HD
ENDBRANCH  17  20
ENDBRANCH   1  12
BRANCH   6  22
ATOM     22  O   UNL     1      17.608   1.389  14.537  1.00  0.00    -0.507 OA
ATOM     23  H   UNL     1      18.346   1.843  15.064  1.00  0.00     0.293 HD
ENDBRANCH   6  22
BRANCH   8  24
ATOM     24  O   UNL     1      16.382   0.936   9.875  1.00  0.00    -0.508 OA
ATOM     25  H   UNL     1      15.972   1.299   9.023  1.00  0.00     0.293 HD
ENDBRANCH   8  24
TORSDOF 5
ENDMDL
MODEL 9
REMARK VINA RESULT:    -5.798      4.259      6.513
REMARK INTER + INTRA:          -7.102
REMARK INTER:                  -6.787
REMARK INTRA:                  -0.316
REMARK UNBOUND:                -0.287
REMARK SMILES O=c1cc(-c2ccc(O)c(O)c2)oc2cc(O)cc(O)c12
REMARK SMILES IDX 4 1 3 2 2 3 1 4 21 5 19 6 18 7 16 8 15 9 14 10 13 11 5 12
REMARK SMILES IDX 6 13 7 14 8 15 12 16 10 17 9 18 11 20 20 22 17 24
REMARK H PARENT 9 19 11 21 20 23 17 25
REMARK Flexibility Score: inf
ROOT
ATOM      1  C   UNL     1      15.825   6.197  11.965  1.00  0.00     0.138 A 
ATOM      2  C   UNL     1      16.195   6.975  10.855  1.00  0.00     0.100 A 
ATOM      3  C   UNL     1      15.980   8.354  10.881  1.00  0.00     0.197 A 
ATOM      4  O   UNL     1      16.313   9.043   9.879  1.00  0.00    -0.289 OA
ATOM      5  C   UNL     1      15.393   8.946  12.017  1.00  0.00     0.107 A 
ATOM      6  C   UNL     1      15.142  10.334  12.125  1.00  0.00     0.134 A 
ATOM      7  C   UNL     1      14.550  10.845  13.289  1.00  0.00     0.093 A 
ATOM      8  C   UNL     1      14.203   9.993  14.345  1.00  0.00     0.123 A 
ATOM      9  C   UNL     1      14.448   8.623  14.242  1.00  0.00     0.094 A 
ATOM     10  C   UNL     1      15.039   8.094  13.090  1.00  0.00     0.146 A 
ATOM     11  O   UNL     1      15.264   6.786  13.019  1.00  0.00    -0.456 OA
ENDROOT
BRANCH   1  12
ATOM     12  C   UNL     1      16.028   4.727  11.994  1.00  0.00     0.021 A 
ATOM     13  C   UNL     1      16.303   4.044  10.797  1.00  0.00     0.016 A 
ATOM     14  C   UNL     1      16.491   2.660  10.795  1.00  0.00     0.051 A 
ATOM     15  C   UNL     1      16.396   1.932  11.984  1.00  0.00     0.157 A 
ATOM     16  C   UNL     1      15.920   3.987  13.188  1.00  0.00     0.062 A 
ATOM     17  C   UNL     1      16.107   2.597  13.187  1.00  0.00     0.158 A 
BRANCH  15  18
ATOM     18  O   UNL     1      16.591   0.551  11.952  1.00  0.00    -0.504 OA
ATOM     19  H   UNL     1      17.427   0.117  12.320  1.00  0.00     0.293 HD
ENDBRANCH  15  18
BRANCH  17  20
ATOM     20  O   UNL     1      16.000   1.875  14.375  1.00  0.00    -0.504 OA
ATOM     21  H   UNL     1      15.967   2.336  15.276  1.00  0.00     0.293 HD
ENDBRANCH  17  20
ENDBRANCH   1  12
BRANCH   6  22
ATOM     22  O   UNL     1      15.477  11.206  11.088  1.00  0.00    -0.507 OA
ATOM     23  H   UNL     1      16.263  11.026  10.473  1.00  0.00     0.293 HD
ENDBRANCH   6  22
BRANCH   8  24
ATOM     24  O   UNL     1      13.614  10.501  15.501  1.00  0.00    -0.508 OA
ATOM     25  H   UNL     1      13.912  11.380  15.906  1.00  0.00     0.293 HD
ENDBRANCH   8  24
TORSDOF 5
ENDMDL
