MODEL 1
REMARK VINA RESULT:    -3.875      0.000      0.000
REMARK INTER + INTRA:         -13.981
REMARK INTER:                 -10.218
REMARK INTRA:                  -3.763
REMARK UNBOUND:                -3.763
REMARK SMILES CCCCCCCCCCCCCCCCCCCCCCCCCCCCCC(=O)[O-]
REMARK SMILES IDX 16 1 17 2 18 3 19 4 20 5 21 6 22 7 23 8 24 9 25 10 26 11
REMARK SMILES IDX 27 12 28 13 29 14 30 15 31 16 32 17 15 18 14 19 13 20 12 21
REMARK SMILES IDX 11 22 10 23 9 24 8 25 7 26 6 27 5 28 4 29 3 30 2 31 1 32
REMARK H PARENT
REMARK Flexibility Score: inf
ROOT
ATOM      1  C   UNL     1       1.930  43.294   8.960  1.00  0.00     0.000 C 
ENDROOT
BRANCH   1   2
ATOM      2  C   UNL     1       3.456  43.503   9.043  1.00  0.00     0.000 C 
BRANCH   2   3
ATOM      3  C   UNL     1       4.022  43.660  10.468  1.00  0.00     0.000 C 
BRANCH   3   4
ATOM      4  C   UNL     1       3.159  44.507  11.418  1.00  0.00     0.000 C 
BRANCH   4   5
ATOM      5  C   UNL     1       2.588  43.692  12.594  1.00  0.00     0.000 C 
BRANCH   5   6
ATOM      6  C   UNL     1       1.306  42.931  12.224  1.00  0.00     0.000 C 
BRANCH   6   7
ATOM      7  C   UNL     1       0.040  43.581  12.805  1.00  0.00     0.000 C 
BRANCH   7   8
ATOM      8  C   UNL     1      -1.057  42.556  13.140  1.00  0.00     0.000 C 
BRANCH   8   9
ATOM      9  C   UNL     1      -1.039  42.091  14.611  1.00  0.00     0.000 C 
BRANCH   9  10
ATOM     10  C   UNL     1      -0.193  40.820  14.811  1.00  0.00     0.000 C 
BRANCH  10  11
ATOM     11  C   UNL     1      -0.326  39.833  13.642  1.00  0.00     0.000 C 
BRANCH  11  12
ATOM     12  C   UNL     1       0.937  38.984  13.436  1.00  0.00     0.000 C 
BRANCH  12  13
ATOM     13  C   UNL     1       2.080  39.835  12.864  1.00  0.00     0.006 C 
BRANCH  13  14
ATOM     14  C   UNL     1       3.392  39.047  12.749  1.00  0.00     0.053 C 
BRANCH  14  15
ATOM     15  C   UNL     1       4.573  39.859  13.188  1.00  0.00     0.041 C 
ATOM     16  O   UNL     1       5.285  39.475  14.153  1.00  0.00    -0.550 OA
ATOM     17  O   UNL     1       4.886  41.043  12.528  1.00  0.00    -0.550 OA
ENDBRANCH  14  15
ENDBRANCH  13  14
ENDBRANCH  12  13
ENDBRANCH  11  12
ENDBRANCH  10  11
ENDBRANCH   9  10
ENDBRANCH   8   9
ENDBRANCH   7   8
ENDBRANCH   6   7
ENDBRANCH   5   6
ENDBRANCH   4   5
ENDBRANCH   3   4
ENDBRANCH   2   3
ENDBRANCH   1   2
BRANCH   1  18
ATOM     18  C   UNL     1       1.125  44.528   8.513  1.00  0.00     0.000 C 
BRANCH  18  19
ATOM     19  C   UNL     1       0.195  45.117   9.589  1.00  0.00     0.000 C 
BRANCH  19  20
ATOM     20  C   UNL     1       0.141  46.660   9.590  1.00  0.00     0.000 C 
BRANCH  20  21
ATOM     21  C   UNL     1      -0.751  47.213   8.464  1.00  0.00     0.000 C 
BRANCH  21  22
ATOM     22  C   UNL     1      -1.076  48.705   8.635  1.00  0.00     0.000 C 
BRANCH  22  23
ATOM     23  C   UNL     1      -1.125  49.462   7.297  1.00  0.00     0.000 C 
BRANCH  23  24
ATOM     24  C   UNL     1      -0.152  50.651   7.296  1.00  0.00    -0.000 C 
BRANCH  24  25
ATOM     25  C   UNL     1       1.134  50.365   8.101  1.00  0.00    -0.000 C 
BRANCH  25  26
ATOM     26  C   UNL     1       2.283  49.770   7.262  1.00  0.00    -0.000 C 
BRANCH  26  27
ATOM     27  C   UNL     1       2.443  48.243   7.361  1.00  0.00    -0.000 C 
BRANCH  27  28
ATOM     28  C   UNL     1       3.835  47.762   7.816  1.00  0.00    -0.000 C 
BRANCH  28  29
ATOM     29  C   UNL     1       3.902  47.366   9.307  1.00  0.00    -0.000 C 
BRANCH  29  30
ATOM     30  C   UNL     1       5.317  46.940   9.736  1.00  0.00    -0.000 C 
BRANCH  30  31
ATOM     31  C   UNL     1       6.391  47.965   9.335  1.00  0.00    -0.003 C 
ATOM     32  C   UNL     1       7.807  47.391   9.385  1.00  0.00     0.004 C 
ENDBRANCH  30  31
ENDBRANCH  29  30
ENDBRANCH  28  29
ENDBRANCH  27  28
ENDBRANCH  26  27
ENDBRANCH  25  26
ENDBRANCH  24  25
ENDBRANCH  23  24
ENDBRANCH  22  23
ENDBRANCH  21  22
ENDBRANCH  20  21
ENDBRANCH  19  20
ENDBRANCH  18  19
ENDBRANCH   1  18
TORSDOF 28
ENDMDL
MODEL 2
REMARK VINA RESULT:    -3.710      2.313      8.420
REMARK INTER + INTRA:         -13.545
REMARK INTER:                  -9.739
REMARK INTRA:                  -3.806
REMARK UNBOUND:                -3.763
REMARK SMILES CCCCCCCCCCCCCCCCCCCCCCCCCCCCCC(=O)[O-]
REMARK SMILES IDX 16 1 17 2 18 3 19 4 20 5 21 6 22 7 23 8 24 9 25 10 26 11
REMARK SMILES IDX 27 12 28 13 29 14 30 15 31 16 32 17 15 18 14 19 13 20 12 21
REMARK SMILES IDX 11 22 10 23 9 24 8 25 7 26 6 27 5 28 4 29 3 30 2 31 1 32
REMARK H PARENT
REMARK Flexibility Score: inf
ROOT
ATOM      1  C   UNL     1       0.205  44.352  11.253  1.00  0.00     0.000 C 
ENDROOT
BRANCH   1   2
ATOM      2  C   UNL     1      -0.717  45.580  11.408  1.00  0.00     0.000 C 
BRANCH   2   3
ATOM      3  C   UNL     1      -0.603  46.634  10.289  1.00  0.00     0.000 C 
BRANCH   3   4
ATOM      4  C   UNL     1      -0.736  46.079   8.860  1.00  0.00     0.000 C 
BRANCH   4   5
ATOM      5  C   UNL     1      -1.058  47.170   7.822  1.00  0.00     0.000 C 
BRANCH   5   6
ATOM      6  C   UNL     1      -0.998  48.587   8.411  1.00  0.00     0.000 C 
BRANCH   6   7
ATOM      7  C   UNL     1      -0.868  49.675   7.333  1.00  0.00     0.000 C 
BRANCH   7   8
ATOM      8  C   UNL     1       0.487  50.402   7.380  1.00  0.00     0.000 C 
BRANCH   8   9
ATOM      9  C   UNL     1       1.517  49.730   8.311  1.00  0.00     0.000 C 
BRANCH   9  10
ATOM     10  C   UNL     1       2.783  49.285   7.554  1.00  0.00     0.000 C 
BRANCH  10  11
ATOM     11  C   UNL     1       3.004  47.766   7.614  1.00  0.00     0.000 C 
BRANCH  11  12
ATOM     12  C   UNL     1       2.806  47.193   9.024  1.00  0.00     0.000 C 
BRANCH  12  13
ATOM     13  C   UNL     1       4.072  47.385   9.873  1.00  0.00     0.006 C 
BRANCH  13  14
ATOM     14  C   UNL     1       5.313  46.763   9.218  1.00  0.00     0.053 C 
BRANCH  14  15
ATOM     15  C   UNL     1       6.434  47.749   9.093  1.00  0.00     0.041 C 
ATOM     16  O   UNL     1       7.600  47.435   9.450  1.00  0.00    -0.550 OA
ATOM     17  O   UNL     1       6.189  49.019   8.581  1.00  0.00    -0.550 OA
ENDBRANCH  14  15
ENDBRANCH  13  14
ENDBRANCH  12  13
ENDBRANCH  11  12
ENDBRANCH  10  11
ENDBRANCH   9  10
ENDBRANCH   8   9
ENDBRANCH   7   8
ENDBRANCH   6   7
ENDBRANCH   5   6
ENDBRANCH   4   5
ENDBRANCH   3   4
ENDBRANCH   2   3
ENDBRANCH   1   2
BRANCH   1  18
ATOM     18  C   UNL     1       0.503  43.590  12.557  1.00  0.00     0.000 C 
BRANCH  18  19
ATOM     19  C   UNL     1      -0.699  42.835  13.153  1.00  0.00     0.000 C 
BRANCH  19  20
ATOM     20  C   UNL     1      -0.305  41.713  14.138  1.00  0.00     0.000 C 
BRANCH  20  21
ATOM     21  C   UNL     1      -0.867  40.344  13.719  1.00  0.00     0.000 C 
BRANCH  21  22
ATOM     22  C   UNL     1       0.224  39.356  13.280  1.00  0.00     0.000 C 
BRANCH  22  23
ATOM     23  C   UNL     1       1.637  39.812  13.679  1.00  0.00     0.000 C 
BRANCH  23  24
ATOM     24  C   UNL     1       2.707  39.123  12.819  1.00  0.00    -0.000 C 
BRANCH  24  25
ATOM     25  C   UNL     1       4.138  39.379  13.337  1.00  0.00    -0.000 C 
BRANCH  25  26
ATOM     26  C   UNL     1       4.767  40.692  12.828  1.00  0.00    -0.000 C 
BRANCH  26  27
ATOM     27  C   UNL     1       3.876  41.525  11.890  1.00  0.00    -0.000 C 
BRANCH  27  28
ATOM     28  C   UNL     1       3.695  42.999  12.302  1.00  0.00    -0.000 C 
BRANCH  28  29
ATOM     29  C   UNL     1       3.748  43.989  11.119  1.00  0.00    -0.000 C 
BRANCH  29  30
ATOM     30  C   UNL     1       4.447  43.391   9.886  1.00  0.00    -0.000 C 
BRANCH  30  31
ATOM     31  C   UNL     1       3.568  43.443   8.625  1.00  0.00    -0.003 C 
ATOM     32  C   UNL     1       2.079  43.276   8.932  1.00  0.00     0.004 C 
ENDBRANCH  30  31
ENDBRANCH  29  30
ENDBRANCH  28  29
ENDBRANCH  27  28
ENDBRANCH  26  27
ENDBRANCH  25  26
ENDBRANCH  24  25
ENDBRANCH  23  24
ENDBRANCH  22  23
ENDBRANCH  21  22
ENDBRANCH  20  21
ENDBRANCH  19  20
ENDBRANCH  18  19
ENDBRANCH   1  18
TORSDOF 28
ENDMDL
MODEL 3
REMARK VINA RESULT:    -3.687      2.408      9.139
REMARK INTER + INTRA:         -13.484
REMARK INTER:                 -10.898
REMARK INTRA:                  -2.586
REMARK UNBOUND:                -3.763
REMARK SMILES CCCCCCCCCCCCCCCCCCCCCCCCCCCCCC(=O)[O-]
REMARK SMILES IDX 16 1 17 2 18 3 19 4 20 5 21 6 22 7 23 8 24 9 25 10 26 11
REMARK SMILES IDX 27 12 28 13 29 14 30 15 31 16 32 17 15 18 14 19 13 20 12 21
REMARK SMILES IDX 11 22 10 23 9 24 8 25 7 26 6 27 5 28 4 29 3 30 2 31 1 32
REMARK H PARENT
REMARK Flexibility Score: inf
ROOT
ATOM      1  C   UNL     1       3.733  44.173   9.515  1.00  0.00     0.000 C 
ENDROOT
BRANCH   1   2
ATOM      2  C   UNL     1       2.510  43.585   8.780  1.00  0.00     0.000 C 
BRANCH   2   3
ATOM      3  C   UNL     1       1.225  44.433   8.858  1.00  0.00     0.000 C 
BRANCH   3   4
ATOM      4  C   UNL     1       0.368  44.429   7.580  1.00  0.00     0.000 C 
BRANCH   4   5
ATOM      5  C   UNL     1      -0.833  45.389   7.662  1.00  0.00     0.000 C 
BRANCH   5   6
ATOM      6  C   UNL     1      -0.492  46.808   7.182  1.00  0.00     0.000 C 
BRANCH   6   7
ATOM      7  C   UNL     1      -0.240  47.785   8.342  1.00  0.00     0.000 C 
BRANCH   7   8
ATOM      8  C   UNL     1       0.126  49.200   7.863  1.00  0.00     0.000 C 
BRANCH   8   9
ATOM      9  C   UNL     1       1.525  49.663   8.318  1.00  0.00     0.000 C 
BRANCH   9  10
ATOM     10  C   UNL     1       2.526  49.727   7.148  1.00  0.00     0.000 C 
BRANCH  10  11
ATOM     11  C   UNL     1       3.543  48.577   7.178  1.00  0.00     0.000 C 
BRANCH  11  12
ATOM     12  C   UNL     1       3.292  47.592   8.329  1.00  0.00     0.000 C 
BRANCH  12  13
ATOM     13  C   UNL     1       4.430  47.654   9.358  1.00  0.00     0.006 C 
BRANCH  13  14
ATOM     14  C   UNL     1       5.773  47.201   8.769  1.00  0.00     0.053 C 
BRANCH  14  15
ATOM     15  C   UNL     1       6.931  47.898   9.417  1.00  0.00     0.041 C 
ATOM     16  O   UNL     1       6.804  49.074   9.848  1.00  0.00    -0.550 OA
ATOM     17  O   UNL     1       8.153  47.245   9.544  1.00  0.00    -0.550 OA
ENDBRANCH  14  15
ENDBRANCH  13  14
ENDBRANCH  12  13
ENDBRANCH  11  12
ENDBRANCH  10  11
ENDBRANCH   9  10
ENDBRANCH   8   9
ENDBRANCH   7   8
ENDBRANCH   6   7
ENDBRANCH   5   6
ENDBRANCH   4   5
ENDBRANCH   3   4
ENDBRANCH   2   3
ENDBRANCH   1   2
BRANCH   1  18
ATOM     18  C   UNL     1       3.405  44.990  10.779  1.00  0.00     0.000 C 
BRANCH  18  19
ATOM     19  C   UNL     1       3.972  44.410  12.087  1.00  0.00     0.000 C 
BRANCH  19  20
ATOM     20  C   UNL     1       2.925  43.663  12.942  1.00  0.00     0.000 C 
BRANCH  20  21
ATOM     21  C   UNL     1       2.106  42.657  12.114  1.00  0.00     0.000 C 
BRANCH  21  22
ATOM     22  C   UNL     1       2.943  41.472  11.610  1.00  0.00     0.000 C 
BRANCH  22  23
ATOM     23  C   UNL     1       4.172  41.192  12.491  1.00  0.00     0.000 C 
BRANCH  23  24
ATOM     24  C   UNL     1       3.984  39.909  13.314  1.00  0.00    -0.000 C 
BRANCH  24  25
ATOM     25  C   UNL     1       3.572  38.702  12.443  1.00  0.00    -0.000 C 
BRANCH  25  26
ATOM     26  C   UNL     1       2.098  38.279  12.607  1.00  0.00    -0.000 C 
BRANCH  26  27
ATOM     27  C   UNL     1       1.232  39.237  13.444  1.00  0.00    -0.000 C 
BRANCH  27  28
ATOM     28  C   UNL     1      -0.282  39.157  13.166  1.00  0.00    -0.000 C 
BRANCH  28  29
ATOM     29  C   UNL     1      -1.123  40.150  13.996  1.00  0.00    -0.000 C 
BRANCH  29  30
ATOM     30  C   UNL     1      -0.250  41.074  14.863  1.00  0.00    -0.000 C 
BRANCH  30  31
ATOM     31  C   UNL     1      -0.504  40.887  16.368  1.00  0.00    -0.003 C 
ATOM     32  C   UNL     1      -0.778  42.206  17.092  1.00  0.00     0.004 C 
ENDBRANCH  30  31
ENDBRANCH  29  30
ENDBRANCH  28  29
ENDBRANCH  27  28
ENDBRANCH  26  27
ENDBRANCH  25  26
ENDBRANCH  24  25
ENDBRANCH  23  24
ENDBRANCH  22  23
ENDBRANCH  21  22
ENDBRANCH  20  21
ENDBRANCH  19  20
ENDBRANCH  18  19
ENDBRANCH   1  18
TORSDOF 28
ENDMDL
MODEL 4
REMARK VINA RESULT:    -3.546      2.377      8.505
REMARK INTER + INTRA:         -13.114
REMARK INTER:                  -9.687
REMARK INTRA:                  -3.427
REMARK UNBOUND:                -3.763
REMARK SMILES CCCCCCCCCCCCCCCCCCCCCCCCCCCCCC(=O)[O-]
REMARK SMILES IDX 16 1 17 2 18 3 19 4 20 5 21 6 22 7 23 8 24 9 25 10 26 11
REMARK SMILES IDX 27 12 28 13 29 14 30 15 31 16 32 17 15 18 14 19 13 20 12 21
REMARK SMILES IDX 11 22 10 23 9 24 8 25 7 26 6 27 5 28 4 29 3 30 2 31 1 32
REMARK H PARENT
REMARK Flexibility Score: inf
ROOT
ATOM      1  C   UNL     1       0.980  43.491   8.447  1.00  0.00     0.000 C 
ENDROOT
BRANCH   1   2
ATOM      2  C   UNL     1       0.901  45.012   8.695  1.00  0.00     0.000 C 
BRANCH   2   3
ATOM      3  C   UNL     1       0.565  45.865   7.457  1.00  0.00     0.000 C 
BRANCH   3   4
ATOM      4  C   UNL     1      -0.907  46.301   7.351  1.00  0.00     0.000 C 
BRANCH   4   5
ATOM      5  C   UNL     1      -1.078  47.832   7.348  1.00  0.00     0.000 C 
BRANCH   5   6
ATOM      6  C   UNL     1      -0.937  48.448   8.748  1.00  0.00     0.000 C 
BRANCH   6   7
ATOM      7  C   UNL     1       0.465  49.024   9.005  1.00  0.00     0.000 C 
BRANCH   7   8
ATOM      8  C   UNL     1       0.703  50.362   8.285  1.00  0.00     0.000 C 
BRANCH   8   9
ATOM      9  C   UNL     1       2.025  50.411   7.493  1.00  0.00     0.000 C 
BRANCH   9  10
ATOM     10  C   UNL     1       2.369  49.055   6.849  1.00  0.00     0.000 C 
BRANCH  10  11
ATOM     11  C   UNL     1       3.693  48.473   7.367  1.00  0.00     0.000 C 
BRANCH  11  12
ATOM     12  C   UNL     1       3.504  47.575   8.598  1.00  0.00     0.000 C 
BRANCH  12  13
ATOM     13  C   UNL     1       4.782  46.774   8.890  1.00  0.00     0.006 C 
BRANCH  13  14
ATOM     14  C   UNL     1       5.655  47.441   9.962  1.00  0.00     0.053 C 
BRANCH  14  15
ATOM     15  C   UNL     1       6.901  48.036   9.378  1.00  0.00     0.041 C 
ATOM     16  O   UNL     1       8.017  47.482   9.564  1.00  0.00    -0.550 OA
ATOM     17  O   UNL     1       6.827  49.204   8.627  1.00  0.00    -0.550 OA
ENDBRANCH  14  15
ENDBRANCH  13  14
ENDBRANCH  12  13
ENDBRANCH  11  12
ENDBRANCH  10  11
ENDBRANCH   9  10
ENDBRANCH   8   9
ENDBRANCH   7   8
ENDBRANCH   6   7
ENDBRANCH   5   6
ENDBRANCH   4   5
ENDBRANCH   3   4
ENDBRANCH   2   3
ENDBRANCH   1   2
BRANCH   1  18
ATOM     18  C   UNL     1       2.251  42.807   8.982  1.00  0.00     0.000 C 
BRANCH  18  19
ATOM     19  C   UNL     1       3.464  43.740   9.153  1.00  0.00     0.000 C 
BRANCH  19  20
ATOM     20  C   UNL     1       4.225  43.536  10.481  1.00  0.00     0.000 C 
BRANCH  20  21
ATOM     21  C   UNL     1       3.879  44.613  11.524  1.00  0.00     0.000 C 
BRANCH  21  22
ATOM     22  C   UNL     1       2.923  44.107  12.615  1.00  0.00     0.000 C 
BRANCH  22  23
ATOM     23  C   UNL     1       2.118  42.873  12.176  1.00  0.00     0.000 C 
BRANCH  23  24
ATOM     24  C   UNL     1       0.614  43.075  12.419  1.00  0.00    -0.000 C 
BRANCH  24  25
ATOM     25  C   UNL     1       0.138  42.443  13.744  1.00  0.00    -0.000 C 
BRANCH  25  26
ATOM     26  C   UNL     1      -1.032  41.451  13.586  1.00  0.00    -0.000 C 
BRANCH  26  27
ATOM     27  C   UNL     1      -0.645  39.964  13.659  1.00  0.00    -0.000 C 
BRANCH  27  28
ATOM     28  C   UNL     1       0.867  39.690  13.784  1.00  0.00    -0.000 C 
BRANCH  28  29
ATOM     29  C   UNL     1       1.369  38.538  12.886  1.00  0.00    -0.000 C 
BRANCH  29  30
ATOM     30  C   UNL     1       2.894  38.573  12.688  1.00  0.00    -0.000 C 
BRANCH  30  31
ATOM     31  C   UNL     1       3.491  39.969  12.930  1.00  0.00    -0.003 C 
ATOM     32  C   UNL     1       5.006  39.940  13.137  1.00  0.00     0.004 C 
ENDBRANCH  30  31
ENDBRANCH  29  30
ENDBRANCH  28  29
ENDBRANCH  27  28
ENDBRANCH  26  27
ENDBRANCH  25  26
ENDBRANCH  24  25
ENDBRANCH  23  24
ENDBRANCH  22  23
ENDBRANCH  21  22
ENDBRANCH  20  21
ENDBRANCH  19  20
ENDBRANCH  18  19
ENDBRANCH   1  18
TORSDOF 28
ENDMDL
MODEL 5
REMARK VINA RESULT:    -3.047      1.874      4.059
REMARK INTER + INTRA:         -11.798
REMARK INTER:                  -8.327
REMARK INTRA:                  -3.471
REMARK UNBOUND:                -3.763
REMARK SMILES CCCCCCCCCCCCCCCCCCCCCCCCCCCCCC(=O)[O-]
REMARK SMILES IDX 16 1 17 2 18 3 19 4 20 5 21 6 22 7 23 8 24 9 25 10 26 11
REMARK SMILES IDX 27 12 28 13 29 14 30 15 31 16 32 17 15 18 14 19 13 20 12 21
REMARK SMILES IDX 11 22 10 23 9 24 8 25 7 26 6 27 5 28 4 29 3 30 2 31 1 32
REMARK H PARENT
REMARK Flexibility Score: inf
ROOT
ATOM      1  C   UNL     1       1.955  48.082   8.066  1.00  0.00     0.000 C 
ENDROOT
BRANCH   1   2
ATOM      2  C   UNL     1       2.025  48.221   9.601  1.00  0.00     0.000 C 
BRANCH   2   3
ATOM      3  C   UNL     1       1.313  47.109  10.396  1.00  0.00     0.000 C 
BRANCH   3   4
ATOM      4  C   UNL     1      -0.221  47.215  10.426  1.00  0.00     0.000 C 
BRANCH   4   5
ATOM      5  C   UNL     1      -0.915  45.841  10.491  1.00  0.00     0.000 C 
BRANCH   5   6
ATOM      6  C   UNL     1      -1.124  45.350  11.931  1.00  0.00     0.000 C 
BRANCH   6   7
ATOM      7  C   UNL     1      -0.484  43.977  12.191  1.00  0.00     0.000 C 
BRANCH   7   8
ATOM      8  C   UNL     1       1.045  43.990  12.023  1.00  0.00     0.000 C 
BRANCH   8   9
ATOM      9  C   UNL     1       1.732  42.700  12.515  1.00  0.00     0.000 C 
BRANCH   9  10
ATOM     10  C   UNL     1       3.266  42.832  12.548  1.00  0.00     0.000 C 
BRANCH  10  11
ATOM     11  C   UNL     1       3.977  41.633  11.901  1.00  0.00     0.000 C 
BRANCH  11  12
ATOM     12  C   UNL     1       4.686  40.740  12.928  1.00  0.00     0.000 C 
BRANCH  12  13
ATOM     13  C   UNL     1       4.141  39.305  12.873  1.00  0.00     0.006 C 
BRANCH  13  14
ATOM     14  C   UNL     1       2.607  39.265  12.850  1.00  0.00     0.053 C 
BRANCH  14  15
ATOM     15  C   UNL     1       2.089  37.962  12.322  1.00  0.00     0.041 C 
ATOM     16  O   UNL     1       0.880  37.646  12.483  1.00  0.00    -0.550 OA
ATOM     17  O   UNL     1       2.944  37.094  11.650  1.00  0.00    -0.550 OA
ENDBRANCH  14  15
ENDBRANCH  13  14
ENDBRANCH  12  13
ENDBRANCH  11  12
ENDBRANCH  10  11
ENDBRANCH   9  10
ENDBRANCH   8   9
ENDBRANCH   7   8
ENDBRANCH   6   7
ENDBRANCH   5   6
ENDBRANCH   4   5
ENDBRANCH   3   4
ENDBRANCH   2   3
ENDBRANCH   1   2
BRANCH   1  18
ATOM     18  C   UNL     1       1.424  49.320   7.321  1.00  0.00     0.000 C 
BRANCH  18  19
ATOM     19  C   UNL     1      -0.016  49.725   7.687  1.00  0.00     0.000 C 
BRANCH  19  20
ATOM     20  C   UNL     1      -1.037  48.574   7.560  1.00  0.00     0.000 C 
BRANCH  20  21
ATOM     21  C   UNL     1      -0.533  47.444   6.645  1.00  0.00     0.000 C 
BRANCH  21  22
ATOM     22  C   UNL     1      -1.093  46.066   7.030  1.00  0.00     0.000 C 
BRANCH  22  23
ATOM     23  C   UNL     1      -0.495  44.924   6.193  1.00  0.00     0.000 C 
BRANCH  23  24
ATOM     24  C   UNL     1       0.113  43.836   7.092  1.00  0.00    -0.000 C 
BRANCH  24  25
ATOM     25  C   UNL     1       1.001  44.422   8.211  1.00  0.00    -0.000 C 
BRANCH  25  26
ATOM     26  C   UNL     1       1.918  43.388   8.894  1.00  0.00    -0.000 C 
BRANCH  26  27
ATOM     27  C   UNL     1       3.404  43.781   8.971  1.00  0.00    -0.000 C 
BRANCH  27  28
ATOM     28  C   UNL     1       3.672  45.290   9.136  1.00  0.00    -0.000 C 
BRANCH  28  29
ATOM     29  C   UNL     1       4.674  45.627  10.261  1.00  0.00    -0.000 C 
BRANCH  29  30
ATOM     30  C   UNL     1       5.902  46.393   9.741  1.00  0.00    -0.000 C 
BRANCH  30  31
ATOM     31  C   UNL     1       5.521  47.595   8.861  1.00  0.00    -0.003 C 
ATOM     32  C   UNL     1       6.316  48.856   9.201  1.00  0.00     0.004 C 
ENDBRANCH  30  31
ENDBRANCH  29  30
ENDBRANCH  28  29
ENDBRANCH  27  28
ENDBRANCH  26  27
ENDBRANCH  25  26
ENDBRANCH  24  25
ENDBRANCH  23  24
ENDBRANCH  22  23
ENDBRANCH  21  22
ENDBRANCH  20  21
ENDBRANCH  19  20
ENDBRANCH  18  19
ENDBRANCH   1  18
TORSDOF 28
ENDMDL
MODEL 6
REMARK VINA RESULT:    -2.954      1.324      3.416
REMARK INTER + INTRA:         -11.553
REMARK INTER:                  -7.212
REMARK INTRA:                  -4.341
REMARK UNBOUND:                -3.763
REMARK SMILES CCCCCCCCCCCCCCCCCCCCCCCCCCCCCC(=O)[O-]
REMARK SMILES IDX 16 1 17 2 18 3 19 4 20 5 21 6 22 7 23 8 24 9 25 10 26 11
REMARK SMILES IDX 27 12 28 13 29 14 30 15 31 16 32 17 15 18 14 19 13 20 12 21
REMARK SMILES IDX 11 22 10 23 9 24 8 25 7 26 6 27 5 28 4 29 3 30 2 31 1 32
REMARK H PARENT
REMARK Flexibility Score: inf
ROOT
ATOM      1  C   UNL     1       4.942  46.223  10.242  1.00  0.00     0.000 C 
ENDROOT
BRANCH   1   2
ATOM      2  C   UNL     1       3.855  45.881  11.283  1.00  0.00     0.000 C 
BRANCH   2   3
ATOM      3  C   UNL     1       4.175  44.685  12.200  1.00  0.00     0.000 C 
BRANCH   3   4
ATOM      4  C   UNL     1       2.946  43.989  12.809  1.00  0.00     0.000 C 
BRANCH   4   5
ATOM      5  C   UNL     1       1.641  44.313  12.059  1.00  0.00     0.000 C 
BRANCH   5   6
ATOM      6  C   UNL     1       0.672  43.122  12.011  1.00  0.00     0.000 C 
BRANCH   6   7
ATOM      7  C   UNL     1      -0.606  43.362  12.829  1.00  0.00     0.000 C 
BRANCH   7   8
ATOM      8  C   UNL     1      -1.125  42.086  13.515  1.00  0.00     0.000 C 
BRANCH   8   9
ATOM      9  C   UNL     1      -0.345  41.710  14.792  1.00  0.00     0.000 C 
BRANCH   9  10
ATOM     10  C   UNL     1       0.029  40.216  14.827  1.00  0.00     0.000 C 
BRANCH  10  11
ATOM     11  C   UNL     1       0.526  39.699  13.469  1.00  0.00     0.000 C 
BRANCH  11  12
ATOM     12  C   UNL     1       2.058  39.630  13.385  1.00  0.00     0.000 C 
BRANCH  12  13
ATOM     13  C   UNL     1       2.591  40.604  12.324  1.00  0.00     0.006 C 
BRANCH  13  14
ATOM     14  C   UNL     1       4.102  40.841  12.458  1.00  0.00     0.053 C 
BRANCH  14  15
ATOM     15  C   UNL     1       4.810  39.636  12.999  1.00  0.00     0.041 C 
ATOM     16  O   UNL     1       4.948  38.607  12.287  1.00  0.00    -0.550 OA
ATOM     17  O   UNL     1       5.319  39.652  14.294  1.00  0.00    -0.550 OA
ENDBRANCH  14  15
ENDBRANCH  13  14
ENDBRANCH  12  13
ENDBRANCH  11  12
ENDBRANCH  10  11
ENDBRANCH   9  10
ENDBRANCH   8   9
ENDBRANCH   7   8
ENDBRANCH   6   7
ENDBRANCH   5   6
ENDBRANCH   4   5
ENDBRANCH   3   4
ENDBRANCH   2   3
ENDBRANCH   1   2
BRANCH   1  18
ATOM     18  C   UNL     1       4.684  47.502   9.424  1.00  0.00     0.000 C 
BRANCH  18  19
ATOM     19  C   UNL     1       4.207  47.261   7.981  1.00  0.00     0.000 C 
BRANCH  19  20
ATOM     20  C   UNL     1       3.727  48.540   7.261  1.00  0.00     0.000 C 
BRANCH  20  21
ATOM     21  C   UNL     1       2.195  48.681   7.281  1.00  0.00     0.000 C 
BRANCH  21  22
ATOM     22  C   UNL     1       1.710  49.821   8.190  1.00  0.00     0.000 C 
BRANCH  22  23
ATOM     23  C   UNL     1       0.777  49.335   9.311  1.00  0.00     0.000 C 
BRANCH  23  24
ATOM     24  C   UNL     1       0.901  47.817   9.517  1.00  0.00    -0.000 C 
BRANCH  24  25
ATOM     25  C   UNL     1      -0.364  47.201  10.152  1.00  0.00    -0.000 C 
BRANCH  25  26
ATOM     26  C   UNL     1      -0.956  46.019   9.359  1.00  0.00    -0.000 C 
BRANCH  26  27
ATOM     27  C   UNL     1      -0.919  46.174   7.828  1.00  0.00    -0.000 C 
BRANCH  27  28
ATOM     28  C   UNL     1      -0.072  45.120   7.088  1.00  0.00    -0.000 C 
BRANCH  28  29
ATOM     29  C   UNL     1       0.374  43.939   7.977  1.00  0.00    -0.000 C 
BRANCH  29  30
ATOM     30  C   UNL     1       1.765  44.164   8.595  1.00  0.00    -0.000 C 
BRANCH  30  31
ATOM     31  C   UNL     1       2.583  42.867   8.699  1.00  0.00    -0.003 C 
ATOM     32  C   UNL     1       4.026  43.109   9.142  1.00  0.00     0.004 C 
ENDBRANCH  30  31
ENDBRANCH  29  30
ENDBRANCH  28  29
ENDBRANCH  27  28
ENDBRANCH  26  27
ENDBRANCH  25  26
ENDBRANCH  24  25
ENDBRANCH  23  24
ENDBRANCH  22  23
ENDBRANCH  21  22
ENDBRANCH  20  21
ENDBRANCH  19  20
ENDBRANCH  18  19
ENDBRANCH   1  18
TORSDOF 28
ENDMDL
MODEL 7
REMARK VINA RESULT:    -2.947      1.158      3.733
REMARK INTER + INTRA:         -11.534
REMARK INTER:                  -7.973
REMARK INTRA:                  -3.561
REMARK UNBOUND:                -3.763
REMARK SMILES CCCCCCCCCCCCCCCCCCCCCCCCCCCCCC(=O)[O-]
REMARK SMILES IDX 16 1 17 2 18 3 19 4 20 5 21 6 22 7 23 8 24 9 25 10 26 11
REMARK SMILES IDX 27 12 28 13 29 14 30 15 31 16 32 17 15 18 14 19 13 20 12 21
REMARK SMILES IDX 11 22 10 23 9 24 8 25 7 26 6 27 5 28 4 29 3 30 2 31 1 32
REMARK H PARENT
REMARK Flexibility Score: inf
ROOT
ATOM      1  C   UNL     1       3.685  47.491   8.344  1.00  0.00     0.000 C 
ENDROOT
BRANCH   1   2
ATOM      2  C   UNL     1       5.034  47.275   9.061  1.00  0.00     0.000 C 
BRANCH   2   3
ATOM      3  C   UNL     1       5.110  46.024   9.958  1.00  0.00     0.000 C 
BRANCH   3   4
ATOM      4  C   UNL     1       4.044  44.953   9.668  1.00  0.00     0.000 C 
BRANCH   4   5
ATOM      5  C   UNL     1       4.218  43.687  10.527  1.00  0.00     0.000 C 
BRANCH   5   6
ATOM      6  C   UNL     1       4.102  43.971  12.033  1.00  0.00     0.000 C 
BRANCH   6   7
ATOM      7  C   UNL     1       2.646  43.993  12.523  1.00  0.00     0.000 C 
BRANCH   7   8
ATOM      8  C   UNL     1       1.788  42.878  11.900  1.00  0.00     0.000 C 
BRANCH   8   9
ATOM      9  C   UNL     1       0.385  42.754  12.528  1.00  0.00     0.000 C 
BRANCH   9  10
ATOM     10  C   UNL     1       0.419  42.043  13.894  1.00  0.00     0.000 C 
BRANCH  10  11
ATOM     11  C   UNL     1      -0.379  40.730  13.898  1.00  0.00     0.000 C 
BRANCH  11  12
ATOM     12  C   UNL     1       0.466  39.522  13.472  1.00  0.00     0.000 C 
BRANCH  12  13
ATOM     13  C   UNL     1       1.959  39.783  13.725  1.00  0.00     0.006 C 
BRANCH  13  14
ATOM     14  C   UNL     1       2.854  39.109  12.676  1.00  0.00     0.053 C 
BRANCH  14  15
ATOM     15  C   UNL     1       4.290  39.509  12.826  1.00  0.00     0.041 C 
ATOM     16  O   UNL     1       4.589  40.624  13.330  1.00  0.00    -0.550 OA
ATOM     17  O   UNL     1       5.300  38.649  12.408  1.00  0.00    -0.550 OA
ENDBRANCH  14  15
ENDBRANCH  13  14
ENDBRANCH  12  13
ENDBRANCH  11  12
ENDBRANCH  10  11
ENDBRANCH   9  10
ENDBRANCH   8   9
ENDBRANCH   7   8
ENDBRANCH   6   7
ENDBRANCH   5   6
ENDBRANCH   4   5
ENDBRANCH   3   4
ENDBRANCH   2   3
ENDBRANCH   1   2
BRANCH   1  18
ATOM     18  C   UNL     1       3.172  48.943   8.342  1.00  0.00     0.000 C 
BRANCH  18  19
ATOM     19  C   UNL     1       3.138  49.613   6.956  1.00  0.00     0.000 C 
BRANCH  19  20
ATOM     20  C   UNL     1       2.253  50.878   6.897  1.00  0.00     0.000 C 
BRANCH  20  21
ATOM     21  C   UNL     1       1.102  50.833   7.917  1.00  0.00     0.000 C 
BRANCH  21  22
ATOM     22  C   UNL     1      -0.276  51.061   7.277  1.00  0.00     0.000 C 
BRANCH  22  23
ATOM     23  C   UNL     1      -1.125  49.781   7.217  1.00  0.00     0.000 C 
BRANCH  23  24
ATOM     24  C   UNL     1      -0.412  48.610   7.910  1.00  0.00    -0.000 C 
BRANCH  24  25
ATOM     25  C   UNL     1      -0.077  47.460   6.935  1.00  0.00    -0.000 C 
BRANCH  25  26
ATOM     26  C   UNL     1      -1.075  46.286   6.978  1.00  0.00    -0.000 C 
BRANCH  26  27
ATOM     27  C   UNL     1      -0.526  44.941   6.470  1.00  0.00    -0.000 C 
BRANCH  27  28
ATOM     28  C   UNL     1       0.192  44.086   7.532  1.00  0.00    -0.000 C 
BRANCH  28  29
ATOM     29  C   UNL     1       0.764  44.905   8.710  1.00  0.00    -0.000 C 
BRANCH  29  30
ATOM     30  C   UNL     1      -0.172  44.908   9.931  1.00  0.00    -0.000 C 
BRANCH  30  31
ATOM     31  C   UNL     1      -0.075  46.207  10.747  1.00  0.00    -0.003 C 
ATOM     32  C   UNL     1       1.139  47.056  10.370  1.00  0.00     0.004 C 
ENDBRANCH  30  31
ENDBRANCH  29  30
ENDBRANCH  28  29
ENDBRANCH  27  28
ENDBRANCH  26  27
ENDBRANCH  25  26
ENDBRANCH  24  25
ENDBRANCH  23  24
ENDBRANCH  22  23
ENDBRANCH  21  22
ENDBRANCH  20  21
ENDBRANCH  19  20
ENDBRANCH  18  19
ENDBRANCH   1  18
TORSDOF 28
ENDMDL
