MODEL 1
REMARK VINA RESULT:    -5.082      0.000      0.000
REMARK INTER + INTRA:         -10.051
REMARK INTER:                  -8.647
REMARK INTRA:                  -1.404
REMARK UNBOUND:                -1.404
REMARK SMILES CCCCCCCCCCCCCC(=O)[O-]
REMARK SMILES IDX 8 1 9 2 10 3 11 4 12 5 13 6 14 7 15 8 16 9 7 10 6 11 5 12
REMARK SMILES IDX 4 13 3 14 2 15 1 16
REMARK H PARENT
REMARK Flexibility Score: inf
ROOT
ATOM      1  C   UNL     1      17.026  44.943   6.964  1.00  0.00     0.000 C 
ENDROOT
BRANCH   1   2
ATOM      2  C   UNL     1      17.773  43.771   6.308  1.00  0.00     0.000 C 
BRANCH   2   3
ATOM      3  C   UNL     1      16.848  42.878   5.467  1.00  0.00     0.000 C 
BRANCH   3   4
ATOM      4  C   UNL     1      16.744  43.398   4.029  1.00  0.00     0.000 C 
BRANCH   4   5
ATOM      5  C   UNL     1      15.282  43.638   3.634  1.00  0.00     0.006 C 
BRANCH   5   6
ATOM      6  C   UNL     1      14.953  45.134   3.623  1.00  0.00     0.053 C 
BRANCH   6   7
ATOM      7  C   UNL     1      13.863  45.438   4.600  1.00  0.00     0.041 C 
ATOM      8  O   UNL     1      13.749  44.758   5.654  1.00  0.00    -0.550 OA
ATOM      9  O   UNL     1      13.001  46.503   4.372  1.00  0.00    -0.550 OA
ENDBRANCH   6   7
ENDBRANCH   5   6
ENDBRANCH   4   5
ENDBRANCH   3   4
ENDBRANCH   2   3
ENDBRANCH   1   2
BRANCH   1  10
ATOM     10  C   UNL     1      17.103  44.908   8.501  1.00  0.00     0.000 C 
BRANCH  10  11
ATOM     11  C   UNL     1      16.643  43.562   9.083  1.00  0.00    -0.000 C 
BRANCH  11  12
ATOM     12  C   UNL     1      15.141  43.307   8.863  1.00  0.00    -0.000 C 
BRANCH  12  13
ATOM     13  C   UNL     1      14.847  41.862   8.430  1.00  0.00    -0.000 C 
BRANCH  13  14
ATOM     14  C   UNL     1      16.035  40.917   8.684  1.00  0.00    -0.000 C 
BRANCH  14  15
ATOM     15  C   UNL     1      15.621  39.641   9.433  1.00  0.00    -0.003 C 
ATOM     16  C   UNL     1      14.112  39.407   9.413  1.00  0.00     0.004 C 
ENDBRANCH  14  15
ENDBRANCH  13  14
ENDBRANCH  12  13
ENDBRANCH  11  12
ENDBRANCH  10  11
ENDBRANCH   1  10
TORSDOF 12
ENDMDL
MODEL 2
REMARK VINA RESULT:    -5.019      2.700      5.678
REMARK INTER + INTRA:          -9.943
REMARK INTER:                  -7.914
REMARK INTRA:                  -2.030
REMARK UNBOUND:                -1.404
REMARK SMILES CCCCCCCCCCCCCC(=O)[O-]
REMARK SMILES IDX 8 1 9 2 10 3 11 4 12 5 13 6 14 7 15 8 16 9 7 10 6 11 5 12
REMARK SMILES IDX 4 13 3 14 2 15 1 16
REMARK H PARENT
REMARK Flexibility Score: inf
ROOT
ATOM      1  C   UNL     1      12.970  43.181   4.024  1.00  0.00     0.000 C 
ENDROOT
BRANCH   1   2
ATOM      2  C   UNL     1      13.011  42.385   5.339  1.00  0.00     0.000 C 
BRANCH   2   3
ATOM      3  C   UNL     1      13.199  43.286   6.568  1.00  0.00     0.000 C 
BRANCH   3   4
ATOM      4  C   UNL     1      14.583  43.077   7.195  1.00  0.00     0.000 C 
BRANCH   4   5
ATOM      5  C   UNL     1      15.107  44.376   7.818  1.00  0.00     0.006 C 
BRANCH   5   6
ATOM      6  C   UNL     1      16.310  44.915   7.036  1.00  0.00     0.053 C 
BRANCH   6   7
ATOM      7  C   UNL     1      17.276  43.814   6.736  1.00  0.00     0.041 C 
ATOM      8  O   UNL     1      17.573  43.539   5.543  1.00  0.00    -0.550 OA
ATOM      9  O   UNL     1      17.885  43.121   7.774  1.00  0.00    -0.550 OA
ENDBRANCH   6   7
ENDBRANCH   5   6
ENDBRANCH   4   5
ENDBRANCH   3   4
ENDBRANCH   2   3
ENDBRANCH   1   2
BRANCH   1  10
ATOM     10  C   UNL     1      14.375  43.498   3.481  1.00  0.00     0.000 C 
BRANCH  10  11
ATOM     11  C   UNL     1      14.754  44.976   3.657  1.00  0.00    -0.000 C 
BRANCH  11  12
ATOM     12  C   UNL     1      13.531  45.871   3.926  1.00  0.00    -0.000 C 
BRANCH  12  13
ATOM     13  C   UNL     1      13.712  46.756   5.169  1.00  0.00    -0.000 C 
BRANCH  13  14
ATOM     14  C   UNL     1      12.376  47.075   5.866  1.00  0.00    -0.000 C 
BRANCH  14  15
ATOM     15  C   UNL     1      12.410  46.769   7.371  1.00  0.00    -0.003 C 
ATOM     16  C   UNL     1      11.147  46.061   7.858  1.00  0.00     0.004 C 
ENDBRANCH  14  15
ENDBRANCH  13  14
ENDBRANCH  12  13
ENDBRANCH  11  12
ENDBRANCH  10  11
ENDBRANCH   1  10
TORSDOF 12
ENDMDL
MODEL 3
REMARK VINA RESULT:    -4.975      2.948      4.729
REMARK INTER + INTRA:          -9.868
REMARK INTER:                  -7.621
REMARK INTRA:                  -2.247
REMARK UNBOUND:                -1.404
REMARK SMILES CCCCCCCCCCCCCC(=O)[O-]
REMARK SMILES IDX 8 1 9 2 10 3 11 4 12 5 13 6 14 7 15 8 16 9 7 10 6 11 5 12
REMARK SMILES IDX 4 13 3 14 2 15 1 16
REMARK H PARENT
REMARK Flexibility Score: inf
ROOT
ATOM      1  C   UNL     1      13.723  46.021   4.322  1.00  0.00     0.000 C 
ENDROOT
BRANCH   1   2
ATOM      2  C   UNL     1      14.861  45.310   3.573  1.00  0.00     0.000 C 
BRANCH   2   3
ATOM      3  C   UNL     1      16.011  44.895   4.504  1.00  0.00     0.000 C 
BRANCH   3   4
ATOM      4  C   UNL     1      16.379  43.422   4.296  1.00  0.00     0.000 C 
BRANCH   4   5
ATOM      5  C   UNL     1      16.833  42.777   5.611  1.00  0.00     0.006 C 
BRANCH   5   6
ATOM      6  C   UNL     1      16.865  43.805   6.746  1.00  0.00     0.053 C 
BRANCH   6   7
ATOM      7  C   UNL     1      17.044  43.124   8.065  1.00  0.00     0.041 C 
ATOM      8  O   UNL     1      17.614  43.723   9.016  1.00  0.00    -0.550 OA
ATOM      9  O   UNL     1      16.540  41.845   8.262  1.00  0.00    -0.550 OA
ENDBRANCH   6   7
ENDBRANCH   5   6
ENDBRANCH   4   5
ENDBRANCH   3   4
ENDBRANCH   2   3
ENDBRANCH   1   2
BRANCH   1  10
ATOM     10  C   UNL     1      13.916  46.002   5.849  1.00  0.00     0.000 C 
BRANCH  10  11
ATOM     11  C   UNL     1      12.592  45.818   6.607  1.00  0.00    -0.000 C 
BRANCH  11  12
ATOM     12  C   UNL     1      12.071  44.370   6.543  1.00  0.00    -0.000 C 
BRANCH  12  13
ATOM     13  C   UNL     1      13.201  43.334   6.644  1.00  0.00    -0.000 C 
BRANCH  13  14
ATOM     14  C   UNL     1      13.109  42.251   5.554  1.00  0.00    -0.000 C 
BRANCH  14  15
ATOM     15  C   UNL     1      12.114  42.619   4.443  1.00  0.00    -0.003 C 
ATOM     16  C   UNL     1      12.715  42.487   3.045  1.00  0.00     0.004 C 
ENDBRANCH  14  15
ENDBRANCH  13  14
ENDBRANCH  12  13
ENDBRANCH  11  12
ENDBRANCH  10  11
ENDBRANCH   1  10
TORSDOF 12
ENDMDL
MODEL 4
REMARK VINA RESULT:    -4.967      2.568      5.125
REMARK INTER + INTRA:          -9.855
REMARK INTER:                  -8.020
REMARK INTRA:                  -1.835
REMARK UNBOUND:                -1.404
REMARK SMILES CCCCCCCCCCCCCC(=O)[O-]
REMARK SMILES IDX 8 1 9 2 10 3 11 4 12 5 13 6 14 7 15 8 16 9 7 10 6 11 5 12
REMARK SMILES IDX 4 13 3 14 2 15 1 16
REMARK H PARENT
REMARK Flexibility Score: inf
ROOT
ATOM      1  C   UNL     1      14.810  44.873   3.870  1.00  0.00     0.000 C 
ENDROOT
BRANCH   1   2
ATOM      2  C   UNL     1      15.477  43.527   3.546  1.00  0.00     0.000 C 
BRANCH   2   3
ATOM      3  C   UNL     1      16.854  43.375   4.210  1.00  0.00     0.000 C 
BRANCH   3   4
ATOM      4  C   UNL     1      16.778  43.697   5.707  1.00  0.00     0.000 C 
BRANCH   4   5
ATOM      5  C   UNL     1      16.099  42.561   6.481  1.00  0.00     0.006 C 
BRANCH   5   6
ATOM      6  C   UNL     1      15.537  43.062   7.815  1.00  0.00     0.053 C 
BRANCH   6   7
ATOM      7  C   UNL     1      16.557  43.884   8.537  1.00  0.00     0.041 C 
ATOM      8  O   UNL     1      16.351  45.108   8.747  1.00  0.00    -0.550 OA
ATOM      9  O   UNL     1      17.714  43.287   9.022  1.00  0.00    -0.550 OA
ENDBRANCH   6   7
ENDBRANCH   5   6
ENDBRANCH   4   5
ENDBRANCH   3   4
ENDBRANCH   2   3
ENDBRANCH   1   2
BRANCH   1  10
ATOM     10  C   UNL     1      13.276  44.772   3.942  1.00  0.00     0.000 C 
BRANCH  10  11
ATOM     11  C   UNL     1      12.789  43.325   4.120  1.00  0.00    -0.000 C 
BRANCH  11  12
ATOM     12  C   UNL     1      12.370  43.017   5.568  1.00  0.00    -0.000 C 
BRANCH  12  13
ATOM     13  C   UNL     1      11.608  44.181   6.220  1.00  0.00    -0.000 C 
BRANCH  13  14
ATOM     14  C   UNL     1      12.212  44.598   7.573  1.00  0.00    -0.000 C 
BRANCH  14  15
ATOM     15  C   UNL     1      13.108  45.840   7.460  1.00  0.00    -0.003 C 
ATOM     16  C   UNL     1      12.412  47.009   6.766  1.00  0.00     0.004 C 
ENDBRANCH  14  15
ENDBRANCH  13  14
ENDBRANCH  12  13
ENDBRANCH  11  12
ENDBRANCH  10  11
ENDBRANCH   1  10
TORSDOF 12
ENDMDL
MODEL 5
REMARK VINA RESULT:    -4.941      2.866      4.939
REMARK INTER + INTRA:          -9.811
REMARK INTER:                  -8.127
REMARK INTRA:                  -1.683
REMARK UNBOUND:                -1.404
REMARK SMILES CCCCCCCCCCCCCC(=O)[O-]
REMARK SMILES IDX 8 1 9 2 10 3 11 4 12 5 13 6 14 7 15 8 16 9 7 10 6 11 5 12
REMARK SMILES IDX 4 13 3 14 2 15 1 16
REMARK H PARENT
REMARK Flexibility Score: inf
ROOT
ATOM      1  C   UNL     1      12.692  44.414   4.357  1.00  0.00     0.000 C 
ENDROOT
BRANCH   1   2
ATOM      2  C   UNL     1      13.669  43.367   3.800  1.00  0.00     0.000 C 
BRANCH   2   3
ATOM      3  C   UNL     1      14.985  43.989   3.311  1.00  0.00     0.000 C 
BRANCH   3   4
ATOM      4  C   UNL     1      16.177  43.451   4.112  1.00  0.00     0.000 C 
BRANCH   4   5
ATOM      5  C   UNL     1      16.283  44.148   5.474  1.00  0.00     0.006 C 
BRANCH   5   6
ATOM      6  C   UNL     1      16.228  43.131   6.618  1.00  0.00     0.053 C 
BRANCH   6   7
ATOM      7  C   UNL     1      17.064  43.591   7.770  1.00  0.00     0.041 C 
ATOM      8  O   UNL     1      17.103  44.812   8.076  1.00  0.00    -0.550 OA
ATOM      9  O   UNL     1      17.762  42.667   8.536  1.00  0.00    -0.550 OA
ENDBRANCH   6   7
ENDBRANCH   5   6
ENDBRANCH   4   5
ENDBRANCH   3   4
ENDBRANCH   2   3
ENDBRANCH   1   2
BRANCH   1  10
ATOM     10  C   UNL     1      13.101  45.854   3.999  1.00  0.00     0.000 C 
BRANCH  10  11
ATOM     11  C   UNL     1      13.452  46.691   5.239  1.00  0.00    -0.000 C 
BRANCH  11  12
ATOM     12  C   UNL     1      12.235  46.941   6.147  1.00  0.00    -0.000 C 
BRANCH  12  13
ATOM     13  C   UNL     1      12.516  46.594   7.617  1.00  0.00    -0.000 C 
BRANCH  13  14
ATOM     14  C   UNL     1      13.623  45.536   7.773  1.00  0.00    -0.000 C 
BRANCH  14  15
ATOM     15  C   UNL     1      13.117  44.248   8.440  1.00  0.00    -0.003 C 
ATOM     16  C   UNL     1      11.810  44.453   9.204  1.00  0.00     0.004 C 
ENDBRANCH  14  15
ENDBRANCH  13  14
ENDBRANCH  12  13
ENDBRANCH  11  12
ENDBRANCH  10  11
ENDBRANCH   1  10
TORSDOF 12
ENDMDL
MODEL 6
REMARK VINA RESULT:    -4.940      2.852      5.268
REMARK INTER + INTRA:          -9.810
REMARK INTER:                  -8.064
REMARK INTRA:                  -1.745
REMARK UNBOUND:                -1.404
REMARK SMILES CCCCCCCCCCCCCC(=O)[O-]
REMARK SMILES IDX 8 1 9 2 10 3 11 4 12 5 13 6 14 7 15 8 16 9 7 10 6 11 5 12
REMARK SMILES IDX 4 13 3 14 2 15 1 16
REMARK H PARENT
REMARK Flexibility Score: inf
ROOT
ATOM      1  C   UNL     1      13.775  45.511   4.245  1.00  0.00     0.000 C 
ENDROOT
BRANCH   1   2
ATOM      2  C   UNL     1      15.039  45.013   3.526  1.00  0.00     0.000 C 
BRANCH   2   3
ATOM      3  C   UNL     1      15.361  43.545   3.847  1.00  0.00     0.000 C 
BRANCH   3   4
ATOM      4  C   UNL     1      16.831  43.383   4.251  1.00  0.00     0.000 C 
BRANCH   4   5
ATOM      5  C   UNL     1      17.032  43.705   5.737  1.00  0.00     0.006 C 
BRANCH   5   6
ATOM      6  C   UNL     1      16.299  42.693   6.624  1.00  0.00     0.053 C 
BRANCH   6   7
ATOM      7  C   UNL     1      16.615  42.934   8.065  1.00  0.00     0.041 C 
ATOM      8  O   UNL     1      17.788  42.769   8.493  1.00  0.00    -0.550 OA
ATOM      9  O   UNL     1      15.625  43.387   8.927  1.00  0.00    -0.550 OA
ENDBRANCH   6   7
ENDBRANCH   5   6
ENDBRANCH   4   5
ENDBRANCH   3   4
ENDBRANCH   2   3
ENDBRANCH   1   2
BRANCH   1  10
ATOM     10  C   UNL     1      14.096  46.316   5.517  1.00  0.00     0.000 C 
BRANCH  10  11
ATOM     11  C   UNL     1      13.790  45.532   6.803  1.00  0.00    -0.000 C 
BRANCH  11  12
ATOM     12  C   UNL     1      12.901  44.302   6.546  1.00  0.00    -0.000 C 
BRANCH  12  13
ATOM     13  C   UNL     1      11.432  44.549   6.921  1.00  0.00    -0.000 C 
BRANCH  13  14
ATOM     14  C   UNL     1      11.258  45.754   7.863  1.00  0.00    -0.000 C 
BRANCH  14  15
ATOM     15  C   UNL     1      10.195  46.743   7.362  1.00  0.00    -0.003 C 
ATOM     16  C   UNL     1      10.512  47.300   5.975  1.00  0.00     0.004 C 
ENDBRANCH  14  15
ENDBRANCH  13  14
ENDBRANCH  12  13
ENDBRANCH  11  12
ENDBRANCH  10  11
ENDBRANCH   1  10
TORSDOF 12
ENDMDL
MODEL 7
REMARK VINA RESULT:    -4.936      2.693      5.482
REMARK INTER + INTRA:          -9.803
REMARK INTER:                  -7.944
REMARK INTRA:                  -1.860
REMARK UNBOUND:                -1.404
REMARK SMILES CCCCCCCCCCCCCC(=O)[O-]
REMARK SMILES IDX 8 1 9 2 10 3 11 4 12 5 13 6 14 7 15 8 16 9 7 10 6 11 5 12
REMARK SMILES IDX 4 13 3 14 2 15 1 16
REMARK H PARENT
REMARK Flexibility Score: inf
ROOT
ATOM      1  C   UNL     1      14.480  43.407   3.261  1.00  0.00     0.000 C 
ENDROOT
BRANCH   1   2
ATOM      2  C   UNL     1      15.439  44.112   4.232  1.00  0.00     0.000 C 
BRANCH   2   3
ATOM      3  C   UNL     1      16.754  43.341   4.427  1.00  0.00     0.000 C 
BRANCH   3   4
ATOM      4  C   UNL     1      17.414  43.711   5.760  1.00  0.00     0.000 C 
BRANCH   4   5
ATOM      5  C   UNL     1      16.635  44.826   6.469  1.00  0.00     0.006 C 
BRANCH   5   6
ATOM      6  C   UNL     1      16.962  44.861   7.965  1.00  0.00     0.053 C 
BRANCH   6   7
ATOM      7  C   UNL     1      16.618  43.555   8.606  1.00  0.00     0.041 C 
ATOM      8  O   UNL     1      15.413  43.231   8.780  1.00  0.00    -0.550 OA
ATOM      9  O   UNL     1      17.627  42.671   8.969  1.00  0.00    -0.550 OA
ENDBRANCH   6   7
ENDBRANCH   5   6
ENDBRANCH   4   5
ENDBRANCH   3   4
ENDBRANCH   2   3
ENDBRANCH   1   2
BRANCH   1  10
ATOM     10  C   UNL     1      13.144  43.023   3.923  1.00  0.00     0.000 C 
BRANCH  10  11
ATOM     11  C   UNL     1      13.249  42.938   5.454  1.00  0.00    -0.000 C 
BRANCH  11  12
ATOM     12  C   UNL     1      12.280  43.899   6.166  1.00  0.00    -0.000 C 
BRANCH  12  13
ATOM     13  C   UNL     1      13.010  45.045   6.883  1.00  0.00    -0.000 C 
BRANCH  13  14
ATOM     14  C   UNL     1      13.059  46.332   6.040  1.00  0.00    -0.000 C 
BRANCH  14  15
ATOM     15  C   UNL     1      11.840  46.478   5.117  1.00  0.00    -0.003 C 
ATOM     16  C   UNL     1      12.225  46.578   3.642  1.00  0.00     0.004 C 
ENDBRANCH  14  15
ENDBRANCH  13  14
ENDBRANCH  12  13
ENDBRANCH  11  12
ENDBRANCH  10  11
ENDBRANCH   1  10
TORSDOF 12
ENDMDL
MODEL 8
REMARK VINA RESULT:    -4.928      2.813      5.542
REMARK INTER + INTRA:          -9.788
REMARK INTER:                  -7.879
REMARK INTRA:                  -1.910
REMARK UNBOUND:                -1.404
REMARK SMILES CCCCCCCCCCCCCC(=O)[O-]
REMARK SMILES IDX 8 1 9 2 10 3 11 4 12 5 13 6 14 7 15 8 16 9 7 10 6 11 5 12
REMARK SMILES IDX 4 13 3 14 2 15 1 16
REMARK H PARENT
REMARK Flexibility Score: inf
ROOT
ATOM      1  C   UNL     1      11.694  46.548   7.342  1.00  0.00     0.000 C 
ENDROOT
BRANCH   1   2
ATOM      2  C   UNL     1      12.910  45.759   7.851  1.00  0.00     0.000 C 
BRANCH   2   3
ATOM      3  C   UNL     1      12.528  44.377   8.402  1.00  0.00     0.000 C 
BRANCH   3   4
ATOM      4  C   UNL     1      13.759  43.468   8.501  1.00  0.00     0.000 C 
BRANCH   4   5
ATOM      5  C   UNL     1      14.913  44.009   7.649  1.00  0.00     0.006 C 
BRANCH   5   6
ATOM      6  C   UNL     1      15.818  42.873   7.162  1.00  0.00     0.053 C 
BRANCH   6   7
ATOM      7  C   UNL     1      17.256  43.226   7.363  1.00  0.00     0.041 C 
ATOM      8  O   UNL     1      17.814  43.007   8.471  1.00  0.00    -0.550 OA
ATOM      9  O   UNL     1      17.997  43.753   6.312  1.00  0.00    -0.550 OA
ENDBRANCH   6   7
ENDBRANCH   5   6
ENDBRANCH   4   5
ENDBRANCH   3   4
ENDBRANCH   2   3
ENDBRANCH   1   2
BRANCH   1  10
ATOM     10  C   UNL     1      11.783  46.870   5.839  1.00  0.00     0.000 C 
BRANCH  10  11
ATOM     11  C   UNL     1      13.220  46.778   5.303  1.00  0.00    -0.000 C 
BRANCH  11  12
ATOM     12  C   UNL     1      13.314  45.955   4.005  1.00  0.00    -0.000 C 
BRANCH  12  13
ATOM     13  C   UNL     1      14.526  45.011   3.993  1.00  0.00    -0.000 C 
BRANCH  13  14
ATOM     14  C   UNL     1      14.119  43.528   3.938  1.00  0.00    -0.000 C 
BRANCH  14  15
ATOM     15  C   UNL     1      12.648  43.308   4.322  1.00  0.00    -0.003 C 
ATOM     16  C   UNL     1      12.417  41.978   5.037  1.00  0.00     0.004 C 
ENDBRANCH  14  15
ENDBRANCH  13  14
ENDBRANCH  12  13
ENDBRANCH  11  12
ENDBRANCH  10  11
ENDBRANCH   1  10
TORSDOF 12
ENDMDL
MODEL 9
REMARK VINA RESULT:    -4.894      2.344      4.481
REMARK INTER + INTRA:          -9.731
REMARK INTER:                  -8.092
REMARK INTRA:                  -1.638
REMARK UNBOUND:                -1.404
REMARK SMILES CCCCCCCCCCCCCC(=O)[O-]
REMARK SMILES IDX 8 1 9 2 10 3 11 4 12 5 13 6 14 7 15 8 16 9 7 10 6 11 5 12
REMARK SMILES IDX 4 13 3 14 2 15 1 16
REMARK H PARENT
REMARK Flexibility Score: inf
ROOT
ATOM      1  C   UNL     1      15.008  45.226   3.591  1.00  0.00     0.000 C 
ENDROOT
BRANCH   1   2
ATOM      2  C   UNL     1      13.720  45.559   4.359  1.00  0.00     0.000 C 
BRANCH   2   3
ATOM      3  C   UNL     1      12.972  44.302   4.829  1.00  0.00     0.000 C 
BRANCH   3   4
ATOM      4  C   UNL     1      12.973  44.204   6.359  1.00  0.00     0.000 C 
BRANCH   4   5
ATOM      5  C   UNL     1      13.601  45.453   6.990  1.00  0.00     0.006 C 
BRANCH   5   6
ATOM      6  C   UNL     1      12.668  46.069   8.038  1.00  0.00     0.053 C 
BRANCH   6   7
ATOM      7  C   UNL     1      11.371  46.470   7.413  1.00  0.00     0.041 C 
ATOM      8  O   UNL     1      10.282  46.049   7.886  1.00  0.00    -0.550 OA
ATOM      9  O   UNL     1      11.359  47.348   6.337  1.00  0.00    -0.550 OA
ENDBRANCH   6   7
ENDBRANCH   5   6
ENDBRANCH   4   5
ENDBRANCH   3   4
ENDBRANCH   2   3
ENDBRANCH   1   2
BRANCH   1  10
ATOM     10  C   UNL     1      15.247  43.711   3.463  1.00  0.00     0.000 C 
BRANCH  10  11
ATOM     11  C   UNL     1      16.610  43.280   4.026  1.00  0.00    -0.000 C 
BRANCH  11  12
ATOM     12  C   UNL     1      16.578  43.070   5.551  1.00  0.00    -0.000 C 
BRANCH  12  13
ATOM     13  C   UNL     1      17.702  43.829   6.273  1.00  0.00    -0.000 C 
BRANCH  13  14
ATOM     14  C   UNL     1      17.176  45.012   7.105  1.00  0.00    -0.000 C 
BRANCH  14  15
ATOM     15  C   UNL     1      16.923  44.633   8.572  1.00  0.00    -0.003 C 
ATOM     16  C   UNL     1      17.527  43.281   8.946  1.00  0.00     0.004 C 
ENDBRANCH  14  15
ENDBRANCH  13  14
ENDBRANCH  12  13
ENDBRANCH  11  12
ENDBRANCH  10  11
ENDBRANCH   1  10
TORSDOF 12
ENDMDL
