MODEL 1
REMARK VINA RESULT:    -3.989      0.000      0.000
REMARK INTER + INTRA:          -4.105
REMARK INTER:                  -4.105
REMARK INTRA:                   0.000
REMARK UNBOUND:                 0.000
REMARK SMILES CC1(C)[C@H]2CC[C@](C)(C2)[C@H]1O
REMARK SMILES IDX 1 1 2 2 4 3 5 4 6 5 7 6 9 7 10 8 8 9 3 10 11 11
REMARK H PARENT 11 12
REMARK Flexibility Score: inf
ROOT
ATOM      1  C   UNL     1     170.558 167.293 167.905  1.00  0.00     0.014 C 
ATOM      2  C   UNL     1     169.915 168.314 168.877  1.00  0.00    -0.006 C 
ATOM      3  C   UNL     1     168.979 167.573 169.893  1.00  0.00    -0.002 C 
ATOM      4  C   UNL     1     168.532 168.515 171.032  1.00  0.00     0.005 C 
ATOM      5  C   UNL     1     167.615 169.513 170.308  1.00  0.00     0.010 C 
ATOM      6  C   UNL     1     167.565 168.949 168.869  1.00  0.00    -0.006 C 
ATOM      7  C   UNL     1     167.675 167.461 169.122  1.00  0.00     0.013 C 
ATOM      8  C   UNL     1     168.899 169.239 168.128  1.00  0.00     0.126 C 
ATOM      9  C   UNL     1     166.311 169.351 168.086  1.00  0.00     0.014 C 
ATOM     10  C   UNL     1     171.071 169.090 169.560  1.00  0.00     0.014 C 
ENDROOT
BRANCH   8  11
ATOM     11  O   UNL     1     169.250 170.600 168.187  1.00  0.00    -0.392 OA
ATOM     12  H   UNL     1     170.241 170.640 168.136  1.00  0.00     0.211 HD
ENDBRANCH   8  11
TORSDOF 1
ENDMDL
MODEL 2
REMARK VINA RESULT:    -3.976      0.856      3.303
REMARK INTER + INTRA:          -4.092
REMARK INTER:                  -4.092
REMARK INTRA:                   0.000
REMARK UNBOUND:                 0.000
REMARK SMILES CC1(C)[C@H]2CC[C@](C)(C2)[C@H]1O
REMARK SMILES IDX 1 1 2 2 4 3 5 4 6 5 7 6 9 7 10 8 8 9 3 10 11 11
REMARK H PARENT 11 12
REMARK Flexibility Score: inf
ROOT
ATOM      1  C   UNL     1     166.979 169.207 170.369  1.00  0.00     0.014 C 
ATOM      2  C   UNL     1     167.903 168.747 169.215  1.00  0.00    -0.006 C 
ATOM      3  C   UNL     1     168.540 167.356 169.557  1.00  0.00    -0.002 C 
ATOM      4  C   UNL     1     169.251 166.748 168.329  1.00  0.00     0.005 C 
ATOM      5  C   UNL     1     170.449 167.690 168.128  1.00  0.00     0.010 C 
ATOM      6  C   UNL     1     170.333 168.651 169.335  1.00  0.00    -0.006 C 
ATOM      7  C   UNL     1     169.748 167.740 170.393  1.00  0.00     0.013 C 
ATOM      8  C   UNL     1     169.172 169.658 169.114  1.00  0.00     0.126 C 
ATOM      9  C   UNL     1     171.659 169.300 169.742  1.00  0.00     0.014 C 
ATOM     10  C   UNL     1     167.049 168.730 167.920  1.00  0.00     0.014 C 
ENDROOT
BRANCH   8  11
ATOM     11  O   UNL     1     169.274 170.318 167.876  1.00  0.00    -0.392 OA
ATOM     12  H   UNL     1     170.167 170.751 167.857  1.00  0.00     0.211 HD
ENDBRANCH   8  11
TORSDOF 1
ENDMDL
MODEL 3
REMARK VINA RESULT:    -3.945      2.160      3.051
REMARK INTER + INTRA:          -4.060
REMARK INTER:                  -4.060
REMARK INTRA:                   0.000
REMARK UNBOUND:                 0.000
REMARK SMILES CC1(C)[C@H]2CC[C@](C)(C2)[C@H]1O
REMARK SMILES IDX 1 1 2 2 4 3 5 4 6 5 7 6 9 7 10 8 8 9 3 10 11 11
REMARK H PARENT 11 12
REMARK Flexibility Score: inf
ROOT
ATOM      1  C   UNL     1     168.447 170.128 168.197  1.00  0.00     0.014 C 
ATOM      2  C   UNL     1     167.232 169.558 168.971  1.00  0.00    -0.006 C 
ATOM      3  C   UNL     1     167.716 168.527 170.048  1.00  0.00    -0.002 C 
ATOM      4  C   UNL     1     166.571 168.140 171.007  1.00  0.00     0.005 C 
ATOM      5  C   UNL     1     165.619 167.344 170.100  1.00  0.00     0.010 C 
ATOM      6  C   UNL     1     166.396 167.281 168.763  1.00  0.00    -0.006 C 
ATOM      7  C   UNL     1     167.830 167.240 169.247  1.00  0.00     0.013 C 
ATOM      8  C   UNL     1     166.349 168.657 168.045  1.00  0.00     0.126 C 
ATOM      9  C   UNL     1     166.010 166.095 167.875  1.00  0.00     0.014 C 
ATOM     10  C   UNL     1     166.466 170.764 169.576  1.00  0.00     0.014 C 
ENDROOT
BRANCH   8  11
ATOM     11  O   UNL     1     165.033 169.136 167.909  1.00  0.00    -0.392 OA
ATOM     12  H   UNL     1     164.750 169.449 168.808  1.00  0.00     0.211 HD
ENDBRANCH   8  11
TORSDOF 1
ENDMDL
MODEL 4
REMARK VINA RESULT:    -3.932      2.884      3.896
REMARK INTER + INTRA:          -4.047
REMARK INTER:                  -4.047
REMARK INTRA:                   0.000
REMARK UNBOUND:                 0.000
REMARK SMILES CC1(C)[C@H]2CC[C@](C)(C2)[C@H]1O
REMARK SMILES IDX 1 1 2 2 4 3 5 4 6 5 7 6 9 7 10 8 8 9 3 10 11 11
REMARK H PARENT 11 12
REMARK Flexibility Score: inf
ROOT
ATOM      1  C   UNL     1     168.456 166.022 170.374  1.00  0.00     0.014 C 
ATOM      2  C   UNL     1     167.557 166.514 169.213  1.00  0.00    -0.006 C 
ATOM      3  C   UNL     1     166.977 167.932 169.545  1.00  0.00    -0.002 C 
ATOM      4  C   UNL     1     166.297 168.563 168.312  1.00  0.00     0.005 C 
ATOM      5  C   UNL     1     165.062 167.670 168.110  1.00  0.00     0.010 C 
ATOM      6  C   UNL     1     165.133 166.711 169.321  1.00  0.00    -0.006 C 
ATOM      7  C   UNL     1     165.750 167.602 170.378  1.00  0.00     0.013 C 
ATOM      8  C   UNL     1     166.252 165.656 169.111  1.00  0.00     0.126 C 
ATOM      9  C   UNL     1     163.779 166.119 169.726  1.00  0.00     0.014 C 
ATOM     10  C   UNL     1     168.417 166.490 167.922  1.00  0.00     0.014 C 
ENDROOT
BRANCH   8  11
ATOM     11  O   UNL     1     166.128 164.994 167.875  1.00  0.00    -0.392 OA
ATOM     12  H   UNL     1     166.689 165.494 167.227  1.00  0.00     0.211 HD
ENDBRANCH   8  11
TORSDOF 1
ENDMDL
MODEL 5
REMARK VINA RESULT:    -3.927      2.035      3.521
REMARK INTER + INTRA:          -4.042
REMARK INTER:                  -4.042
REMARK INTRA:                   0.000
REMARK UNBOUND:                 0.000
REMARK SMILES CC1(C)[C@H]2CC[C@](C)(C2)[C@H]1O
REMARK SMILES IDX 1 1 2 2 4 3 5 4 6 5 7 6 9 7 10 8 8 9 3 10 11 11
REMARK H PARENT 11 12
REMARK Flexibility Score: inf
ROOT
ATOM      1  C   UNL     1     165.790 167.031 170.613  1.00  0.00     0.014 C 
ATOM      2  C   UNL     1     166.345 167.711 169.337  1.00  0.00    -0.006 C 
ATOM      3  C   UNL     1     167.840 168.128 169.557  1.00  0.00    -0.002 C 
ATOM      4  C   UNL     1     168.500 168.566 168.232  1.00  0.00     0.005 C 
ATOM      5  C   UNL     1     167.770 169.878 167.904  1.00  0.00     0.010 C 
ATOM      6  C   UNL     1     166.863 170.082 169.141  1.00  0.00    -0.006 C 
ATOM      7  C   UNL     1     167.710 169.479 170.241  1.00  0.00     0.013 C 
ATOM      8  C   UNL     1     165.662 169.099 169.098  1.00  0.00     0.126 C 
ATOM      9  C   UNL     1     166.472 171.541 169.391  1.00  0.00     0.014 C 
ATOM     10  C   UNL     1     166.152 166.716 168.163  1.00  0.00     0.014 C 
ENDROOT
BRANCH   8  11
ATOM     11  O   UNL     1     164.969 169.165 167.875  1.00  0.00    -0.392 OA
ATOM     12  H   UNL     1     165.104 170.082 167.521  1.00  0.00     0.211 HD
ENDBRANCH   8  11
TORSDOF 1
ENDMDL
MODEL 6
REMARK VINA RESULT:    -3.876      2.363      3.703
REMARK INTER + INTRA:          -3.989
REMARK INTER:                  -3.989
REMARK INTRA:                   0.000
REMARK UNBOUND:                 0.000
REMARK SMILES CC1(C)[C@H]2CC[C@](C)(C2)[C@H]1O
REMARK SMILES IDX 1 1 2 2 4 3 5 4 6 5 7 6 9 7 10 8 8 9 3 10 11 11
REMARK H PARENT 11 12
REMARK Flexibility Score: inf
ROOT
ATOM      1  C   UNL     1     169.579 168.393 170.399  1.00  0.00     0.014 C 
ATOM      2  C   UNL     1     169.097 167.587 169.167  1.00  0.00    -0.006 C 
ATOM      3  C   UNL     1     167.614 167.124 169.374  1.00  0.00    -0.002 C 
ATOM      4  C   UNL     1     167.019 166.551 168.070  1.00  0.00     0.005 C 
ATOM      5  C   UNL     1     167.813 165.250 167.875  1.00  0.00     0.010 C 
ATOM      6  C   UNL     1     168.683 165.188 169.152  1.00  0.00    -0.006 C 
ATOM      7  C   UNL     1     167.774 165.841 170.172  1.00  0.00     0.013 C 
ATOM      8  C   UNL     1     169.845 166.215 169.066  1.00  0.00     0.126 C 
ATOM      9  C   UNL     1     169.124 163.772 169.536  1.00  0.00     0.014 C 
ATOM     10  C   UNL     1     169.291 168.490 167.921  1.00  0.00     0.014 C 
ENDROOT
BRANCH   8  11
ATOM     11  O   UNL     1     170.581 166.080 167.875  1.00  0.00    -0.392 OA
ATOM     12  H   UNL     1     170.127 165.380 167.338  1.00  0.00     0.211 HD
ENDBRANCH   8  11
TORSDOF 1
ENDMDL
MODEL 7
REMARK VINA RESULT:    -3.861      2.915      4.544
REMARK INTER + INTRA:          -3.973
REMARK INTER:                  -3.973
REMARK INTRA:                   0.000
REMARK UNBOUND:                 0.000
REMARK SMILES CC1(C)[C@H]2CC[C@](C)(C2)[C@H]1O
REMARK SMILES IDX 1 1 2 2 4 3 5 4 6 5 7 6 9 7 10 8 8 9 3 10 11 11
REMARK H PARENT 11 12
REMARK Flexibility Score: inf
ROOT
ATOM      1  C   UNL     1     164.655 167.904 167.983  1.00  0.00     0.014 C 
ATOM      2  C   UNL     1     165.391 166.920 168.927  1.00  0.00    -0.006 C 
ATOM      3  C   UNL     1     166.394 167.703 169.843  1.00  0.00    -0.002 C 
ATOM      4  C   UNL     1     166.946 166.800 170.967  1.00  0.00     0.005 C 
ATOM      5  C   UNL     1     167.818 165.794 170.199  1.00  0.00     0.010 C 
ATOM      6  C   UNL     1     167.742 166.317 168.745  1.00  0.00    -0.006 C 
ATOM      7  C   UNL     1     167.630 167.810 168.965  1.00  0.00     0.013 C 
ATOM      8  C   UNL     1     166.358 165.988 168.124  1.00  0.00     0.126 C 
ATOM      9  C   UNL     1     168.935 165.909 167.875  1.00  0.00     0.014 C 
ATOM     10  C   UNL     1     164.306 166.149 169.723  1.00  0.00     0.014 C 
ENDROOT
BRANCH   8  11
ATOM     11  O   UNL     1     166.033 164.624 168.249  1.00  0.00    -0.392 OA
ATOM     12  H   UNL     1     166.827 164.179 168.645  1.00  0.00     0.211 HD
ENDBRANCH   8  11
TORSDOF 1
ENDMDL
MODEL 8
REMARK VINA RESULT:    -3.631      1.713      2.837
REMARK INTER + INTRA:          -3.738
REMARK INTER:                  -3.738
REMARK INTRA:                   0.000
REMARK UNBOUND:                 0.000
REMARK SMILES CC1(C)[C@H]2CC[C@](C)(C2)[C@H]1O
REMARK SMILES IDX 1 1 2 2 4 3 5 4 6 5 7 6 9 7 10 8 8 9 3 10 11 11
REMARK H PARENT 11 12
REMARK Flexibility Score: inf
ROOT
ATOM      1  C   UNL     1     168.436 165.695 170.385  1.00  0.00     0.014 C 
ATOM      2  C   UNL     1     168.576 166.629 169.157  1.00  0.00    -0.006 C 
ATOM      3  C   UNL     1     169.778 167.614 169.364  1.00  0.00    -0.002 C 
ATOM      4  C   UNL     1     170.110 168.374 168.062  1.00  0.00     0.005 C 
ATOM      5  C   UNL     1     168.884 169.282 167.876  1.00  0.00     0.010 C 
ATOM      6  C   UNL     1     168.059 169.007 169.155  1.00  0.00    -0.006 C 
ATOM      7  C   UNL     1     169.150 168.739 170.169  1.00  0.00     0.013 C 
ATOM      8  C   UNL     1     167.368 167.619 169.065  1.00  0.00     0.126 C 
ATOM      9  C   UNL     1     167.120 170.152 169.546  1.00  0.00     0.014 C 
ATOM     10  C   UNL     1     168.732 165.724 167.906  1.00  0.00     0.014 C 
ENDROOT
BRANCH   8  11
ATOM     11  O   UNL     1     166.630 167.474 167.875  1.00  0.00    -0.392 OA
ATOM     12  H   UNL     1     167.283 167.512 167.129  1.00  0.00     0.211 HD
ENDBRANCH   8  11
TORSDOF 1
ENDMDL
MODEL 9
REMARK VINA RESULT:    -3.602      1.723      2.109
REMARK INTER + INTRA:          -3.707
REMARK INTER:                  -3.707
REMARK INTRA:                   0.000
REMARK UNBOUND:                 0.000
REMARK SMILES CC1(C)[C@H]2CC[C@](C)(C2)[C@H]1O
REMARK SMILES IDX 1 1 2 2 4 3 5 4 6 5 7 6 9 7 10 8 8 9 3 10 11 11
REMARK H PARENT 11 12
REMARK Flexibility Score: inf
ROOT
ATOM      1  C   UNL     1     169.677 166.612 167.875  1.00  0.00     0.014 C 
ATOM      2  C   UNL     1     168.684 167.180 168.919  1.00  0.00    -0.006 C 
ATOM      3  C   UNL     1     167.962 166.007 169.668  1.00  0.00    -0.002 C 
ATOM      4  C   UNL     1     167.168 166.525 170.887  1.00  0.00     0.005 C 
ATOM      5  C   UNL     1     166.035 167.335 170.237  1.00  0.00     0.010 C 
ATOM      6  C   UNL     1     166.260 167.084 168.727  1.00  0.00    -0.006 C 
ATOM      7  C   UNL     1     166.812 165.675 168.732  1.00  0.00     0.013 C 
ATOM      8  C   UNL     1     167.482 167.897 168.220  1.00  0.00     0.126 C 
ATOM      9  C   UNL     1     164.997 167.250 167.875  1.00  0.00     0.014 C 
ATOM     10  C   UNL     1     169.492 168.107 169.866  1.00  0.00     0.014 C 
ENDROOT
BRANCH   8  11
ATOM     11  O   UNL     1     167.386 169.260 168.557  1.00  0.00    -0.392 OA
ATOM     12  H   UNL     1     168.157 169.713 168.129  1.00  0.00     0.211 HD
ENDBRANCH   8  11
TORSDOF 1
ENDMDL
