MODEL 1
REMARK VINA RESULT:    29.824      0.000      0.000
REMARK INTER + INTRA:          40.324
REMARK INTER:                  41.157
REMARK INTRA:                  -0.833
REMARK UNBOUND:                -0.833
REMARK SMILES CC[C@@H](CC[C@@H](C)[C@H]1CC[C@@H]2[C@@H]3CC=C4C[C@H](O)CC[C@@]4(C)[C@H]3CC[C@]21C)C(C)C
REMARK SMILES IDX 5 1 4 2 3 3 2 4 1 5 28 6 29 7 30 8 6 9 7 10 8 11 9 12 26 13
REMARK SMILES IDX 10 14 11 15 25 16 27 17 12 18 24 19 23 20 13 21 21 22 14 23
REMARK SMILES IDX 15 24 20 25 22 26 16 27 19 28 17 29 18 30
REMARK H PARENT 18 31
REMARK Flexibility Score: inf
ROOT
ATOM      1  C   UNL     1     -14.152  -4.238 -12.140  1.00  0.00     0.004 C 
ENDROOT
BRANCH   1   2
ATOM      2  C   UNL     1     -14.326  -3.323 -10.907  1.00  0.00     0.004 C 
BRANCH   2   3
ATOM      3  C   UNL     1     -13.822  -3.915  -9.556  1.00  0.00    -0.009 C 
BRANCH   3   4
ATOM      4  C   UNL     1     -12.414  -3.354  -9.211  1.00  0.00     0.000 C 
ATOM      5  C   UNL     1     -11.933  -2.255 -10.163  1.00  0.00     0.004 C 
ENDBRANCH   3   4
BRANCH   3   6
ATOM      6  C   UNL     1     -13.871  -5.482  -9.546  1.00  0.00    -0.014 C 
ATOM      7  C   UNL     1     -12.608  -6.099  -8.919  1.00  0.00     0.007 C 
ATOM      8  C   UNL     1     -15.130  -6.055  -8.875  1.00  0.00     0.007 C 
ENDBRANCH   3   6
ENDBRANCH   2   3
ENDBRANCH   1   2
BRANCH   1   9
ATOM      9  C   UNL     1     -14.482  -3.610 -13.528  1.00  0.00    -0.011 C 
ATOM     10  C   UNL     1     -14.894  -2.133 -13.375  1.00  0.00     0.008 C 
BRANCH   9  11
ATOM     11  C   UNL     1     -13.463  -3.898 -14.699  1.00  0.00    -0.002 C 
ATOM     12  C   UNL     1     -12.865  -5.333 -14.574  1.00  0.00     0.005 C 
ATOM     13  C   UNL     1     -13.875  -3.781 -16.218  1.00  0.00    -0.026 C 
ATOM     14  C   UNL     1     -13.199  -6.102 -15.860  1.00  0.00     0.005 C 
ATOM     15  C   UNL     1     -14.237  -5.237 -16.553  1.00  0.00    -0.001 C 
ATOM     16  C   UNL     1     -15.072  -2.844 -16.619  1.00  0.00     0.007 C 
ATOM     17  C   UNL     1     -12.589  -3.300 -16.972  1.00  0.00     0.012 C 
ATOM     18  C   UNL     1     -14.623  -5.539 -18.031  1.00  0.00     0.000 C 
ATOM     19  C   UNL     1     -16.000  -3.414 -17.735  1.00  0.00     0.005 C 
ATOM     20  C   UNL     1     -15.233  -4.303 -18.744  1.00  0.00     0.003 C 
ATOM     21  C   UNL     1     -13.533  -6.112 -18.940  1.00  0.00     0.031 C 
ATOM     22  C   UNL     1     -16.010  -4.733 -20.043  1.00  0.00    -0.008 C 
ATOM     23  C   UNL     1     -14.136  -6.457 -20.282  1.00  0.00    -0.027 C 
ATOM     24  C   UNL     1     -15.256  -5.862 -20.777  1.00  0.00    -0.065 C 
ATOM     25  C   UNL     1     -17.445  -5.244 -19.711  1.00  0.00     0.014 C 
ATOM     26  C   UNL     1     -16.101  -3.501 -20.987  1.00  0.00     0.016 C 
ATOM     27  C   UNL     1     -15.936  -6.482 -21.979  1.00  0.00     0.063 C 
ATOM     28  C   UNL     1     -18.161  -5.890 -20.916  1.00  0.00     0.033 C 
ATOM     29  C   UNL     1     -17.320  -7.005 -21.561  1.00  0.00     0.118 C 
BRANCH  29  30
ATOM     30  O   UNL     1     -18.006  -7.503 -22.680  1.00  0.00    -0.393 OA
ATOM     31  H   UNL     1     -17.814  -8.475 -22.724  1.00  0.00     0.210 HD
ENDBRANCH  29  30
ENDBRANCH   9  11
ENDBRANCH   1   9
TORSDOF 7
ENDMDL
MODEL 2
REMARK VINA RESULT:    32.199      2.230      3.760
REMARK INTER + INTRA:          43.602
REMARK INTER:                  37.198
REMARK INTRA:                   6.404
REMARK UNBOUND:                -0.833
REMARK SMILES CC[C@@H](CC[C@@H](C)[C@H]1CC[C@@H]2[C@@H]3CC=C4C[C@H](O)CC[C@@]4(C)[C@H]3CC[C@]21C)C(C)C
REMARK SMILES IDX 5 1 4 2 3 3 2 4 1 5 28 6 29 7 30 8 6 9 7 10 8 11 9 12 26 13
REMARK SMILES IDX 10 14 11 15 25 16 27 17 12 18 24 19 23 20 13 21 21 22 14 23
REMARK SMILES IDX 15 24 20 25 22 26 16 27 19 28 17 29 18 30
REMARK H PARENT 18 31
REMARK Flexibility Score: inf
ROOT
ATOM      1  C   UNL     1     -12.350  -4.492 -11.102  1.00  0.00     0.004 C 
ENDROOT
BRANCH   1   2
ATOM      2  C   UNL     1     -11.882  -4.973  -9.711  1.00  0.00     0.004 C 
BRANCH   2   3
ATOM      3  C   UNL     1     -12.912  -5.831  -8.916  1.00  0.00    -0.009 C 
BRANCH   3   4
ATOM      4  C   UNL     1     -12.466  -7.320  -8.886  1.00  0.00     0.000 C 
ATOM      5  C   UNL     1     -11.931  -7.836 -10.224  1.00  0.00     0.004 C 
ENDBRANCH   3   4
BRANCH   3   6
ATOM      6  C   UNL     1     -14.372  -5.645  -9.454  1.00  0.00    -0.014 C 
ATOM      7  C   UNL     1     -15.343  -6.689  -8.875  1.00  0.00     0.007 C 
ATOM      8  C   UNL     1     -14.930  -4.228  -9.245  1.00  0.00     0.007 C 
ENDBRANCH   3   6
ENDBRANCH   2   3
ENDBRANCH   1   2
BRANCH   1   9
ATOM      9  C   UNL     1     -13.605  -3.567 -11.135  1.00  0.00    -0.011 C 
ATOM     10  C   UNL     1     -13.887  -2.978  -9.739  1.00  0.00     0.008 C 
BRANCH   9  11
ATOM     11  C   UNL     1     -13.694  -2.531 -12.323  1.00  0.00    -0.002 C 
ATOM     12  C   UNL     1     -12.321  -1.827 -12.550  1.00  0.00     0.005 C 
ATOM     13  C   UNL     1     -14.157  -2.954 -13.772  1.00  0.00    -0.026 C 
ATOM     14  C   UNL     1     -11.876  -2.104 -13.992  1.00  0.00     0.005 C 
ATOM     15  C   UNL     1     -12.809  -3.205 -14.466  1.00  0.00    -0.001 C 
ATOM     16  C   UNL     1     -15.074  -4.218 -13.947  1.00  0.00     0.007 C 
ATOM     17  C   UNL     1     -14.904  -1.708 -14.360  1.00  0.00     0.012 C 
ATOM     18  C   UNL     1     -12.858  -3.570 -15.979  1.00  0.00     0.000 C 
ATOM     19  C   UNL     1     -14.735  -5.102 -15.186  1.00  0.00     0.005 C 
ATOM     20  C   UNL     1     -14.184  -4.273 -16.371  1.00  0.00     0.003 C 
ATOM     21  C   UNL     1     -12.612  -2.441 -16.983  1.00  0.00     0.031 C 
ATOM     22  C   UNL     1     -14.038  -5.017 -17.750  1.00  0.00    -0.008 C 
ATOM     23  C   UNL     1     -12.570  -3.019 -18.379  1.00  0.00    -0.027 C 
ATOM     24  C   UNL     1     -13.186  -4.181 -18.729  1.00  0.00    -0.065 C 
ATOM     25  C   UNL     1     -13.356  -6.409 -17.581  1.00  0.00     0.014 C 
ATOM     26  C   UNL     1     -15.456  -5.202 -18.358  1.00  0.00     0.016 C 
ATOM     27  C   UNL     1     -12.839  -4.815 -20.060  1.00  0.00     0.063 C 
ATOM     28  C   UNL     1     -12.981  -7.076 -18.921  1.00  0.00     0.033 C 
ATOM     29  C   UNL     1     -12.127  -6.155 -19.809  1.00  0.00     0.118 C 
BRANCH  29  30
ATOM     30  O   UNL     1     -11.876  -6.803 -21.028  1.00  0.00    -0.393 OA
ATOM     31  H   UNL     1     -12.543  -6.460 -21.678  1.00  0.00     0.210 HD
ENDBRANCH  29  30
ENDBRANCH   9  11
ENDBRANCH   1   9
TORSDOF 7
ENDMDL
MODEL 3
REMARK VINA RESULT:    32.277      2.188      3.299
REMARK INTER + INTRA:          43.708
REMARK INTER:                  42.753
REMARK INTRA:                   0.955
REMARK UNBOUND:                -0.833
REMARK SMILES CC[C@@H](CC[C@@H](C)[C@H]1CC[C@@H]2[C@@H]3CC=C4C[C@H](O)CC[C@@]4(C)[C@H]3CC[C@]21C)C(C)C
REMARK SMILES IDX 5 1 4 2 3 3 2 4 1 5 28 6 29 7 30 8 6 9 7 10 8 11 9 12 26 13
REMARK SMILES IDX 10 14 11 15 25 16 27 17 12 18 24 19 23 20 13 21 21 22 14 23
REMARK SMILES IDX 15 24 20 25 22 26 16 27 19 28 17 29 18 30
REMARK H PARENT 18 31
REMARK Flexibility Score: inf
ROOT
ATOM      1  C   UNL     1     -14.549  -3.242 -11.140  1.00  0.00     0.004 C 
ENDROOT
BRANCH   1   2
ATOM      2  C   UNL     1     -14.523  -3.288  -9.596  1.00  0.00     0.004 C 
BRANCH   2   3
ATOM      3  C   UNL     1     -13.575  -4.357  -8.973  1.00  0.00    -0.009 C 
BRANCH   3   4
ATOM      4  C   UNL     1     -12.103  -3.856  -9.000  1.00  0.00     0.000 C 
ATOM      5  C   UNL     1     -11.966  -2.332  -9.044  1.00  0.00     0.004 C 
ENDBRANCH   3   4
BRANCH   3   6
ATOM      6  C   UNL     1     -13.750  -5.762  -9.645  1.00  0.00    -0.014 C 
ATOM      7  C   UNL     1     -12.819  -6.822  -9.031  1.00  0.00     0.007 C 
ATOM      8  C   UNL     1     -15.202  -6.268  -9.644  1.00  0.00     0.007 C 
ENDBRANCH   3   6
ENDBRANCH   2   3
ENDBRANCH   1   2
BRANCH   1   9
ATOM      9  C   UNL     1     -13.300  -2.627 -11.842  1.00  0.00    -0.011 C 
ATOM     10  C   UNL     1     -12.138  -3.638 -11.870  1.00  0.00     0.008 C 
BRANCH   9  11
ATOM     11  C   UNL     1     -13.551  -1.865 -13.201  1.00  0.00    -0.002 C 
ATOM     12  C   UNL     1     -12.261  -1.120 -13.666  1.00  0.00     0.005 C 
ATOM     13  C   UNL     1     -14.059  -2.607 -14.499  1.00  0.00    -0.026 C 
ATOM     14  C   UNL     1     -11.879  -1.650 -15.054  1.00  0.00     0.005 C 
ATOM     15  C   UNL     1     -12.737  -2.892 -15.229  1.00  0.00    -0.001 C 
ATOM     16  C   UNL     1     -14.868  -3.945 -14.351  1.00  0.00     0.007 C 
ATOM     17  C   UNL     1     -14.947  -1.566 -15.264  1.00  0.00     0.012 C 
ATOM     18  C   UNL     1     -12.842  -3.559 -16.632  1.00  0.00     0.000 C 
ATOM     19  C   UNL     1     -14.526  -5.035 -15.412  1.00  0.00     0.005 C 
ATOM     20  C   UNL     1     -14.122  -4.425 -16.776  1.00  0.00     0.003 C 
ATOM     21  C   UNL     1     -12.757  -2.644 -17.855  1.00  0.00     0.031 C 
ATOM     22  C   UNL     1     -13.991  -5.421 -17.987  1.00  0.00    -0.008 C 
ATOM     23  C   UNL     1     -12.746  -3.488 -19.108  1.00  0.00    -0.027 C 
ATOM     24  C   UNL     1     -13.276  -4.740 -19.174  1.00  0.00    -0.065 C 
ATOM     25  C   UNL     1     -13.180  -6.694 -17.598  1.00  0.00     0.014 C 
ATOM     26  C   UNL     1     -15.421  -5.832 -18.438  1.00  0.00     0.016 C 
ATOM     27  C   UNL     1     -12.952  -5.603 -20.375  1.00  0.00     0.063 C 
ATOM     28  C   UNL     1     -12.826  -7.590 -18.804  1.00  0.00     0.033 C 
ATOM     29  C   UNL     1     -12.111  -6.807 -19.918  1.00  0.00     0.118 C 
BRANCH  29  30
ATOM     30  O   UNL     1     -11.876  -7.668 -21.001  1.00  0.00    -0.393 OA
ATOM     31  H   UNL     1     -11.832  -8.588 -20.632  1.00  0.00     0.210 HD
ENDBRANCH  29  30
ENDBRANCH   9  11
ENDBRANCH   1   9
TORSDOF 7
ENDMDL
MODEL 4
REMARK VINA RESULT:    32.743      0.642      1.586
REMARK INTER + INTRA:          44.352
REMARK INTER:                  44.273
REMARK INTRA:                   0.079
REMARK UNBOUND:                -0.833
REMARK SMILES CC[C@@H](CC[C@@H](C)[C@H]1CC[C@@H]2[C@@H]3CC=C4C[C@H](O)CC[C@@]4(C)[C@H]3CC[C@]21C)C(C)C
REMARK SMILES IDX 5 1 4 2 3 3 2 4 1 5 28 6 29 7 30 8 6 9 7 10 8 11 9 12 26 13
REMARK SMILES IDX 10 14 11 15 25 16 27 17 12 18 24 19 23 20 13 21 21 22 14 23
REMARK SMILES IDX 15 24 20 25 22 26 16 27 19 28 17 29 18 30
REMARK H PARENT 18 31
REMARK Flexibility Score: inf
ROOT
ATOM      1  C   UNL     1     -14.286  -3.825 -11.765  1.00  0.00     0.004 C 
ENDROOT
BRANCH   1   2
ATOM      2  C   UNL     1     -12.775  -3.909 -11.454  1.00  0.00     0.004 C 
BRANCH   2   3
ATOM      3  C   UNL     1     -12.410  -4.144  -9.958  1.00  0.00    -0.009 C 
BRANCH   3   4
ATOM      4  C   UNL     1     -13.161  -5.389  -9.407  1.00  0.00     0.000 C 
ATOM      5  C   UNL     1     -12.238  -6.487  -8.875  1.00  0.00     0.004 C 
ENDBRANCH   3   4
BRANCH   3   6
ATOM      6  C   UNL     1     -12.641  -2.861  -9.087  1.00  0.00    -0.014 C 
ATOM      7  C   UNL     1     -11.890  -1.638  -9.640  1.00  0.00     0.007 C 
ATOM      8  C   UNL     1     -14.125  -2.520  -8.875  1.00  0.00     0.007 C 
ENDBRANCH   3   6
ENDBRANCH   2   3
ENDBRANCH   1   2
BRANCH   1   9
ATOM      9  C   UNL     1     -14.680  -3.530 -13.244  1.00  0.00    -0.011 C 
ATOM     10  C   UNL     1     -15.315  -2.132 -13.372  1.00  0.00     0.008 C 
BRANCH   9  11
ATOM     11  C   UNL     1     -13.606  -3.876 -14.349  1.00  0.00    -0.002 C 
ATOM     12  C   UNL     1     -13.064  -5.327 -14.160  1.00  0.00     0.005 C 
ATOM     13  C   UNL     1     -13.928  -3.781 -15.891  1.00  0.00    -0.026 C 
ATOM     14  C   UNL     1     -13.349  -6.113 -15.446  1.00  0.00     0.005 C 
ATOM     15  C   UNL     1     -14.317  -5.232 -16.216  1.00  0.00    -0.001 C 
ATOM     16  C   UNL     1     -15.069  -2.816 -16.379  1.00  0.00     0.007 C 
ATOM     17  C   UNL     1     -12.586  -3.357 -16.580  1.00  0.00     0.012 C 
ATOM     18  C   UNL     1     -14.629  -5.555 -17.707  1.00  0.00     0.000 C 
ATOM     19  C   UNL     1     -15.951  -3.382 -17.534  1.00  0.00     0.005 C 
ATOM     20  C   UNL     1     -15.158  -4.317 -18.479  1.00  0.00     0.003 C 
ATOM     21  C   UNL     1     -13.509  -6.182 -18.540  1.00  0.00     0.031 C 
ATOM     22  C   UNL     1     -15.873  -4.752 -19.811  1.00  0.00    -0.008 C 
ATOM     23  C   UNL     1     -14.046  -6.539 -19.907  1.00  0.00    -0.027 C 
ATOM     24  C   UNL     1     -15.116  -5.921 -20.477  1.00  0.00    -0.065 C 
ATOM     25  C   UNL     1     -17.341  -5.210 -19.552  1.00  0.00     0.014 C 
ATOM     26  C   UNL     1     -15.871  -3.539 -20.784  1.00  0.00     0.016 C 
ATOM     27  C   UNL     1     -15.747  -6.545 -21.704  1.00  0.00     0.063 C 
ATOM     28  C   UNL     1     -18.008  -5.861 -20.782  1.00  0.00     0.033 C 
ATOM     29  C   UNL     1     -17.169  -7.016 -21.354  1.00  0.00     0.118 C 
BRANCH  29  30
ATOM     30  O   UNL     1     -17.805  -7.517 -22.500  1.00  0.00    -0.393 OA
ATOM     31  H   UNL     1     -17.111  -7.982 -23.034  1.00  0.00     0.210 HD
ENDBRANCH  29  30
ENDBRANCH   9  11
ENDBRANCH   1   9
TORSDOF 7
ENDMDL
