MODEL 1
REMARK VINA RESULT:    11.085      0.000      0.000
REMARK INTER + INTRA:          12.813
REMARK INTER:                  12.057
REMARK INTRA:                   0.757
REMARK UNBOUND:                 0.757
REMARK SMILES CC1(C)CC[C@@]2(C(=O)[O-])CC[C@@]3(C)C(=CC[C@@H]4[C@@]5(C)CC[C@H](O)C(C)(C)[C@@H]5CC[C@@]43C)[C@@H]2C1
REMARK SMILES IDX 6 1 5 2 10 3 32 4 4 5 11 6 14 7 33 8 2 9 12 10 15 11 1 12
REMARK SMILES IDX 3 13 13 14 30 15 16 16 17 17 29 18 31 19 18 20 28 21 27 22
REMARK SMILES IDX 20 23 19 24 24 25 21 26 22 27 25 28 26 29 7 30 8 31 9 32
REMARK SMILES IDX 23 33
REMARK H PARENT 23 34
REMARK Flexibility Score: inf
ROOT
ATOM      1  C   UNL     1      20.215   0.286  48.697  1.00  0.00     0.017 C 
ATOM      2  C   UNL     1      21.124   1.305  49.433  1.00  0.00     0.014 C 
ATOM      3  C   UNL     1      20.513  -1.118  49.263  1.00  0.00     0.014 C 
ATOM      4  C   UNL     1      18.722   0.602  49.007  1.00  0.00     0.028 C 
ATOM      5  C   UNL     1      20.794   2.754  49.058  1.00  0.00     0.007 C 
ATOM      6  C   UNL     1      19.672  -2.208  48.586  1.00  0.00     0.013 C 
ATOM      7  C   UNL     1      17.781  -0.463  48.404  1.00  0.00    -0.064 C 
ATOM      8  C   UNL     1      18.358   2.086  48.699  1.00  0.00     0.015 C 
ATOM      9  C   UNL     1      19.318   3.124  49.347  1.00  0.00    -0.035 C 
ATOM     10  C   UNL     1      18.108  -1.964  48.583  1.00  0.00    -0.006 C 
ATOM     11  C   UNL     1      16.549  -0.117  47.959  1.00  0.00    -0.027 C 
ATOM     12  C   UNL     1      19.033   4.511  48.732  1.00  0.00     0.011 C 
ATOM     13  C   UNL     1      19.069   3.225  50.872  1.00  0.00     0.011 C 
ATOM     14  C   UNL     1      17.609  -2.376  49.993  1.00  0.00     0.017 C 
ATOM     15  C   UNL     1      17.379  -2.812  47.407  1.00  0.00    -0.020 C 
ATOM     16  C   UNL     1      15.416  -1.096  47.898  1.00  0.00     0.032 C 
ATOM     17  C   UNL     1      15.801  -2.483  47.312  1.00  0.00     0.006 C 
ATOM     18  C   UNL     1      17.723  -4.359  47.500  1.00  0.00     0.008 C 
ATOM     19  C   UNL     1      17.969  -2.354  46.016  1.00  0.00     0.012 C 
ATOM     20  C   UNL     1      14.739  -3.628  47.641  1.00  0.00    -0.025 C 
ATOM     21  C   UNL     1      16.594  -5.336  47.820  1.00  0.00     0.005 C 
ATOM     22  C   UNL     1      15.302  -4.976  47.067  1.00  0.00     0.003 C 
ATOM     23  C   UNL     1      13.398  -3.287  46.914  1.00  0.00     0.010 C 
ATOM     24  C   UNL     1      14.435  -3.710  49.170  1.00  0.00     0.012 C 
ATOM     25  C   UNL     1      14.288  -6.189  46.875  1.00  0.00    -0.006 C 
ATOM     26  C   UNL     1      12.388  -4.435  46.931  1.00  0.00     0.033 C 
ATOM     27  C   UNL     1      12.967  -5.668  46.220  1.00  0.00     0.120 C 
ATOM     28  C   UNL     1      13.987  -6.974  48.185  1.00  0.00     0.014 C 
ATOM     29  C   UNL     1      14.911  -7.209  45.876  1.00  0.00     0.014 C 
ENDROOT
BRANCH   1  30
ATOM     30  C   UNL     1      20.547   0.314  47.205  1.00  0.00     0.048 C 
ATOM     31  O   UNL     1      21.059  -0.700  46.659  1.00  0.00    -0.550 OA
ATOM     32  O   UNL     1      20.294   1.434  46.423  1.00  0.00    -0.550 OA
ENDBRANCH   1  30
BRANCH  27  33
ATOM     33  O   UNL     1      11.999  -6.685  46.106  1.00  0.00    -0.393 OA
ATOM     34  H   UNL     1      11.302  -6.383  45.467  1.00  0.00     0.210 HD
ENDBRANCH  27  33
TORSDOF 2
ENDMDL
