MODEL 1
REMARK VINA RESULT:    -4.243      0.000      0.000
REMARK INTER + INTRA:          -5.433
REMARK INTER:                  -5.111
REMARK INTRA:                  -0.322
REMARK UNBOUND:                -0.322
REMARK SMILES O=c1c(O)c(-c2ccc(O)c(O)c2)oc2cc(O)cc(O)c12
REMARK SMILES IDX 5 1 3 2 2 3 1 4 22 5 20 6 19 7 17 8 16 9 15 10 14 11 6 12
REMARK SMILES IDX 7 13 8 14 9 15 13 16 11 17 10 18 12 20 4 22 21 24 18 26
REMARK H PARENT 10 19 12 21 4 23 21 25 18 27
REMARK Flexibility Score: inf
ROOT
ATOM      1  C   UNL     1     136.506 131.322 118.323  1.00  0.00     0.180 A 
ATOM      2  C   UNL     1     137.645 130.600 117.926  1.00  0.00     0.208 A 
ATOM      3  C   UNL     1     138.720 131.292 117.344  1.00  0.00     0.238 A 
ATOM      4  O   UNL     1     139.759 130.648 117.040  1.00  0.00    -0.285 OA
ATOM      5  C   UNL     1     138.636 132.692 117.153  1.00  0.00     0.111 A 
ATOM      6  C   UNL     1     139.649 133.488 116.537  1.00  0.00     0.134 A 
ATOM      7  C   UNL     1     139.515 134.881 116.518  1.00  0.00     0.093 A 
ATOM      8  C   UNL     1     138.376 135.503 117.034  1.00  0.00     0.123 A 
ATOM      9  C   UNL     1     137.355 134.731 117.583  1.00  0.00     0.094 A 
ATOM     10  C   UNL     1     137.475 133.340 117.650  1.00  0.00     0.146 A 
ATOM     11  O   UNL     1     136.484 132.642 118.190  1.00  0.00    -0.452 OA
ENDROOT
BRANCH   1  12
ATOM     12  C   UNL     1     135.323 130.660 118.919  1.00  0.00     0.025 A 
ATOM     13  C   UNL     1     135.235 130.424 120.302  1.00  0.00     0.016 A 
ATOM     14  C   UNL     1     134.120 129.776 120.839  1.00  0.00     0.051 A 
ATOM     15  C   UNL     1     133.082 129.343 120.002  1.00  0.00     0.157 A 
ATOM     16  C   UNL     1     134.290 130.205 118.082  1.00  0.00     0.062 A 
ATOM     17  C   UNL     1     133.171 129.557 118.617  1.00  0.00     0.158 A 
BRANCH  15  18
ATOM     18  O   UNL     1     131.970 128.699 120.541  1.00  0.00    -0.504 OA
ATOM     19  H   UNL     1     131.051 128.787 120.122  1.00  0.00     0.293 HD
ENDBRANCH  15  18
BRANCH  17  20
ATOM     20  O   UNL     1     132.159 129.132 117.756  1.00  0.00    -0.504 OA
ATOM     21  H   UNL     1     132.187 129.318 116.760  1.00  0.00     0.293 HD
ENDBRANCH  17  20
ENDBRANCH   1  12
BRANCH   2  22
ATOM     22  O   UNL     1     137.715 129.221 118.144  1.00  0.00    -0.502 OA
ATOM     23  H   UNL     1     137.721 128.551 117.385  1.00  0.00     0.293 HD
ENDBRANCH   2  22
BRANCH   6  24
ATOM     24  O   UNL     1     140.783 132.960 115.911  1.00  0.00    -0.507 OA
ATOM     25  H   UNL     1     141.445 133.499 115.375  1.00  0.00     0.293 HD
ENDBRANCH   6  24
BRANCH   8  26
ATOM     26  O   UNL     1     138.244 136.890 116.997  1.00  0.00    -0.508 OA
ATOM     27  H   UNL     1     138.032 137.379 116.136  1.00  0.00     0.293 HD
ENDBRANCH   8  26
TORSDOF 6
ENDMDL
MODEL 2
REMARK VINA RESULT:    -3.816      3.004      5.516
REMARK INTER + INTRA:          -4.919
REMARK INTER:                  -4.597
REMARK INTRA:                  -0.322
REMARK UNBOUND:                -0.322
REMARK SMILES O=c1c(O)c(-c2ccc(O)c(O)c2)oc2cc(O)cc(O)c12
REMARK SMILES IDX 5 1 3 2 2 3 1 4 22 5 20 6 19 7 17 8 16 9 15 10 14 11 6 12
REMARK SMILES IDX 7 13 8 14 9 15 13 16 11 17 10 18 12 20 4 22 21 24 18 26
REMARK H PARENT 10 19 12 21 4 23 21 25 18 27
REMARK Flexibility Score: inf
ROOT
ATOM      1  C   UNL     1     134.130 130.789 120.736  1.00  0.00     0.180 A 
ATOM      2  C   UNL     1     133.184 129.887 120.221  1.00  0.00     0.208 A 
ATOM      3  C   UNL     1     133.245 129.540 118.861  1.00  0.00     0.238 A 
ATOM      4  O   UNL     1     132.429 128.690 118.417  1.00  0.00    -0.285 OA
ATOM      5  C   UNL     1     134.239 130.113 118.031  1.00  0.00     0.111 A 
ATOM      6  C   UNL     1     134.367 129.864 116.632  1.00  0.00     0.134 A 
ATOM      7  C   UNL     1     135.467 130.383 115.937  1.00  0.00     0.093 A 
ATOM      8  C   UNL     1     136.406 131.194 116.578  1.00  0.00     0.123 A 
ATOM      9  C   UNL     1     136.256 131.491 117.930  1.00  0.00     0.094 A 
ATOM     10  C   UNL     1     135.190 130.959 118.659  1.00  0.00     0.146 A 
ATOM     11  O   UNL     1     135.090 131.259 119.948  1.00  0.00    -0.452 OA
ENDROOT
BRANCH   1  12
ATOM     12  C   UNL     1     134.115 131.222 122.153  1.00  0.00     0.025 A 
ATOM     13  C   UNL     1     134.852 130.540 123.135  1.00  0.00     0.016 A 
ATOM     14  C   UNL     1     134.805 130.952 124.469  1.00  0.00     0.051 A 
ATOM     15  C   UNL     1     134.009 132.043 124.844  1.00  0.00     0.157 A 
ATOM     16  C   UNL     1     133.303 132.303 122.537  1.00  0.00     0.062 A 
ATOM     17  C   UNL     1     133.253 132.719 123.872  1.00  0.00     0.158 A 
BRANCH  15  18
ATOM     18  O   UNL     1     133.964 132.454 126.175  1.00  0.00    -0.504 OA
ATOM     19  H   UNL     1     133.281 132.079 126.823  1.00  0.00     0.293 HD
ENDBRANCH  15  18
BRANCH  17  20
ATOM     20  O   UNL     1     132.445 133.804 124.213  1.00  0.00    -0.504 OA
ATOM     21  H   UNL     1     131.500 133.683 124.557  1.00  0.00     0.293 HD
ENDBRANCH  17  20
ENDBRANCH   1  12
BRANCH   2  22
ATOM     22  O   UNL     1     132.225 129.316 121.062  1.00  0.00    -0.502 OA
ATOM     23  H   UNL     1     131.639 128.543 120.773  1.00  0.00     0.293 HD
ENDBRANCH   2  22
BRANCH   6  24
ATOM     24  O   UNL     1     133.436 129.143 115.878  1.00  0.00    -0.507 OA
ATOM     25  H   UNL     1     133.042 129.454 115.004  1.00  0.00     0.293 HD
ENDBRANCH   6  24
BRANCH   8  26
ATOM     26  O   UNL     1     137.489 131.719 115.875  1.00  0.00    -0.508 OA
ATOM     27  H   UNL     1     138.440 131.436 116.079  1.00  0.00     0.293 HD
ENDBRANCH   8  26
TORSDOF 6
ENDMDL
MODEL 3
REMARK VINA RESULT:    -3.788      8.697     13.895
REMARK INTER + INTRA:          -4.885
REMARK INTER:                  -4.570
REMARK INTRA:                  -0.315
REMARK UNBOUND:                -0.322
REMARK SMILES O=c1c(O)c(-c2ccc(O)c(O)c2)oc2cc(O)cc(O)c12
REMARK SMILES IDX 5 1 3 2 2 3 1 4 22 5 20 6 19 7 17 8 16 9 15 10 14 11 6 12
REMARK SMILES IDX 7 13 8 14 9 15 13 16 11 17 10 18 12 20 4 22 21 24 18 26
REMARK H PARENT 10 19 12 21 4 23 21 25 18 27
REMARK Flexibility Score: inf
ROOT
ATOM      1  C   UNL     1     137.650 144.161 117.930  1.00  0.00     0.180 A 
ATOM      2  C   UNL     1     136.460 144.814 117.569  1.00  0.00     0.208 A 
ATOM      3  C   UNL     1     135.381 144.051 117.092  1.00  0.00     0.238 A 
ATOM      4  O   UNL     1     134.299 144.635 116.822  1.00  0.00    -0.285 OA
ATOM      5  C   UNL     1     135.514 142.647 116.965  1.00  0.00     0.111 A 
ATOM      6  C   UNL     1     134.501 141.780 116.455  1.00  0.00     0.134 A 
ATOM      7  C   UNL     1     134.693 140.394 116.497  1.00  0.00     0.093 A 
ATOM      8  C   UNL     1     135.888 139.847 116.970  1.00  0.00     0.123 A 
ATOM      9  C   UNL     1     136.905 140.686 117.415  1.00  0.00     0.094 A 
ATOM     10  C   UNL     1     136.730 142.073 117.420  1.00  0.00     0.146 A 
ATOM     11  O   UNL     1     137.721 142.837 117.862  1.00  0.00    -0.452 OA
ENDROOT
BRANCH   1  12
ATOM     12  C   UNL     1     138.838 144.900 118.417  1.00  0.00     0.025 A 
ATOM     13  C   UNL     1     139.070 145.089 119.790  1.00  0.00     0.016 A 
ATOM     14  C   UNL     1     140.185 145.810 120.226  1.00  0.00     0.051 A 
ATOM     15  C   UNL     1     141.076 146.364 119.297  1.00  0.00     0.157 A 
ATOM     16  C   UNL     1     139.723 145.474 117.490  1.00  0.00     0.062 A 
ATOM     17  C   UNL     1     140.841 146.197 117.922  1.00  0.00     0.158 A 
BRANCH  15  18
ATOM     18  O   UNL     1     142.188 147.081 119.734  1.00  0.00    -0.504 OA
ATOM     19  H   UNL     1     142.137 147.705 120.531  1.00  0.00     0.293 HD
ENDBRANCH  15  18
BRANCH  17  20
ATOM     20  O   UNL     1     141.704 146.741 116.972  1.00  0.00    -0.504 OA
ATOM     21  H   UNL     1     142.191 146.165 116.295  1.00  0.00     0.293 HD
ENDBRANCH  17  20
ENDBRANCH   1  12
BRANCH   2  22
ATOM     22  O   UNL     1     136.343 146.199 117.723  1.00  0.00    -0.502 OA
ATOM     23  H   UNL     1     136.655 146.852 117.015  1.00  0.00     0.293 HD
ENDBRANCH   2  22
BRANCH   6  24
ATOM     24  O   UNL     1     133.310 142.229 115.876  1.00  0.00    -0.507 OA
ATOM     25  H   UNL     1     132.973 141.950 114.967  1.00  0.00     0.293 HD
ENDBRANCH   6  24
BRANCH   8  26
ATOM     26  O   UNL     1     136.077 138.466 116.994  1.00  0.00    -0.508 OA
ATOM     27  H   UNL     1     136.927 138.054 117.359  1.00  0.00     0.293 HD
ENDBRANCH   8  26
TORSDOF 6
ENDMDL
MODEL 4
REMARK VINA RESULT:    -3.667      2.674      4.799
REMARK INTER + INTRA:          -4.740
REMARK INTER:                  -4.406
REMARK INTRA:                  -0.333
REMARK UNBOUND:                -0.322
REMARK SMILES O=c1c(O)c(-c2ccc(O)c(O)c2)oc2cc(O)cc(O)c12
REMARK SMILES IDX 5 1 3 2 2 3 1 4 22 5 20 6 19 7 17 8 16 9 15 10 14 11 6 12
REMARK SMILES IDX 7 13 8 14 9 15 13 16 11 17 10 18 12 20 4 22 21 24 18 26
REMARK H PARENT 10 19 12 21 4 23 21 25 18 27
REMARK Flexibility Score: inf
ROOT
ATOM      1  C   UNL     1     137.108 134.799 117.320  1.00  0.00     0.180 A 
ATOM      2  C   UNL     1     138.432 135.172 117.030  1.00  0.00     0.208 A 
ATOM      3  C   UNL     1     138.800 136.522 117.150  1.00  0.00     0.238 A 
ATOM      4  O   UNL     1     140.000 136.842 116.941  1.00  0.00    -0.285 OA
ATOM      5  C   UNL     1     137.837 137.483 117.542  1.00  0.00     0.111 A 
ATOM      6  C   UNL     1     138.090 138.884 117.655  1.00  0.00     0.134 A 
ATOM      7  C   UNL     1     137.098 139.723 118.177  1.00  0.00     0.093 A 
ATOM      8  C   UNL     1     135.842 139.224 118.527  1.00  0.00     0.123 A 
ATOM      9  C   UNL     1     135.566 137.869 118.364  1.00  0.00     0.094 A 
ATOM     10  C   UNL     1     136.547 136.998 117.880  1.00  0.00     0.146 A 
ATOM     11  O   UNL     1     136.246 135.713 117.749  1.00  0.00    -0.452 OA
ENDROOT
BRANCH   1  12
ATOM     12  C   UNL     1     136.638 133.400 117.193  1.00  0.00     0.025 A 
ATOM     13  C   UNL     1     136.153 132.899 115.973  1.00  0.00     0.016 A 
ATOM     14  C   UNL     1     135.693 131.583 115.882  1.00  0.00     0.051 A 
ATOM     15  C   UNL     1     135.698 130.752 117.011  1.00  0.00     0.157 A 
ATOM     16  C   UNL     1     136.623 132.570 118.326  1.00  0.00     0.062 A 
ATOM     17  C   UNL     1     136.163 131.251 118.239  1.00  0.00     0.158 A 
BRANCH  15  18
ATOM     18  O   UNL     1     135.241 129.439 116.917  1.00  0.00    -0.504 OA
ATOM     19  H   UNL     1     135.812 128.656 117.212  1.00  0.00     0.293 HD
ENDBRANCH  15  18
BRANCH  17  20
ATOM     20  O   UNL     1     136.175 130.453 119.383  1.00  0.00    -0.504 OA
ATOM     21  H   UNL     1     136.261 129.444 119.334  1.00  0.00     0.293 HD
ENDBRANCH  17  20
ENDBRANCH   1  12
BRANCH   2  22
ATOM     22  O   UNL     1     139.372 134.204 116.666  1.00  0.00    -0.502 OA
ATOM     23  H   UNL     1     140.341 134.251 116.957  1.00  0.00     0.293 HD
ENDBRANCH   2  22
BRANCH   6  24
ATOM     24  O   UNL     1     139.278 139.498 117.248  1.00  0.00    -0.507 OA
ATOM     25  H   UNL     1     139.380 140.055 116.415  1.00  0.00     0.293 HD
ENDBRANCH   6  24
BRANCH   8  26
ATOM     26  O   UNL     1     134.856 140.069 119.031  1.00  0.00    -0.508 OA
ATOM     27  H   UNL     1     134.534 139.996 119.988  1.00  0.00     0.293 HD
ENDBRANCH   8  26
TORSDOF 6
ENDMDL
MODEL 5
REMARK VINA RESULT:    -3.649     13.669     14.813
REMARK INTER + INTRA:          -4.717
REMARK INTER:                  -4.395
REMARK INTRA:                  -0.323
REMARK UNBOUND:                -0.322
REMARK SMILES O=c1c(O)c(-c2ccc(O)c(O)c2)oc2cc(O)cc(O)c12
REMARK SMILES IDX 5 1 3 2 2 3 1 4 22 5 20 6 19 7 17 8 16 9 15 10 14 11 6 12
REMARK SMILES IDX 7 13 8 14 9 15 13 16 11 17 10 18 12 20 4 22 21 24 18 26
REMARK H PARENT 10 19 12 21 4 23 21 25 18 27
REMARK Flexibility Score: inf
ROOT
ATOM      1  C   UNL     1     140.114 145.455 120.821  1.00  0.00     0.180 A 
ATOM      2  C   UNL     1     141.211 146.128 120.258  1.00  0.00     0.208 A 
ATOM      3  C   UNL     1     141.213 146.392 118.879  1.00  0.00     0.238 A 
ATOM      4  O   UNL     1     142.174 147.043 118.389  1.00  0.00    -0.285 OA
ATOM      5  C   UNL     1     140.126 145.965 118.078  1.00  0.00     0.111 A 
ATOM      6  C   UNL     1     140.042 146.144 116.664  1.00  0.00     0.134 A 
ATOM      7  C   UNL     1     138.862 145.799 115.994  1.00  0.00     0.093 A 
ATOM      8  C   UNL     1     137.789 145.222 116.676  1.00  0.00     0.123 A 
ATOM      9  C   UNL     1     137.884 144.989 118.046  1.00  0.00     0.094 A 
ATOM     10  C   UNL     1     139.034 145.356 118.750  1.00  0.00     0.146 A 
ATOM     11  O   UNL     1     139.080 145.126 120.056  1.00  0.00    -0.452 OA
ENDROOT
BRANCH   1  12
ATOM     12  C   UNL     1     140.051 145.118 122.263  1.00  0.00     0.025 A 
ATOM     13  C   UNL     1     139.479 145.999 123.196  1.00  0.00     0.016 A 
ATOM     14  C   UNL     1     139.452 145.671 124.553  1.00  0.00     0.051 A 
ATOM     15  C   UNL     1     140.008 144.464 125.001  1.00  0.00     0.157 A 
ATOM     16  C   UNL     1     140.625 143.920 122.718  1.00  0.00     0.062 A 
ATOM     17  C   UNL     1     140.600 143.587 124.077  1.00  0.00     0.158 A 
BRANCH  15  18
ATOM     18  O   UNL     1     139.978 144.138 126.355  1.00  0.00    -0.504 OA
ATOM     19  H   UNL     1     139.708 144.816 127.058  1.00  0.00     0.293 HD
ENDBRANCH  15  18
BRANCH  17  20
ATOM     20  O   UNL     1     141.169 142.382 124.490  1.00  0.00    -0.504 OA
ATOM     21  H   UNL     1     140.788 141.485 124.213  1.00  0.00     0.293 HD
ENDBRANCH  17  20
ENDBRANCH   1  12
BRANCH   2  22
ATOM     22  O   UNL     1     142.264 146.559 121.070  1.00  0.00    -0.502 OA
ATOM     23  H   UNL     1     142.143 146.760 122.056  1.00  0.00     0.293 HD
ENDBRANCH   2  22
BRANCH   6  24
ATOM     24  O   UNL     1     141.091 146.626 115.875  1.00  0.00    -0.507 OA
ATOM     25  H   UNL     1     141.622 147.460 116.074  1.00  0.00     0.293 HD
ENDBRANCH   6  24
BRANCH   8  26
ATOM     26  O   UNL     1     136.624 144.867 115.999  1.00  0.00    -0.508 OA
ATOM     27  H   UNL     1     135.804 145.461 116.009  1.00  0.00     0.293 HD
ENDBRANCH   8  26
TORSDOF 6
ENDMDL
MODEL 6
REMARK VINA RESULT:    -3.632      5.491     10.465
REMARK INTER + INTRA:          -4.697
REMARK INTER:                  -4.380
REMARK INTRA:                  -0.317
REMARK UNBOUND:                -0.322
REMARK SMILES O=c1c(O)c(-c2ccc(O)c(O)c2)oc2cc(O)cc(O)c12
REMARK SMILES IDX 5 1 3 2 2 3 1 4 22 5 20 6 19 7 17 8 16 9 15 10 14 11 6 12
REMARK SMILES IDX 7 13 8 14 9 15 13 16 11 17 10 18 12 20 4 22 21 24 18 26
REMARK H PARENT 10 19 12 21 4 23 21 25 18 27
REMARK Flexibility Score: inf
ROOT
ATOM      1  C   UNL     1     137.381 140.275 117.343  1.00  0.00     0.180 A 
ATOM      2  C   UNL     1     136.170 139.625 117.051  1.00  0.00     0.208 A 
ATOM      3  C   UNL     1     136.089 138.232 117.213  1.00  0.00     0.238 A 
ATOM      4  O   UNL     1     134.987 137.661 117.002  1.00  0.00    -0.285 OA
ATOM      5  C   UNL     1     137.225 137.506 117.647  1.00  0.00     0.111 A 
ATOM      6  C   UNL     1     137.268 136.088 117.806  1.00  0.00     0.134 A 
ATOM      7  C   UNL     1     138.404 135.491 118.367  1.00  0.00     0.093 A 
ATOM      8  C   UNL     1     139.522 136.253 118.713  1.00  0.00     0.123 A 
ATOM      9  C   UNL     1     139.511 137.630 118.506  1.00  0.00     0.094 A 
ATOM     10  C   UNL     1     138.380 138.260 117.982  1.00  0.00     0.146 A 
ATOM     11  O   UNL     1     138.408 139.576 117.811  1.00  0.00    -0.452 OA
ENDROOT
BRANCH   1  12
ATOM     12  C   UNL     1     137.550 141.737 117.173  1.00  0.00     0.025 A 
ATOM     13  C   UNL     1     138.112 142.277 116.004  1.00  0.00     0.016 A 
ATOM     14  C   UNL     1     138.284 143.658 115.875  1.00  0.00     0.051 A 
ATOM     15  C   UNL     1     137.910 144.518 116.917  1.00  0.00     0.157 A 
ATOM     16  C   UNL     1     137.197 142.600 118.223  1.00  0.00     0.062 A 
ATOM     17  C   UNL     1     137.367 143.984 118.098  1.00  0.00     0.158 A 
BRANCH  15  18
ATOM     18  O   UNL     1     138.081 145.894 116.785  1.00  0.00    -0.504 OA
ATOM     19  H   UNL     1     138.745 146.286 116.127  1.00  0.00     0.293 HD
ENDBRANCH  15  18
BRANCH  17  20
ATOM     20  O   UNL     1     136.992 144.811 119.156  1.00  0.00    -0.504 OA
ATOM     21  H   UNL     1     137.236 145.794 119.183  1.00  0.00     0.293 HD
ENDBRANCH  17  20
ENDBRANCH   1  12
BRANCH   2  22
ATOM     22  O   UNL     1     135.055 140.363 116.644  1.00  0.00    -0.502 OA
ATOM     23  H   UNL     1     134.195 139.924 116.337  1.00  0.00     0.293 HD
ENDBRANCH   2  22
BRANCH   6  24
ATOM     24  O   UNL     1     136.241 135.226 117.407  1.00  0.00    -0.507 OA
ATOM     25  H   UNL     1     135.333 135.525 117.088  1.00  0.00     0.293 HD
ENDBRANCH   6  24
BRANCH   8  26
ATOM     26  O   UNL     1     140.654 135.648 119.255  1.00  0.00    -0.508 OA
ATOM     27  H   UNL     1     140.719 135.437 120.243  1.00  0.00     0.293 HD
ENDBRANCH   8  26
TORSDOF 6
ENDMDL
MODEL 7
REMARK VINA RESULT:    -3.630      1.458      6.959
REMARK INTER + INTRA:          -4.695
REMARK INTER:                  -4.371
REMARK INTRA:                  -0.324
REMARK UNBOUND:                -0.322
REMARK SMILES O=c1c(O)c(-c2ccc(O)c(O)c2)oc2cc(O)cc(O)c12
REMARK SMILES IDX 5 1 3 2 2 3 1 4 22 5 20 6 19 7 17 8 16 9 15 10 14 11 6 12
REMARK SMILES IDX 7 13 8 14 9 15 13 16 11 17 10 18 12 20 4 22 21 24 18 26
REMARK H PARENT 10 19 12 21 4 23 21 25 18 27
REMARK Flexibility Score: inf
ROOT
ATOM      1  C   UNL     1     136.617 131.860 118.631  1.00  0.00     0.180 A 
ATOM      2  C   UNL     1     136.853 131.422 119.945  1.00  0.00     0.208 A 
ATOM      3  C   UNL     1     135.966 130.500 120.525  1.00  0.00     0.238 A 
ATOM      4  O   UNL     1     136.212 130.069 121.682  1.00  0.00    -0.285 OA
ATOM      5  C   UNL     1     134.844 130.044 119.790  1.00  0.00     0.111 A 
ATOM      6  C   UNL     1     133.859 129.143 120.294  1.00  0.00     0.134 A 
ATOM      7  C   UNL     1     132.865 128.658 119.435  1.00  0.00     0.093 A 
ATOM      8  C   UNL     1     132.783 129.092 118.110  1.00  0.00     0.123 A 
ATOM      9  C   UNL     1     133.705 130.016 117.627  1.00  0.00     0.094 A 
ATOM     10  C   UNL     1     134.730 130.491 118.448  1.00  0.00     0.146 A 
ATOM     11  O   UNL     1     135.594 131.364 117.945  1.00  0.00    -0.452 OA
ENDROOT
BRANCH   1  12
ATOM     12  C   UNL     1     137.494 132.849 117.961  1.00  0.00     0.025 A 
ATOM     13  C   UNL     1     137.201 134.223 117.987  1.00  0.00     0.016 A 
ATOM     14  C   UNL     1     138.029 135.135 117.328  1.00  0.00     0.051 A 
ATOM     15  C   UNL     1     139.154 134.687 116.622  1.00  0.00     0.157 A 
ATOM     16  C   UNL     1     138.611 132.402 117.235  1.00  0.00     0.062 A 
ATOM     17  C   UNL     1     139.443 133.313 116.575  1.00  0.00     0.158 A 
BRANCH  15  18
ATOM     18  O   UNL     1     139.980 135.599 115.968  1.00  0.00    -0.504 OA
ATOM     19  H   UNL     1     140.041 135.628 114.957  1.00  0.00     0.293 HD
ENDBRANCH  15  18
BRANCH  17  20
ATOM     20  O   UNL     1     140.550 132.833 115.875  1.00  0.00    -0.504 OA
ATOM     21  H   UNL     1     140.796 131.850 115.866  1.00  0.00     0.293 HD
ENDBRANCH  17  20
ENDBRANCH   1  12
BRANCH   2  22
ATOM     22  O   UNL     1     137.978 131.868 120.644  1.00  0.00    -0.502 OA
ATOM     23  H   UNL     1     137.918 132.549 121.392  1.00  0.00     0.293 HD
ENDBRANCH   2  22
BRANCH   6  24
ATOM     24  O   UNL     1     133.796 128.719 121.625  1.00  0.00    -0.507 OA
ATOM     25  H   UNL     1     134.155 127.840 121.964  1.00  0.00     0.293 HD
ENDBRANCH   6  24
BRANCH   8  26
ATOM     26  O   UNL     1     131.781 128.615 117.267  1.00  0.00    -0.508 OA
ATOM     27  H   UNL     1     131.275 129.233 116.644  1.00  0.00     0.293 HD
ENDBRANCH   8  26
TORSDOF 6
ENDMDL
MODEL 8
REMARK VINA RESULT:    -3.610     10.375     13.507
REMARK INTER + INTRA:          -4.671
REMARK INTER:                  -4.391
REMARK INTRA:                  -0.279
REMARK UNBOUND:                -0.322
REMARK SMILES O=c1c(O)c(-c2ccc(O)c(O)c2)oc2cc(O)cc(O)c12
REMARK SMILES IDX 5 1 3 2 2 3 1 4 22 5 20 6 19 7 17 8 16 9 15 10 14 11 6 12
REMARK SMILES IDX 7 13 8 14 9 15 13 16 11 17 10 18 12 20 4 22 21 24 18 26
REMARK H PARENT 10 19 12 21 4 23 21 25 18 27
REMARK Flexibility Score: inf
ROOT
ATOM      1  C   UNL     1     138.121 144.588 118.114  1.00  0.00     0.180 A 
ATOM      2  C   UNL     1     138.366 144.575 119.498  1.00  0.00     0.208 A 
ATOM      3  C   UNL     1     139.484 145.262 119.998  1.00  0.00     0.238 A 
ATOM      4  O   UNL     1     139.668 145.293 121.243  1.00  0.00    -0.285 OA
ATOM      5  C   UNL     1     140.352 145.939 119.106  1.00  0.00     0.111 A 
ATOM      6  C   UNL     1     141.536 146.632 119.498  1.00  0.00     0.134 A 
ATOM      7  C   UNL     1     142.248 147.375 118.548  1.00  0.00     0.093 A 
ATOM      8  C   UNL     1     141.854 147.395 117.208  1.00  0.00     0.123 A 
ATOM      9  C   UNL     1     140.734 146.673 116.805  1.00  0.00     0.094 A 
ATOM     10  C   UNL     1     139.982 145.951 117.736  1.00  0.00     0.146 A 
ATOM     11  O   UNL     1     138.916 145.285 117.311  1.00  0.00    -0.452 OA
ENDROOT
BRANCH   1  12
ATOM     12  C   UNL     1     136.977 143.866 117.510  1.00  0.00     0.025 A 
ATOM     13  C   UNL     1     135.806 144.541 117.126  1.00  0.00     0.016 A 
ATOM     14  C   UNL     1     134.731 143.836 116.579  1.00  0.00     0.051 A 
ATOM     15  C   UNL     1     134.804 142.445 116.422  1.00  0.00     0.157 A 
ATOM     16  C   UNL     1     137.038 142.469 117.369  1.00  0.00     0.062 A 
ATOM     17  C   UNL     1     135.963 141.760 116.822  1.00  0.00     0.158 A 
BRANCH  15  18
ATOM     18  O   UNL     1     133.730 141.744 115.875  1.00  0.00    -0.504 OA
ATOM     19  H   UNL     1     133.872 140.971 115.235  1.00  0.00     0.293 HD
ENDBRANCH  15  18
BRANCH  17  20
ATOM     20  O   UNL     1     136.065 140.375 116.686  1.00  0.00    -0.504 OA
ATOM     21  H   UNL     1     136.113 139.927 115.779  1.00  0.00     0.293 HD
ENDBRANCH  17  20
ENDBRANCH   1  12
BRANCH   2  22
ATOM     22  O   UNL     1     137.484 143.920 120.362  1.00  0.00    -0.502 OA
ATOM     23  H   UNL     1     137.315 144.237 121.309  1.00  0.00     0.293 HD
ENDBRANCH   2  22
BRANCH   6  24
ATOM     24  O   UNL     1     142.066 146.601 120.792  1.00  0.00    -0.507 OA
ATOM     25  H   UNL     1     142.551 147.368 121.232  1.00  0.00     0.293 HD
ENDBRANCH   6  24
BRANCH   8  26
ATOM     26  O   UNL     1     142.577 148.124 116.266  1.00  0.00    -0.508 OA
ATOM     27  H   UNL     1     143.535 148.406 116.436  1.00  0.00     0.293 HD
ENDBRANCH   8  26
TORSDOF 6
ENDMDL
MODEL 9
REMARK VINA RESULT:    -3.569      1.875      6.773
REMARK INTER + INTRA:          -4.621
REMARK INTER:                  -4.299
REMARK INTRA:                  -0.323
REMARK UNBOUND:                -0.322
REMARK SMILES O=c1c(O)c(-c2ccc(O)c(O)c2)oc2cc(O)cc(O)c12
REMARK SMILES IDX 5 1 3 2 2 3 1 4 22 5 20 6 19 7 17 8 16 9 15 10 14 11 6 12
REMARK SMILES IDX 7 13 8 14 9 15 13 16 11 17 10 18 12 20 4 22 21 24 18 26
REMARK H PARENT 10 19 12 21 4 23 21 25 18 27
REMARK Flexibility Score: inf
ROOT
ATOM      1  C   UNL     1     136.370 131.257 118.719  1.00  0.00     0.180 A 
ATOM      2  C   UNL     1     135.607 130.171 118.258  1.00  0.00     0.208 A 
ATOM      3  C   UNL     1     134.429 129.828 118.941  1.00  0.00     0.238 A 
ATOM      4  O   UNL     1     133.721 128.888 118.493  1.00  0.00    -0.285 OA
ATOM      5  C   UNL     1     134.038 130.565 120.086  1.00  0.00     0.111 A 
ATOM      6  C   UNL     1     132.886 130.280 120.879  1.00  0.00     0.134 A 
ATOM      7  C   UNL     1     132.525 131.155 121.911  1.00  0.00     0.093 A 
ATOM      8  C   UNL     1     133.311 132.267 122.220  1.00  0.00     0.123 A 
ATOM      9  C   UNL     1     134.470 132.520 121.490  1.00  0.00     0.094 A 
ATOM     10  C   UNL     1     134.837 131.687 120.431  1.00  0.00     0.146 A 
ATOM     11  O   UNL     1     135.944 131.969 119.755  1.00  0.00    -0.452 OA
ENDROOT
BRANCH   1  12
ATOM     12  C   UNL     1     137.637 131.663 118.066  1.00  0.00     0.025 A 
ATOM     13  C   UNL     1     137.655 132.608 117.026  1.00  0.00     0.016 A 
ATOM     14  C   UNL     1     138.859 132.957 116.410  1.00  0.00     0.051 A 
ATOM     15  C   UNL     1     140.061 132.359 116.813  1.00  0.00     0.157 A 
ATOM     16  C   UNL     1     138.841 131.050 118.453  1.00  0.00     0.062 A 
ATOM     17  C   UNL     1     140.049 131.398 117.838  1.00  0.00     0.158 A 
BRANCH  15  18
ATOM     18  O   UNL     1     141.260 132.711 116.198  1.00  0.00    -0.504 OA
ATOM     19  H   UNL     1     141.916 132.010 115.874  1.00  0.00     0.293 HD
ENDBRANCH  15  18
BRANCH  17  20
ATOM     20  O   UNL     1     141.225 130.778 118.258  1.00  0.00    -0.504 OA
ATOM     21  H   UNL     1     142.133 131.045 117.894  1.00  0.00     0.293 HD
ENDBRANCH  17  20
ENDBRANCH   1  12
BRANCH   2  22
ATOM     22  O   UNL     1     136.000 129.470 117.114  1.00  0.00    -0.502 OA
ATOM     23  H   UNL     1     135.375 128.847 116.617  1.00  0.00     0.293 HD
ENDBRANCH   2  22
BRANCH   6  24
ATOM     24  O   UNL     1     132.085 129.147 120.712  1.00  0.00    -0.507 OA
ATOM     25  H   UNL     1     131.702 128.598 121.466  1.00  0.00     0.293 HD
ENDBRANCH   6  24
BRANCH   8  26
ATOM     26  O   UNL     1     132.953 133.124 123.259  1.00  0.00    -0.508 OA
ATOM     27  H   UNL     1     132.611 134.060 123.080  1.00  0.00     0.293 HD
ENDBRANCH   8  26
TORSDOF 6
ENDMDL
