MODEL 1
REMARK VINA RESULT:    -4.746      0.000      0.000
REMARK INTER + INTRA:         -15.925
REMARK INTER:                 -11.959
REMARK INTRA:                  -3.966
REMARK UNBOUND:                -3.966
REMARK SMILES CCCCCCCCCCCCCCCCCCCCCCCCCCCC(=O)[O-]
REMARK SMILES IDX 15 1 16 2 17 3 18 4 19 5 20 6 21 7 22 8 23 9 24 10 25 11
REMARK SMILES IDX 26 12 27 13 28 14 29 15 30 16 14 17 13 18 12 19 11 20 10 21
REMARK SMILES IDX 9 22 8 23 7 24 6 25 5 26 4 27 3 28 2 29 1 30
REMARK H PARENT
REMARK Flexibility Score: inf
ROOT
ATOM      1  C   UNL     1      51.666   4.568  18.653  1.00  0.00     0.000 C 
ENDROOT
BRANCH   1   2
ATOM      2  C   UNL     1      52.803   3.630  19.104  1.00  0.00     0.000 C 
BRANCH   2   3
ATOM      3  C   UNL     1      52.345   2.240  19.587  1.00  0.00     0.000 C 
BRANCH   3   4
ATOM      4  C   UNL     1      51.116   2.246  20.515  1.00  0.00     0.000 C 
BRANCH   4   5
ATOM      5  C   UNL     1      51.432   2.371  22.019  1.00  0.00     0.000 C 
BRANCH   5   6
ATOM      6  C   UNL     1      51.056   1.141  22.866  1.00  0.00     0.000 C 
BRANCH   6   7
ATOM      7  C   UNL     1      50.067   0.206  22.157  1.00  0.00     0.000 C 
BRANCH   7   8
ATOM      8  C   UNL     1      48.640   0.770  22.215  1.00  0.00     0.000 C 
BRANCH   8   9
ATOM      9  C   UNL     1      47.644  -0.023  21.349  1.00  0.00     0.000 C 
BRANCH   9  10
ATOM     10  C   UNL     1      46.992   0.781  20.207  1.00  0.00     0.000 C 
BRANCH  10  11
ATOM     11  C   UNL     1      47.403   2.264  20.212  1.00  0.00     0.000 C 
BRANCH  11  12
ATOM     12  C   UNL     1      46.199   3.212  20.386  1.00  0.00     0.006 C 
BRANCH  12  13
ATOM     13  C   UNL     1      44.930   2.508  20.894  1.00  0.00     0.053 C 
BRANCH  13  14
ATOM     14  C   UNL     1      44.668   2.779  22.343  1.00  0.00     0.041 C 
ATOM     15  O   UNL     1      43.502   3.039  22.738  1.00  0.00    -0.550 OA
ATOM     16  O   UNL     1      45.713   2.738  23.258  1.00  0.00    -0.550 OA
ENDBRANCH  13  14
ENDBRANCH  12  13
ENDBRANCH  11  12
ENDBRANCH  10  11
ENDBRANCH   9  10
ENDBRANCH   8   9
ENDBRANCH   7   8
ENDBRANCH   6   7
ENDBRANCH   5   6
ENDBRANCH   4   5
ENDBRANCH   3   4
ENDBRANCH   2   3
ENDBRANCH   1   2
BRANCH   1  17
ATOM     17  C   UNL     1      52.121   5.966  18.188  1.00  0.00     0.000 C 
BRANCH  17  18
ATOM     18  C   UNL     1      51.575   7.141  19.025  1.00  0.00     0.000 C 
BRANCH  18  19
ATOM     19  C   UNL     1      50.556   8.041  18.301  1.00  0.00     0.000 C 
BRANCH  19  20
ATOM     20  C   UNL     1      49.844   9.068  19.198  1.00  0.00     0.000 C 
BRANCH  20  21
ATOM     21  C   UNL     1      48.323   8.860  19.255  1.00  0.00     0.000 C 
BRANCH  21  22
ATOM     22  C   UNL     1      47.940   7.968  20.445  1.00  0.00    -0.000 C 
BRANCH  22  23
ATOM     23  C   UNL     1      48.798   8.233  21.696  1.00  0.00    -0.000 C 
BRANCH  23  24
ATOM     24  C   UNL     1      49.615   7.026  22.195  1.00  0.00    -0.000 C 
BRANCH  24  25
ATOM     25  C   UNL     1      49.233   5.672  21.566  1.00  0.00    -0.000 C 
BRANCH  25  26
ATOM     26  C   UNL     1      48.873   4.582  22.600  1.00  0.00    -0.000 C 
BRANCH  26  27
ATOM     27  C   UNL     1      49.651   4.735  23.918  1.00  0.00    -0.000 C 
BRANCH  27  28
ATOM     28  C   UNL     1      48.932   4.084  25.110  1.00  0.00    -0.000 C 
BRANCH  28  29
ATOM     29  C   UNL     1      49.344   4.699  26.455  1.00  0.00    -0.003 C 
ATOM     30  C   UNL     1      50.234   5.922  26.250  1.00  0.00     0.004 C 
ENDBRANCH  28  29
ENDBRANCH  27  28
ENDBRANCH  26  27
ENDBRANCH  25  26
ENDBRANCH  24  25
ENDBRANCH  23  24
ENDBRANCH  22  23
ENDBRANCH  21  22
ENDBRANCH  20  21
ENDBRANCH  19  20
ENDBRANCH  18  19
ENDBRANCH  17  18
ENDBRANCH   1  17
TORSDOF 26
ENDMDL
MODEL 2
REMARK VINA RESULT:    -4.741      2.856      5.489
REMARK INTER + INTRA:         -15.913
REMARK INTER:                 -10.280
REMARK INTRA:                  -5.633
REMARK UNBOUND:                -3.966
REMARK SMILES CCCCCCCCCCCCCCCCCCCCCCCCCCCC(=O)[O-]
REMARK SMILES IDX 15 1 16 2 17 3 18 4 19 5 20 6 21 7 22 8 23 9 24 10 25 11
REMARK SMILES IDX 26 12 27 13 28 14 29 15 30 16 14 17 13 18 12 19 11 20 10 21
REMARK SMILES IDX 9 22 8 23 7 24 6 25 5 26 4 27 3 28 2 29 1 30
REMARK H PARENT
REMARK Flexibility Score: inf
ROOT
ATOM      1  C   UNL     1      45.542   3.257  20.233  1.00  0.00     0.000 C 
ENDROOT
BRANCH   1   2
ATOM      2  C   UNL     1      46.951   2.634  20.214  1.00  0.00     0.000 C 
BRANCH   2   3
ATOM      3  C   UNL     1      46.982   1.098  20.082  1.00  0.00     0.000 C 
BRANCH   3   4
ATOM      4  C   UNL     1      47.756   0.365  21.194  1.00  0.00     0.000 C 
BRANCH   4   5
ATOM      5  C   UNL     1      46.899  -0.105  22.387  1.00  0.00     0.000 C 
BRANCH   5   6
ATOM      6  C   UNL     1      47.379   0.387  23.764  1.00  0.00     0.000 C 
BRANCH   6   7
ATOM      7  C   UNL     1      46.978   1.841  24.054  1.00  0.00     0.000 C 
BRANCH   7   8
ATOM      8  C   UNL     1      48.214   2.704  24.342  1.00  0.00     0.000 C 
BRANCH   8   9
ATOM      9  C   UNL     1      48.576   3.644  23.177  1.00  0.00     0.000 C 
BRANCH   9  10
ATOM     10  C   UNL     1      50.036   3.547  22.695  1.00  0.00     0.000 C 
BRANCH  10  11
ATOM     11  C   UNL     1      50.539   2.096  22.601  1.00  0.00     0.000 C 
BRANCH  11  12
ATOM     12  C   UNL     1      51.312   1.819  21.296  1.00  0.00     0.006 C 
BRANCH  12  13
ATOM     13  C   UNL     1      50.805   2.635  20.096  1.00  0.00     0.053 C 
BRANCH  13  14
ATOM     14  C   UNL     1      51.922   3.218  19.287  1.00  0.00     0.041 C 
ATOM     15  O   UNL     1      51.729   4.248  18.591  1.00  0.00    -0.550 OA
ATOM     16  O   UNL     1      53.178   2.625  19.308  1.00  0.00    -0.550 OA
ENDBRANCH  13  14
ENDBRANCH  12  13
ENDBRANCH  11  12
ENDBRANCH  10  11
ENDBRANCH   9  10
ENDBRANCH   8   9
ENDBRANCH   7   8
ENDBRANCH   6   7
ENDBRANCH   5   6
ENDBRANCH   4   5
ENDBRANCH   3   4
ENDBRANCH   2   3
ENDBRANCH   1   2
BRANCH   1  17
ATOM     17  C   UNL     1      44.771   3.084  21.557  1.00  0.00     0.000 C 
BRANCH  17  18
ATOM     18  C   UNL     1      44.283   4.397  22.203  1.00  0.00     0.000 C 
BRANCH  18  19
ATOM     19  C   UNL     1      45.391   5.277  22.813  1.00  0.00     0.000 C 
BRANCH  19  20
ATOM     20  C   UNL     1      45.801   6.490  21.960  1.00  0.00     0.000 C 
BRANCH  20  21
ATOM     21  C   UNL     1      47.181   6.323  21.307  1.00  0.00     0.000 C 
BRANCH  21  22
ATOM     22  C   UNL     1      47.682   7.659  20.741  1.00  0.00    -0.000 C 
BRANCH  22  23
ATOM     23  C   UNL     1      48.894   8.220  21.509  1.00  0.00    -0.000 C 
BRANCH  23  24
ATOM     24  C   UNL     1      49.654   7.191  22.368  1.00  0.00    -0.000 C 
BRANCH  24  25
ATOM     25  C   UNL     1      49.810   7.565  23.854  1.00  0.00    -0.000 C 
BRANCH  25  26
ATOM     26  C   UNL     1      48.703   6.991  24.764  1.00  0.00    -0.000 C 
BRANCH  26  27
ATOM     27  C   UNL     1      47.911   8.087  25.498  1.00  0.00    -0.000 C 
BRANCH  27  28
ATOM     28  C   UNL     1      46.484   8.254  24.952  1.00  0.00    -0.000 C 
BRANCH  28  29
ATOM     29  C   UNL     1      46.162   9.708  24.578  1.00  0.00    -0.003 C 
ATOM     30  C   UNL     1      47.385  10.405  23.986  1.00  0.00     0.004 C 
ENDBRANCH  28  29
ENDBRANCH  27  28
ENDBRANCH  26  27
ENDBRANCH  25  26
ENDBRANCH  24  25
ENDBRANCH  23  24
ENDBRANCH  22  23
ENDBRANCH  21  22
ENDBRANCH  20  21
ENDBRANCH  19  20
ENDBRANCH  18  19
ENDBRANCH  17  18
ENDBRANCH   1  17
TORSDOF 26
ENDMDL
MODEL 3
REMARK VINA RESULT:    -4.740      3.224      5.899
REMARK INTER + INTRA:         -15.911
REMARK INTER:                 -10.593
REMARK INTRA:                  -5.318
REMARK UNBOUND:                -3.966
REMARK SMILES CCCCCCCCCCCCCCCCCCCCCCCCCCCC(=O)[O-]
REMARK SMILES IDX 15 1 16 2 17 3 18 4 19 5 20 6 21 7 22 8 23 9 24 10 25 11
REMARK SMILES IDX 26 12 27 13 28 14 29 15 30 16 14 17 13 18 12 19 11 20 10 21
REMARK SMILES IDX 9 22 8 23 7 24 6 25 5 26 4 27 3 28 2 29 1 30
REMARK H PARENT
REMARK Flexibility Score: inf
ROOT
ATOM      1  C   UNL     1      48.749   8.597  19.938  1.00  0.00     0.000 C 
ENDROOT
BRANCH   1   2
ATOM      2  C   UNL     1      48.695   7.246  20.677  1.00  0.00     0.000 C 
BRANCH   2   3
ATOM      3  C   UNL     1      49.635   7.132  21.894  1.00  0.00     0.000 C 
BRANCH   3   4
ATOM      4  C   UNL     1      49.269   8.039  23.084  1.00  0.00     0.000 C 
BRANCH   4   5
ATOM      5  C   UNL     1      50.228   7.954  24.289  1.00  0.00     0.000 C 
BRANCH   5   6
ATOM      6  C   UNL     1      49.658   7.232  25.523  1.00  0.00     0.000 C 
BRANCH   6   7
ATOM      7  C   UNL     1      50.249   5.829  25.722  1.00  0.00     0.000 C 
BRANCH   7   8
ATOM      8  C   UNL     1      49.348   4.759  25.089  1.00  0.00     0.000 C 
BRANCH   8   9
ATOM      9  C   UNL     1      49.992   4.077  23.868  1.00  0.00     0.000 C 
BRANCH   9  10
ATOM     10  C   UNL     1      48.996   3.578  22.803  1.00  0.00     0.000 C 
BRANCH  10  11
ATOM     11  C   UNL     1      49.517   2.359  22.023  1.00  0.00     0.000 C 
BRANCH  11  12
ATOM     12  C   UNL     1      50.868   2.631  21.330  1.00  0.00     0.006 C 
BRANCH  12  13
ATOM     13  C   UNL     1      50.740   2.914  19.824  1.00  0.00     0.053 C 
BRANCH  13  14
ATOM     14  C   UNL     1      52.027   3.381  19.219  1.00  0.00     0.041 C 
ATOM     15  O   UNL     1      52.050   4.410  18.495  1.00  0.00    -0.550 OA
ATOM     16  O   UNL     1      53.204   2.682  19.461  1.00  0.00    -0.550 OA
ENDBRANCH  13  14
ENDBRANCH  12  13
ENDBRANCH  11  12
ENDBRANCH  10  11
ENDBRANCH   9  10
ENDBRANCH   8   9
ENDBRANCH   7   8
ENDBRANCH   6   7
ENDBRANCH   5   6
ENDBRANCH   4   5
ENDBRANCH   3   4
ENDBRANCH   2   3
ENDBRANCH   1   2
BRANCH   1  17
ATOM     17  C   UNL     1      47.416   9.370  19.896  1.00  0.00     0.000 C 
BRANCH  17  18
ATOM     18  C   UNL     1      46.276   8.749  20.728  1.00  0.00     0.000 C 
BRANCH  18  19
ATOM     19  C   UNL     1      45.843   9.570  21.959  1.00  0.00     0.000 C 
BRANCH  19  20
ATOM     20  C   UNL     1      46.635  10.870  22.184  1.00  0.00     0.000 C 
BRANCH  20  21
ATOM     21  C   UNL     1      47.223  10.973  23.599  1.00  0.00     0.000 C 
BRANCH  21  22
ATOM     22  C   UNL     1      46.226  10.452  24.644  1.00  0.00    -0.000 C 
BRANCH  22  23
ATOM     23  C   UNL     1      46.835   9.392  25.580  1.00  0.00    -0.000 C 
BRANCH  23  24
ATOM     24  C   UNL     1      45.860   8.292  26.042  1.00  0.00    -0.000 C 
BRANCH  24  25
ATOM     25  C   UNL     1      46.147   6.885  25.484  1.00  0.00    -0.000 C 
BRANCH  25  26
ATOM     26  C   UNL     1      45.390   6.564  24.177  1.00  0.00    -0.000 C 
BRANCH  26  27
ATOM     27  C   UNL     1      46.276   5.856  23.137  1.00  0.00    -0.000 C 
BRANCH  27  28
ATOM     28  C   UNL     1      45.480   4.907  22.228  1.00  0.00    -0.000 C 
BRANCH  28  29
ATOM     29  C   UNL     1      46.200   4.617  20.903  1.00  0.00    -0.003 C 
ATOM     30  C   UNL     1      46.005   3.163  20.479  1.00  0.00     0.004 C 
ENDBRANCH  28  29
ENDBRANCH  27  28
ENDBRANCH  26  27
ENDBRANCH  25  26
ENDBRANCH  24  25
ENDBRANCH  23  24
ENDBRANCH  22  23
ENDBRANCH  21  22
ENDBRANCH  20  21
ENDBRANCH  19  20
ENDBRANCH  18  19
ENDBRANCH  17  18
ENDBRANCH   1  17
TORSDOF 26
ENDMDL
MODEL 4
REMARK VINA RESULT:    -4.712      1.472      4.124
REMARK INTER + INTRA:         -15.840
REMARK INTER:                 -11.829
REMARK INTRA:                  -4.011
REMARK UNBOUND:                -3.966
REMARK SMILES CCCCCCCCCCCCCCCCCCCCCCCCCCCC(=O)[O-]
REMARK SMILES IDX 15 1 16 2 17 3 18 4 19 5 20 6 21 7 22 8 23 9 24 10 25 11
REMARK SMILES IDX 26 12 27 13 28 14 29 15 30 16 14 17 13 18 12 19 11 20 10 21
REMARK SMILES IDX 9 22 8 23 7 24 6 25 5 26 4 27 3 28 2 29 1 30
REMARK H PARENT
REMARK Flexibility Score: inf
ROOT
ATOM      1  C   UNL     1      49.702   4.190  21.183  1.00  0.00     0.000 C 
ENDROOT
BRANCH   1   2
ATOM      2  C   UNL     1      50.078   2.967  20.324  1.00  0.00     0.000 C 
BRANCH   2   3
ATOM      3  C   UNL     1      51.554   2.909  19.886  1.00  0.00     0.000 C 
BRANCH   3   4
ATOM      4  C   UNL     1      52.413   1.867  20.628  1.00  0.00     0.000 C 
BRANCH   4   5
ATOM      5  C   UNL     1      51.940   1.527  22.056  1.00  0.00     0.000 C 
BRANCH   5   6
ATOM      6  C   UNL     1      51.357   0.113  22.228  1.00  0.00     0.000 C 
BRANCH   6   7
ATOM      7  C   UNL     1      49.934   0.117  22.804  1.00  0.00     0.000 C 
BRANCH   7   8
ATOM      8  C   UNL     1      49.120  -1.069  22.267  1.00  0.00     0.000 C 
BRANCH   8   9
ATOM      9  C   UNL     1      47.651  -0.709  21.980  1.00  0.00     0.000 C 
BRANCH   9  10
ATOM     10  C   UNL     1      47.382   0.791  21.752  1.00  0.00     0.000 C 
BRANCH  10  11
ATOM     11  C   UNL     1      47.009   1.116  20.295  1.00  0.00     0.000 C 
BRANCH  11  12
ATOM     12  C   UNL     1      46.462   2.548  20.128  1.00  0.00     0.006 C 
BRANCH  12  13
ATOM     13  C   UNL     1      45.627   3.031  21.326  1.00  0.00     0.053 C 
BRANCH  13  14
ATOM     14  C   UNL     1      44.165   2.761  21.148  1.00  0.00     0.041 C 
ATOM     15  O   UNL     1      43.507   3.385  20.275  1.00  0.00    -0.550 OA
ATOM     16  O   UNL     1      43.530   1.816  21.945  1.00  0.00    -0.550 OA
ENDBRANCH  13  14
ENDBRANCH  12  13
ENDBRANCH  11  12
ENDBRANCH  10  11
ENDBRANCH   9  10
ENDBRANCH   8   9
ENDBRANCH   7   8
ENDBRANCH   6   7
ENDBRANCH   5   6
ENDBRANCH   4   5
ENDBRANCH   3   4
ENDBRANCH   2   3
ENDBRANCH   1   2
BRANCH   1  17
ATOM     17  C   UNL     1      49.205   3.860  22.604  1.00  0.00     0.000 C 
BRANCH  17  18
ATOM     18  C   UNL     1      48.534   5.032  23.349  1.00  0.00     0.000 C 
BRANCH  18  19
ATOM     19  C   UNL     1      48.842   5.110  24.857  1.00  0.00     0.000 C 
BRANCH  19  20
ATOM     20  C   UNL     1      49.061   6.531  25.403  1.00  0.00     0.000 C 
BRANCH  20  21
ATOM     21  C   UNL     1      50.185   7.284  24.675  1.00  0.00     0.000 C 
BRANCH  21  22
ATOM     22  C   UNL     1      49.636   8.529  23.964  1.00  0.00    -0.000 C 
BRANCH  22  23
ATOM     23  C   UNL     1      48.126   8.732  24.187  1.00  0.00    -0.000 C 
BRANCH  23  24
ATOM     24  C   UNL     1      47.410   9.549  23.095  1.00  0.00    -0.000 C 
BRANCH  24  25
ATOM     25  C   UNL     1      46.472   8.740  22.180  1.00  0.00    -0.000 C 
BRANCH  25  26
ATOM     26  C   UNL     1      46.833   8.826  20.680  1.00  0.00    -0.000 C 
BRANCH  26  27
ATOM     27  C   UNL     1      48.346   8.970  20.442  1.00  0.00    -0.000 C 
BRANCH  27  28
ATOM     28  C   UNL     1      49.095   7.633  20.558  1.00  0.00    -0.000 C 
BRANCH  28  29
ATOM     29  C   UNL     1      50.507   7.694  19.957  1.00  0.00    -0.003 C 
ATOM     30  C   UNL     1      50.554   8.644  18.763  1.00  0.00     0.004 C 
ENDBRANCH  28  29
ENDBRANCH  27  28
ENDBRANCH  26  27
ENDBRANCH  25  26
ENDBRANCH  24  25
ENDBRANCH  23  24
ENDBRANCH  22  23
ENDBRANCH  21  22
ENDBRANCH  20  21
ENDBRANCH  19  20
ENDBRANCH  18  19
ENDBRANCH  17  18
ENDBRANCH   1  17
TORSDOF 26
ENDMDL
MODEL 5
REMARK VINA RESULT:    -4.704      2.957      6.461
REMARK INTER + INTRA:         -15.821
REMARK INTER:                 -10.124
REMARK INTRA:                  -5.696
REMARK UNBOUND:                -3.966
REMARK SMILES CCCCCCCCCCCCCCCCCCCCCCCCCCCC(=O)[O-]
REMARK SMILES IDX 15 1 16 2 17 3 18 4 19 5 20 6 21 7 22 8 23 9 24 10 25 11
REMARK SMILES IDX 26 12 27 13 28 14 29 15 30 16 14 17 13 18 12 19 11 20 10 21
REMARK SMILES IDX 9 22 8 23 7 24 6 25 5 26 4 27 3 28 2 29 1 30
REMARK H PARENT
REMARK Flexibility Score: inf
ROOT
ATOM      1  C   UNL     1      46.768   3.018  20.273  1.00  0.00     0.000 C 
ENDROOT
BRANCH   1   2
ATOM      2  C   UNL     1      46.824   1.478  20.290  1.00  0.00     0.000 C 
BRANCH   2   3
ATOM      3  C   UNL     1      46.997   0.849  21.686  1.00  0.00     0.000 C 
BRANCH   3   4
ATOM      4  C   UNL     1      47.727  -0.507  21.702  1.00  0.00     0.000 C 
BRANCH   4   5
ATOM      5  C   UNL     1      47.150  -1.551  22.680  1.00  0.00     0.000 C 
BRANCH   5   6
ATOM      6  C   UNL     1      47.280  -1.186  24.170  1.00  0.00     0.000 C 
BRANCH   6   7
ATOM      7  C   UNL     1      48.721  -0.851  24.580  1.00  0.00     0.000 C 
BRANCH   7   8
ATOM      8  C   UNL     1      48.775   0.464  25.372  1.00  0.00     0.000 C 
BRANCH   8   9
ATOM      9  C   UNL     1      49.846   1.438  24.848  1.00  0.00     0.000 C 
BRANCH   9  10
ATOM     10  C   UNL     1      50.482   1.041  23.502  1.00  0.00     0.000 C 
BRANCH  10  11
ATOM     11  C   UNL     1      50.752   2.250  22.590  1.00  0.00     0.000 C 
BRANCH  11  12
ATOM     12  C   UNL     1      50.515   1.934  21.099  1.00  0.00     0.006 C 
BRANCH  12  13
ATOM     13  C   UNL     1      50.481   3.183  20.203  1.00  0.00     0.053 C 
BRANCH  13  14
ATOM     14  C   UNL     1      51.673   3.273  19.302  1.00  0.00     0.041 C 
ATOM     15  O   UNL     1      52.440   2.284  19.166  1.00  0.00    -0.550 OA
ATOM     16  O   UNL     1      51.934   4.448  18.608  1.00  0.00    -0.550 OA
ENDBRANCH  13  14
ENDBRANCH  12  13
ENDBRANCH  11  12
ENDBRANCH  10  11
ENDBRANCH   9  10
ENDBRANCH   8   9
ENDBRANCH   7   8
ENDBRANCH   6   7
ENDBRANCH   5   6
ENDBRANCH   4   5
ENDBRANCH   3   4
ENDBRANCH   2   3
ENDBRANCH   1   2
BRANCH   1  17
ATOM     17  C   UNL     1      45.503   3.630  20.906  1.00  0.00     0.000 C 
BRANCH  17  18
ATOM     18  C   UNL     1      44.182   3.289  20.185  1.00  0.00     0.000 C 
BRANCH  18  19
ATOM     19  C   UNL     1      43.135   2.560  21.050  1.00  0.00     0.000 C 
BRANCH  19  20
ATOM     20  C   UNL     1      43.313   1.034  21.138  1.00  0.00     0.000 C 
BRANCH  20  21
ATOM     21  C   UNL     1      43.397   0.525  22.584  1.00  0.00     0.000 C 
BRANCH  21  22
ATOM     22  C   UNL     1      43.704   1.677  23.551  1.00  0.00    -0.000 C 
BRANCH  22  23
ATOM     23  C   UNL     1      44.739   1.299  24.627  1.00  0.00    -0.000 C 
BRANCH  23  24
ATOM     24  C   UNL     1      45.038   2.402  25.660  1.00  0.00    -0.000 C 
BRANCH  24  25
ATOM     25  C   UNL     1      46.397   3.107  25.491  1.00  0.00    -0.000 C 
BRANCH  25  26
ATOM     26  C   UNL     1      46.433   4.127  24.332  1.00  0.00    -0.000 C 
BRANCH  26  27
ATOM     27  C   UNL     1      47.843   4.306  23.743  1.00  0.00    -0.000 C 
BRANCH  27  28
ATOM     28  C   UNL     1      47.946   5.523  22.810  1.00  0.00    -0.000 C 
BRANCH  28  29
ATOM     29  C   UNL     1      49.393   5.834  22.404  1.00  0.00    -0.003 C 
ATOM     30  C   UNL     1      49.443   6.946  21.359  1.00  0.00     0.004 C 
ENDBRANCH  28  29
ENDBRANCH  27  28
ENDBRANCH  26  27
ENDBRANCH  25  26
ENDBRANCH  24  25
ENDBRANCH  23  24
ENDBRANCH  22  23
ENDBRANCH  21  22
ENDBRANCH  20  21
ENDBRANCH  19  20
ENDBRANCH  18  19
ENDBRANCH  17  18
ENDBRANCH   1  17
TORSDOF 26
ENDMDL
MODEL 6
REMARK VINA RESULT:    -4.630      2.907      5.942
REMARK INTER + INTRA:         -15.634
REMARK INTER:                 -10.038
REMARK INTRA:                  -5.596
REMARK UNBOUND:                -3.966
REMARK SMILES CCCCCCCCCCCCCCCCCCCCCCCCCCCC(=O)[O-]
REMARK SMILES IDX 15 1 16 2 17 3 18 4 19 5 20 6 21 7 22 8 23 9 24 10 25 11
REMARK SMILES IDX 26 12 27 13 28 14 29 15 30 16 14 17 13 18 12 19 11 20 10 21
REMARK SMILES IDX 9 22 8 23 7 24 6 25 5 26 4 27 3 28 2 29 1 30
REMARK H PARENT
REMARK Flexibility Score: inf
ROOT
ATOM      1  C   UNL     1      48.100   1.495  20.748  1.00  0.00     0.000 C 
ENDROOT
BRANCH   1   2
ATOM      2  C   UNL     1      46.679   1.869  20.286  1.00  0.00     0.000 C 
BRANCH   2   3
ATOM      3  C   UNL     1      46.339   3.370  20.379  1.00  0.00     0.000 C 
BRANCH   3   4
ATOM      4  C   UNL     1      45.456   3.763  21.579  1.00  0.00     0.000 C 
BRANCH   4   5
ATOM      5  C   UNL     1      44.056   3.117  21.601  1.00  0.00     0.000 C 
BRANCH   5   6
ATOM      6  C   UNL     1      43.781   2.205  22.810  1.00  0.00     0.000 C 
BRANCH   6   7
ATOM      7  C   UNL     1      43.470   0.756  22.408  1.00  0.00     0.000 C 
BRANCH   7   8
ATOM      8  C   UNL     1      44.639  -0.175  22.761  1.00  0.00     0.000 C 
BRANCH   8   9
ATOM      9  C   UNL     1      45.710   0.508  23.631  1.00  0.00     0.000 C 
BRANCH   9  10
ATOM     10  C   UNL     1      47.002  -0.307  23.829  1.00  0.00     0.000 C 
BRANCH  10  11
ATOM     11  C   UNL     1      47.152  -1.447  22.807  1.00  0.00     0.000 C 
BRANCH  11  12
ATOM     12  C   UNL     1      48.621  -1.698  22.410  1.00  0.00     0.006 C 
BRANCH  12  13
ATOM     13  C   UNL     1      49.629  -0.869  23.224  1.00  0.00     0.053 C 
BRANCH  13  14
ATOM     14  C   UNL     1      50.520  -1.724  24.070  1.00  0.00     0.041 C 
ATOM     15  O   UNL     1      50.324  -1.810  25.311  1.00  0.00    -0.550 OA
ATOM     16  O   UNL     1      51.564  -2.431  23.487  1.00  0.00    -0.550 OA
ENDBRANCH  13  14
ENDBRANCH  12  13
ENDBRANCH  11  12
ENDBRANCH  10  11
ENDBRANCH   9  10
ENDBRANCH   8   9
ENDBRANCH   7   8
ENDBRANCH   6   7
ENDBRANCH   5   6
ENDBRANCH   4   5
ENDBRANCH   3   4
ENDBRANCH   2   3
ENDBRANCH   1   2
BRANCH   1  17
ATOM     17  C   UNL     1      49.135   2.635  20.660  1.00  0.00     0.000 C 
BRANCH  17  18
ATOM     18  C   UNL     1      50.301   2.536  21.665  1.00  0.00     0.000 C 
BRANCH  18  19
ATOM     19  C   UNL     1      50.118   3.349  22.961  1.00  0.00     0.000 C 
BRANCH  19  20
ATOM     20  C   UNL     1      49.290   2.652  24.054  1.00  0.00     0.000 C 
BRANCH  20  21
ATOM     21  C   UNL     1      47.933   3.329  24.300  1.00  0.00     0.000 C 
BRANCH  21  22
ATOM     22  C   UNL     1      47.881   3.953  25.702  1.00  0.00    -0.000 C 
BRANCH  22  23
ATOM     23  C   UNL     1      49.260   4.011  26.386  1.00  0.00    -0.000 C 
BRANCH  23  24
ATOM     24  C   UNL     1      49.559   5.321  27.139  1.00  0.00    -0.000 C 
BRANCH  24  25
ATOM     25  C   UNL     1      49.606   6.586  26.262  1.00  0.00    -0.000 C 
BRANCH  25  26
ATOM     26  C   UNL     1      50.383   6.402  24.940  1.00  0.00    -0.000 C 
BRANCH  26  27
ATOM     27  C   UNL     1      49.847   7.296  23.808  1.00  0.00    -0.000 C 
BRANCH  27  28
ATOM     28  C   UNL     1      48.425   6.910  23.371  1.00  0.00    -0.000 C 
BRANCH  28  29
ATOM     29  C   UNL     1      48.393   6.248  21.985  1.00  0.00    -0.003 C 
ATOM     30  C   UNL     1      49.564   6.720  21.125  1.00  0.00     0.004 C 
ENDBRANCH  28  29
ENDBRANCH  27  28
ENDBRANCH  26  27
ENDBRANCH  25  26
ENDBRANCH  24  25
ENDBRANCH  23  24
ENDBRANCH  22  23
ENDBRANCH  21  22
ENDBRANCH  20  21
ENDBRANCH  19  20
ENDBRANCH  18  19
ENDBRANCH  17  18
ENDBRANCH   1  17
TORSDOF 26
ENDMDL
MODEL 7
REMARK VINA RESULT:    -4.614      2.432      7.346
REMARK INTER + INTRA:         -15.593
REMARK INTER:                 -10.427
REMARK INTRA:                  -5.166
REMARK UNBOUND:                -3.966
REMARK SMILES CCCCCCCCCCCCCCCCCCCCCCCCCCCC(=O)[O-]
REMARK SMILES IDX 15 1 16 2 17 3 18 4 19 5 20 6 21 7 22 8 23 9 24 10 25 11
REMARK SMILES IDX 26 12 27 13 28 14 29 15 30 16 14 17 13 18 12 19 11 20 10 21
REMARK SMILES IDX 9 22 8 23 7 24 6 25 5 26 4 27 3 28 2 29 1 30
REMARK H PARENT
REMARK Flexibility Score: inf
ROOT
ATOM      1  C   UNL     1      47.828   1.828  20.779  1.00  0.00     0.000 C 
ENDROOT
BRANCH   1   2
ATOM      2  C   UNL     1      46.642   2.230  19.881  1.00  0.00     0.000 C 
BRANCH   2   3
ATOM      3  C   UNL     1      45.793   3.402  20.411  1.00  0.00     0.000 C 
BRANCH   3   4
ATOM      4  C   UNL     1      44.403   3.007  20.947  1.00  0.00     0.000 C 
BRANCH   4   5
ATOM      5  C   UNL     1      44.072   3.533  22.358  1.00  0.00     0.000 C 
BRANCH   5   6
ATOM      6  C   UNL     1      44.697   2.732  23.513  1.00  0.00     0.000 C 
BRANCH   6   7
ATOM      7  C   UNL     1      45.999   3.355  24.039  1.00  0.00     0.000 C 
BRANCH   7   8
ATOM      8  C   UNL     1      46.450   2.671  25.337  1.00  0.00     0.000 C 
BRANCH   8   9
ATOM      9  C   UNL     1      47.981   2.560  25.456  1.00  0.00     0.000 C 
BRANCH   9  10
ATOM     10  C   UNL     1      48.746   2.670  24.124  1.00  0.00     0.000 C 
BRANCH  10  11
ATOM     11  C   UNL     1      49.598   3.948  24.027  1.00  0.00     0.000 C 
BRANCH  11  12
ATOM     12  C   UNL     1      49.574   4.572  22.617  1.00  0.00     0.006 C 
BRANCH  12  13
ATOM     13  C   UNL     1      48.482   5.639  22.436  1.00  0.00     0.053 C 
BRANCH  13  14
ATOM     14  C   UNL     1      49.032   6.940  21.940  1.00  0.00     0.041 C 
ATOM     15  O   UNL     1      49.591   7.737  22.738  1.00  0.00    -0.550 OA
ATOM     16  O   UNL     1      48.931   7.271  20.594  1.00  0.00    -0.550 OA
ENDBRANCH  13  14
ENDBRANCH  12  13
ENDBRANCH  11  12
ENDBRANCH  10  11
ENDBRANCH   9  10
ENDBRANCH   8   9
ENDBRANCH   7   8
ENDBRANCH   6   7
ENDBRANCH   5   6
ENDBRANCH   4   5
ENDBRANCH   3   4
ENDBRANCH   2   3
ENDBRANCH   1   2
BRANCH   1  17
ATOM     17  C   UNL     1      47.772   0.389  21.328  1.00  0.00     0.000 C 
BRANCH  17  18
ATOM     18  C   UNL     1      46.491   0.040  22.112  1.00  0.00     0.000 C 
BRANCH  18  19
ATOM     19  C   UNL     1      46.721  -0.705  23.442  1.00  0.00     0.000 C 
BRANCH  19  20
ATOM     20  C   UNL     1      48.195  -0.992  23.778  1.00  0.00     0.000 C 
BRANCH  20  21
ATOM     21  C   UNL     1      48.605  -2.441  23.478  1.00  0.00     0.000 C 
BRANCH  21  22
ATOM     22  C   UNL     1      49.798  -2.482  22.512  1.00  0.00    -0.000 C 
BRANCH  22  23
ATOM     23  C   UNL     1      51.030  -1.727  23.047  1.00  0.00    -0.000 C 
BRANCH  23  24
ATOM     24  C   UNL     1      51.594  -0.649  22.103  1.00  0.00    -0.000 C 
BRANCH  24  25
ATOM     25  C   UNL     1      51.222   0.801  22.467  1.00  0.00    -0.000 C 
BRANCH  25  26
ATOM     26  C   UNL     1      52.033   1.867  21.699  1.00  0.00    -0.000 C 
BRANCH  26  27
ATOM     27  C   UNL     1      52.732   1.297  20.453  1.00  0.00    -0.000 C 
BRANCH  27  28
ATOM     28  C   UNL     1      52.585   2.205  19.222  1.00  0.00    -0.000 C 
BRANCH  28  29
ATOM     29  C   UNL     1      51.437   3.215  19.368  1.00  0.00    -0.003 C 
ATOM     30  C   UNL     1      51.793   4.548  18.715  1.00  0.00     0.004 C 
ENDBRANCH  28  29
ENDBRANCH  27  28
ENDBRANCH  26  27
ENDBRANCH  25  26
ENDBRANCH  24  25
ENDBRANCH  23  24
ENDBRANCH  22  23
ENDBRANCH  21  22
ENDBRANCH  20  21
ENDBRANCH  19  20
ENDBRANCH  18  19
ENDBRANCH  17  18
ENDBRANCH   1  17
TORSDOF 26
ENDMDL
MODEL 8
REMARK VINA RESULT:    -4.589      2.481      6.220
REMARK INTER + INTRA:         -15.530
REMARK INTER:                  -9.625
REMARK INTRA:                  -5.905
REMARK UNBOUND:                -3.966
REMARK SMILES CCCCCCCCCCCCCCCCCCCCCCCCCCCC(=O)[O-]
REMARK SMILES IDX 15 1 16 2 17 3 18 4 19 5 20 6 21 7 22 8 23 9 24 10 25 11
REMARK SMILES IDX 26 12 27 13 28 14 29 15 30 16 14 17 13 18 12 19 11 20 10 21
REMARK SMILES IDX 9 22 8 23 7 24 6 25 5 26 4 27 3 28 2 29 1 30
REMARK H PARENT
REMARK Flexibility Score: inf
ROOT
ATOM      1  C   UNL     1      45.797   4.657  20.936  1.00  0.00     0.000 C 
ENDROOT
BRANCH   1   2
ATOM      2  C   UNL     1      44.733   3.657  20.443  1.00  0.00     0.000 C 
BRANCH   2   3
ATOM      3  C   UNL     1      43.579   3.396  21.431  1.00  0.00     0.000 C 
BRANCH   3   4
ATOM      4  C   UNL     1      43.635   2.035  22.149  1.00  0.00     0.000 C 
BRANCH   4   5
ATOM      5  C   UNL     1      44.834   1.143  21.770  1.00  0.00     0.000 C 
BRANCH   5   6
ATOM      6  C   UNL     1      45.945   1.061  22.832  1.00  0.00     0.000 C 
BRANCH   6   7
ATOM      7  C   UNL     1      47.304   0.651  22.247  1.00  0.00     0.000 C 
BRANCH   7   8
ATOM      8  C   UNL     1      47.448   1.140  20.799  1.00  0.00     0.000 C 
BRANCH   8   9
ATOM      9  C   UNL     1      48.589   2.158  20.619  1.00  0.00     0.000 C 
BRANCH   9  10
ATOM     10  C   UNL     1      48.838   3.075  21.833  1.00  0.00     0.000 C 
BRANCH  10  11
ATOM     11  C   UNL     1      50.331   3.213  22.181  1.00  0.00     0.000 C 
BRANCH  11  12
ATOM     12  C   UNL     1      51.210   2.183  21.443  1.00  0.00     0.006 C 
BRANCH  12  13
ATOM     13  C   UNL     1      51.894   1.173  22.380  1.00  0.00     0.053 C 
BRANCH  13  14
ATOM     14  C   UNL     1      50.921   0.216  22.995  1.00  0.00     0.041 C 
ATOM     15  O   UNL     1      50.477   0.421  24.154  1.00  0.00    -0.550 OA
ATOM     16  O   UNL     1      50.502  -0.902  22.284  1.00  0.00    -0.550 OA
ENDBRANCH  13  14
ENDBRANCH  12  13
ENDBRANCH  11  12
ENDBRANCH  10  11
ENDBRANCH   9  10
ENDBRANCH   8   9
ENDBRANCH   7   8
ENDBRANCH   6   7
ENDBRANCH   5   6
ENDBRANCH   4   5
ENDBRANCH   3   4
ENDBRANCH   2   3
ENDBRANCH   1   2
BRANCH   1  17
ATOM     17  C   UNL     1      45.448   5.385  22.249  1.00  0.00     0.000 C 
BRANCH  17  18
ATOM     18  C   UNL     1      46.406   5.105  23.425  1.00  0.00     0.000 C 
BRANCH  18  19
ATOM     19  C   UNL     1      45.797   4.295  24.586  1.00  0.00     0.000 C 
BRANCH  19  20
ATOM     20  C   UNL     1      46.749   4.033  25.765  1.00  0.00     0.000 C 
BRANCH  20  21
ATOM     21  C   UNL     1      47.763   2.916  25.477  1.00  0.00     0.000 C 
BRANCH  21  22
ATOM     22  C   UNL     1      49.194   3.389  25.770  1.00  0.00    -0.000 C 
BRANCH  22  23
ATOM     23  C   UNL     1      49.250   4.529  26.804  1.00  0.00    -0.000 C 
BRANCH  23  24
ATOM     24  C   UNL     1      50.199   5.688  26.445  1.00  0.00    -0.000 C 
BRANCH  24  25
ATOM     25  C   UNL     1      50.133   6.160  24.980  1.00  0.00    -0.000 C 
BRANCH  25  26
ATOM     26  C   UNL     1      49.498   7.556  24.800  1.00  0.00    -0.000 C 
BRANCH  26  27
ATOM     27  C   UNL     1      48.978   7.791  23.371  1.00  0.00    -0.000 C 
BRANCH  27  28
ATOM     28  C   UNL     1      49.512   6.755  22.369  1.00  0.00    -0.000 C 
BRANCH  28  29
ATOM     29  C   UNL     1      49.358   7.212  20.911  1.00  0.00    -0.003 C 
ATOM     30  C   UNL     1      47.997   7.864  20.682  1.00  0.00     0.004 C 
ENDBRANCH  28  29
ENDBRANCH  27  28
ENDBRANCH  26  27
ENDBRANCH  25  26
ENDBRANCH  24  25
ENDBRANCH  23  24
ENDBRANCH  22  23
ENDBRANCH  21  22
ENDBRANCH  20  21
ENDBRANCH  19  20
ENDBRANCH  18  19
ENDBRANCH  17  18
ENDBRANCH   1  17
TORSDOF 26
ENDMDL
MODEL 9
REMARK VINA RESULT:    -4.565      2.474      7.329
REMARK INTER + INTRA:         -15.471
REMARK INTER:                 -10.107
REMARK INTRA:                  -5.364
REMARK UNBOUND:                -3.966
REMARK SMILES CCCCCCCCCCCCCCCCCCCCCCCCCCCC(=O)[O-]
REMARK SMILES IDX 15 1 16 2 17 3 18 4 19 5 20 6 21 7 22 8 23 9 24 10 25 11
REMARK SMILES IDX 26 12 27 13 28 14 29 15 30 16 14 17 13 18 12 19 11 20 10 21
REMARK SMILES IDX 9 22 8 23 7 24 6 25 5 26 4 27 3 28 2 29 1 30
REMARK H PARENT
REMARK Flexibility Score: inf
ROOT
ATOM      1  C   UNL     1      44.756   4.566  22.107  1.00  0.00     0.000 C 
ENDROOT
BRANCH   1   2
ATOM      2  C   UNL     1      43.838   4.333  23.323  1.00  0.00     0.000 C 
BRANCH   2   3
ATOM      3  C   UNL     1      44.544   3.768  24.571  1.00  0.00     0.000 C 
BRANCH   3   4
ATOM      4  C   UNL     1      45.892   4.431  24.911  1.00  0.00     0.000 C 
BRANCH   4   5
ATOM      5  C   UNL     1      47.083   3.460  25.049  1.00  0.00     0.000 C 
BRANCH   5   6
ATOM      6  C   UNL     1      47.575   3.238  26.490  1.00  0.00     0.000 C 
BRANCH   6   7
ATOM      7  C   UNL     1      48.061   4.529  27.163  1.00  0.00     0.000 C 
BRANCH   7   8
ATOM      8  C   UNL     1      49.556   4.758  26.898  1.00  0.00     0.000 C 
BRANCH   8   9
ATOM      9  C   UNL     1      49.834   6.046  26.100  1.00  0.00     0.000 C 
BRANCH   9  10
ATOM     10  C   UNL     1      50.320   5.821  24.655  1.00  0.00     0.000 C 
BRANCH  10  11
ATOM     11  C   UNL     1      49.224   6.089  23.608  1.00  0.00     0.000 C 
BRANCH  11  12
ATOM     12  C   UNL     1      49.441   7.411  22.846  1.00  0.00     0.006 C 
BRANCH  12  13
ATOM     13  C   UNL     1      49.536   7.234  21.321  1.00  0.00     0.053 C 
BRANCH  13  14
ATOM     14  C   UNL     1      48.324   7.748  20.610  1.00  0.00     0.041 C 
ATOM     15  O   UNL     1      47.236   7.117  20.674  1.00  0.00    -0.550 OA
ATOM     16  O   UNL     1      48.393   8.928  19.880  1.00  0.00    -0.550 OA
ENDBRANCH  13  14
ENDBRANCH  12  13
ENDBRANCH  11  12
ENDBRANCH  10  11
ENDBRANCH   9  10
ENDBRANCH   8   9
ENDBRANCH   7   8
ENDBRANCH   6   7
ENDBRANCH   5   6
ENDBRANCH   4   5
ENDBRANCH   3   4
ENDBRANCH   2   3
ENDBRANCH   1   2
BRANCH   1  17
ATOM     17  C   UNL     1      44.494   3.635  20.906  1.00  0.00     0.000 C 
BRANCH  17  18
ATOM     18  C   UNL     1      43.246   2.738  21.037  1.00  0.00     0.000 C 
BRANCH  18  19
ATOM     19  C   UNL     1      43.538   1.239  21.242  1.00  0.00     0.000 C 
BRANCH  19  20
ATOM     20  C   UNL     1      43.214   0.701  22.647  1.00  0.00     0.000 C 
BRANCH  20  21
ATOM     21  C   UNL     1      44.410  -0.001  23.308  1.00  0.00     0.000 C 
BRANCH  21  22
ATOM     22  C   UNL     1      45.730   0.671  22.902  1.00  0.00    -0.000 C 
BRANCH  22  23
ATOM     23  C   UNL     1      46.832  -0.341  22.538  1.00  0.00    -0.000 C 
BRANCH  23  24
ATOM     24  C   UNL     1      47.734   0.075  21.360  1.00  0.00    -0.000 C 
BRANCH  24  25
ATOM     25  C   UNL     1      47.095   1.053  20.357  1.00  0.00    -0.000 C 
BRANCH  25  26
ATOM     26  C   UNL     1      47.842   2.399  20.233  1.00  0.00    -0.000 C 
BRANCH  26  27
ATOM     27  C   UNL     1      48.442   2.870  21.568  1.00  0.00    -0.000 C 
BRANCH  27  28
ATOM     28  C   UNL     1      49.910   3.307  21.437  1.00  0.00    -0.000 C 
BRANCH  28  29
ATOM     29  C   UNL     1      50.814   2.669  22.502  1.00  0.00    -0.003 C 
ATOM     30  C   UNL     1      49.984   1.995  23.592  1.00  0.00     0.004 C 
ENDBRANCH  28  29
ENDBRANCH  27  28
ENDBRANCH  26  27
ENDBRANCH  25  26
ENDBRANCH  24  25
ENDBRANCH  23  24
ENDBRANCH  22  23
ENDBRANCH  21  22
ENDBRANCH  20  21
ENDBRANCH  19  20
ENDBRANCH  18  19
ENDBRANCH  17  18
ENDBRANCH   1  17
TORSDOF 26
ENDMDL
