MODEL 1
REMARK VINA RESULT:    -7.985      0.000      0.000
REMARK INTER + INTRA:          -9.399
REMARK INTER:                  -9.618
REMARK INTRA:                   0.220
REMARK UNBOUND:                 0.220
REMARK SMILES O=c1c(O)c(-c2ccc(O)c(O)c2)oc2cc(O)cc(O)c12
REMARK SMILES IDX 5 1 3 2 2 3 1 4 22 5 20 6 19 7 17 8 16 9 15 10 14 11 6 12
REMARK SMILES IDX 7 13 8 14 9 15 13 16 11 17 10 18 12 20 4 22 21 24 18 26
REMARK H PARENT 10 19 12 21 4 23 21 25 18 27
REMARK Flexibility Score: inf
ROOT
ATOM      1  C   UNL     1      17.924  -3.358  69.162  1.00  0.00     0.180 A 
ATOM      2  C   UNL     1      18.934  -3.872  68.331  1.00  0.00     0.208 A 
ATOM      3  C   UNL     1      18.585  -4.773  67.312  1.00  0.00     0.238 A 
ATOM      4  O   UNL     1      19.500  -5.272  66.606  1.00  0.00    -0.285 OA
ATOM      5  C   UNL     1      17.230  -5.134  67.126  1.00  0.00     0.111 A 
ATOM      6  C   UNL     1      16.757  -6.008  66.100  1.00  0.00     0.134 A 
ATOM      7  C   UNL     1      15.412  -6.398  66.091  1.00  0.00     0.093 A 
ATOM      8  C   UNL     1      14.509  -5.897  67.032  1.00  0.00     0.123 A 
ATOM      9  C   UNL     1      14.949  -4.998  68.000  1.00  0.00     0.094 A 
ATOM     10  C   UNL     1      16.292  -4.618  68.058  1.00  0.00     0.146 A 
ATOM     11  O   UNL     1      16.671  -3.767  69.004  1.00  0.00    -0.452 OA
ENDROOT
BRANCH   1  12
ATOM     12  C   UNL     1      18.211  -2.386  70.240  1.00  0.00     0.025 A 
ATOM     13  C   UNL     1      19.407  -2.441  70.978  1.00  0.00     0.016 A 
ATOM     14  C   UNL     1      19.666  -1.498  71.976  1.00  0.00     0.051 A 
ATOM     15  C   UNL     1      18.743  -0.479  72.243  1.00  0.00     0.157 A 
ATOM     16  C   UNL     1      17.297  -1.349  70.499  1.00  0.00     0.062 A 
ATOM     17  C   UNL     1      17.558  -0.403  71.500  1.00  0.00     0.158 A 
BRANCH  15  18
ATOM     18  O   UNL     1      18.998   0.462  73.238  1.00  0.00    -0.504 OA
ATOM     19  H   UNL     1      19.929   0.596  73.616  1.00  0.00     0.293 HD
ENDBRANCH  15  18
BRANCH  17  20
ATOM     20  O   UNL     1      16.643   0.615  71.764  1.00  0.00    -0.504 OA
ATOM     21  H   UNL     1      15.671   0.414  71.969  1.00  0.00     0.293 HD
ENDBRANCH  17  20
ENDBRANCH   1  12
BRANCH   2  22
ATOM     22  O   UNL     1      20.270  -3.518  68.546  1.00  0.00    -0.502 OA
ATOM     23  H   UNL     1      20.547  -2.845  69.250  1.00  0.00     0.293 HD
ENDBRANCH   2  22
BRANCH   6  24
ATOM     24  O   UNL     1      17.555  -6.492  65.058  1.00  0.00    -0.507 OA
ATOM     25  H   UNL     1      18.561  -6.430  65.029  1.00  0.00     0.293 HD
ENDBRANCH   6  24
BRANCH   8  26
ATOM     26  O   UNL     1      13.170  -6.279  67.006  1.00  0.00    -0.508 OA
ATOM     27  H   UNL     1      12.857  -7.142  67.436  1.00  0.00     0.293 HD
ENDBRANCH   8  26
TORSDOF 6
ENDMDL
MODEL 2
REMARK VINA RESULT:    -7.946      1.376      6.637
REMARK INTER + INTRA:          -9.352
REMARK INTER:                  -9.035
REMARK INTRA:                  -0.316
REMARK UNBOUND:                 0.220
REMARK SMILES O=c1c(O)c(-c2ccc(O)c(O)c2)oc2cc(O)cc(O)c12
REMARK SMILES IDX 5 1 3 2 2 3 1 4 22 5 20 6 19 7 17 8 16 9 15 10 14 11 6 12
REMARK SMILES IDX 7 13 8 14 9 15 13 16 11 17 10 18 12 20 4 22 21 24 18 26
REMARK H PARENT 10 19 12 21 4 23 21 25 18 27
REMARK Flexibility Score: inf
ROOT
ATOM      1  C   UNL     1      17.073  -3.814  68.798  1.00  0.00     0.180 A 
ATOM      2  C   UNL     1      18.431  -3.898  68.447  1.00  0.00     0.208 A 
ATOM      3  C   UNL     1      19.337  -2.984  69.008  1.00  0.00     0.238 A 
ATOM      4  O   UNL     1      20.543  -3.029  68.648  1.00  0.00    -0.285 OA
ATOM      5  C   UNL     1      18.878  -2.010  69.926  1.00  0.00     0.111 A 
ATOM      6  C   UNL     1      19.714  -1.060  70.586  1.00  0.00     0.134 A 
ATOM      7  C   UNL     1      19.133  -0.058  71.375  1.00  0.00     0.093 A 
ATOM      8  C   UNL     1      17.752  -0.012  71.579  1.00  0.00     0.123 A 
ATOM      9  C   UNL     1      16.934  -0.971  70.986  1.00  0.00     0.094 A 
ATOM     10  C   UNL     1      17.480  -1.960  70.165  1.00  0.00     0.146 A 
ATOM     11  O   UNL     1      16.662  -2.847  69.611  1.00  0.00    -0.452 OA
ENDROOT
BRANCH   1  12
ATOM     12  C   UNL     1      16.062  -4.756  68.268  1.00  0.00     0.025 A 
ATOM     13  C   UNL     1      15.441  -4.540  67.024  1.00  0.00     0.016 A 
ATOM     14  C   UNL     1      14.507  -5.456  66.533  1.00  0.00     0.051 A 
ATOM     15  C   UNL     1      14.190  -6.606  67.267  1.00  0.00     0.157 A 
ATOM     16  C   UNL     1      15.755  -5.922  68.990  1.00  0.00     0.062 A 
ATOM     17  C   UNL     1      14.818  -6.840  68.497  1.00  0.00     0.158 A 
BRANCH  15  18
ATOM     18  O   UNL     1      13.258  -7.520  66.780  1.00  0.00    -0.504 OA
ATOM     19  H   UNL     1      12.340  -7.226  66.468  1.00  0.00     0.293 HD
ENDBRANCH  15  18
BRANCH  17  20
ATOM     20  O   UNL     1      14.505  -7.989  69.223  1.00  0.00    -0.504 OA
ATOM     21  H   UNL     1      14.325  -8.874  68.763  1.00  0.00     0.293 HD
ENDBRANCH  17  20
ENDBRANCH   1  12
BRANCH   2  22
ATOM     22  O   UNL     1      18.860  -4.853  67.521  1.00  0.00    -0.502 OA
ATOM     23  H   UNL     1      18.350  -5.712  67.350  1.00  0.00     0.293 HD
ENDBRANCH   2  22
BRANCH   6  24
ATOM     24  O   UNL     1      21.111  -1.074  70.525  1.00  0.00    -0.507 OA
ATOM     25  H   UNL     1      21.647  -1.327  69.710  1.00  0.00     0.293 HD
ENDBRANCH   6  24
BRANCH   8  26
ATOM     26  O   UNL     1      17.184   0.978  72.377  1.00  0.00    -0.508 OA
ATOM     27  H   UNL     1      16.674   1.756  71.974  1.00  0.00     0.293 HD
ENDBRANCH   8  26
TORSDOF 6
ENDMDL
MODEL 3
REMARK VINA RESULT:    -7.811      2.989      8.604
REMARK INTER + INTRA:          -9.190
REMARK INTER:                  -8.863
REMARK INTRA:                  -0.327
REMARK UNBOUND:                 0.220
REMARK SMILES O=c1c(O)c(-c2ccc(O)c(O)c2)oc2cc(O)cc(O)c12
REMARK SMILES IDX 5 1 3 2 2 3 1 4 22 5 20 6 19 7 17 8 16 9 15 10 14 11 6 12
REMARK SMILES IDX 7 13 8 14 9 15 13 16 11 17 10 18 12 20 4 22 21 24 18 26
REMARK H PARENT 10 19 12 21 4 23 21 25 18 27
REMARK Flexibility Score: inf
ROOT
ATOM      1  C   UNL     1      15.870  -7.595  66.114  1.00  0.00     0.180 A 
ATOM      2  C   UNL     1      15.039  -7.822  67.224  1.00  0.00     0.208 A 
ATOM      3  C   UNL     1      15.088  -6.928  68.306  1.00  0.00     0.238 A 
ATOM      4  O   UNL     1      14.381  -7.166  69.320  1.00  0.00    -0.285 OA
ATOM      5  C   UNL     1      15.953  -5.809  68.256  1.00  0.00     0.111 A 
ATOM      6  C   UNL     1      16.055  -4.817  69.277  1.00  0.00     0.134 A 
ATOM      7  C   UNL     1      17.039  -3.825  69.180  1.00  0.00     0.093 A 
ATOM      8  C   UNL     1      17.882  -3.751  68.069  1.00  0.00     0.123 A 
ATOM      9  C   UNL     1      17.751  -4.680  67.040  1.00  0.00     0.094 A 
ATOM     10  C   UNL     1      16.803  -5.703  67.124  1.00  0.00     0.146 A 
ATOM     11  O   UNL     1      16.719  -6.574  66.126  1.00  0.00    -0.452 OA
ENDROOT
BRANCH   1  12
ATOM     12  C   UNL     1      15.858  -8.479  64.927  1.00  0.00     0.025 A 
ATOM     13  C   UNL     1      14.915  -8.309  63.897  1.00  0.00     0.016 A 
ATOM     14  C   UNL     1      14.937  -9.141  62.774  1.00  0.00     0.051 A 
ATOM     15  C   UNL     1      15.909 -10.143  62.656  1.00  0.00     0.157 A 
ATOM     16  C   UNL     1      16.842  -9.473  64.794  1.00  0.00     0.062 A 
ATOM     17  C   UNL     1      16.864 -10.308  63.667  1.00  0.00     0.158 A 
BRANCH  15  18
ATOM     18  O   UNL     1      15.933 -10.975  61.539  1.00  0.00    -0.504 OA
ATOM     19  H   UNL     1      15.594 -11.929  61.580  1.00  0.00     0.293 HD
ENDBRANCH  15  18
BRANCH  17  20
ATOM     20  O   UNL     1      17.833 -11.303  63.545  1.00  0.00    -0.504 OA
ATOM     21  H   UNL     1      17.709 -12.217  63.964  1.00  0.00     0.293 HD
ENDBRANCH  17  20
ENDBRANCH   1  12
BRANCH   2  22
ATOM     22  O   UNL     1      14.208  -8.945  67.262  1.00  0.00    -0.502 OA
ATOM     23  H   UNL     1      14.521  -9.864  66.972  1.00  0.00     0.293 HD
ENDBRANCH   2  22
BRANCH   6  24
ATOM     24  O   UNL     1      15.201  -4.743  70.382  1.00  0.00    -0.507 OA
ATOM     25  H   UNL     1      15.335  -5.247  71.245  1.00  0.00     0.293 HD
ENDBRANCH   6  24
BRANCH   8  26
ATOM     26  O   UNL     1      18.848  -2.752  67.974  1.00  0.00    -0.508 OA
ATOM     27  H   UNL     1      18.966  -2.208  67.128  1.00  0.00     0.293 HD
ENDBRANCH   8  26
TORSDOF 6
ENDMDL
MODEL 4
REMARK VINA RESULT:    -7.653      4.349      7.858
REMARK INTER + INTRA:          -8.999
REMARK INTER:                  -8.843
REMARK INTRA:                  -0.156
REMARK UNBOUND:                 0.220
REMARK SMILES O=c1c(O)c(-c2ccc(O)c(O)c2)oc2cc(O)cc(O)c12
REMARK SMILES IDX 5 1 3 2 2 3 1 4 22 5 20 6 19 7 17 8 16 9 15 10 14 11 6 12
REMARK SMILES IDX 7 13 8 14 9 15 13 16 11 17 10 18 12 20 4 22 21 24 18 26
REMARK H PARENT 10 19 12 21 4 23 21 25 18 27
REMARK Flexibility Score: inf
ROOT
ATOM      1  C   UNL     1      21.760  -2.936  69.273  1.00  0.00     0.180 A 
ATOM      2  C   UNL     1      22.609  -3.950  69.748  1.00  0.00     0.208 A 
ATOM      3  C   UNL     1      23.976  -3.674  69.911  1.00  0.00     0.238 A 
ATOM      4  O   UNL     1      24.740  -4.602  70.285  1.00  0.00    -0.285 OA
ATOM      5  C   UNL     1      24.474  -2.383  69.614  1.00  0.00     0.111 A 
ATOM      6  C   UNL     1      25.833  -1.980  69.780  1.00  0.00     0.134 A 
ATOM      7  C   UNL     1      26.239  -0.717  69.331  1.00  0.00     0.093 A 
ATOM      8  C   UNL     1      25.322   0.182  68.781  1.00  0.00     0.123 A 
ATOM      9  C   UNL     1      23.982  -0.181  68.669  1.00  0.00     0.094 A 
ATOM     10  C   UNL     1      23.553  -1.446  69.075  1.00  0.00     0.146 A 
ATOM     11  O   UNL     1      22.269  -1.755  68.940  1.00  0.00    -0.452 OA
ENDROOT
BRANCH   1  12
ATOM     12  C   UNL     1      20.305  -3.143  69.098  1.00  0.00     0.025 A 
ATOM     13  C   UNL     1      19.366  -2.410  69.847  1.00  0.00     0.016 A 
ATOM     14  C   UNL     1      17.997  -2.606  69.648  1.00  0.00     0.051 A 
ATOM     15  C   UNL     1      17.545  -3.524  68.690  1.00  0.00     0.157 A 
ATOM     16  C   UNL     1      19.846  -4.048  68.126  1.00  0.00     0.062 A 
ATOM     17  C   UNL     1      18.473  -4.244  67.927  1.00  0.00     0.158 A 
BRANCH  15  18
ATOM     18  O   UNL     1      16.181  -3.723  68.491  1.00  0.00    -0.504 OA
ATOM     19  H   UNL     1      15.545  -3.855  69.268  1.00  0.00     0.293 HD
ENDBRANCH  15  18
BRANCH  17  20
ATOM     20  O   UNL     1      18.021  -5.153  66.971  1.00  0.00    -0.504 OA
ATOM     21  H   UNL     1      18.645  -5.830  66.546  1.00  0.00     0.293 HD
ENDBRANCH  17  20
ENDBRANCH   1  12
BRANCH   2  22
ATOM     22  O   UNL     1      22.100  -5.225  70.014  1.00  0.00    -0.502 OA
ATOM     23  H   UNL     1      22.373  -6.042  69.481  1.00  0.00     0.293 HD
ENDBRANCH   2  22
BRANCH   6  24
ATOM     24  O   UNL     1      26.809  -2.765  70.402  1.00  0.00    -0.507 OA
ATOM     25  H   UNL     1      26.684  -3.728  70.675  1.00  0.00     0.293 HD
ENDBRANCH   6  24
BRANCH   8  26
ATOM     26  O   UNL     1      25.732   1.441  68.351  1.00  0.00    -0.508 OA
ATOM     27  H   UNL     1      25.062   2.167  68.121  1.00  0.00     0.293 HD
ENDBRANCH   8  26
TORSDOF 6
ENDMDL
MODEL 5
REMARK VINA RESULT:    -7.635      4.024      6.716
REMARK INTER + INTRA:          -8.978
REMARK INTER:                  -8.706
REMARK INTRA:                  -0.272
REMARK UNBOUND:                 0.220
REMARK SMILES O=c1c(O)c(-c2ccc(O)c(O)c2)oc2cc(O)cc(O)c12
REMARK SMILES IDX 5 1 3 2 2 3 1 4 22 5 20 6 19 7 17 8 16 9 15 10 14 11 6 12
REMARK SMILES IDX 7 13 8 14 9 15 13 16 11 17 10 18 12 20 4 22 21 24 18 26
REMARK H PARENT 10 19 12 21 4 23 21 25 18 27
REMARK Flexibility Score: inf
ROOT
ATOM      1  C   UNL     1      22.237  -2.542  70.169  1.00  0.00     0.180 A 
ATOM      2  C   UNL     1      21.951  -1.744  71.290  1.00  0.00     0.208 A 
ATOM      3  C   UNL     1      20.611  -1.472  71.609  1.00  0.00     0.238 A 
ATOM      4  O   UNL     1      20.363  -0.713  72.582  1.00  0.00    -0.285 OA
ATOM      5  C   UNL     1      19.573  -2.016  70.814  1.00  0.00     0.111 A 
ATOM      6  C   UNL     1      18.180  -1.839  71.068  1.00  0.00     0.134 A 
ATOM      7  C   UNL     1      17.243  -2.313  70.141  1.00  0.00     0.093 A 
ATOM      8  C   UNL     1      17.647  -3.014  69.003  1.00  0.00     0.123 A 
ATOM      9  C   UNL     1      19.002  -3.243  68.777  1.00  0.00     0.094 A 
ATOM     10  C   UNL     1      19.962  -2.751  69.664  1.00  0.00     0.146 A 
ATOM     11  O   UNL     1      21.243  -2.982  69.405  1.00  0.00    -0.452 OA
ENDROOT
BRANCH   1  12
ATOM     12  C   UNL     1      23.622  -2.893  69.783  1.00  0.00     0.025 A 
ATOM     13  C   UNL     1      24.367  -3.839  70.509  1.00  0.00     0.016 A 
ATOM     14  C   UNL     1      25.665  -4.171  70.113  1.00  0.00     0.051 A 
ATOM     15  C   UNL     1      26.232  -3.576  68.979  1.00  0.00     0.157 A 
ATOM     16  C   UNL     1      24.189  -2.313  68.635  1.00  0.00     0.062 A 
ATOM     17  C   UNL     1      25.491  -2.647  68.238  1.00  0.00     0.158 A 
BRANCH  15  18
ATOM     18  O   UNL     1      27.527  -3.904  68.581  1.00  0.00    -0.504 OA
ATOM     19  H   UNL     1      27.721  -4.270  67.657  1.00  0.00     0.293 HD
ENDBRANCH  15  18
BRANCH  17  20
ATOM     20  O   UNL     1      26.056  -2.059  67.106  1.00  0.00    -0.504 OA
ATOM     21  H   UNL     1      27.057  -1.925  67.023  1.00  0.00     0.293 HD
ENDBRANCH  17  20
ENDBRANCH   1  12
BRANCH   2  22
ATOM     22  O   UNL     1      22.991  -1.200  72.048  1.00  0.00    -0.502 OA
ATOM     23  H   UNL     1      22.860  -0.398  72.655  1.00  0.00     0.293 HD
ENDBRANCH   2  22
BRANCH   6  24
ATOM     24  O   UNL     1      17.667  -1.236  72.221  1.00  0.00    -0.507 OA
ATOM     25  H   UNL     1      18.105  -0.471  72.712  1.00  0.00     0.293 HD
ENDBRANCH   6  24
BRANCH   8  26
ATOM     26  O   UNL     1      16.708  -3.495  68.094  1.00  0.00    -0.508 OA
ATOM     27  H   UNL     1      15.855  -3.948  68.402  1.00  0.00     0.293 HD
ENDBRANCH   8  26
TORSDOF 6
ENDMDL
MODEL 6
REMARK VINA RESULT:    -7.574      2.665      3.395
REMARK INTER + INTRA:          -8.905
REMARK INTER:                  -8.764
REMARK INTRA:                  -0.141
REMARK UNBOUND:                 0.220
REMARK SMILES O=c1c(O)c(-c2ccc(O)c(O)c2)oc2cc(O)cc(O)c12
REMARK SMILES IDX 5 1 3 2 2 3 1 4 22 5 20 6 19 7 17 8 16 9 15 10 14 11 6 12
REMARK SMILES IDX 7 13 8 14 9 15 13 16 11 17 10 18 12 20 4 22 21 24 18 26
REMARK H PARENT 10 19 12 21 4 23 21 25 18 27
REMARK Flexibility Score: inf
ROOT
ATOM      1  C   UNL     1      18.413  -4.645  67.568  1.00  0.00     0.180 A 
ATOM      2  C   UNL     1      18.621  -5.433  66.423  1.00  0.00     0.208 A 
ATOM      3  C   UNL     1      17.533  -6.119  65.861  1.00  0.00     0.238 A 
ATOM      4  O   UNL     1      17.736  -6.866  64.868  1.00  0.00    -0.285 OA
ATOM      5  C   UNL     1      16.247  -5.994  66.439  1.00  0.00     0.111 A 
ATOM      6  C   UNL     1      15.066  -6.613  65.930  1.00  0.00     0.134 A 
ATOM      7  C   UNL     1      13.872  -6.527  66.658  1.00  0.00     0.093 A 
ATOM      8  C   UNL     1      13.803  -5.792  67.844  1.00  0.00     0.123 A 
ATOM      9  C   UNL     1      14.936  -5.136  68.318  1.00  0.00     0.094 A 
ATOM     10  C   UNL     1      16.150  -5.233  67.633  1.00  0.00     0.146 A 
ATOM     11  O   UNL     1      17.209  -4.601  68.126  1.00  0.00    -0.452 OA
ENDROOT
BRANCH   1  12
ATOM     12  C   UNL     1      19.505  -3.873  68.203  1.00  0.00     0.025 A 
ATOM     13  C   UNL     1      19.458  -2.469  68.285  1.00  0.00     0.016 A 
ATOM     14  C   UNL     1      20.489  -1.764  68.910  1.00  0.00     0.051 A 
ATOM     15  C   UNL     1      21.574  -2.448  69.474  1.00  0.00     0.157 A 
ATOM     16  C   UNL     1      20.585  -4.555  68.788  1.00  0.00     0.062 A 
ATOM     17  C   UNL     1      21.620  -3.847  69.415  1.00  0.00     0.158 A 
BRANCH  15  18
ATOM     18  O   UNL     1      22.604  -1.747  70.097  1.00  0.00    -0.504 OA
ATOM     19  H   UNL     1      23.467  -1.531  69.612  1.00  0.00     0.293 HD
ENDBRANCH  15  18
BRANCH  17  20
ATOM     20  O   UNL     1      22.697  -4.526  69.982  1.00  0.00    -0.504 OA
ATOM     21  H   UNL     1      23.655  -4.253  69.791  1.00  0.00     0.293 HD
ENDBRANCH  17  20
ENDBRANCH   1  12
BRANCH   2  22
ATOM     22  O   UNL     1      19.903  -5.559  65.880  1.00  0.00    -0.502 OA
ATOM     23  H   UNL     1      20.657  -4.922  66.111  1.00  0.00     0.293 HD
ENDBRANCH   2  22
BRANCH   6  24
ATOM     24  O   UNL     1      15.004  -7.291  64.709  1.00  0.00    -0.507 OA
ATOM     25  H   UNL     1      15.751  -7.325  64.032  1.00  0.00     0.293 HD
ENDBRANCH   6  24
BRANCH   8  26
ATOM     26  O   UNL     1      12.608  -5.699  68.554  1.00  0.00    -0.508 OA
ATOM     27  H   UNL     1      11.883  -5.043  68.288  1.00  0.00     0.293 HD
ENDBRANCH   8  26
TORSDOF 6
ENDMDL
MODEL 7
REMARK VINA RESULT:    -7.486      3.762      7.337
REMARK INTER + INTRA:          -8.798
REMARK INTER:                  -8.636
REMARK INTRA:                  -0.162
REMARK UNBOUND:                 0.220
REMARK SMILES O=c1c(O)c(-c2ccc(O)c(O)c2)oc2cc(O)cc(O)c12
REMARK SMILES IDX 5 1 3 2 2 3 1 4 22 5 20 6 19 7 17 8 16 9 15 10 14 11 6 12
REMARK SMILES IDX 7 13 8 14 9 15 13 16 11 17 10 18 12 20 4 22 21 24 18 26
REMARK H PARENT 10 19 12 21 4 23 21 25 18 27
REMARK Flexibility Score: inf
ROOT
ATOM      1  C   UNL     1      20.495  -2.383  68.902  1.00  0.00     0.180 A 
ATOM      2  C   UNL     1      20.697  -1.042  68.531  1.00  0.00     0.208 A 
ATOM      3  C   UNL     1      22.001  -0.521  68.544  1.00  0.00     0.238 A 
ATOM      4  O   UNL     1      22.169   0.695  68.263  1.00  0.00    -0.285 OA
ATOM      5  C   UNL     1      23.087  -1.350  68.911  1.00  0.00     0.111 A 
ATOM      6  C   UNL     1      24.454  -0.938  68.921  1.00  0.00     0.134 A 
ATOM      7  C   UNL     1      25.432  -1.804  69.427  1.00  0.00     0.093 A 
ATOM      8  C   UNL     1      25.102  -3.089  69.863  1.00  0.00     0.123 A 
ATOM      9  C   UNL     1      23.779  -3.521  69.801  1.00  0.00     0.094 A 
ATOM     10  C   UNL     1      22.776  -2.668  69.336  1.00  0.00     0.146 A 
ATOM     11  O   UNL     1      21.527  -3.116  69.304  1.00  0.00    -0.452 OA
ENDROOT
BRANCH   1  12
ATOM     12  C   UNL     1      19.155  -3.011  68.889  1.00  0.00     0.025 A 
ATOM     13  C   UNL     1      18.132  -2.572  69.750  1.00  0.00     0.016 A 
ATOM     14  C   UNL     1      16.868  -3.164  69.704  1.00  0.00     0.051 A 
ATOM     15  C   UNL     1      16.601  -4.191  68.789  1.00  0.00     0.157 A 
ATOM     16  C   UNL     1      18.875  -4.028  67.960  1.00  0.00     0.062 A 
ATOM     17  C   UNL     1      17.606  -4.621  67.914  1.00  0.00     0.158 A 
BRANCH  15  18
ATOM     18  O   UNL     1      15.341  -4.784  68.742  1.00  0.00    -0.504 OA
ATOM     19  H   UNL     1      15.025  -5.418  69.467  1.00  0.00     0.293 HD
ENDBRANCH  15  18
BRANCH  17  20
ATOM     20  O   UNL     1      17.336  -5.640  67.002  1.00  0.00    -0.504 OA
ATOM     21  H   UNL     1      17.989  -5.876  66.263  1.00  0.00     0.293 HD
ENDBRANCH  17  20
ENDBRANCH   1  12
BRANCH   2  22
ATOM     22  O   UNL     1      19.607  -0.235  68.193  1.00  0.00    -0.502 OA
ATOM     23  H   UNL     1      18.706  -0.319  68.648  1.00  0.00     0.293 HD
ENDBRANCH   2  22
BRANCH   6  24
ATOM     24  O   UNL     1      24.903   0.288  68.422  1.00  0.00    -0.507 OA
ATOM     25  H   UNL     1      25.853   0.620  68.485  1.00  0.00     0.293 HD
ENDBRANCH   6  24
BRANCH   8  26
ATOM     26  O   UNL     1      26.084  -3.949  70.350  1.00  0.00    -0.508 OA
ATOM     27  H   UNL     1      25.923  -4.946  70.429  1.00  0.00     0.293 HD
ENDBRANCH   8  26
TORSDOF 6
ENDMDL
MODEL 8
REMARK VINA RESULT:    -7.460      4.823      7.475
REMARK INTER + INTRA:          -8.766
REMARK INTER:                  -8.445
REMARK INTRA:                  -0.321
REMARK UNBOUND:                 0.220
REMARK SMILES O=c1c(O)c(-c2ccc(O)c(O)c2)oc2cc(O)cc(O)c12
REMARK SMILES IDX 5 1 3 2 2 3 1 4 22 5 20 6 19 7 17 8 16 9 15 10 14 11 6 12
REMARK SMILES IDX 7 13 8 14 9 15 13 16 11 17 10 18 12 20 4 22 21 24 18 26
REMARK H PARENT 10 19 12 21 4 23 21 25 18 27
REMARK Flexibility Score: inf
ROOT
ATOM      1  C   UNL     1      14.554  -8.453  64.870  1.00  0.00     0.180 A 
ATOM      2  C   UNL     1      15.683  -8.988  64.227  1.00  0.00     0.208 A 
ATOM      3  C   UNL     1      15.513  -9.685  63.020  1.00  0.00     0.238 A 
ATOM      4  O   UNL     1      16.521 -10.208  62.477  1.00  0.00    -0.285 OA
ATOM      5  C   UNL     1      14.220  -9.821  62.461  1.00  0.00     0.111 A 
ATOM      6  C   UNL     1      13.937 -10.472  61.223  1.00  0.00     0.134 A 
ATOM      7  C   UNL     1      12.605 -10.663  60.832  1.00  0.00     0.093 A 
ATOM      8  C   UNL     1      11.550 -10.170  61.603  1.00  0.00     0.123 A 
ATOM      9  C   UNL     1      11.819  -9.482  62.784  1.00  0.00     0.094 A 
ATOM     10  C   UNL     1      13.135  -9.307  63.218  1.00  0.00     0.146 A 
ATOM     11  O   UNL     1      13.346  -8.655  64.355  1.00  0.00    -0.452 OA
ENDROOT
BRANCH   1  12
ATOM     12  C   UNL     1      14.655  -7.686  66.132  1.00  0.00     0.025 A 
ATOM     13  C   UNL     1      14.643  -8.329  67.383  1.00  0.00     0.016 A 
ATOM     14  C   UNL     1      14.764  -7.586  68.560  1.00  0.00     0.051 A 
ATOM     15  C   UNL     1      14.912  -6.194  68.506  1.00  0.00     0.157 A 
ATOM     16  C   UNL     1      14.824  -6.291  66.083  1.00  0.00     0.062 A 
ATOM     17  C   UNL     1      14.945  -5.547  67.264  1.00  0.00     0.158 A 
BRANCH  15  18
ATOM     18  O   UNL     1      15.031  -5.450  69.678  1.00  0.00    -0.504 OA
ATOM     19  H   UNL     1      15.226  -4.456  69.658  1.00  0.00     0.293 HD
ENDBRANCH  15  18
BRANCH  17  20
ATOM     20  O   UNL     1      15.098  -4.162  67.213  1.00  0.00    -0.504 OA
ATOM     21  H   UNL     1      15.449  -3.698  66.383  1.00  0.00     0.293 HD
ENDBRANCH  17  20
ENDBRANCH   1  12
BRANCH   2  22
ATOM     22  O   UNL     1      16.949  -8.860  64.807  1.00  0.00    -0.502 OA
ATOM     23  H   UNL     1      17.729  -9.451  64.545  1.00  0.00     0.293 HD
ENDBRANCH   2  22
BRANCH   6  24
ATOM     24  O   UNL     1      14.918 -10.919  60.333  1.00  0.00    -0.507 OA
ATOM     25  H   UNL     1      15.855 -11.184  60.598  1.00  0.00     0.293 HD
ENDBRANCH   6  24
BRANCH   8  26
ATOM     26  O   UNL     1      10.229 -10.352  61.199  1.00  0.00    -0.508 OA
ATOM     27  H   UNL     1       9.924 -11.210  60.755  1.00  0.00     0.293 HD
ENDBRANCH   8  26
TORSDOF 6
ENDMDL
MODEL 9
REMARK VINA RESULT:    -7.454      4.363      9.701
REMARK INTER + INTRA:          -8.760
REMARK INTER:                  -8.437
REMARK INTRA:                  -0.323
REMARK UNBOUND:                 0.220
REMARK SMILES O=c1c(O)c(-c2ccc(O)c(O)c2)oc2cc(O)cc(O)c12
REMARK SMILES IDX 5 1 3 2 2 3 1 4 22 5 20 6 19 7 17 8 16 9 15 10 14 11 6 12
REMARK SMILES IDX 7 13 8 14 9 15 13 16 11 17 10 18 12 20 4 22 21 24 18 26
REMARK H PARENT 10 19 12 21 4 23 21 25 18 27
REMARK Flexibility Score: inf
ROOT
ATOM      1  C   UNL     1      14.407  -8.930  65.159  1.00  0.00     0.180 A 
ATOM      2  C   UNL     1      14.005  -9.718  66.251  1.00  0.00     0.208 A 
ATOM      3  C   UNL     1      13.983  -9.145  67.533  1.00  0.00     0.238 A 
ATOM      4  O   UNL     1      13.675  -9.870  68.515  1.00  0.00    -0.285 OA
ATOM      5  C   UNL     1      14.345  -7.787  67.704  1.00  0.00     0.111 A 
ATOM      6  C   UNL     1      14.320  -7.093  68.951  1.00  0.00     0.134 A 
ATOM      7  C   UNL     1      14.824  -5.788  69.025  1.00  0.00     0.093 A 
ATOM      8  C   UNL     1      15.291  -5.130  67.884  1.00  0.00     0.123 A 
ATOM      9  C   UNL     1      15.264  -5.779  66.653  1.00  0.00     0.094 A 
ATOM     10  C   UNL     1      14.802  -7.093  66.553  1.00  0.00     0.146 A 
ATOM     11  O   UNL     1      14.803  -7.679  65.362  1.00  0.00    -0.452 OA
ENDROOT
BRANCH   1  12
ATOM     12  C   UNL     1      14.433  -9.455  63.776  1.00  0.00     0.025 A 
ATOM     13  C   UNL     1      15.566 -10.114  63.264  1.00  0.00     0.016 A 
ATOM     14  C   UNL     1      15.559 -10.622  61.963  1.00  0.00     0.051 A 
ATOM     15  C   UNL     1      14.418 -10.494  61.159  1.00  0.00     0.157 A 
ATOM     16  C   UNL     1      13.285  -9.347  62.973  1.00  0.00     0.062 A 
ATOM     17  C   UNL     1      13.278  -9.858  61.667  1.00  0.00     0.158 A 
BRANCH  15  18
ATOM     18  O   UNL     1      14.409 -10.999  59.861  1.00  0.00    -0.504 OA
ATOM     19  H   UNL     1      14.639 -11.967  59.666  1.00  0.00     0.293 HD
ENDBRANCH  15  18
BRANCH  17  20
ATOM     20  O   UNL     1      12.143  -9.737  60.867  1.00  0.00    -0.504 OA
ATOM     21  H   UNL     1      11.988  -8.919  60.288  1.00  0.00     0.293 HD
ENDBRANCH  17  20
ENDBRANCH   1  12
BRANCH   2  22
ATOM     22  O   UNL     1      13.673 -11.063  66.064  1.00  0.00    -0.502 OA
ATOM     23  H   UNL     1      14.362 -11.764  65.818  1.00  0.00     0.293 HD
ENDBRANCH   2  22
BRANCH   6  24
ATOM     24  O   UNL     1      13.788  -7.624  70.130  1.00  0.00    -0.507 OA
ATOM     25  H   UNL     1      13.894  -8.582  70.427  1.00  0.00     0.293 HD
ENDBRANCH   6  24
BRANCH   8  26
ATOM     26  O   UNL     1      15.776  -3.827  67.964  1.00  0.00    -0.508 OA
ATOM     27  H   UNL     1      15.159  -3.041  68.135  1.00  0.00     0.293 HD
ENDBRANCH   8  26
TORSDOF 6
ENDMDL
