MODEL 1
REMARK VINA RESULT:    -3.856      0.000      0.000
REMARK INTER + INTRA:          -7.537
REMARK INTER:                  -6.110
REMARK INTRA:                  -1.427
REMARK UNBOUND:                -1.427
REMARK SMILES CCCCCCCCCCCC(=O)[O-]
REMARK SMILES IDX 7 1 8 2 9 3 10 4 11 5 12 6 13 7 14 8 6 9 5 10 4 11 3 12 2 13
REMARK SMILES IDX 1 14
REMARK H PARENT
REMARK Flexibility Score: inf
ROOT
ATOM      1  C   UNL     1      13.954  24.870  51.590  1.00  0.00     0.000 C 
ENDROOT
BRANCH   1   2
ATOM      2  C   UNL     1      14.154  26.354  51.260  1.00  0.00     0.000 C 
BRANCH   2   3
ATOM      3  C   UNL     1      15.304  26.543  50.259  1.00  0.00     0.000 C 
BRANCH   3   4
ATOM      4  C   UNL     1      16.063  27.862  50.472  1.00  0.00     0.006 C 
BRANCH   4   5
ATOM      5  C   UNL     1      15.245  28.894  51.259  1.00  0.00     0.053 C 
BRANCH   5   6
ATOM      6  C   UNL     1      15.163  30.182  50.502  1.00  0.00     0.041 C 
ATOM      7  O   UNL     1      15.428  31.272  51.074  1.00  0.00    -0.550 OA
ATOM      8  O   UNL     1      14.748  30.184  49.176  1.00  0.00    -0.550 OA
ENDBRANCH   5   6
ENDBRANCH   4   5
ENDBRANCH   3   4
ENDBRANCH   2   3
ENDBRANCH   1   2
BRANCH   1   9
ATOM      9  C   UNL     1      15.253  24.239  52.106  1.00  0.00     0.000 C 
BRANCH   9  10
ATOM     10  C   UNL     1      15.598  24.757  53.507  1.00  0.00    -0.000 C 
BRANCH  10  11
ATOM     11  C   UNL     1      17.010  25.355  53.541  1.00  0.00    -0.000 C 
BRANCH  11  12
ATOM     12  C   UNL     1      16.971  26.834  53.954  1.00  0.00    -0.000 C 
BRANCH  12  13
ATOM     13  C   UNL     1      15.803  27.153  54.899  1.00  0.00    -0.003 C 
ATOM     14  C   UNL     1      15.732  28.634  55.273  1.00  0.00     0.004 C 
ENDBRANCH  12  13
ENDBRANCH  11  12
ENDBRANCH  10  11
ENDBRANCH   9  10
ENDBRANCH   1   9
TORSDOF 10
ENDMDL
MODEL 2
REMARK VINA RESULT:    -3.815      1.230      2.059
REMARK INTER + INTRA:          -7.473
REMARK INTER:                  -6.178
REMARK INTRA:                  -1.295
REMARK UNBOUND:                -1.427
REMARK SMILES CCCCCCCCCCCC(=O)[O-]
REMARK SMILES IDX 7 1 8 2 9 3 10 4 11 5 12 6 13 7 14 8 6 9 5 10 4 11 3 12 2 13
REMARK SMILES IDX 1 14
REMARK H PARENT
REMARK Flexibility Score: inf
ROOT
ATOM      1  C   UNL     1      14.700  25.801  52.553  1.00  0.00     0.000 C 
ENDROOT
BRANCH   1   2
ATOM      2  C   UNL     1      15.329  26.592  51.400  1.00  0.00     0.000 C 
BRANCH   2   3
ATOM      3  C   UNL     1      14.710  27.994  51.293  1.00  0.00     0.000 C 
BRANCH   3   4
ATOM      4  C   UNL     1      15.764  29.092  51.082  1.00  0.00     0.006 C 
BRANCH   4   5
ATOM      5  C   UNL     1      15.266  30.479  51.510  1.00  0.00     0.053 C 
BRANCH   5   6
ATOM      6  C   UNL     1      15.126  31.373  50.319  1.00  0.00     0.041 C 
ATOM      7  O   UNL     1      14.601  30.940  49.259  1.00  0.00    -0.550 OA
ATOM      8  O   UNL     1      15.619  32.671  50.361  1.00  0.00    -0.550 OA
ENDBRANCH   5   6
ENDBRANCH   4   5
ENDBRANCH   3   4
ENDBRANCH   2   3
ENDBRANCH   1   2
BRANCH   1   9
ATOM      9  C   UNL     1      15.778  25.253  53.497  1.00  0.00     0.000 C 
BRANCH   9  10
ATOM     10  C   UNL     1      16.481  26.390  54.247  1.00  0.00    -0.000 C 
BRANCH  10  11
ATOM     11  C   UNL     1      15.502  27.133  55.164  1.00  0.00    -0.000 C 
BRANCH  11  12
ATOM     12  C   UNL     1      15.793  28.641  55.172  1.00  0.00    -0.000 C 
BRANCH  12  13
ATOM     13  C   UNL     1      17.107  28.993  54.458  1.00  0.00    -0.003 C 
ATOM     14  C   UNL     1      17.696  30.324  54.926  1.00  0.00     0.004 C 
ENDBRANCH  12  13
ENDBRANCH  11  12
ENDBRANCH  10  11
ENDBRANCH   9  10
ENDBRANCH   1   9
TORSDOF 10
ENDMDL
MODEL 3
REMARK VINA RESULT:    -3.742      2.236      3.871
REMARK INTER + INTRA:          -7.356
REMARK INTER:                  -6.638
REMARK INTRA:                  -0.718
REMARK UNBOUND:                -1.427
REMARK SMILES CCCCCCCCCCCC(=O)[O-]
REMARK SMILES IDX 7 1 8 2 9 3 10 4 11 5 12 6 13 7 14 8 6 9 5 10 4 11 3 12 2 13
REMARK SMILES IDX 1 14
REMARK H PARENT
REMARK Flexibility Score: inf
ROOT
ATOM      1  C   UNL     1      16.291  25.625  53.758  1.00  0.00     0.000 C 
ENDROOT
BRANCH   1   2
ATOM      2  C   UNL     1      15.645  24.252  53.538  1.00  0.00     0.000 C 
BRANCH   2   3
ATOM      3  C   UNL     1      15.446  23.972  52.040  1.00  0.00     0.000 C 
BRANCH   3   4
ATOM      4  C   UNL     1      13.963  23.884  51.646  1.00  0.00     0.006 C 
BRANCH   4   5
ATOM      5  C   UNL     1      13.280  25.257  51.613  1.00  0.00     0.053 C 
BRANCH   5   6
ATOM      6  C   UNL     1      13.970  26.160  50.640  1.00  0.00     0.041 C 
ATOM      7  O   UNL     1      14.010  25.862  49.417  1.00  0.00    -0.550 OA
ATOM      8  O   UNL     1      14.614  27.306  51.089  1.00  0.00    -0.550 OA
ENDBRANCH   5   6
ENDBRANCH   4   5
ENDBRANCH   3   4
ENDBRANCH   2   3
ENDBRANCH   1   2
BRANCH   1   9
ATOM      9  C   UNL     1      15.344  26.564  54.515  1.00  0.00     0.000 C 
BRANCH   9  10
ATOM     10  C   UNL     1      16.128  27.645  55.268  1.00  0.00    -0.000 C 
BRANCH  10  11
ATOM     11  C   UNL     1      15.963  29.014  54.596  1.00  0.00    -0.000 C 
BRANCH  11  12
ATOM     12  C   UNL     1      16.870  30.063  55.256  1.00  0.00    -0.000 C 
BRANCH  12  13
ATOM     13  C   UNL     1      16.418  30.425  56.679  1.00  0.00    -0.003 C 
ATOM     14  C   UNL     1      15.275  31.440  56.696  1.00  0.00     0.004 C 
ENDBRANCH  12  13
ENDBRANCH  11  12
ENDBRANCH  10  11
ENDBRANCH   9  10
ENDBRANCH   1   9
TORSDOF 10
ENDMDL
MODEL 4
REMARK VINA RESULT:    -3.740      2.954      4.610
REMARK INTER + INTRA:          -7.354
REMARK INTER:                  -5.872
REMARK INTRA:                  -1.481
REMARK UNBOUND:                -1.427
REMARK SMILES CCCCCCCCCCCC(=O)[O-]
REMARK SMILES IDX 7 1 8 2 9 3 10 4 11 5 12 6 13 7 14 8 6 9 5 10 4 11 3 12 2 13
REMARK SMILES IDX 1 14
REMARK H PARENT
REMARK Flexibility Score: inf
ROOT
ATOM      1  C   UNL     1      16.252  25.367  53.615  1.00  0.00     0.000 C 
ENDROOT
BRANCH   1   2
ATOM      2  C   UNL     1      15.334  26.302  54.412  1.00  0.00     0.000 C 
BRANCH   2   3
ATOM      3  C   UNL     1      16.154  27.258  55.292  1.00  0.00     0.000 C 
BRANCH   3   4
ATOM      4  C   UNL     1      15.670  28.713  55.194  1.00  0.00     0.006 C 
BRANCH   4   5
ATOM      5  C   UNL     1      16.828  29.717  55.127  1.00  0.00     0.053 C 
BRANCH   5   6
ATOM      6  C   UNL     1      16.754  30.676  56.273  1.00  0.00     0.041 C 
ATOM      7  O   UNL     1      15.686  30.799  56.929  1.00  0.00    -0.550 OA
ATOM      8  O   UNL     1      17.849  31.471  56.587  1.00  0.00    -0.550 OA
ENDBRANCH   5   6
ENDBRANCH   4   5
ENDBRANCH   3   4
ENDBRANCH   2   3
ENDBRANCH   1   2
BRANCH   1   9
ATOM      9  C   UNL     1      17.692  25.894  53.595  1.00  0.00     0.000 C 
BRANCH   9  10
ATOM     10  C   UNL     1      18.102  26.323  52.182  1.00  0.00    -0.000 C 
BRANCH  10  11
ATOM     11  C   UNL     1      17.526  27.701  51.836  1.00  0.00    -0.000 C 
BRANCH  11  12
ATOM     12  C   UNL     1      16.570  27.612  50.636  1.00  0.00    -0.000 C 
BRANCH  12  13
ATOM     13  C   UNL     1      15.108  27.880  51.025  1.00  0.00    -0.003 C 
ATOM     14  C   UNL     1      14.911  29.246  51.683  1.00  0.00     0.004 C 
ENDBRANCH  12  13
ENDBRANCH  11  12
ENDBRANCH  10  11
ENDBRANCH   9  10
ENDBRANCH   1   9
TORSDOF 10
ENDMDL
MODEL 5
REMARK VINA RESULT:    -3.725      2.269      4.171
REMARK INTER + INTRA:          -7.330
REMARK INTER:                  -5.951
REMARK INTRA:                  -1.378
REMARK UNBOUND:                -1.427
REMARK SMILES CCCCCCCCCCCC(=O)[O-]
REMARK SMILES IDX 7 1 8 2 9 3 10 4 11 5 12 6 13 7 14 8 6 9 5 10 4 11 3 12 2 13
REMARK SMILES IDX 1 14
REMARK H PARENT
REMARK Flexibility Score: inf
ROOT
ATOM      1  C   UNL     1      15.647  24.371  53.462  1.00  0.00     0.000 C 
ENDROOT
BRANCH   1   2
ATOM      2  C   UNL     1      15.613  25.790  54.043  1.00  0.00     0.000 C 
BRANCH   2   3
ATOM      3  C   UNL     1      16.995  26.455  53.951  1.00  0.00     0.000 C 
BRANCH   3   4
ATOM      4  C   UNL     1      16.941  27.970  54.206  1.00  0.00     0.006 C 
BRANCH   4   5
ATOM      5  C   UNL     1      15.796  28.370  55.145  1.00  0.00     0.053 C 
BRANCH   5   6
ATOM      6  C   UNL     1      16.013  29.754  55.670  1.00  0.00     0.041 C 
ATOM      7  O   UNL     1      17.031  30.411  55.327  1.00  0.00    -0.550 OA
ATOM      8  O   UNL     1      15.115  30.303  56.577  1.00  0.00    -0.550 OA
ENDBRANCH   5   6
ENDBRANCH   4   5
ENDBRANCH   3   4
ENDBRANCH   2   3
ENDBRANCH   1   2
BRANCH   1   9
ATOM      9  C   UNL     1      15.225  24.370  51.987  1.00  0.00     0.000 C 
BRANCH   9  10
ATOM     10  C   UNL     1      13.826  24.972  51.815  1.00  0.00    -0.000 C 
BRANCH  10  11
ATOM     11  C   UNL     1      13.848  26.138  50.819  1.00  0.00    -0.000 C 
BRANCH  11  12
ATOM     12  C   UNL     1      15.276  26.411  50.323  1.00  0.00    -0.000 C 
BRANCH  12  13
ATOM     13  C   UNL     1      15.716  27.863  50.562  1.00  0.00    -0.003 C 
ATOM     14  C   UNL     1      14.701  28.662  51.380  1.00  0.00     0.004 C 
ENDBRANCH  12  13
ENDBRANCH  11  12
ENDBRANCH  10  11
ENDBRANCH   9  10
ENDBRANCH   1   9
TORSDOF 10
ENDMDL
MODEL 6
REMARK VINA RESULT:    -3.706      2.299      4.102
REMARK INTER + INTRA:          -7.299
REMARK INTER:                  -5.864
REMARK INTRA:                  -1.435
REMARK UNBOUND:                -1.427
REMARK SMILES CCCCCCCCCCCC(=O)[O-]
REMARK SMILES IDX 7 1 8 2 9 3 10 4 11 5 12 6 13 7 14 8 6 9 5 10 4 11 3 12 2 13
REMARK SMILES IDX 1 14
REMARK H PARENT
REMARK Flexibility Score: inf
ROOT
ATOM      1  C   UNL     1      17.092  29.316  52.711  1.00  0.00     0.000 C 
ENDROOT
BRANCH   1   2
ATOM      2  C   UNL     1      16.016  30.285  52.206  1.00  0.00     0.000 C 
BRANCH   2   3
ATOM      3  C   UNL     1      15.204  29.657  51.063  1.00  0.00     0.000 C 
BRANCH   3   4
ATOM      4  C   UNL     1      14.607  28.293  51.442  1.00  0.00     0.006 C 
BRANCH   4   5
ATOM      5  C   UNL     1      14.926  27.202  50.412  1.00  0.00     0.053 C 
BRANCH   5   6
ATOM      6  C   UNL     1      14.145  25.961  50.709  1.00  0.00     0.041 C 
ATOM      7  O   UNL     1      13.074  26.028  51.367  1.00  0.00    -0.550 OA
ATOM      8  O   UNL     1      14.624  24.723  50.300  1.00  0.00    -0.550 OA
ENDBRANCH   5   6
ENDBRANCH   4   5
ENDBRANCH   3   4
ENDBRANCH   2   3
ENDBRANCH   1   2
BRANCH   1   9
ATOM      9  C   UNL     1      17.207  29.369  54.240  1.00  0.00     0.000 C 
BRANCH   9  10
ATOM     10  C   UNL     1      15.943  28.816  54.907  1.00  0.00    -0.000 C 
BRANCH  10  11
ATOM     11  C   UNL     1      16.121  27.340  55.283  1.00  0.00    -0.000 C 
BRANCH  11  12
ATOM     12  C   UNL     1      15.294  26.433  54.359  1.00  0.00    -0.000 C 
BRANCH  12  13
ATOM     13  C   UNL     1      16.121  25.281  53.769  1.00  0.00    -0.003 C 
ATOM     14  C   UNL     1      17.537  25.706  53.381  1.00  0.00     0.004 C 
ENDBRANCH  12  13
ENDBRANCH  11  12
ENDBRANCH  10  11
ENDBRANCH   9  10
ENDBRANCH   1   9
TORSDOF 10
ENDMDL
MODEL 7
REMARK VINA RESULT:    -3.701      3.228      5.653
REMARK INTER + INTRA:          -7.291
REMARK INTER:                  -6.429
REMARK INTRA:                  -0.862
REMARK UNBOUND:                -1.427
REMARK SMILES CCCCCCCCCCCC(=O)[O-]
REMARK SMILES IDX 7 1 8 2 9 3 10 4 11 5 12 6 13 7 14 8 6 9 5 10 4 11 3 12 2 13
REMARK SMILES IDX 1 14
REMARK H PARENT
REMARK Flexibility Score: inf
ROOT
ATOM      1  C   UNL     1      16.707  28.639  54.351  1.00  0.00     0.000 C 
ENDROOT
BRANCH   1   2
ATOM      2  C   UNL     1      16.330  30.099  54.633  1.00  0.00     0.000 C 
BRANCH   2   3
ATOM      3  C   UNL     1      17.295  30.729  55.648  1.00  0.00     0.000 C 
BRANCH   3   4
ATOM      4  C   UNL     1      16.639  30.971  57.017  1.00  0.00     0.006 C 
BRANCH   4   5
ATOM      5  C   UNL     1      15.186  31.449  56.899  1.00  0.00     0.053 C 
BRANCH   5   6
ATOM      6  C   UNL     1      15.115  32.937  57.029  1.00  0.00     0.041 C 
ATOM      7  O   UNL     1      14.171  33.577  56.495  1.00  0.00    -0.550 OA
ATOM      8  O   UNL     1      16.118  33.626  57.700  1.00  0.00    -0.550 OA
ENDBRANCH   5   6
ENDBRANCH   4   5
ENDBRANCH   3   4
ENDBRANCH   2   3
ENDBRANCH   1   2
BRANCH   1   9
ATOM      9  C   UNL     1      16.081  27.699  55.388  1.00  0.00     0.000 C 
BRANCH   9  10
ATOM     10  C   UNL     1      15.387  26.513  54.707  1.00  0.00    -0.000 C 
BRANCH  10  11
ATOM     11  C   UNL     1      15.724  26.463  53.212  1.00  0.00    -0.000 C 
BRANCH  11  12
ATOM     12  C   UNL     1      14.470  26.166  52.376  1.00  0.00    -0.000 C 
BRANCH  12  13
ATOM     13  C   UNL     1      14.407  27.002  51.089  1.00  0.00    -0.003 C 
ATOM     14  C   UNL     1      14.757  28.472  51.320  1.00  0.00     0.004 C 
ENDBRANCH  12  13
ENDBRANCH  11  12
ENDBRANCH  10  11
ENDBRANCH   9  10
ENDBRANCH   1   9
TORSDOF 10
ENDMDL
MODEL 8
REMARK VINA RESULT:    -3.681      1.152      3.453
REMARK INTER + INTRA:          -7.260
REMARK INTER:                  -5.832
REMARK INTRA:                  -1.427
REMARK UNBOUND:                -1.427
REMARK SMILES CCCCCCCCCCCC(=O)[O-]
REMARK SMILES IDX 7 1 8 2 9 3 10 4 11 5 12 6 13 7 14 8 6 9 5 10 4 11 3 12 2 13
REMARK SMILES IDX 1 14
REMARK H PARENT
REMARK Flexibility Score: inf
ROOT
ATOM      1  C   UNL     1      15.996  28.594  55.400  1.00  0.00     0.000 C 
ENDROOT
BRANCH   1   2
ATOM      2  C   UNL     1      17.004  29.123  54.372  1.00  0.00     0.000 C 
BRANCH   2   3
ATOM      3  C   UNL     1      16.336  30.113  53.407  1.00  0.00     0.000 C 
BRANCH   3   4
ATOM      4  C   UNL     1      16.113  29.517  52.008  1.00  0.00     0.006 C 
BRANCH   4   5
ATOM      5  C   UNL     1      14.704  29.790  51.468  1.00  0.00     0.053 C 
BRANCH   5   6
ATOM      6  C   UNL     1      14.734  30.907  50.473  1.00  0.00     0.041 C 
ATOM      7  O   UNL     1      14.831  32.100  50.862  1.00  0.00    -0.550 OA
ATOM      8  O   UNL     1      14.606  30.635  49.117  1.00  0.00    -0.550 OA
ENDBRANCH   5   6
ENDBRANCH   4   5
ENDBRANCH   3   4
ENDBRANCH   2   3
ENDBRANCH   1   2
BRANCH   1   9
ATOM      9  C   UNL     1      15.622  27.136  55.105  1.00  0.00     0.000 C 
BRANCH   9  10
ATOM     10  C   UNL     1      16.710  26.447  54.272  1.00  0.00    -0.000 C 
BRANCH  10  11
ATOM     11  C   UNL     1      16.131  25.885  52.968  1.00  0.00    -0.000 C 
BRANCH  11  12
ATOM     12  C   UNL     1      14.622  26.157  52.874  1.00  0.00    -0.000 C 
BRANCH  12  13
ATOM     13  C   UNL     1      14.094  26.066  51.435  1.00  0.00    -0.003 C 
ATOM     14  C   UNL     1      15.202  26.195  50.389  1.00  0.00     0.004 C 
ENDBRANCH  12  13
ENDBRANCH  11  12
ENDBRANCH  10  11
ENDBRANCH   9  10
ENDBRANCH   1   9
TORSDOF 10
ENDMDL
