MODEL 1
REMARK VINA RESULT:    -5.078      0.000      0.000
REMARK INTER + INTRA:          -6.047
REMARK INTER:                  -6.265
REMARK INTRA:                   0.218
REMARK UNBOUND:                 0.218
REMARK SMILES Oc1cc(O)c2cc(O)c(-c3cc(O)c(O)c(O)c3)[o+]c2c1
REMARK SMILES IDX 10 1 20 2 21 3 22 4 2 5 3 6 4 7 6 8 7 9 8 10 11 11 12 12
REMARK SMILES IDX 13 13 19 14 15 15 17 16 14 17 16 19 18 21 9 23 1 25 5 27
REMARK H PARENT 14 18 16 20 18 22 9 24 1 26 5 28
REMARK Flexibility Score: inf
ROOT
ATOM      1  C   UNL     1     -40.758  12.516   2.773  1.00  0.00     0.402 A 
ATOM      2  O   UNL     1     -41.790  13.240   2.341  1.00  0.00    -0.202 OA
ATOM      3  C   UNL     1     -43.015  13.133   2.845  1.00  0.00     0.368 A 
ATOM      4  C   UNL     1     -44.045  13.927   2.333  1.00  0.00     0.162 A 
ATOM      5  C   UNL     1     -45.342  13.821   2.853  1.00  0.00     0.128 A 
ATOM      6  C   UNL     1     -45.606  12.919   3.889  1.00  0.00     0.093 A 
ATOM      7  C   UNL     1     -44.582  12.118   4.414  1.00  0.00     0.136 A 
ATOM      8  C   UNL     1     -43.279  12.223   3.892  1.00  0.00     0.125 A 
ATOM      9  C   UNL     1     -42.217  11.454   4.381  1.00  0.00     0.078 A 
ATOM     10  C   UNL     1     -40.941  11.604   3.832  1.00  0.00     0.223 A 
ENDROOT
BRANCH   1  11
ATOM     11  C   UNL     1     -39.441  12.717   2.127  1.00  0.00     0.091 A 
ATOM     12  C   UNL     1     -39.182  13.917   1.447  1.00  0.00     0.068 A 
ATOM     13  C   UNL     1     -37.952  14.126   0.809  1.00  0.00     0.162 A 
ATOM     14  C   UNL     1     -38.463  11.708   2.128  1.00  0.00     0.068 A 
ATOM     15  C   UNL     1     -36.971  13.120   0.833  1.00  0.00     0.200 A 
ATOM     16  C   UNL     1     -37.233  11.907   1.492  1.00  0.00     0.162 A 
BRANCH  13  17
ATOM     17  O   UNL     1     -37.703  15.329   0.150  1.00  0.00    -0.504 OA
ATOM     18  H   UNL     1     -37.406  15.354  -0.818  1.00  0.00     0.293 HD
ENDBRANCH  13  17
BRANCH  15  19
ATOM     19  O   UNL     1     -35.740  13.312   0.206  1.00  0.00    -0.502 OA
ATOM     20  H   UNL     1     -34.895  13.516   0.725  1.00  0.00     0.293 HD
ENDBRANCH  15  19
BRANCH  16  21
ATOM     21  O   UNL     1     -36.285  10.884   1.522  1.00  0.00    -0.504 OA
ATOM     22  H   UNL     1     -36.170  10.233   0.753  1.00  0.00     0.293 HD
ENDBRANCH  16  21
ENDBRANCH   1  11
BRANCH  10  23
ATOM     23  O   UNL     1     -39.869  10.877   4.349  1.00  0.00    -0.500 OA
ATOM     24  H   UNL     1     -39.506  10.055   3.880  1.00  0.00     0.294 HD
ENDBRANCH  10  23
BRANCH   5  25
ATOM     25  O   UNL     1     -46.375  14.607   2.347  1.00  0.00    -0.507 OA
ATOM     26  H   UNL     1     -46.598  14.616   1.359  1.00  0.00     0.293 HD
ENDBRANCH   5  25
BRANCH   7  27
ATOM     27  O   UNL     1     -44.859  11.223   5.449  1.00  0.00    -0.507 OA
ATOM     28  H   UNL     1     -44.897  10.223   5.291  1.00  0.00     0.293 HD
ENDBRANCH   7  27
TORSDOF 7
ENDMDL
MODEL 2
REMARK VINA RESULT:    -5.075      1.885      7.185
REMARK INTER + INTRA:          -6.044
REMARK INTER:                  -5.677
REMARK INTRA:                  -0.366
REMARK UNBOUND:                 0.218
REMARK SMILES Oc1cc(O)c2cc(O)c(-c3cc(O)c(O)c(O)c3)[o+]c2c1
REMARK SMILES IDX 10 1 20 2 21 3 22 4 2 5 3 6 4 7 6 8 7 9 8 10 11 11 12 12
REMARK SMILES IDX 13 13 19 14 15 15 17 16 14 17 16 19 18 21 9 23 1 25 5 27
REMARK H PARENT 14 18 16 20 18 22 9 24 1 26 5 28
REMARK Flexibility Score: inf
ROOT
ATOM      1  C   UNL     1     -39.489  13.179   1.775  1.00  0.00     0.402 A 
ATOM      2  O   UNL     1     -38.984  14.315   1.295  1.00  0.00    -0.202 OA
ATOM      3  C   UNL     1     -37.685  14.506   1.093  1.00  0.00     0.368 A 
ATOM      4  C   UNL     1     -37.236  15.731   0.590  1.00  0.00     0.162 A 
ATOM      5  C   UNL     1     -35.868  15.946   0.375  1.00  0.00     0.128 A 
ATOM      6  C   UNL     1     -34.949  14.931   0.662  1.00  0.00     0.093 A 
ATOM      7  C   UNL     1     -35.385  13.697   1.166  1.00  0.00     0.136 A 
ATOM      8  C   UNL     1     -36.759  13.480   1.382  1.00  0.00     0.125 A 
ATOM      9  C   UNL     1     -37.252  12.267   1.876  1.00  0.00     0.078 A 
ATOM     10  C   UNL     1     -38.627  12.102   2.065  1.00  0.00     0.223 A 
ENDROOT
BRANCH   1  11
ATOM     11  C   UNL     1     -40.953  13.089   1.967  1.00  0.00     0.091 A 
ATOM     12  C   UNL     1     -41.495  13.292   3.246  1.00  0.00     0.068 A 
ATOM     13  C   UNL     1     -42.877  13.193   3.461  1.00  0.00     0.162 A 
ATOM     14  C   UNL     1     -41.812  12.746   0.908  1.00  0.00     0.068 A 
ATOM     15  C   UNL     1     -43.730  12.871   2.393  1.00  0.00     0.200 A 
ATOM     16  C   UNL     1     -43.192  12.643   1.115  1.00  0.00     0.162 A 
BRANCH  13  17
ATOM     17  O   UNL     1     -43.402  13.412   4.733  1.00  0.00    -0.504 OA
ATOM     18  H   UNL     1     -44.191  14.030   4.884  1.00  0.00     0.293 HD
ENDBRANCH  13  17
BRANCH  15  19
ATOM     19  O   UNL     1     -45.108  12.771   2.588  1.00  0.00    -0.502 OA
ATOM     20  H   UNL     1     -45.519  12.061   3.182  1.00  0.00     0.293 HD
ENDBRANCH  15  19
BRANCH  16  21
ATOM     21  O   UNL     1     -44.011  12.308   0.037  1.00  0.00    -0.504 OA
ATOM     22  H   UNL     1     -44.985  12.585  -0.007  1.00  0.00     0.293 HD
ENDBRANCH  16  21
ENDBRANCH   1  11
BRANCH  10  23
ATOM     23  O   UNL     1     -39.129  10.878   2.509  1.00  0.00    -0.500 OA
ATOM     24  H   UNL     1     -38.855  10.482   3.401  1.00  0.00     0.294 HD
ENDBRANCH  10  23
BRANCH   5  25
ATOM     25  O   UNL     1     -35.411  17.164  -0.125  1.00  0.00    -0.507 OA
ATOM     26  H   UNL     1     -34.788  17.755   0.411  1.00  0.00     0.293 HD
ENDBRANCH   5  25
BRANCH   7  27
ATOM     27  O   UNL     1     -34.458  12.692   1.447  1.00  0.00    -0.507 OA
ATOM     28  H   UNL     1     -33.914  12.697   2.302  1.00  0.00     0.293 HD
ENDBRANCH   7  27
TORSDOF 7
ENDMDL
MODEL 3
REMARK VINA RESULT:    -4.954      2.313      4.211
REMARK INTER + INTRA:          -5.894
REMARK INTER:                  -5.554
REMARK INTRA:                  -0.340
REMARK UNBOUND:                 0.218
REMARK SMILES Oc1cc(O)c2cc(O)c(-c3cc(O)c(O)c(O)c3)[o+]c2c1
REMARK SMILES IDX 10 1 20 2 21 3 22 4 2 5 3 6 4 7 6 8 7 9 8 10 11 11 12 12
REMARK SMILES IDX 13 13 19 14 15 15 17 16 14 17 16 19 18 21 9 23 1 25 5 27
REMARK H PARENT 14 18 16 20 18 22 9 24 1 26 5 28
REMARK Flexibility Score: inf
ROOT
ATOM      1  C   UNL     1     -43.568  13.161   1.772  1.00  0.00     0.402 A 
ATOM      2  O   UNL     1     -43.954  14.337   2.264  1.00  0.00    -0.202 OA
ATOM      3  C   UNL     1     -45.113  14.909   1.955  1.00  0.00     0.368 A 
ATOM      4  C   UNL     1     -45.443  16.149   2.512  1.00  0.00     0.162 A 
ATOM      5  C   UNL     1     -46.660  16.764   2.191  1.00  0.00     0.128 A 
ATOM      6  C   UNL     1     -47.549  16.135   1.314  1.00  0.00     0.093 A 
ATOM      7  C   UNL     1     -47.233  14.891   0.749  1.00  0.00     0.136 A 
ATOM      8  C   UNL     1     -46.010  14.272   1.070  1.00  0.00     0.125 A 
ATOM      9  C   UNL     1     -45.645  13.029   0.542  1.00  0.00     0.078 A 
ATOM     10  C   UNL     1     -44.421  12.455   0.900  1.00  0.00     0.223 A 
ENDROOT
BRANCH   1  11
ATOM     11  C   UNL     1     -42.248  12.629   2.182  1.00  0.00     0.091 A 
ATOM     12  C   UNL     1     -41.168  12.699   1.289  1.00  0.00     0.068 A 
ATOM     13  C   UNL     1     -39.913  12.186   1.644  1.00  0.00     0.162 A 
ATOM     14  C   UNL     1     -42.066  12.001   3.426  1.00  0.00     0.068 A 
ATOM     15  C   UNL     1     -39.734  11.579   2.898  1.00  0.00     0.200 A 
ATOM     16  C   UNL     1     -40.817  11.485   3.787  1.00  0.00     0.162 A 
BRANCH  13  17
ATOM     17  O   UNL     1     -38.845  12.277   0.752  1.00  0.00    -0.504 OA
ATOM     18  H   UNL     1     -38.428  11.452   0.336  1.00  0.00     0.293 HD
ENDBRANCH  13  17
BRANCH  15  19
ATOM     19  O   UNL     1     -38.490  11.065   3.268  1.00  0.00    -0.502 OA
ATOM     20  H   UNL     1     -38.107  10.226   2.851  1.00  0.00     0.293 HD
ENDBRANCH  15  19
BRANCH  16  21
ATOM     21  O   UNL     1     -40.675  10.875   5.034  1.00  0.00    -0.504 OA
ATOM     22  H   UNL     1     -39.792  10.866   5.532  1.00  0.00     0.293 HD
ENDBRANCH  16  21
ENDBRANCH   1  11
BRANCH  10  23
ATOM     23  O   UNL     1     -44.074  11.193   0.417  1.00  0.00    -0.500 OA
ATOM     24  H   UNL     1     -43.275  10.686   0.780  1.00  0.00     0.294 HD
ENDBRANCH  10  23
BRANCH   5  25
ATOM     25  O   UNL     1     -46.996  18.000   2.740  1.00  0.00    -0.507 OA
ATOM     26  H   UNL     1     -47.924  18.391   2.633  1.00  0.00     0.293 HD
ENDBRANCH   5  25
BRANCH   7  27
ATOM     27  O   UNL     1     -48.130  14.274  -0.125  1.00  0.00    -0.507 OA
ATOM     28  H   UNL     1     -47.812  13.666  -0.871  1.00  0.00     0.293 HD
ENDBRANCH   7  27
TORSDOF 7
ENDMDL
MODEL 4
REMARK VINA RESULT:    -4.916      0.763      1.947
REMARK INTER + INTRA:          -5.847
REMARK INTER:                  -5.988
REMARK INTRA:                   0.141
REMARK UNBOUND:                 0.218
REMARK SMILES Oc1cc(O)c2cc(O)c(-c3cc(O)c(O)c(O)c3)[o+]c2c1
REMARK SMILES IDX 10 1 20 2 21 3 22 4 2 5 3 6 4 7 6 8 7 9 8 10 11 11 12 12
REMARK SMILES IDX 13 13 19 14 15 15 17 16 14 17 16 19 18 21 9 23 1 25 5 27
REMARK H PARENT 14 18 16 20 18 22 9 24 1 26 5 28
REMARK Flexibility Score: inf
ROOT
ATOM      1  C   UNL     1     -40.964  12.446   2.483  1.00  0.00     0.402 A 
ATOM      2  O   UNL     1     -41.988  12.989   1.828  1.00  0.00    -0.202 OA
ATOM      3  C   UNL     1     -43.258  12.770   2.153  1.00  0.00     0.368 A 
ATOM      4  C   UNL     1     -44.277  13.376   1.412  1.00  0.00     0.162 A 
ATOM      5  C   UNL     1     -45.620  13.150   1.742  1.00  0.00     0.128 A 
ATOM      6  C   UNL     1     -45.942  12.317   2.819  1.00  0.00     0.093 A 
ATOM      7  C   UNL     1     -44.931  11.704   3.573  1.00  0.00     0.136 A 
ATOM      8  C   UNL     1     -43.582  11.930   3.241  1.00  0.00     0.125 A 
ATOM      9  C   UNL     1     -42.531  11.350   3.961  1.00  0.00     0.078 A 
ATOM     10  C   UNL     1     -41.209  11.614   3.594  1.00  0.00     0.223 A 
ENDROOT
BRANCH   1  11
ATOM     11  C   UNL     1     -39.592  12.756   2.020  1.00  0.00     0.091 A 
ATOM     12  C   UNL     1     -38.600  11.766   2.088  1.00  0.00     0.068 A 
ATOM     13  C   UNL     1     -37.289  12.039   1.675  1.00  0.00     0.162 A 
ATOM     14  C   UNL     1     -39.245  14.041   1.568  1.00  0.00     0.068 A 
ATOM     15  C   UNL     1     -36.955  13.319   1.204  1.00  0.00     0.200 A 
ATOM     16  C   UNL     1     -37.938  14.322   1.156  1.00  0.00     0.162 A 
BRANCH  13  17
ATOM     17  O   UNL     1     -36.317  11.040   1.733  1.00  0.00    -0.504 OA
ATOM     18  H   UNL     1     -35.468  11.091   1.182  1.00  0.00     0.293 HD
ENDBRANCH  13  17
BRANCH  15  19
ATOM     19  O   UNL     1     -35.655  13.608   0.787  1.00  0.00    -0.502 OA
ATOM     20  H   UNL     1     -34.950  13.961   1.422  1.00  0.00     0.293 HD
ENDBRANCH  15  19
BRANCH  16  21
ATOM     21  O   UNL     1     -37.635  15.608   0.708  1.00  0.00    -0.504 OA
ATOM     22  H   UNL     1     -37.026  15.772  -0.086  1.00  0.00     0.293 HD
ENDBRANCH  16  21
ENDBRANCH   1  11
BRANCH  10  23
ATOM     23  O   UNL     1     -40.157  11.080   4.339  1.00  0.00    -0.500 OA
ATOM     24  H   UNL     1     -40.241  10.915   5.336  1.00  0.00     0.294 HD
ENDBRANCH  10  23
BRANCH   5  25
ATOM     25  O   UNL     1     -46.641  13.749   1.008  1.00  0.00    -0.507 OA
ATOM     26  H   UNL     1     -46.548  13.920   0.014  1.00  0.00     0.293 HD
ENDBRANCH   5  25
BRANCH   7  27
ATOM     27  O   UNL     1     -45.266  10.876   4.645  1.00  0.00    -0.507 OA
ATOM     28  H   UNL     1     -45.818  11.215   5.425  1.00  0.00     0.293 HD
ENDBRANCH   7  27
TORSDOF 7
ENDMDL
MODEL 5
REMARK VINA RESULT:    -4.737      1.948      7.047
REMARK INTER + INTRA:          -5.626
REMARK INTER:                  -5.241
REMARK INTRA:                  -0.385
REMARK UNBOUND:                 0.218
REMARK SMILES Oc1cc(O)c2cc(O)c(-c3cc(O)c(O)c(O)c3)[o+]c2c1
REMARK SMILES IDX 10 1 20 2 21 3 22 4 2 5 3 6 4 7 6 8 7 9 8 10 11 11 12 12
REMARK SMILES IDX 13 13 19 14 15 15 17 16 14 17 16 19 18 21 9 23 1 25 5 27
REMARK H PARENT 14 18 16 20 18 22 9 24 1 26 5 28
REMARK Flexibility Score: inf
ROOT
ATOM      1  C   UNL     1     -43.093  12.805   2.097  1.00  0.00     0.402 A 
ATOM      2  O   UNL     1     -42.098  12.609   1.233  1.00  0.00    -0.202 OA
ATOM      3  C   UNL     1     -40.917  12.111   1.584  1.00  0.00     0.368 A 
ATOM      4  C   UNL     1     -39.923  11.940   0.615  1.00  0.00     0.162 A 
ATOM      5  C   UNL     1     -38.672  11.420   0.974  1.00  0.00     0.128 A 
ATOM      6  C   UNL     1     -38.419  11.068   2.303  1.00  0.00     0.093 A 
ATOM      7  C   UNL     1     -39.407  11.232   3.285  1.00  0.00     0.136 A 
ATOM      8  C   UNL     1     -40.663  11.755   2.926  1.00  0.00     0.125 A 
ATOM      9  C   UNL     1     -41.689  11.934   3.861  1.00  0.00     0.078 A 
ATOM     10  C   UNL     1     -42.921  12.451   3.450  1.00  0.00     0.223 A 
ENDROOT
BRANCH   1  11
ATOM     11  C   UNL     1     -44.361  13.376   1.589  1.00  0.00     0.091 A 
ATOM     12  C   UNL     1     -45.327  12.524   1.031  1.00  0.00     0.068 A 
ATOM     13  C   UNL     1     -46.528  13.040   0.524  1.00  0.00     0.162 A 
ATOM     14  C   UNL     1     -44.596  14.762   1.599  1.00  0.00     0.068 A 
ATOM     15  C   UNL     1     -46.764  14.424   0.557  1.00  0.00     0.200 A 
ATOM     16  C   UNL     1     -45.791  15.285   1.093  1.00  0.00     0.162 A 
BRANCH  13  17
ATOM     17  O   UNL     1     -47.485  12.180  -0.013  1.00  0.00    -0.504 OA
ATOM     18  H   UNL     1     -47.225  11.313  -0.468  1.00  0.00     0.293 HD
ENDBRANCH  13  17
BRANCH  15  19
ATOM     19  O   UNL     1     -47.955  14.955   0.060  1.00  0.00    -0.502 OA
ATOM     20  H   UNL     1     -48.042  15.926  -0.212  1.00  0.00     0.293 HD
ENDBRANCH  15  19
BRANCH  16  21
ATOM     21  O   UNL     1     -45.990  16.665   1.127  1.00  0.00    -0.504 OA
ATOM     22  H   UNL     1     -46.462  17.123   1.899  1.00  0.00     0.293 HD
ENDBRANCH  16  21
ENDBRANCH   1  11
BRANCH  10  23
ATOM     23  O   UNL     1     -43.963  12.585   4.368  1.00  0.00    -0.500 OA
ATOM     24  H   UNL     1     -44.522  11.791   4.657  1.00  0.00     0.294 HD
ENDBRANCH  10  23
BRANCH   5  25
ATOM     25  O   UNL     1     -37.676  11.247   0.016  1.00  0.00    -0.507 OA
ATOM     26  H   UNL     1     -36.703  11.144   0.277  1.00  0.00     0.293 HD
ENDBRANCH   5  25
BRANCH   7  27
ATOM     27  O   UNL     1     -39.141  10.875   4.608  1.00  0.00    -0.507 OA
ATOM     28  H   UNL     1     -38.773  11.544   5.275  1.00  0.00     0.293 HD
ENDBRANCH   7  27
TORSDOF 7
ENDMDL
MODEL 6
REMARK VINA RESULT:    -4.269     13.438     14.963
REMARK INTER + INTRA:          -5.049
REMARK INTER:                  -4.831
REMARK INTRA:                  -0.218
REMARK UNBOUND:                 0.218
REMARK SMILES Oc1cc(O)c2cc(O)c(-c3cc(O)c(O)c(O)c3)[o+]c2c1
REMARK SMILES IDX 10 1 20 2 21 3 22 4 2 5 3 6 4 7 6 8 7 9 8 10 11 11 12 12
REMARK SMILES IDX 13 13 19 14 15 15 17 16 14 17 16 19 18 21 9 23 1 25 5 27
REMARK H PARENT 14 18 16 20 18 22 9 24 1 26 5 28
REMARK Flexibility Score: inf
ROOT
ATOM      1  C   UNL     1     -38.226  15.774  16.218  1.00  0.00     0.402 A 
ATOM      2  O   UNL     1     -38.118  16.129  14.938  1.00  0.00    -0.202 OA
ATOM      3  C   UNL     1     -38.236  15.268  13.932  1.00  0.00     0.368 A 
ATOM      4  C   UNL     1     -38.106  15.722  12.615  1.00  0.00     0.162 A 
ATOM      5  C   UNL     1     -38.225  14.824  11.546  1.00  0.00     0.128 A 
ATOM      6  C   UNL     1     -38.477  13.471  11.796  1.00  0.00     0.093 A 
ATOM      7  C   UNL     1     -38.612  13.003  13.112  1.00  0.00     0.136 A 
ATOM      8  C   UNL     1     -38.492  13.903  14.186  1.00  0.00     0.125 A 
ATOM      9  C   UNL     1     -38.624  13.494  15.518  1.00  0.00     0.078 A 
ATOM     10  C   UNL     1     -38.503  14.432  16.548  1.00  0.00     0.223 A 
ENDROOT
BRANCH   1  11
ATOM     11  C   UNL     1     -38.065  16.821  17.251  1.00  0.00     0.091 A 
ATOM     12  C   UNL     1     -38.906  17.945  17.232  1.00  0.00     0.068 A 
ATOM     13  C   UNL     1     -38.762  18.960  18.187  1.00  0.00     0.162 A 
ATOM     14  C   UNL     1     -37.049  16.744  18.220  1.00  0.00     0.068 A 
ATOM     15  C   UNL     1     -37.758  18.866  19.165  1.00  0.00     0.200 A 
ATOM     16  C   UNL     1     -36.898  17.755  19.176  1.00  0.00     0.162 A 
BRANCH  13  17
ATOM     17  O   UNL     1     -39.614  20.064  18.165  1.00  0.00    -0.504 OA
ATOM     18  H   UNL     1     -40.588  19.979  17.896  1.00  0.00     0.293 HD
ENDBRANCH  13  17
BRANCH  15  19
ATOM     19  O   UNL     1     -37.603  19.867  20.125  1.00  0.00    -0.502 OA
ATOM     20  H   UNL     1     -37.869  19.733  21.093  1.00  0.00     0.293 HD
ENDBRANCH  15  19
BRANCH  16  21
ATOM     21  O   UNL     1     -35.883  17.638  20.125  1.00  0.00    -0.504 OA
ATOM     22  H   UNL     1     -34.903  17.725  19.879  1.00  0.00     0.293 HD
ENDBRANCH  16  21
ENDBRANCH   1  11
BRANCH  10  23
ATOM     23  O   UNL     1     -38.684  14.039  17.874  1.00  0.00    -0.500 OA
ATOM     24  H   UNL     1     -38.810  13.067  18.129  1.00  0.00     0.294 HD
ENDBRANCH  10  23
BRANCH   5  25
ATOM     25  O   UNL     1     -38.095  15.266  10.231  1.00  0.00    -0.507 OA
ATOM     26  H   UNL     1     -38.900  15.362   9.624  1.00  0.00     0.293 HD
ENDBRANCH   5  25
BRANCH   7  27
ATOM     27  O   UNL     1     -38.865  11.650  13.347  1.00  0.00    -0.507 OA
ATOM     28  H   UNL     1     -38.117  10.966  13.366  1.00  0.00     0.293 HD
ENDBRANCH   7  27
TORSDOF 7
ENDMDL
MODEL 7
REMARK VINA RESULT:    -4.114      2.009      7.199
REMARK INTER + INTRA:          -4.858
REMARK INTER:                  -4.496
REMARK INTRA:                  -0.362
REMARK UNBOUND:                 0.218
REMARK SMILES Oc1cc(O)c2cc(O)c(-c3cc(O)c(O)c(O)c3)[o+]c2c1
REMARK SMILES IDX 10 1 20 2 21 3 22 4 2 5 3 6 4 7 6 8 7 9 8 10 11 11 12 12
REMARK SMILES IDX 13 13 19 14 15 15 17 16 14 17 16 19 18 21 9 23 1 25 5 27
REMARK H PARENT 14 18 16 20 18 22 9 24 1 26 5 28
REMARK Flexibility Score: inf
ROOT
ATOM      1  C   UNL     1     -43.754  13.447   1.966  1.00  0.00     0.402 A 
ATOM      2  O   UNL     1     -42.694  13.626   1.179  1.00  0.00    -0.202 OA
ATOM      3  C   UNL     1     -41.506  13.084   1.426  1.00  0.00     0.368 A 
ATOM      4  C   UNL     1     -40.441  13.324   0.551  1.00  0.00     0.162 A 
ATOM      5  C   UNL     1     -39.183  12.761   0.802  1.00  0.00     0.128 A 
ATOM      6  C   UNL     1     -38.992  11.954   1.928  1.00  0.00     0.093 A 
ATOM      7  C   UNL     1     -40.051  11.703   2.812  1.00  0.00     0.136 A 
ATOM      8  C   UNL     1     -41.315  12.269   2.562  1.00  0.00     0.125 A 
ATOM      9  C   UNL     1     -42.409  12.047   3.406  1.00  0.00     0.078 A 
ATOM     10  C   UNL     1     -43.645  12.627   3.107  1.00  0.00     0.223 A 
ENDROOT
BRANCH   1  11
ATOM     11  C   UNL     1     -45.023  14.111   1.594  1.00  0.00     0.091 A 
ATOM     12  C   UNL     1     -45.251  15.437   1.993  1.00  0.00     0.068 A 
ATOM     13  C   UNL     1     -46.452  16.084   1.671  1.00  0.00     0.162 A 
ATOM     14  C   UNL     1     -46.033  13.425   0.897  1.00  0.00     0.068 A 
ATOM     15  C   UNL     1     -47.448  15.398   0.956  1.00  0.00     0.200 A 
ATOM     16  C   UNL     1     -47.235  14.063   0.573  1.00  0.00     0.162 A 
BRANCH  13  17
ATOM     17  O   UNL     1     -46.659  17.407   2.062  1.00  0.00    -0.504 OA
ATOM     18  H   UNL     1     -46.814  18.144   1.384  1.00  0.00     0.293 HD
ENDBRANCH  13  17
BRANCH  15  19
ATOM     19  O   UNL     1     -48.648  16.028   0.625  1.00  0.00    -0.502 OA
ATOM     20  H   UNL     1     -49.046  16.766   1.193  1.00  0.00     0.293 HD
ENDBRANCH  15  19
BRANCH  16  21
ATOM     21  O   UNL     1     -48.210  13.349  -0.125  1.00  0.00    -0.504 OA
ATOM     22  H   UNL     1     -48.661  12.530   0.265  1.00  0.00     0.293 HD
ENDBRANCH  16  21
ENDBRANCH   1  11
BRANCH  10  23
ATOM     23  O   UNL     1     -44.752  12.368   3.916  1.00  0.00    -0.500 OA
ATOM     24  H   UNL     1     -44.905  12.868   4.784  1.00  0.00     0.294 HD
ENDBRANCH  10  23
BRANCH   5  25
ATOM     25  O   UNL     1     -38.116  12.996  -0.064  1.00  0.00    -0.507 OA
ATOM     26  H   UNL     1     -37.876  12.341  -0.798  1.00  0.00     0.293 HD
ENDBRANCH   5  25
BRANCH   7  27
ATOM     27  O   UNL     1     -39.846  10.895   3.932  1.00  0.00    -0.507 OA
ATOM     28  H   UNL     1     -39.652   9.904   3.844  1.00  0.00     0.293 HD
ENDBRANCH   7  27
TORSDOF 7
ENDMDL
MODEL 8
REMARK VINA RESULT:    -3.345     13.510     15.031
REMARK INTER + INTRA:          -3.909
REMARK INTER:                  -4.085
REMARK INTRA:                   0.177
REMARK UNBOUND:                 0.218
REMARK SMILES Oc1cc(O)c2cc(O)c(-c3cc(O)c(O)c(O)c3)[o+]c2c1
REMARK SMILES IDX 10 1 20 2 21 3 22 4 2 5 3 6 4 7 6 8 7 9 8 10 11 11 12 12
REMARK SMILES IDX 13 13 19 14 15 15 17 16 14 17 16 19 18 21 9 23 1 25 5 27
REMARK H PARENT 14 18 16 20 18 22 9 24 1 26 5 28
REMARK Flexibility Score: inf
ROOT
ATOM      1  C   UNL     1     -38.519  15.601  16.183  1.00  0.00     0.402 A 
ATOM      2  O   UNL     1     -38.954  16.846  16.371  1.00  0.00    -0.202 OA
ATOM      3  C   UNL     1     -38.496  17.639  17.335  1.00  0.00     0.368 A 
ATOM      4  C   UNL     1     -39.008  18.934  17.467  1.00  0.00     0.162 A 
ATOM      5  C   UNL     1     -38.536  19.778  18.481  1.00  0.00     0.128 A 
ATOM      6  C   UNL     1     -37.548  19.324  19.362  1.00  0.00     0.093 A 
ATOM      7  C   UNL     1     -37.024  18.029  19.240  1.00  0.00     0.136 A 
ATOM      8  C   UNL     1     -37.498  17.181  18.222  1.00  0.00     0.125 A 
ATOM      9  C   UNL     1     -37.007  15.882  18.048  1.00  0.00     0.078 A 
ATOM     10  C   UNL     1     -37.508  15.082  17.016  1.00  0.00     0.223 A 
ENDROOT
BRANCH   1  11
ATOM     11  C   UNL     1     -39.113  14.811  15.081  1.00  0.00     0.091 A 
ATOM     12  C   UNL     1     -40.473  14.970  14.772  1.00  0.00     0.068 A 
ATOM     13  C   UNL     1     -41.065  14.221  13.747  1.00  0.00     0.162 A 
ATOM     14  C   UNL     1     -38.359  13.859  14.374  1.00  0.00     0.068 A 
ATOM     15  C   UNL     1     -40.299  13.286  13.030  1.00  0.00     0.200 A 
ATOM     16  C   UNL     1     -38.943  13.105  13.350  1.00  0.00     0.162 A 
BRANCH  13  17
ATOM     17  O   UNL     1     -42.414  14.401  13.441  1.00  0.00    -0.504 OA
ATOM     18  H   UNL     1     -42.761  14.310  12.493  1.00  0.00     0.293 HD
ENDBRANCH  13  17
BRANCH  15  19
ATOM     19  O   UNL     1     -40.873  12.533  12.005  1.00  0.00    -0.502 OA
ATOM     20  H   UNL     1     -40.941  11.524  12.049  1.00  0.00     0.293 HD
ENDBRANCH  15  19
BRANCH  16  21
ATOM     21  O   UNL     1     -38.160  12.175  12.667  1.00  0.00    -0.504 OA
ATOM     22  H   UNL     1     -37.311  12.439  12.180  1.00  0.00     0.293 HD
ENDBRANCH  16  21
ENDBRANCH   1  11
BRANCH  10  23
ATOM     23  O   UNL     1     -36.987  13.806  16.807  1.00  0.00    -0.500 OA
ATOM     24  H   UNL     1     -37.487  12.973  17.094  1.00  0.00     0.294 HD
ENDBRANCH  10  23
BRANCH   5  25
ATOM     25  O   UNL     1     -39.041  21.068  18.621  1.00  0.00    -0.507 OA
ATOM     26  H   UNL     1     -38.623  21.855  18.138  1.00  0.00     0.293 HD
ENDBRANCH   5  25
BRANCH   7  27
ATOM     27  O   UNL     1     -36.038  17.590  20.125  1.00  0.00    -0.507 OA
ATOM     28  H   UNL     1     -35.666  16.648  20.081  1.00  0.00     0.293 HD
ENDBRANCH   7  27
TORSDOF 7
ENDMDL
