MODEL 1
REMARK VINA RESULT:    -5.063      0.000      0.000
REMARK INTER + INTRA:          -9.097
REMARK INTER:                  -8.022
REMARK INTRA:                  -1.075
REMARK UNBOUND:                -1.075
REMARK SMILES CCCCCCCCCCCC(=O)[O-]
REMARK SMILES IDX 7 1 8 2 9 3 10 4 11 5 12 6 13 7 14 8 6 9 5 10 4 11 3 12 2 13
REMARK SMILES IDX 1 14
REMARK H PARENT
REMARK Flexibility Score: inf
ROOT
ATOM      1  C   UNL     1      14.994  -7.565  15.511  1.00  0.00     0.000 C 
ENDROOT
BRANCH   1   2
ATOM      2  C   UNL     1      14.450  -6.273  16.133  1.00  0.00     0.000 C 
BRANCH   2   3
ATOM      3  C   UNL     1      15.476  -5.135  16.025  1.00  0.00     0.000 C 
BRANCH   3   4
ATOM      4  C   UNL     1      14.893  -3.766  16.420  1.00  0.00     0.006 C 
BRANCH   4   5
ATOM      5  C   UNL     1      13.357  -3.704  16.402  1.00  0.00     0.053 C 
BRANCH   5   6
ATOM      6  C   UNL     1      12.831  -3.160  15.108  1.00  0.00     0.041 C 
ATOM      7  O   UNL     1      13.626  -2.745  14.225  1.00  0.00    -0.550 OA
ATOM      8  O   UNL     1      11.463  -3.146  14.865  1.00  0.00    -0.550 OA
ENDBRANCH   5   6
ENDBRANCH   4   5
ENDBRANCH   3   4
ENDBRANCH   2   3
ENDBRANCH   1   2
BRANCH   1   9
ATOM      9  C   UNL     1      15.221  -7.396  14.001  1.00  0.00     0.000 C 
BRANCH   9  10
ATOM     10  C   UNL     1      13.963  -6.917  13.254  1.00  0.00    -0.000 C 
BRANCH  10  11
ATOM     11  C   UNL     1      14.179  -5.720  12.310  1.00  0.00    -0.000 C 
BRANCH  11  12
ATOM     12  C   UNL     1      15.608  -5.154  12.377  1.00  0.00    -0.000 C 
BRANCH  12  13
ATOM     13  C   UNL     1      16.506  -5.692  11.252  1.00  0.00    -0.003 C 
ATOM     14  C   UNL     1      17.896  -6.095  11.743  1.00  0.00     0.004 C 
ENDBRANCH  12  13
ENDBRANCH  11  12
ENDBRANCH  10  11
ENDBRANCH   9  10
ENDBRANCH   1   9
TORSDOF 10
ENDMDL
MODEL 2
REMARK VINA RESULT:    -4.924      2.914      4.335
REMARK INTER + INTRA:          -8.878
REMARK INTER:                  -7.552
REMARK INTRA:                  -1.327
REMARK UNBOUND:                -1.075
REMARK SMILES CCCCCCCCCCCC(=O)[O-]
REMARK SMILES IDX 7 1 8 2 9 3 10 4 11 5 12 6 13 7 14 8 6 9 5 10 4 11 3 12 2 13
REMARK SMILES IDX 1 14
REMARK H PARENT
REMARK Flexibility Score: inf
ROOT
ATOM      1  C   UNL     1      12.986  -3.011  15.103  1.00  0.00     0.000 C 
ENDROOT
BRANCH   1   2
ATOM      2  C   UNL     1      13.418  -3.869  16.298  1.00  0.00     0.000 C 
BRANCH   2   3
ATOM      3  C   UNL     1      14.626  -3.247  17.014  1.00  0.00     0.000 C 
BRANCH   3   4
ATOM      4  C   UNL     1      15.938  -3.409  16.225  1.00  0.00     0.006 C 
BRANCH   4   5
ATOM      5  C   UNL     1      17.033  -4.187  16.972  1.00  0.00     0.053 C 
BRANCH   5   6
ATOM      6  C   UNL     1      17.936  -3.279  17.750  1.00  0.00     0.041 C 
ATOM      7  O   UNL     1      17.593  -2.868  18.889  1.00  0.00    -0.550 OA
ATOM      8  O   UNL     1      19.173  -2.918  17.231  1.00  0.00    -0.550 OA
ENDBRANCH   5   6
ENDBRANCH   4   5
ENDBRANCH   3   4
ENDBRANCH   2   3
ENDBRANCH   1   2
BRANCH   1   9
ATOM      9  C   UNL     1      12.809  -3.871  13.843  1.00  0.00     0.000 C 
BRANCH   9  10
ATOM     10  C   UNL     1      14.147  -4.260  13.187  1.00  0.00    -0.000 C 
BRANCH  10  11
ATOM     11  C   UNL     1      14.375  -5.773  13.015  1.00  0.00    -0.000 C 
BRANCH  11  12
ATOM     12  C   UNL     1      15.594  -6.288  13.800  1.00  0.00    -0.000 C 
BRANCH  12  13
ATOM     13  C   UNL     1      15.266  -7.531  14.644  1.00  0.00    -0.003 C 
ATOM     14  C   UNL     1      14.807  -7.183  16.060  1.00  0.00     0.004 C 
ENDBRANCH  12  13
ENDBRANCH  11  12
ENDBRANCH  10  11
ENDBRANCH   9  10
ENDBRANCH   1   9
TORSDOF 10
ENDMDL
MODEL 3
REMARK VINA RESULT:    -4.915      2.249      4.709
REMARK INTER + INTRA:          -8.864
REMARK INTER:                  -7.825
REMARK INTRA:                  -1.040
REMARK UNBOUND:                -1.075
REMARK SMILES CCCCCCCCCCCC(=O)[O-]
REMARK SMILES IDX 7 1 8 2 9 3 10 4 11 5 12 6 13 7 14 8 6 9 5 10 4 11 3 12 2 13
REMARK SMILES IDX 1 14
REMARK H PARENT
REMARK Flexibility Score: inf
ROOT
ATOM      1  C   UNL     1      15.569  -7.828  14.780  1.00  0.00     0.000 C 
ENDROOT
BRANCH   1   2
ATOM      2  C   UNL     1      15.348  -7.288  13.361  1.00  0.00     0.000 C 
BRANCH   2   3
ATOM      3  C   UNL     1      13.914  -6.767  13.188  1.00  0.00     0.000 C 
BRANCH   3   4
ATOM      4  C   UNL     1      13.858  -5.382  12.518  1.00  0.00     0.006 C 
BRANCH   4   5
ATOM      5  C   UNL     1      14.473  -5.336  11.110  1.00  0.00     0.053 C 
BRANCH   5   6
ATOM      6  C   UNL     1      13.426  -5.323  10.038  1.00  0.00     0.041 C 
ATOM      7  O   UNL     1      13.553  -6.052   9.020  1.00  0.00    -0.550 OA
ATOM      8  O   UNL     1      12.294  -4.531  10.182  1.00  0.00    -0.550 OA
ENDBRANCH   5   6
ENDBRANCH   4   5
ENDBRANCH   3   4
ENDBRANCH   2   3
ENDBRANCH   1   2
BRANCH   1   9
ATOM      9  C   UNL     1      15.035  -6.846  15.833  1.00  0.00     0.000 C 
BRANCH   9  10
ATOM     10  C   UNL     1      16.023  -5.709  16.150  1.00  0.00    -0.000 C 
BRANCH  10  11
ATOM     11  C   UNL     1      15.620  -4.323  15.613  1.00  0.00    -0.000 C 
BRANCH  11  12
ATOM     12  C   UNL     1      14.796  -3.506  16.623  1.00  0.00    -0.000 C 
BRANCH  12  13
ATOM     13  C   UNL     1      13.286  -3.762  16.494  1.00  0.00    -0.003 C 
ATOM     14  C   UNL     1      12.705  -3.237  15.181  1.00  0.00     0.004 C 
ENDBRANCH  12  13
ENDBRANCH  11  12
ENDBRANCH  10  11
ENDBRANCH   9  10
ENDBRANCH   1   9
TORSDOF 10
ENDMDL
MODEL 4
REMARK VINA RESULT:    -4.877      3.073      5.288
REMARK INTER + INTRA:          -8.803
REMARK INTER:                  -7.631
REMARK INTRA:                  -1.172
REMARK UNBOUND:                -1.075
REMARK SMILES CCCCCCCCCCCC(=O)[O-]
REMARK SMILES IDX 7 1 8 2 9 3 10 4 11 5 12 6 13 7 14 8 6 9 5 10 4 11 3 12 2 13
REMARK SMILES IDX 1 14
REMARK H PARENT
REMARK Flexibility Score: inf
ROOT
ATOM      1  C   UNL     1      15.020  -7.484  15.339  1.00  0.00     0.000 C 
ENDROOT
BRANCH   1   2
ATOM      2  C   UNL     1      15.309  -7.478  13.833  1.00  0.00     0.000 C 
BRANCH   2   3
ATOM      3  C   UNL     1      14.669  -6.259  13.154  1.00  0.00     0.000 C 
BRANCH   3   4
ATOM      4  C   UNL     1      15.592  -5.602  12.111  1.00  0.00     0.006 C 
BRANCH   4   5
ATOM      5  C   UNL     1      16.695  -4.716  12.713  1.00  0.00     0.053 C 
BRANCH   5   6
ATOM      6  C   UNL     1      18.066  -5.236  12.403  1.00  0.00     0.041 C 
ATOM      7  O   UNL     1      18.206  -6.294  11.736  1.00  0.00    -0.550 OA
ATOM      8  O   UNL     1      19.187  -4.531  12.821  1.00  0.00    -0.550 OA
ENDBRANCH   5   6
ENDBRANCH   4   5
ENDBRANCH   3   4
ENDBRANCH   2   3
ENDBRANCH   1   2
BRANCH   1   9
ATOM      9  C   UNL     1      15.372  -6.129  15.972  1.00  0.00     0.000 C 
BRANCH   9  10
ATOM     10  C   UNL     1      16.871  -5.985  16.291  1.00  0.00    -0.000 C 
BRANCH  10  11
ATOM     11  C   UNL     1      17.377  -4.536  16.418  1.00  0.00    -0.000 C 
BRANCH  11  12
ATOM     12  C   UNL     1      16.236  -3.505  16.450  1.00  0.00    -0.000 C 
BRANCH  12  13
ATOM     13  C   UNL     1      16.246  -2.657  17.733  1.00  0.00    -0.003 C 
ATOM     14  C   UNL     1      17.449  -2.951  18.629  1.00  0.00     0.004 C 
ENDBRANCH  12  13
ENDBRANCH  11  12
ENDBRANCH  10  11
ENDBRANCH   9  10
ENDBRANCH   1   9
TORSDOF 10
ENDMDL
MODEL 5
REMARK VINA RESULT:    -4.843      2.850      3.729
REMARK INTER + INTRA:          -8.750
REMARK INTER:                  -7.451
REMARK INTRA:                  -1.299
REMARK UNBOUND:                -1.075
REMARK SMILES CCCCCCCCCCCC(=O)[O-]
REMARK SMILES IDX 7 1 8 2 9 3 10 4 11 5 12 6 13 7 14 8 6 9 5 10 4 11 3 12 2 13
REMARK SMILES IDX 1 14
REMARK H PARENT
REMARK Flexibility Score: inf
ROOT
ATOM      1  C   UNL     1      14.522  -6.625  13.880  1.00  0.00     0.000 C 
ENDROOT
BRANCH   1   2
ATOM      2  C   UNL     1      15.829  -7.092  13.227  1.00  0.00     0.000 C 
BRANCH   2   3
ATOM      3  C   UNL     1      16.723  -5.897  12.868  1.00  0.00     0.000 C 
BRANCH   3   4
ATOM      4  C   UNL     1      16.471  -4.671  13.765  1.00  0.00     0.006 C 
BRANCH   4   5
ATOM      5  C   UNL     1      17.591  -4.389  14.779  1.00  0.00     0.053 C 
BRANCH   5   6
ATOM      6  C   UNL     1      17.225  -4.834  16.162  1.00  0.00     0.041 C 
ATOM      7  O   UNL     1      16.999  -3.984  17.063  1.00  0.00    -0.550 OA
ATOM      8  O   UNL     1      17.097  -6.188  16.446  1.00  0.00    -0.550 OA
ENDBRANCH   5   6
ENDBRANCH   4   5
ENDBRANCH   3   4
ENDBRANCH   2   3
ENDBRANCH   1   2
BRANCH   1   9
ATOM      9  C   UNL     1      13.371  -6.613  12.863  1.00  0.00     0.000 C 
BRANCH   9  10
ATOM     10  C   UNL     1      12.865  -5.194  12.545  1.00  0.00    -0.000 C 
BRANCH  10  11
ATOM     11  C   UNL     1      13.441  -4.566  11.262  1.00  0.00    -0.000 C 
BRANCH  11  12
ATOM     12  C   UNL     1      12.892  -5.212   9.979  1.00  0.00    -0.000 C 
BRANCH  12  13
ATOM     13  C   UNL     1      13.988  -5.909   9.157  1.00  0.00    -0.003 C 
ATOM     14  C   UNL     1      15.391  -5.398   9.484  1.00  0.00     0.004 C 
ENDBRANCH  12  13
ENDBRANCH  11  12
ENDBRANCH  10  11
ENDBRANCH   9  10
ENDBRANCH   1   9
TORSDOF 10
ENDMDL
MODEL 6
REMARK VINA RESULT:    -4.842      1.869      3.040
REMARK INTER + INTRA:          -8.748
REMARK INTER:                  -7.505
REMARK INTRA:                  -1.243
REMARK UNBOUND:                -1.075
REMARK SMILES CCCCCCCCCCCC(=O)[O-]
REMARK SMILES IDX 7 1 8 2 9 3 10 4 11 5 12 6 13 7 14 8 6 9 5 10 4 11 3 12 2 13
REMARK SMILES IDX 1 14
REMARK H PARENT
REMARK Flexibility Score: inf
ROOT
ATOM      1  C   UNL     1      18.345  -4.800  15.439  1.00  0.00     0.000 C 
ENDROOT
BRANCH   1   2
ATOM      2  C   UNL     1      17.201  -5.147  16.399  1.00  0.00     0.000 C 
BRANCH   2   3
ATOM      3  C   UNL     1      16.336  -6.284  15.836  1.00  0.00     0.000 C 
BRANCH   3   4
ATOM      4  C   UNL     1      14.835  -5.939  15.816  1.00  0.00     0.006 C 
BRANCH   4   5
ATOM      5  C   UNL     1      14.492  -4.658  15.039  1.00  0.00     0.053 C 
BRANCH   5   6
ATOM      6  C   UNL     1      13.712  -3.686  15.870  1.00  0.00     0.041 C 
ATOM      7  O   UNL     1      14.156  -3.308  16.986  1.00  0.00    -0.550 OA
ATOM      8  O   UNL     1      12.512  -3.171  15.396  1.00  0.00    -0.550 OA
ENDBRANCH   5   6
ENDBRANCH   4   5
ENDBRANCH   3   4
ENDBRANCH   2   3
ENDBRANCH   1   2
BRANCH   1   9
ATOM      9  C   UNL     1      18.030  -3.523  14.646  1.00  0.00     0.000 C 
BRANCH   9  10
ATOM     10  C   UNL     1      17.736  -3.796  13.159  1.00  0.00    -0.000 C 
BRANCH  10  11
ATOM     11  C   UNL     1      18.546  -4.947  12.532  1.00  0.00    -0.000 C 
BRANCH  11  12
ATOM     12  C   UNL     1      17.656  -6.034  11.906  1.00  0.00    -0.000 C 
BRANCH  12  13
ATOM     13  C   UNL     1      16.278  -5.495  11.488  1.00  0.00    -0.003 C 
ATOM     14  C   UNL     1      16.028  -5.608   9.984  1.00  0.00     0.004 C 
ENDBRANCH  12  13
ENDBRANCH  11  12
ENDBRANCH  10  11
ENDBRANCH   9  10
ENDBRANCH   1   9
TORSDOF 10
ENDMDL
MODEL 7
REMARK VINA RESULT:    -4.832      2.694      3.611
REMARK INTER + INTRA:          -8.732
REMARK INTER:                  -7.740
REMARK INTRA:                  -0.992
REMARK UNBOUND:                -1.075
REMARK SMILES CCCCCCCCCCCC(=O)[O-]
REMARK SMILES IDX 7 1 8 2 9 3 10 4 11 5 12 6 13 7 14 8 6 9 5 10 4 11 3 12 2 13
REMARK SMILES IDX 1 14
REMARK H PARENT
REMARK Flexibility Score: inf
ROOT
ATOM      1  C   UNL     1      15.664  -6.955  14.205  1.00  0.00     0.000 C 
ENDROOT
BRANCH   1   2
ATOM      2  C   UNL     1      15.511  -6.613  15.692  1.00  0.00     0.000 C 
BRANCH   2   3
ATOM      3  C   UNL     1      16.804  -6.004  16.253  1.00  0.00     0.000 C 
BRANCH   3   4
ATOM      4  C   UNL     1      17.032  -4.553  15.788  1.00  0.00     0.006 C 
BRANCH   4   5
ATOM      5  C   UNL     1      18.154  -3.819  16.539  1.00  0.00     0.053 C 
BRANCH   5   6
ATOM      6  C   UNL     1      17.652  -3.138  17.776  1.00  0.00     0.041 C 
ATOM      7  O   UNL     1      16.570  -2.496  17.751  1.00  0.00    -0.550 OA
ATOM      8  O   UNL     1      18.363  -3.244  18.965  1.00  0.00    -0.550 OA
ENDBRANCH   5   6
ENDBRANCH   4   5
ENDBRANCH   3   4
ENDBRANCH   2   3
ENDBRANCH   1   2
BRANCH   1   9
ATOM      9  C   UNL     1      14.739  -6.085  13.341  1.00  0.00     0.000 C 
BRANCH   9  10
ATOM     10  C   UNL     1      15.507  -5.102  12.438  1.00  0.00    -0.000 C 
BRANCH  10  11
ATOM     11  C   UNL     1      16.280  -5.750  11.274  1.00  0.00    -0.000 C 
BRANCH  11  12
ATOM     12  C   UNL     1      17.746  -6.054  11.625  1.00  0.00    -0.000 C 
BRANCH  12  13
ATOM     13  C   UNL     1      18.410  -4.913  12.414  1.00  0.00    -0.003 C 
ATOM     14  C   UNL     1      19.852  -5.228  12.813  1.00  0.00     0.004 C 
ENDBRANCH  12  13
ENDBRANCH  11  12
ENDBRANCH  10  11
ENDBRANCH   9  10
ENDBRANCH   1   9
TORSDOF 10
ENDMDL
MODEL 8
REMARK VINA RESULT:    -4.803      2.606      5.189
REMARK INTER + INTRA:          -8.686
REMARK INTER:                  -7.265
REMARK INTRA:                  -1.420
REMARK UNBOUND:                -1.075
REMARK SMILES CCCCCCCCCCCC(=O)[O-]
REMARK SMILES IDX 7 1 8 2 9 3 10 4 11 5 12 6 13 7 14 8 6 9 5 10 4 11 3 12 2 13
REMARK SMILES IDX 1 14
REMARK H PARENT
REMARK Flexibility Score: inf
ROOT
ATOM      1  C   UNL     1      12.717  -3.072  13.562  1.00  0.00     0.000 C 
ENDROOT
BRANCH   1   2
ATOM      2  C   UNL     1      12.175  -4.361  12.932  1.00  0.00     0.000 C 
BRANCH   2   3
ATOM      3  C   UNL     1      13.094  -4.851  11.804  1.00  0.00     0.000 C 
BRANCH   3   4
ATOM      4  C   UNL     1      14.283  -5.683  12.320  1.00  0.00     0.006 C 
BRANCH   4   5
ATOM      5  C   UNL     1      15.651  -5.001  12.152  1.00  0.00     0.053 C 
BRANCH   5   6
ATOM      6  C   UNL     1      16.487  -5.668  11.103  1.00  0.00     0.041 C 
ATOM      7  O   UNL     1      16.093  -5.707   9.908  1.00  0.00    -0.550 OA
ATOM      8  O   UNL     1      17.719  -6.215  11.440  1.00  0.00    -0.550 OA
ENDBRANCH   5   6
ENDBRANCH   4   5
ENDBRANCH   3   4
ENDBRANCH   2   3
ENDBRANCH   1   2
BRANCH   1   9
ATOM      9  C   UNL     1      12.231  -2.921  15.011  1.00  0.00     0.000 C 
BRANCH   9  10
ATOM     10  C   UNL     1      13.165  -3.595  16.033  1.00  0.00    -0.000 C 
BRANCH  10  11
ATOM     11  C   UNL     1      14.667  -3.494  15.712  1.00  0.00    -0.000 C 
BRANCH  11  12
ATOM     12  C   UNL     1      15.411  -4.827  15.903  1.00  0.00    -0.000 C 
BRANCH  12  13
ATOM     13  C   UNL     1      14.452  -6.021  16.032  1.00  0.00    -0.003 C 
ATOM     14  C   UNL     1      15.063  -7.331  15.534  1.00  0.00     0.004 C 
ENDBRANCH  12  13
ENDBRANCH  11  12
ENDBRANCH  10  11
ENDBRANCH   9  10
ENDBRANCH   1   9
TORSDOF 10
ENDMDL
MODEL 9
REMARK VINA RESULT:    -4.746      1.554      3.845
REMARK INTER + INTRA:          -8.595
REMARK INTER:                  -7.270
REMARK INTRA:                  -1.325
REMARK UNBOUND:                -1.075
REMARK SMILES CCCCCCCCCCCC(=O)[O-]
REMARK SMILES IDX 7 1 8 2 9 3 10 4 11 5 12 6 13 7 14 8 6 9 5 10 4 11 3 12 2 13
REMARK SMILES IDX 1 14
REMARK H PARENT
REMARK Flexibility Score: inf
ROOT
ATOM      1  C   UNL     1      15.173  -6.510  13.250  1.00  0.00     0.000 C 
ENDROOT
BRANCH   1   2
ATOM      2  C   UNL     1      13.736  -6.399  12.728  1.00  0.00     0.000 C 
BRANCH   2   3
ATOM      3  C   UNL     1      13.274  -4.935  12.695  1.00  0.00     0.000 C 
BRANCH   3   4
ATOM      4  C   UNL     1      14.431  -3.948  12.454  1.00  0.00     0.006 C 
BRANCH   4   5
ATOM      5  C   UNL     1      14.330  -2.646  13.263  1.00  0.00     0.053 C 
BRANCH   5   6
ATOM      6  C   UNL     1      12.962  -2.040  13.188  1.00  0.00     0.041 C 
ATOM      7  O   UNL     1      12.250  -1.953  14.222  1.00  0.00    -0.550 OA
ATOM      8  O   UNL     1      12.489  -1.539  11.981  1.00  0.00    -0.550 OA
ENDBRANCH   5   6
ENDBRANCH   4   5
ENDBRANCH   3   4
ENDBRANCH   2   3
ENDBRANCH   1   2
BRANCH   1   9
ATOM      9  C   UNL     1      15.264  -7.520  14.404  1.00  0.00     0.000 C 
BRANCH   9  10
ATOM     10  C   UNL     1      14.952  -6.895  15.776  1.00  0.00    -0.000 C 
BRANCH  10  11
ATOM     11  C   UNL     1      15.263  -5.391  15.896  1.00  0.00    -0.000 C 
BRANCH  11  12
ATOM     12  C   UNL     1      14.026  -4.551  16.257  1.00  0.00    -0.000 C 
BRANCH  12  13
ATOM     13  C   UNL     1      14.392  -3.264  17.015  1.00  0.00    -0.003 C 
ATOM     14  C   UNL     1      15.901  -3.041  17.113  1.00  0.00     0.004 C 
ENDBRANCH  12  13
ENDBRANCH  11  12
ENDBRANCH  10  11
ENDBRANCH   9  10
ENDBRANCH   1   9
TORSDOF 10
ENDMDL
