MODEL 1
REMARK VINA RESULT:    -3.783      0.000      0.000
REMARK INTER + INTRA:         -12.134
REMARK INTER:                  -9.534
REMARK INTRA:                  -2.600
REMARK UNBOUND:                -2.600
REMARK SMILES CCCCCCCCCCCCCCCCCCCCCCCCCCCC(=O)[O-]
REMARK SMILES IDX 15 1 16 2 17 3 18 4 19 5 20 6 21 7 22 8 23 9 24 10 25 11
REMARK SMILES IDX 26 12 27 13 28 14 29 15 30 16 14 17 13 18 12 19 11 20 10 21
REMARK SMILES IDX 9 22 8 23 7 24 6 25 5 26 4 27 3 28 2 29 1 30
REMARK H PARENT
REMARK Flexibility Score: inf
ROOT
ATOM      1  C   UNL     1      30.425  46.842   8.741  1.00  0.00     0.000 C 
ENDROOT
BRANCH   1   2
ATOM      2  C   UNL     1      30.728  48.243   8.182  1.00  0.00     0.000 C 
BRANCH   2   3
ATOM      3  C   UNL     1      31.456  48.232   6.822  1.00  0.00     0.000 C 
BRANCH   3   4
ATOM      4  C   UNL     1      31.495  49.584   6.083  1.00  0.00     0.000 C 
BRANCH   4   5
ATOM      5  C   UNL     1      32.074  50.739   6.925  1.00  0.00     0.000 C 
BRANCH   5   6
ATOM      6  C   UNL     1      31.131  51.951   6.984  1.00  0.00     0.000 C 
BRANCH   6   7
ATOM      7  C   UNL     1      29.707  51.610   6.493  1.00  0.00     0.000 C 
BRANCH   7   8
ATOM      8  C   UNL     1      28.687  51.428   7.633  1.00  0.00     0.000 C 
BRANCH   8   9
ATOM      9  C   UNL     1      27.825  50.153   7.533  1.00  0.00     0.000 C 
BRANCH   9  10
ATOM     10  C   UNL     1      26.363  50.318   7.987  1.00  0.00     0.000 C 
BRANCH  10  11
ATOM     11  C   UNL     1      25.670  48.976   8.288  1.00  0.00     0.000 C 
BRANCH  11  12
ATOM     12  C   UNL     1      26.534  48.044   9.161  1.00  0.00     0.006 C 
BRANCH  12  13
ATOM     13  C   UNL     1      26.759  46.645   8.563  1.00  0.00     0.053 C 
BRANCH  13  14
ATOM     14  C   UNL     1      26.184  45.565   9.428  1.00  0.00     0.041 C 
ATOM     15  O   UNL     1      25.606  45.858  10.507  1.00  0.00    -0.550 OA
ATOM     16  O   UNL     1      26.260  44.238   9.031  1.00  0.00    -0.550 OA
ENDBRANCH  13  14
ENDBRANCH  12  13
ENDBRANCH  11  12
ENDBRANCH  10  11
ENDBRANCH   9  10
ENDBRANCH   8   9
ENDBRANCH   7   8
ENDBRANCH   6   7
ENDBRANCH   5   6
ENDBRANCH   4   5
ENDBRANCH   3   4
ENDBRANCH   2   3
ENDBRANCH   1   2
BRANCH   1  17
ATOM     17  C   UNL     1      30.847  45.714   7.774  1.00  0.00     0.000 C 
BRANCH  17  18
ATOM     18  C   UNL     1      29.648  45.066   7.060  1.00  0.00     0.000 C 
BRANCH  18  19
ATOM     19  C   UNL     1      30.042  43.920   6.103  1.00  0.00     0.000 C 
BRANCH  19  20
ATOM     20  C   UNL     1      29.015  42.773   6.027  1.00  0.00     0.000 C 
BRANCH  20  21
ATOM     21  C   UNL     1      29.680  41.385   6.016  1.00  0.00     0.000 C 
BRANCH  21  22
ATOM     22  C   UNL     1      29.043  40.423   7.031  1.00  0.00    -0.000 C 
BRANCH  22  23
ATOM     23  C   UNL     1      27.834  41.046   7.759  1.00  0.00    -0.000 C 
BRANCH  23  24
ATOM     24  C   UNL     1      26.996  40.017   8.543  1.00  0.00    -0.000 C 
BRANCH  24  25
ATOM     25  C   UNL     1      25.919  39.302   7.709  1.00  0.00    -0.000 C 
BRANCH  25  26
ATOM     26  C   UNL     1      25.209  38.168   8.469  1.00  0.00    -0.000 C 
BRANCH  26  27
ATOM     27  C   UNL     1      26.064  37.584   9.605  1.00  0.00    -0.000 C 
BRANCH  27  28
ATOM     28  C   UNL     1      26.006  36.047   9.653  1.00  0.00    -0.000 C 
BRANCH  28  29
ATOM     29  C   UNL     1      26.439  35.396   8.330  1.00  0.00    -0.003 C 
ATOM     30  C   UNL     1      27.932  35.065   8.289  1.00  0.00     0.004 C 
ENDBRANCH  28  29
ENDBRANCH  27  28
ENDBRANCH  26  27
ENDBRANCH  25  26
ENDBRANCH  24  25
ENDBRANCH  23  24
ENDBRANCH  22  23
ENDBRANCH  21  22
ENDBRANCH  20  21
ENDBRANCH  19  20
ENDBRANCH  18  19
ENDBRANCH  17  18
ENDBRANCH   1  17
TORSDOF 26
ENDMDL
MODEL 2
REMARK VINA RESULT:    -3.597      3.007      4.319
REMARK INTER + INTRA:         -11.664
REMARK INTER:                  -7.896
REMARK INTRA:                  -3.769
REMARK UNBOUND:                -2.600
REMARK SMILES CCCCCCCCCCCCCCCCCCCCCCCCCCCC(=O)[O-]
REMARK SMILES IDX 15 1 16 2 17 3 18 4 19 5 20 6 21 7 22 8 23 9 24 10 25 11
REMARK SMILES IDX 26 12 27 13 28 14 29 15 30 16 14 17 13 18 12 19 11 20 10 21
REMARK SMILES IDX 9 22 8 23 7 24 6 25 5 26 4 27 3 28 2 29 1 30
REMARK H PARENT
REMARK Flexibility Score: inf
ROOT
ATOM      1  C   UNL     1      30.386  45.958   8.186  1.00  0.00     0.000 C 
ENDROOT
BRANCH   1   2
ATOM      2  C   UNL     1      31.623  46.872   8.124  1.00  0.00     0.000 C 
BRANCH   2   3
ATOM      3  C   UNL     1      31.380  48.207   7.389  1.00  0.00     0.000 C 
BRANCH   3   4
ATOM      4  C   UNL     1      29.952  48.775   7.508  1.00  0.00     0.000 C 
BRANCH   4   5
ATOM      5  C   UNL     1      29.140  48.701   6.199  1.00  0.00     0.000 C 
BRANCH   5   6
ATOM      6  C   UNL     1      27.638  48.493   6.452  1.00  0.00     0.000 C 
BRANCH   6   7
ATOM      7  C   UNL     1      27.292  48.492   7.958  1.00  0.00     0.000 C 
BRANCH   7   8
ATOM      8  C   UNL     1      26.139  49.444   8.328  1.00  0.00     0.000 C 
BRANCH   8   9
ATOM      9  C   UNL     1      25.885  50.579   7.315  1.00  0.00     0.000 C 
BRANCH   9  10
ATOM     10  C   UNL     1      26.165  51.998   7.843  1.00  0.00     0.000 C 
BRANCH  10  11
ATOM     11  C   UNL     1      26.815  52.915   6.790  1.00  0.00     0.000 C 
BRANCH  11  12
ATOM     12  C   UNL     1      28.091  52.305   6.177  1.00  0.00     0.006 C 
BRANCH  12  13
ATOM     13  C   UNL     1      29.280  52.212   7.148  1.00  0.00     0.053 C 
BRANCH  13  14
ATOM     14  C   UNL     1      30.561  52.663   6.514  1.00  0.00     0.041 C 
ATOM     15  O   UNL     1      30.715  53.869   6.185  1.00  0.00    -0.550 OA
ATOM     16  O   UNL     1      31.595  51.761   6.310  1.00  0.00    -0.550 OA
ENDBRANCH  13  14
ENDBRANCH  12  13
ENDBRANCH  11  12
ENDBRANCH  10  11
ENDBRANCH   9  10
ENDBRANCH   8   9
ENDBRANCH   7   8
ENDBRANCH   6   7
ENDBRANCH   5   6
ENDBRANCH   4   5
ENDBRANCH   3   4
ENDBRANCH   2   3
ENDBRANCH   1   2
BRANCH   1  17
ATOM     17  C   UNL     1      30.228  45.090   6.920  1.00  0.00     0.000 C 
BRANCH  17  18
ATOM     18  C   UNL     1      28.773  44.647   6.683  1.00  0.00     0.000 C 
BRANCH  18  19
ATOM     19  C   UNL     1      27.825  44.980   7.856  1.00  0.00     0.000 C 
BRANCH  19  20
ATOM     20  C   UNL     1      26.969  43.792   8.339  1.00  0.00     0.000 C 
BRANCH  20  21
ATOM     21  C   UNL     1      25.493  43.921   7.923  1.00  0.00     0.000 C 
BRANCH  21  22
ATOM     22  C   UNL     1      24.991  42.686   7.159  1.00  0.00    -0.000 C 
BRANCH  22  23
ATOM     23  C   UNL     1      26.008  42.182   6.115  1.00  0.00    -0.000 C 
BRANCH  23  24
ATOM     24  C   UNL     1      26.218  40.655   6.152  1.00  0.00    -0.000 C 
BRANCH  24  25
ATOM     25  C   UNL     1      27.246  40.177   7.192  1.00  0.00    -0.000 C 
BRANCH  25  26
ATOM     26  C   UNL     1      26.606  39.650   8.487  1.00  0.00    -0.000 C 
BRANCH  26  27
ATOM     27  C   UNL     1      25.197  39.076   8.267  1.00  0.00    -0.000 C 
BRANCH  27  28
ATOM     28  C   UNL     1      25.143  37.555   8.489  1.00  0.00    -0.000 C 
BRANCH  28  29
ATOM     29  C   UNL     1      25.951  37.106   9.717  1.00  0.00    -0.003 C 
ATOM     30  C   UNL     1      26.816  35.873   9.443  1.00  0.00     0.004 C 
ENDBRANCH  28  29
ENDBRANCH  27  28
ENDBRANCH  26  27
ENDBRANCH  25  26
ENDBRANCH  24  25
ENDBRANCH  23  24
ENDBRANCH  22  23
ENDBRANCH  21  22
ENDBRANCH  20  21
ENDBRANCH  19  20
ENDBRANCH  18  19
ENDBRANCH  17  18
ENDBRANCH   1  17
TORSDOF 26
ENDMDL
MODEL 3
REMARK VINA RESULT:    -3.388      3.042     10.402
REMARK INTER + INTRA:         -11.138
REMARK INTER:                  -7.868
REMARK INTRA:                  -3.270
REMARK UNBOUND:                -2.600
REMARK SMILES CCCCCCCCCCCCCCCCCCCCCCCCCCCC(=O)[O-]
REMARK SMILES IDX 15 1 16 2 17 3 18 4 19 5 20 6 21 7 22 8 23 9 24 10 25 11
REMARK SMILES IDX 26 12 27 13 28 14 29 15 30 16 14 17 13 18 12 19 11 20 10 21
REMARK SMILES IDX 9 22 8 23 7 24 6 25 5 26 4 27 3 28 2 29 1 30
REMARK H PARENT
REMARK Flexibility Score: inf
ROOT
ATOM      1  C   UNL     1      31.185  46.630   8.126  1.00  0.00     0.000 C 
ENDROOT
BRANCH   1   2
ATOM      2  C   UNL     1      30.577  45.342   7.543  1.00  0.00     0.000 C 
BRANCH   2   3
ATOM      3  C   UNL     1      29.713  45.570   6.284  1.00  0.00     0.000 C 
BRANCH   3   4
ATOM      4  C   UNL     1      28.266  45.048   6.373  1.00  0.00     0.000 C 
BRANCH   4   5
ATOM      5  C   UNL     1      27.864  44.561   7.781  1.00  0.00     0.000 C 
BRANCH   5   6
ATOM      6  C   UNL     1      26.382  44.162   7.861  1.00  0.00     0.000 C 
BRANCH   6   7
ATOM      7  C   UNL     1      26.145  42.697   7.432  1.00  0.00     0.000 C 
BRANCH   7   8
ATOM      8  C   UNL     1      27.393  41.803   7.568  1.00  0.00     0.000 C 
BRANCH   8   9
ATOM      9  C   UNL     1      27.129  40.412   8.178  1.00  0.00     0.000 C 
BRANCH   9  10
ATOM     10  C   UNL     1      25.801  39.757   7.758  1.00  0.00     0.000 C 
BRANCH  10  11
ATOM     11  C   UNL     1      25.994  38.540   6.834  1.00  0.00     0.000 C 
BRANCH  11  12
ATOM     12  C   UNL     1      27.477  38.158   6.657  1.00  0.00     0.006 C 
BRANCH  12  13
ATOM     13  C   UNL     1      27.737  36.644   6.581  1.00  0.00     0.053 C 
BRANCH  13  14
ATOM     14  C   UNL     1      29.201  36.324   6.592  1.00  0.00     0.041 C 
ATOM     15  O   UNL     1      29.613  35.266   7.136  1.00  0.00    -0.550 OA
ATOM     16  O   UNL     1      30.107  37.177   5.978  1.00  0.00    -0.550 OA
ENDBRANCH  13  14
ENDBRANCH  12  13
ENDBRANCH  11  12
ENDBRANCH  10  11
ENDBRANCH   9  10
ENDBRANCH   8   9
ENDBRANCH   7   8
ENDBRANCH   6   7
ENDBRANCH   5   6
ENDBRANCH   4   5
ENDBRANCH   3   4
ENDBRANCH   2   3
ENDBRANCH   1   2
BRANCH   1  17
ATOM     17  C   UNL     1      30.181  47.803   8.145  1.00  0.00     0.000 C 
BRANCH  17  18
ATOM     18  C   UNL     1      29.180  47.707   9.309  1.00  0.00     0.000 C 
BRANCH  18  19
ATOM     19  C   UNL     1      27.751  48.160   8.938  1.00  0.00     0.000 C 
BRANCH  19  20
ATOM     20  C   UNL     1      27.518  48.355   7.427  1.00  0.00     0.000 C 
BRANCH  20  21
ATOM     21  C   UNL     1      26.114  48.900   7.111  1.00  0.00     0.000 C 
BRANCH  21  22
ATOM     22  C   UNL     1      25.614  49.882   8.183  1.00  0.00    -0.000 C 
BRANCH  22  23
ATOM     23  C   UNL     1      25.722  51.353   7.734  1.00  0.00    -0.000 C 
BRANCH  23  24
ATOM     24  C   UNL     1      27.050  52.022   8.143  1.00  0.00    -0.000 C 
BRANCH  24  25
ATOM     25  C   UNL     1      27.693  52.888   7.046  1.00  0.00    -0.000 C 
BRANCH  25  26
ATOM     26  C   UNL     1      29.145  52.492   6.727  1.00  0.00    -0.000 C 
BRANCH  26  27
ATOM     27  C   UNL     1      29.597  51.226   7.472  1.00  0.00    -0.000 C 
BRANCH  27  28
ATOM     28  C   UNL     1      31.086  51.269   7.853  1.00  0.00    -0.000 C 
BRANCH  28  29
ATOM     29  C   UNL     1      32.003  51.488   6.639  1.00  0.00    -0.003 C 
ATOM     30  C   UNL     1      32.703  52.849   6.659  1.00  0.00     0.004 C 
ENDBRANCH  28  29
ENDBRANCH  27  28
ENDBRANCH  26  27
ENDBRANCH  25  26
ENDBRANCH  24  25
ENDBRANCH  23  24
ENDBRANCH  22  23
ENDBRANCH  21  22
ENDBRANCH  20  21
ENDBRANCH  19  20
ENDBRANCH  18  19
ENDBRANCH  17  18
ENDBRANCH   1  17
TORSDOF 26
ENDMDL
MODEL 4
REMARK VINA RESULT:    -3.190      2.613      9.787
REMARK INTER + INTRA:         -10.638
REMARK INTER:                  -7.101
REMARK INTRA:                  -3.537
REMARK UNBOUND:                -2.600
REMARK SMILES CCCCCCCCCCCCCCCCCCCCCCCCCCCC(=O)[O-]
REMARK SMILES IDX 15 1 16 2 17 3 18 4 19 5 20 6 21 7 22 8 23 9 24 10 25 11
REMARK SMILES IDX 26 12 27 13 28 14 29 15 30 16 14 17 13 18 12 19 11 20 10 21
REMARK SMILES IDX 9 22 8 23 7 24 6 25 5 26 4 27 3 28 2 29 1 30
REMARK H PARENT
REMARK Flexibility Score: inf
ROOT
ATOM      1  C   UNL     1      29.904  47.796   9.341  1.00  0.00     0.000 C 
ENDROOT
BRANCH   1   2
ATOM      2  C   UNL     1      29.921  46.514   8.490  1.00  0.00     0.000 C 
BRANCH   2   3
ATOM      3  C   UNL     1      30.783  46.620   7.214  1.00  0.00     0.000 C 
BRANCH   3   4
ATOM      4  C   UNL     1      30.005  46.560   5.885  1.00  0.00     0.000 C 
BRANCH   4   5
ATOM      5  C   UNL     1      28.479  46.420   6.061  1.00  0.00     0.000 C 
BRANCH   5   6
ATOM      6  C   UNL     1      27.999  44.972   5.875  1.00  0.00     0.000 C 
BRANCH   6   7
ATOM      7  C   UNL     1      27.407  44.379   7.173  1.00  0.00     0.000 C 
BRANCH   7   8
ATOM      8  C   UNL     1      25.993  43.793   6.997  1.00  0.00     0.000 C 
BRANCH   8   9
ATOM      9  C   UNL     1      25.833  42.334   7.471  1.00  0.00     0.000 C 
BRANCH   9  10
ATOM     10  C   UNL     1      27.147  41.541   7.592  1.00  0.00     0.000 C 
BRANCH  10  11
ATOM     11  C   UNL     1      27.015  40.287   8.475  1.00  0.00     0.000 C 
BRANCH  11  12
ATOM     12  C   UNL     1      26.524  39.055   7.690  1.00  0.00     0.006 C 
BRANCH  12  13
ATOM     13  C   UNL     1      25.363  38.298   8.357  1.00  0.00     0.053 C 
BRANCH  13  14
ATOM     14  C   UNL     1      25.845  37.139   9.176  1.00  0.00     0.041 C 
ATOM     15  O   UNL     1      25.395  36.954  10.337  1.00  0.00    -0.550 OA
ATOM     16  O   UNL     1      26.769  36.248   8.649  1.00  0.00    -0.550 OA
ENDBRANCH  13  14
ENDBRANCH  12  13
ENDBRANCH  11  12
ENDBRANCH  10  11
ENDBRANCH   9  10
ENDBRANCH   8   9
ENDBRANCH   7   8
ENDBRANCH   6   7
ENDBRANCH   5   6
ENDBRANCH   4   5
ENDBRANCH   3   4
ENDBRANCH   2   3
ENDBRANCH   1   2
BRANCH   1  17
ATOM     17  C   UNL     1      28.548  48.531   9.277  1.00  0.00     0.000 C 
BRANCH  17  18
ATOM     18  C   UNL     1      27.355  47.565   9.167  1.00  0.00     0.000 C 
BRANCH  18  19
ATOM     19  C   UNL     1      26.053  48.240   8.680  1.00  0.00     0.000 C 
BRANCH  19  20
ATOM     20  C   UNL     1      26.239  49.679   8.162  1.00  0.00     0.000 C 
BRANCH  20  21
ATOM     21  C   UNL     1      25.344  49.990   6.950  1.00  0.00     0.000 C 
BRANCH  21  22
ATOM     22  C   UNL     1      25.122  51.499   6.758  1.00  0.00    -0.000 C 
BRANCH  22  23
ATOM     23  C   UNL     1      26.275  52.173   5.988  1.00  0.00    -0.000 C 
BRANCH  23  24
ATOM     24  C   UNL     1      27.258  52.934   6.901  1.00  0.00    -0.000 C 
BRANCH  24  25
ATOM     25  C   UNL     1      28.440  53.587   6.162  1.00  0.00    -0.000 C 
BRANCH  25  26
ATOM     26  C   UNL     1      29.742  52.774   6.254  1.00  0.00    -0.000 C 
BRANCH  26  27
ATOM     27  C   UNL     1      29.614  51.540   7.161  1.00  0.00    -0.000 C 
BRANCH  27  28
ATOM     28  C   UNL     1      30.013  50.240   6.443  1.00  0.00    -0.000 C 
BRANCH  28  29
ATOM     29  C   UNL     1      31.534  50.088   6.293  1.00  0.00    -0.003 C 
ATOM     30  C   UNL     1      32.271  50.112   7.634  1.00  0.00     0.004 C 
ENDBRANCH  28  29
ENDBRANCH  27  28
ENDBRANCH  26  27
ENDBRANCH  25  26
ENDBRANCH  24  25
ENDBRANCH  23  24
ENDBRANCH  22  23
ENDBRANCH  21  22
ENDBRANCH  20  21
ENDBRANCH  19  20
ENDBRANCH  18  19
ENDBRANCH  17  18
ENDBRANCH   1  17
TORSDOF 26
ENDMDL
MODEL 5
REMARK VINA RESULT:    -3.099      2.944      9.960
REMARK INTER + INTRA:         -10.409
REMARK INTER:                  -7.668
REMARK INTRA:                  -2.741
REMARK UNBOUND:                -2.600
REMARK SMILES CCCCCCCCCCCCCCCCCCCCCCCCCCCC(=O)[O-]
REMARK SMILES IDX 15 1 16 2 17 3 18 4 19 5 20 6 21 7 22 8 23 9 24 10 25 11
REMARK SMILES IDX 26 12 27 13 28 14 29 15 30 16 14 17 13 18 12 19 11 20 10 21
REMARK SMILES IDX 9 22 8 23 7 24 6 25 5 26 4 27 3 28 2 29 1 30
REMARK H PARENT
REMARK Flexibility Score: inf
ROOT
ATOM      1  C   UNL     1      30.218  45.340   7.199  1.00  0.00     0.000 C 
ENDROOT
BRANCH   1   2
ATOM      2  C   UNL     1      29.498  44.598   6.059  1.00  0.00     0.000 C 
BRANCH   2   3
ATOM      3  C   UNL     1      28.006  44.320   6.335  1.00  0.00     0.000 C 
BRANCH   3   4
ATOM      4  C   UNL     1      27.706  42.999   7.071  1.00  0.00     0.000 C 
BRANCH   4   5
ATOM      5  C   UNL     1      26.412  43.033   7.910  1.00  0.00     0.000 C 
BRANCH   5   6
ATOM      6  C   UNL     1      25.255  42.282   7.233  1.00  0.00     0.000 C 
BRANCH   6   7
ATOM      7  C   UNL     1      25.726  41.447   6.022  1.00  0.00     0.000 C 
BRANCH   7   8
ATOM      8  C   UNL     1      25.354  39.955   6.117  1.00  0.00     0.000 C 
BRANCH   8   9
ATOM      9  C   UNL     1      26.376  39.080   6.871  1.00  0.00     0.000 C 
BRANCH   9  10
ATOM     10  C   UNL     1      26.263  39.122   8.406  1.00  0.00     0.000 C 
BRANCH  10  11
ATOM     11  C   UNL     1      25.184  38.173   8.957  1.00  0.00     0.000 C 
BRANCH  11  12
ATOM     12  C   UNL     1      25.024  36.897   8.108  1.00  0.00     0.006 C 
BRANCH  12  13
ATOM     13  C   UNL     1      25.667  35.642   8.722  1.00  0.00     0.053 C 
BRANCH  13  14
ATOM     14  C   UNL     1      26.995  35.329   8.102  1.00  0.00     0.041 C 
ATOM     15  O   UNL     1      28.008  35.156   8.829  1.00  0.00    -0.550 OA
ATOM     16  O   UNL     1      27.110  35.202   6.725  1.00  0.00    -0.550 OA
ENDBRANCH  13  14
ENDBRANCH  12  13
ENDBRANCH  11  12
ENDBRANCH  10  11
ENDBRANCH   9  10
ENDBRANCH   8   9
ENDBRANCH   7   8
ENDBRANCH   6   7
ENDBRANCH   5   6
ENDBRANCH   4   5
ENDBRANCH   3   4
ENDBRANCH   2   3
ENDBRANCH   1   2
BRANCH   1  17
ATOM     17  C   UNL     1      30.102  46.874   7.073  1.00  0.00     0.000 C 
BRANCH  17  18
ATOM     18  C   UNL     1      30.833  47.618   8.204  1.00  0.00     0.000 C 
BRANCH  18  19
ATOM     19  C   UNL     1      32.025  48.471   7.717  1.00  0.00     0.000 C 
BRANCH  19  20
ATOM     20  C   UNL     1      31.809  49.993   7.836  1.00  0.00     0.000 C 
BRANCH  20  21
ATOM     21  C   UNL     1      30.484  50.452   7.203  1.00  0.00     0.000 C 
BRANCH  21  22
ATOM     22  C   UNL     1      29.501  51.010   8.244  1.00  0.00    -0.000 C 
BRANCH  22  23
ATOM     23  C   UNL     1      28.632  52.155   7.684  1.00  0.00    -0.000 C 
BRANCH  23  24
ATOM     24  C   UNL     1      27.216  52.202   8.291  1.00  0.00    -0.000 C 
BRANCH  24  25
ATOM     25  C   UNL     1      26.087  51.846   7.308  1.00  0.00    -0.000 C 
BRANCH  25  26
ATOM     26  C   UNL     1      26.089  50.367   6.886  1.00  0.00    -0.000 C 
BRANCH  26  27
ATOM     27  C   UNL     1      25.731  49.416   8.039  1.00  0.00    -0.000 C 
BRANCH  27  28
ATOM     28  C   UNL     1      26.249  47.987   7.803  1.00  0.00    -0.000 C 
BRANCH  28  29
ATOM     29  C   UNL     1      27.051  47.442   8.995  1.00  0.00    -0.003 C 
ATOM     30  C   UNL     1      26.407  46.209   9.634  1.00  0.00     0.004 C 
ENDBRANCH  28  29
ENDBRANCH  27  28
ENDBRANCH  26  27
ENDBRANCH  25  26
ENDBRANCH  24  25
ENDBRANCH  23  24
ENDBRANCH  22  23
ENDBRANCH  21  22
ENDBRANCH  20  21
ENDBRANCH  19  20
ENDBRANCH  18  19
ENDBRANCH  17  18
ENDBRANCH   1  17
TORSDOF 26
ENDMDL
MODEL 6
REMARK VINA RESULT:    -3.036      2.805      4.316
REMARK INTER + INTRA:         -10.250
REMARK INTER:                  -7.367
REMARK INTRA:                  -2.883
REMARK UNBOUND:                -2.600
REMARK SMILES CCCCCCCCCCCCCCCCCCCCCCCCCCCC(=O)[O-]
REMARK SMILES IDX 15 1 16 2 17 3 18 4 19 5 20 6 21 7 22 8 23 9 24 10 25 11
REMARK SMILES IDX 26 12 27 13 28 14 29 15 30 16 14 17 13 18 12 19 11 20 10 21
REMARK SMILES IDX 9 22 8 23 7 24 6 25 5 26 4 27 3 28 2 29 1 30
REMARK H PARENT
REMARK Flexibility Score: inf
ROOT
ATOM      1  C   UNL     1      30.686  46.126   8.036  1.00  0.00     0.000 C 
ENDROOT
BRANCH   1   2
ATOM      2  C   UNL     1      29.750  47.341   7.908  1.00  0.00     0.000 C 
BRANCH   2   3
ATOM      3  C   UNL     1      29.467  47.764   6.451  1.00  0.00     0.000 C 
BRANCH   3   4
ATOM      4  C   UNL     1      28.080  48.387   6.202  1.00  0.00     0.000 C 
BRANCH   4   5
ATOM      5  C   UNL     1      26.925  47.364   6.212  1.00  0.00     0.000 C 
BRANCH   5   6
ATOM      6  C   UNL     1      26.125  47.398   7.524  1.00  0.00     0.000 C 
BRANCH   6   7
ATOM      7  C   UNL     1      26.300  48.731   8.284  1.00  0.00     0.000 C 
BRANCH   7   8
ATOM      8  C   UNL     1      25.339  49.841   7.817  1.00  0.00     0.000 C 
BRANCH   8   9
ATOM      9  C   UNL     1      25.839  51.278   8.065  1.00  0.00     0.000 C 
BRANCH   9  10
ATOM     10  C   UNL     1      27.216  51.603   7.457  1.00  0.00     0.000 C 
BRANCH  10  11
ATOM     11  C   UNL     1      28.274  51.960   8.517  1.00  0.00     0.000 C 
BRANCH  11  12
ATOM     12  C   UNL     1      29.549  51.103   8.397  1.00  0.00     0.006 C 
BRANCH  12  13
ATOM     13  C   UNL     1      30.258  51.207   7.036  1.00  0.00     0.053 C 
BRANCH  13  14
ATOM     14  C   UNL     1      31.709  51.552   7.183  1.00  0.00     0.041 C 
ATOM     15  O   UNL     1      32.095  52.741   7.032  1.00  0.00    -0.550 OA
ATOM     16  O   UNL     1      32.631  50.569   7.512  1.00  0.00    -0.550 OA
ENDBRANCH  13  14
ENDBRANCH  12  13
ENDBRANCH  11  12
ENDBRANCH  10  11
ENDBRANCH   9  10
ENDBRANCH   8   9
ENDBRANCH   7   8
ENDBRANCH   6   7
ENDBRANCH   5   6
ENDBRANCH   4   5
ENDBRANCH   3   4
ENDBRANCH   2   3
ENDBRANCH   1   2
BRANCH   1  17
ATOM     17  C   UNL     1      30.357  45.014   7.017  1.00  0.00     0.000 C 
BRANCH  17  18
ATOM     18  C   UNL     1      28.922  44.478   7.168  1.00  0.00     0.000 C 
BRANCH  18  19
ATOM     19  C   UNL     1      28.550  43.400   6.126  1.00  0.00     0.000 C 
BRANCH  19  20
ATOM     20  C   UNL     1      28.184  42.030   6.731  1.00  0.00     0.000 C 
BRANCH  20  21
ATOM     21  C   UNL     1      26.725  41.971   7.217  1.00  0.00     0.000 C 
BRANCH  21  22
ATOM     22  C   UNL     1      26.397  40.646   7.924  1.00  0.00    -0.000 C 
BRANCH  22  23
ATOM     23  C   UNL     1      25.121  39.980   7.371  1.00  0.00    -0.000 C 
BRANCH  23  24
ATOM     24  C   UNL     1      25.376  38.593   6.747  1.00  0.00    -0.000 C 
BRANCH  24  25
ATOM     25  C   UNL     1      26.830  38.347   6.309  1.00  0.00    -0.000 C 
BRANCH  25  26
ATOM     26  C   UNL     1      27.117  36.882   5.936  1.00  0.00    -0.000 C 
BRANCH  26  27
ATOM     27  C   UNL     1      27.697  36.071   7.105  1.00  0.00    -0.000 C 
BRANCH  27  28
ATOM     28  C   UNL     1      26.603  35.421   7.969  1.00  0.00    -0.000 C 
BRANCH  28  29
ATOM     29  C   UNL     1      26.748  35.758   9.461  1.00  0.00    -0.003 C 
ATOM     30  C   UNL     1      26.080  37.081   9.842  1.00  0.00     0.004 C 
ENDBRANCH  28  29
ENDBRANCH  27  28
ENDBRANCH  26  27
ENDBRANCH  25  26
ENDBRANCH  24  25
ENDBRANCH  23  24
ENDBRANCH  22  23
ENDBRANCH  21  22
ENDBRANCH  20  21
ENDBRANCH  19  20
ENDBRANCH  18  19
ENDBRANCH  17  18
ENDBRANCH   1  17
TORSDOF 26
ENDMDL
MODEL 7
REMARK VINA RESULT:    -2.890      1.974      4.163
REMARK INTER + INTRA:          -9.883
REMARK INTER:                  -7.837
REMARK INTRA:                  -2.046
REMARK UNBOUND:                -2.600
REMARK SMILES CCCCCCCCCCCCCCCCCCCCCCCCCCCC(=O)[O-]
REMARK SMILES IDX 15 1 16 2 17 3 18 4 19 5 20 6 21 7 22 8 23 9 24 10 25 11
REMARK SMILES IDX 26 12 27 13 28 14 29 15 30 16 14 17 13 18 12 19 11 20 10 21
REMARK SMILES IDX 9 22 8 23 7 24 6 25 5 26 4 27 3 28 2 29 1 30
REMARK H PARENT
REMARK Flexibility Score: inf
ROOT
ATOM      1  C   UNL     1      28.401  46.312   6.903  1.00  0.00     0.000 C 
ENDROOT
BRANCH   1   2
ATOM      2  C   UNL     1      26.909  46.112   6.582  1.00  0.00     0.000 C 
BRANCH   2   3
ATOM      3  C   UNL     1      25.962  46.486   7.742  1.00  0.00     0.000 C 
BRANCH   3   4
ATOM      4  C   UNL     1      26.530  47.497   8.757  1.00  0.00     0.000 C 
BRANCH   4   5
ATOM      5  C   UNL     1      26.015  48.937   8.557  1.00  0.00     0.000 C 
BRANCH   5   6
ATOM      6  C   UNL     1      26.795  49.694   7.471  1.00  0.00     0.000 C 
BRANCH   6   7
ATOM      7  C   UNL     1      27.385  51.024   7.991  1.00  0.00     0.000 C 
BRANCH   7   8
ATOM      8  C   UNL     1      27.211  52.202   7.014  1.00  0.00     0.000 C 
BRANCH   8   9
ATOM      9  C   UNL     1      28.528  52.811   6.493  1.00  0.00     0.000 C 
BRANCH   9  10
ATOM     10  C   UNL     1      29.621  51.789   6.133  1.00  0.00     0.000 C 
BRANCH  10  11
ATOM     11  C   UNL     1      30.870  51.902   7.026  1.00  0.00     0.000 C 
BRANCH  11  12
ATOM     12  C   UNL     1      31.982  50.915   6.621  1.00  0.00     0.006 C 
BRANCH  12  13
ATOM     13  C   UNL     1      32.371  49.912   7.720  1.00  0.00     0.053 C 
BRANCH  13  14
ATOM     14  C   UNL     1      31.427  48.750   7.780  1.00  0.00     0.041 C 
ATOM     15  O   UNL     1      31.786  47.619   7.358  1.00  0.00    -0.550 OA
ATOM     16  O   UNL     1      30.161  48.906   8.328  1.00  0.00    -0.550 OA
ENDBRANCH  13  14
ENDBRANCH  12  13
ENDBRANCH  11  12
ENDBRANCH  10  11
ENDBRANCH   9  10
ENDBRANCH   8   9
ENDBRANCH   7   8
ENDBRANCH   6   7
ENDBRANCH   5   6
ENDBRANCH   4   5
ENDBRANCH   3   4
ENDBRANCH   2   3
ENDBRANCH   1   2
BRANCH   1  17
ATOM     17  C   UNL     1      29.071  45.024   7.429  1.00  0.00     0.000 C 
BRANCH  17  18
ATOM     18  C   UNL     1      29.941  44.331   6.366  1.00  0.00     0.000 C 
BRANCH  18  19
ATOM     19  C   UNL     1      29.436  42.926   5.970  1.00  0.00     0.000 C 
BRANCH  19  20
ATOM     20  C   UNL     1      27.987  42.626   6.404  1.00  0.00     0.000 C 
BRANCH  20  21
ATOM     21  C   UNL     1      27.720  41.119   6.564  1.00  0.00     0.000 C 
BRANCH  21  22
ATOM     22  C   UNL     1      26.328  40.830   7.148  1.00  0.00    -0.000 C 
BRANCH  22  23
ATOM     23  C   UNL     1      26.083  39.325   7.378  1.00  0.00    -0.000 C 
BRANCH  23  24
ATOM     24  C   UNL     1      26.450  38.856   8.800  1.00  0.00    -0.000 C 
BRANCH  24  25
ATOM     25  C   UNL     1      25.603  37.684   9.324  1.00  0.00    -0.000 C 
BRANCH  25  26
ATOM     26  C   UNL     1      26.428  36.424   9.638  1.00  0.00    -0.000 C 
BRANCH  26  27
ATOM     27  C   UNL     1      26.417  35.401   8.491  1.00  0.00    -0.000 C 
BRANCH  27  28
ATOM     28  C   UNL     1      27.487  35.699   7.427  1.00  0.00    -0.000 C 
BRANCH  28  29
ATOM     29  C   UNL     1      28.768  34.876   7.628  1.00  0.00    -0.003 C 
ATOM     30  C   UNL     1      30.022  35.590   7.117  1.00  0.00     0.004 C 
ENDBRANCH  28  29
ENDBRANCH  27  28
ENDBRANCH  26  27
ENDBRANCH  25  26
ENDBRANCH  24  25
ENDBRANCH  23  24
ENDBRANCH  22  23
ENDBRANCH  21  22
ENDBRANCH  20  21
ENDBRANCH  19  20
ENDBRANCH  18  19
ENDBRANCH  17  18
ENDBRANCH   1  17
TORSDOF 26
ENDMDL
MODEL 8
REMARK VINA RESULT:    -2.834      1.600      3.504
REMARK INTER + INTRA:          -9.742
REMARK INTER:                  -7.046
REMARK INTRA:                  -2.696
REMARK UNBOUND:                -2.600
REMARK SMILES CCCCCCCCCCCCCCCCCCCCCCCCCCCC(=O)[O-]
REMARK SMILES IDX 15 1 16 2 17 3 18 4 19 5 20 6 21 7 22 8 23 9 24 10 25 11
REMARK SMILES IDX 26 12 27 13 28 14 29 15 30 16 14 17 13 18 12 19 11 20 10 21
REMARK SMILES IDX 9 22 8 23 7 24 6 25 5 26 4 27 3 28 2 29 1 30
REMARK H PARENT
REMARK Flexibility Score: inf
ROOT
ATOM      1  C   UNL     1      31.734  50.784   7.598  1.00  0.00     0.000 C 
ENDROOT
BRANCH   1   2
ATOM      2  C   UNL     1      31.250  51.030   6.158  1.00  0.00     0.000 C 
BRANCH   2   3
ATOM      3  C   UNL     1      29.717  50.976   5.994  1.00  0.00     0.000 C 
BRANCH   3   4
ATOM      4  C   UNL     1      28.908  51.640   7.126  1.00  0.00     0.000 C 
BRANCH   4   5
ATOM      5  C   UNL     1      27.924  52.722   6.637  1.00  0.00     0.000 C 
BRANCH   5   6
ATOM      6  C   UNL     1      27.052  53.278   7.774  1.00  0.00     0.000 C 
BRANCH   6   7
ATOM      7  C   UNL     1      25.747  52.472   7.959  1.00  0.00     0.000 C 
BRANCH   7   8
ATOM      8  C   UNL     1      25.011  52.175   6.639  1.00  0.00     0.000 C 
BRANCH   8   9
ATOM      9  C   UNL     1      24.993  50.689   6.228  1.00  0.00     0.000 C 
BRANCH   9  10
ATOM     10  C   UNL     1      25.063  49.689   7.396  1.00  0.00     0.000 C 
BRANCH  10  11
ATOM     11  C   UNL     1      26.431  48.992   7.511  1.00  0.00     0.000 C 
BRANCH  11  12
ATOM     12  C   UNL     1      26.518  48.051   8.730  1.00  0.00     0.006 C 
BRANCH  12  13
ATOM     13  C   UNL     1      25.418  46.978   8.782  1.00  0.00     0.053 C 
BRANCH  13  14
ATOM     14  C   UNL     1      25.416  46.237  10.085  1.00  0.00     0.041 C 
ATOM     15  O   UNL     1      24.875  46.745  11.102  1.00  0.00    -0.550 OA
ATOM     16  O   UNL     1      25.988  44.976  10.172  1.00  0.00    -0.550 OA
ENDBRANCH  13  14
ENDBRANCH  12  13
ENDBRANCH  11  12
ENDBRANCH  10  11
ENDBRANCH   9  10
ENDBRANCH   8   9
ENDBRANCH   7   8
ENDBRANCH   6   7
ENDBRANCH   5   6
ENDBRANCH   4   5
ENDBRANCH   3   4
ENDBRANCH   2   3
ENDBRANCH   1   2
BRANCH   1  17
ATOM     17  C   UNL     1      32.428  49.415   7.764  1.00  0.00     0.000 C 
BRANCH  17  18
ATOM     18  C   UNL     1      31.504  48.236   7.408  1.00  0.00     0.000 C 
BRANCH  18  19
ATOM     19  C   UNL     1      31.020  47.435   8.637  1.00  0.00     0.000 C 
BRANCH  19  20
ATOM     20  C   UNL     1      29.812  46.518   8.362  1.00  0.00     0.000 C 
BRANCH  20  21
ATOM     21  C   UNL     1      29.603  46.251   6.861  1.00  0.00     0.000 C 
BRANCH  21  22
ATOM     22  C   UNL     1      29.278  44.777   6.569  1.00  0.00    -0.000 C 
BRANCH  22  23
ATOM     23  C   UNL     1      27.767  44.528   6.390  1.00  0.00    -0.000 C 
BRANCH  23  24
ATOM     24  C   UNL     1      27.144  43.695   7.529  1.00  0.00    -0.000 C 
BRANCH  24  25
ATOM     25  C   UNL     1      26.874  42.224   7.169  1.00  0.00    -0.000 C 
BRANCH  25  26
ATOM     26  C   UNL     1      25.391  41.829   7.284  1.00  0.00    -0.000 C 
BRANCH  26  27
ATOM     27  C   UNL     1      25.187  40.314   7.442  1.00  0.00    -0.000 C 
BRANCH  27  28
ATOM     28  C   UNL     1      26.515  39.538   7.422  1.00  0.00    -0.000 C 
BRANCH  28  29
ATOM     29  C   UNL     1      26.341  38.056   7.790  1.00  0.00    -0.003 C 
ATOM     30  C   UNL     1      25.109  37.798   8.660  1.00  0.00     0.004 C 
ENDBRANCH  28  29
ENDBRANCH  27  28
ENDBRANCH  26  27
ENDBRANCH  25  26
ENDBRANCH  24  25
ENDBRANCH  23  24
ENDBRANCH  22  23
ENDBRANCH  21  22
ENDBRANCH  20  21
ENDBRANCH  19  20
ENDBRANCH  18  19
ENDBRANCH  17  18
ENDBRANCH   1  17
TORSDOF 26
ENDMDL
