MODEL 1
REMARK VINA RESULT:    -4.530      0.000      0.000
REMARK INTER + INTRA:          -9.889
REMARK INTER:                  -7.973
REMARK INTRA:                  -1.917
REMARK UNBOUND:                -1.917
REMARK SMILES COc1cc(-c2[o+]c3cc(O)cc(O[C@H]4O[C@H](CO)[C@@H](O)[C@H](O)[C@H]4O)c3cc2O[C@@H]2O[C@H](CO)[C@H](O)[C@H](O)[C@@H]2O)ccc1O
REMARK SMILES IDX 6 1 28 2 27 3 26 4 13 5 12 6 10 7 9 8 8 9 7 10 5 11 3 12
REMARK SMILES IDX 43 13 4 14 42 15 41 16 2 17 1 18 44 19 29 21 30 22 39 23
REMARK SMILES IDX 31 24 37 25 32 26 35 27 40 28 38 30 33 32 34 33 36 35 14 37
REMARK SMILES IDX 15 38 24 39 16 40 22 41 17 42 20 43 25 44 23 46 18 48 19 49
REMARK SMILES IDX 21 51 11 53
REMARK H PARENT 44 20 40 29 38 31 34 34 36 36 25 45 23 47 19 50 21 52 11 54
REMARK Flexibility Score: inf
ROOT
ATOM      1  C   UNL     1      16.520  48.322  75.008  1.00  0.00     0.402 A 
ATOM      2  C   UNL     1      17.454  47.285  74.813  1.00  0.00     0.229 A 
ATOM      3  C   UNL     1      18.291  46.962  75.881  1.00  0.00     0.079 A 
ATOM      4  C   UNL     1      18.238  47.692  77.075  1.00  0.00     0.126 A 
ATOM      5  C   UNL     1      18.991  47.328  78.211  1.00  0.00     0.143 A 
ATOM      6  C   UNL     1      18.952  48.134  79.359  1.00  0.00     0.094 A 
ATOM      7  C   UNL     1      18.155  49.284  79.388  1.00  0.00     0.128 A 
ATOM      8  C   UNL     1      17.354  49.606  78.284  1.00  0.00     0.162 A 
ATOM      9  C   UNL     1      17.367  48.799  77.145  1.00  0.00     0.368 A 
ATOM     10  O   UNL     1      16.536  49.051  76.134  1.00  0.00    -0.202 OA
ENDROOT
BRANCH   1  11
ATOM     11  C   UNL     1      15.465  48.567  74.019  1.00  0.00     0.087 A 
ATOM     12  C   UNL     1      13.149  48.233  73.322  1.00  0.00     0.161 A 
ATOM     13  C   UNL     1      13.401  49.029  72.185  1.00  0.00     0.157 A 
ATOM     14  C   UNL     1      14.194  48.024  74.234  1.00  0.00     0.068 A 
ATOM     15  C   UNL     1      14.681  49.568  71.959  1.00  0.00     0.051 A 
ATOM     16  C   UNL     1      15.711  49.347  72.880  1.00  0.00     0.022 A 
BRANCH  12  17
ATOM     17  O   UNL     1      11.869  47.691  73.512  1.00  0.00    -0.493 OA
ATOM     18  C   UNL     1      11.325  47.327  74.776  1.00  0.00     0.278 C 
ENDBRANCH  12  17
BRANCH  13  19
ATOM     19  O   UNL     1      12.381  49.316  71.274  1.00  0.00    -0.504 OA
ATOM     20  H   UNL     1      11.489  49.712  71.567  1.00  0.00     0.293 HD
ENDBRANCH  13  19
ENDBRANCH   1  11
BRANCH   2  21
ATOM     21  O   UNL     1      17.521  46.612  73.577  1.00  0.00    -0.452 OA
BRANCH  21  22
ATOM     22  C   UNL     1      16.996  45.305  73.354  1.00  0.00     0.339 C 
ATOM     23  C   UNL     1      18.131  44.270  73.416  1.00  0.00     0.214 C 
ATOM     24  O   UNL     1      16.018  45.016  74.338  1.00  0.00    -0.332 OA
ATOM     25  C   UNL     1      17.546  42.848  73.216  1.00  0.00     0.180 C 
ATOM     26  C   UNL     1      15.344  43.802  74.039  1.00  0.00     0.179 C 
ATOM     27  C   UNL     1      16.313  42.589  74.099  1.00  0.00     0.177 C 
BRANCH  23  28
ATOM     28  O   UNL     1      18.822  44.380  74.636  1.00  0.00    -0.384 OA
ATOM     29  H   UNL     1      19.269  43.513  74.785  1.00  0.00     0.211 HD
ENDBRANCH  23  28
BRANCH  25  30
ATOM     30  O   UNL     1      18.531  41.880  73.453  1.00  0.00    -0.387 OA
ATOM     31  H   UNL     1      18.503  41.255  72.687  1.00  0.00     0.211 HD
ENDBRANCH  25  30
BRANCH  26  32
ATOM     32  C   UNL     1      14.153  43.633  74.997  1.00  0.00     0.191 C 
BRANCH  32  33
ATOM     33  O   UNL     1      13.760  44.862  75.530  1.00  0.00    -0.394 OA
ATOM     34  H   UNL     1      14.603  45.369  75.679  1.00  0.00     0.210 HD
ENDBRANCH  32  33
ENDBRANCH  26  32
BRANCH  27  35
ATOM     35  O   UNL     1      16.693  42.262  75.417  1.00  0.00    -0.387 OA
ATOM     36  H   UNL     1      17.168  41.395  75.403  1.00  0.00     0.211 HD
ENDBRANCH  27  35
ENDBRANCH  21  22
ENDBRANCH   2  21
BRANCH   5  37
ATOM     37  O   UNL     1      19.741  46.144  78.178  1.00  0.00    -0.461 OA
BRANCH  37  38
ATOM     38  C   UNL     1      19.156  44.852  78.284  1.00  0.00     0.339 C 
ATOM     39  C   UNL     1      18.632  44.656  79.721  1.00  0.00     0.214 C 
ATOM     40  O   UNL     1      20.123  43.868  77.974  1.00  0.00    -0.332 OA
ATOM     41  C   UNL     1      18.292  43.168  80.015  1.00  0.00     0.180 C 
ATOM     42  C   UNL     1      19.612  42.535  77.962  1.00  0.00     0.179 C 
ATOM     43  C   UNL     1      18.280  42.322  78.739  1.00  0.00     0.177 C 
BRANCH  39  44
ATOM     44  O   UNL     1      19.609  45.114  80.638  1.00  0.00    -0.384 OA
ATOM     45  H   UNL     1      20.317  45.545  80.095  1.00  0.00     0.211 HD
ENDBRANCH  39  44
BRANCH  41  46
ATOM     46  O   UNL     1      17.039  43.071  80.643  1.00  0.00    -0.387 OA
ATOM     47  H   UNL     1      16.467  42.489  80.070  1.00  0.00     0.211 HD
ENDBRANCH  41  46
BRANCH  42  48
ATOM     48  C   UNL     1      19.531  42.028  76.513  1.00  0.00     0.191 C 
BRANCH  48  49
ATOM     49  O   UNL     1      18.805  40.830  76.442  1.00  0.00    -0.394 OA
ATOM     50  H   UNL     1      19.082  40.364  75.614  1.00  0.00     0.210 HD
ENDBRANCH  48  49
ENDBRANCH  42  48
BRANCH  43  51
ATOM     51  O   UNL     1      18.122  40.969  79.084  1.00  0.00    -0.387 OA
ATOM     52  H   UNL     1      17.149  40.784  79.074  1.00  0.00     0.211 HD
ENDBRANCH  43  51
ENDBRANCH  37  38
ENDBRANCH   5  37
BRANCH   7  53
ATOM     53  O   UNL     1      18.153  50.124  80.499  1.00  0.00    -0.507 OA
ATOM     54  H   UNL     1      18.057  51.122  80.410  1.00  0.00     0.293 HD
ENDBRANCH   7  53
TORSDOF 18
ENDMDL
MODEL 2
REMARK VINA RESULT:    -3.433      2.091      7.847
REMARK INTER + INTRA:          -7.959
REMARK INTER:                  -8.445
REMARK INTRA:                   0.486
REMARK UNBOUND:                -1.917
REMARK SMILES COc1cc(-c2[o+]c3cc(O)cc(O[C@H]4O[C@H](CO)[C@@H](O)[C@H](O)[C@H]4O)c3cc2O[C@@H]2O[C@H](CO)[C@H](O)[C@H](O)[C@@H]2O)ccc1O
REMARK SMILES IDX 6 1 28 2 27 3 26 4 13 5 12 6 10 7 9 8 8 9 7 10 5 11 3 12
REMARK SMILES IDX 43 13 4 14 42 15 41 16 2 17 1 18 44 19 29 21 30 22 39 23
REMARK SMILES IDX 31 24 37 25 32 26 35 27 40 28 38 30 33 32 34 33 36 35 14 37
REMARK SMILES IDX 15 38 24 39 16 40 22 41 17 42 20 43 25 44 23 46 18 48 19 49
REMARK SMILES IDX 21 51 11 53
REMARK H PARENT 44 20 40 29 38 31 34 34 36 36 25 45 23 47 19 50 21 52 11 54
REMARK Flexibility Score: inf
ROOT
ATOM      1  C   UNL     1      19.162  45.129  78.896  1.00  0.00     0.402 A 
ATOM      2  C   UNL     1      19.557  45.918  77.797  1.00  0.00     0.229 A 
ATOM      3  C   UNL     1      19.405  45.370  76.524  1.00  0.00     0.079 A 
ATOM      4  C   UNL     1      18.937  44.060  76.361  1.00  0.00     0.126 A 
ATOM      5  C   UNL     1      18.671  43.511  75.090  1.00  0.00     0.143 A 
ATOM      6  C   UNL     1      18.270  42.170  74.981  1.00  0.00     0.094 A 
ATOM      7  C   UNL     1      18.114  41.384  76.129  1.00  0.00     0.128 A 
ATOM      8  C   UNL     1      18.313  41.951  77.395  1.00  0.00     0.162 A 
ATOM      9  C   UNL     1      18.689  43.290  77.516  1.00  0.00     0.368 A 
ATOM     10  O   UNL     1      18.785  43.854  78.720  1.00  0.00    -0.202 OA
ENDROOT
BRANCH   1  11
ATOM     11  C   UNL     1      19.082  45.714  80.239  1.00  0.00     0.087 A 
ATOM     12  C   UNL     1      17.829  45.990  82.315  1.00  0.00     0.161 A 
ATOM     13  C   UNL     1      18.887  46.772  82.823  1.00  0.00     0.157 A 
ATOM     14  C   UNL     1      17.952  45.460  81.023  1.00  0.00     0.068 A 
ATOM     15  C   UNL     1      20.021  47.040  82.034  1.00  0.00     0.051 A 
ATOM     16  C   UNL     1      20.125  46.502  80.746  1.00  0.00     0.022 A 
BRANCH  12  17
ATOM     17  O   UNL     1      16.701  45.757  83.117  1.00  0.00    -0.493 OA
ATOM     18  C   UNL     1      16.066  44.492  83.269  1.00  0.00     0.278 C 
ENDBRANCH  12  17
BRANCH  13  19
ATOM     19  O   UNL     1      18.841  47.278  84.125  1.00  0.00    -0.504 OA
ATOM     20  H   UNL     1      19.233  48.188  84.366  1.00  0.00     0.293 HD
ENDBRANCH  13  19
ENDBRANCH   1  11
BRANCH   2  21
ATOM     21  O   UNL     1      20.080  47.210  78.001  1.00  0.00    -0.452 OA
BRANCH  21  22
ATOM     22  C   UNL     1      19.309  48.405  77.896  1.00  0.00     0.339 C 
ATOM     23  C   UNL     1      18.869  48.615  76.437  1.00  0.00     0.214 C 
ATOM     24  O   UNL     1      18.174  48.310  78.738  1.00  0.00    -0.332 OA
ATOM     25  C   UNL     1      17.996  49.893  76.339  1.00  0.00     0.180 C 
ATOM     26  C   UNL     1      17.485  49.551  78.800  1.00  0.00     0.179 C 
ATOM     27  C   UNL     1      16.898  49.939  77.415  1.00  0.00     0.177 C 
BRANCH  23  28
ATOM     28  O   UNL     1      18.184  47.480  75.969  1.00  0.00    -0.384 OA
ATOM     29  H   UNL     1      17.273  47.526  76.347  1.00  0.00     0.211 HD
ENDBRANCH  23  28
BRANCH  25  30
ATOM     30  O   UNL     1      17.434  49.999  75.060  1.00  0.00    -0.387 OA
ATOM     31  H   UNL     1      18.183  50.162  74.435  1.00  0.00     0.211 HD
ENDBRANCH  25  30
BRANCH  26  32
ATOM     32  C   UNL     1      16.396  49.474  79.884  1.00  0.00     0.191 C 
BRANCH  32  33
ATOM     33  O   UNL     1      16.757  48.581  80.894  1.00  0.00    -0.394 OA
ATOM     34  H   UNL     1      16.052  48.668  81.591  1.00  0.00     0.210 HD
ENDBRANCH  32  33
ENDBRANCH  26  32
BRANCH  27  35
ATOM     35  O   UNL     1      15.795  49.141  77.049  1.00  0.00    -0.387 OA
ATOM     36  H   UNL     1      15.511  49.392  76.136  1.00  0.00     0.211 HD
ENDBRANCH  27  35
ENDBRANCH  21  22
ENDBRANCH   2  21
BRANCH   5  37
ATOM     37  O   UNL     1      18.782  44.330  73.958  1.00  0.00    -0.461 OA
BRANCH  37  38
ATOM     38  C   UNL     1      17.736  45.185  73.514  1.00  0.00     0.339 C 
ATOM     39  C   UNL     1      18.356  46.441  72.867  1.00  0.00     0.214 C 
ATOM     40  O   UNL     1      16.924  45.548  74.614  1.00  0.00    -0.332 OA
ATOM     41  C   UNL     1      17.303  47.568  72.668  1.00  0.00     0.180 C 
ATOM     42  C   UNL     1      15.787  46.335  74.261  1.00  0.00     0.179 C 
ATOM     43  C   UNL     1      15.876  47.062  72.886  1.00  0.00     0.177 C 
BRANCH  39  44
ATOM     44  O   UNL     1      19.413  46.911  73.684  1.00  0.00    -0.384 OA
ATOM     45  H   UNL     1      19.283  46.491  74.572  1.00  0.00     0.211 HD
ENDBRANCH  39  44
BRANCH  41  46
ATOM     46  O   UNL     1      17.408  48.107  71.375  1.00  0.00    -0.387 OA
ATOM     47  H   UNL     1      17.194  47.374  70.733  1.00  0.00     0.211 HD
ENDBRANCH  41  46
BRANCH  42  48
ATOM     48  C   UNL     1      14.512  45.485  74.391  1.00  0.00     0.191 C 
BRANCH  48  49
ATOM     49  O   UNL     1      14.636  44.553  75.432  1.00  0.00    -0.394 OA
ATOM     50  H   UNL     1      14.472  45.034  76.281  1.00  0.00     0.210 HD
ENDBRANCH  48  49
ENDBRANCH  42  48
BRANCH  43  51
ATOM     51  O   UNL     1      14.989  48.151  72.847  1.00  0.00    -0.387 OA
ATOM     52  H   UNL     1      14.179  47.876  73.348  1.00  0.00     0.211 HD
ENDBRANCH  43  51
ENDBRANCH  37  38
ENDBRANCH   5  37
BRANCH   7  53
ATOM     53  O   UNL     1      17.774  40.037  76.031  1.00  0.00    -0.507 OA
ATOM     54  H   UNL     1      17.322  39.661  75.214  1.00  0.00     0.293 HD
ENDBRANCH   7  53
TORSDOF 18
ENDMDL
MODEL 3
REMARK VINA RESULT:    -3.206      2.491      7.906
REMARK INTER + INTRA:          -7.560
REMARK INTER:                  -7.916
REMARK INTRA:                   0.356
REMARK UNBOUND:                -1.917
REMARK SMILES COc1cc(-c2[o+]c3cc(O)cc(O[C@H]4O[C@H](CO)[C@@H](O)[C@H](O)[C@H]4O)c3cc2O[C@@H]2O[C@H](CO)[C@H](O)[C@H](O)[C@@H]2O)ccc1O
REMARK SMILES IDX 6 1 28 2 27 3 26 4 13 5 12 6 10 7 9 8 8 9 7 10 5 11 3 12
REMARK SMILES IDX 43 13 4 14 42 15 41 16 2 17 1 18 44 19 29 21 30 22 39 23
REMARK SMILES IDX 31 24 37 25 32 26 35 27 40 28 38 30 33 32 34 33 36 35 14 37
REMARK SMILES IDX 15 38 24 39 16 40 22 41 17 42 20 43 25 44 23 46 18 48 19 49
REMARK SMILES IDX 21 51 11 53
REMARK H PARENT 44 20 40 29 38 31 34 34 36 36 25 45 23 47 19 50 21 52 11 54
REMARK Flexibility Score: inf
ROOT
ATOM      1  C   UNL     1      19.080  43.759  78.941  1.00  0.00     0.402 A 
ATOM      2  C   UNL     1      19.418  44.290  77.681  1.00  0.00     0.229 A 
ATOM      3  C   UNL     1      19.257  43.462  76.569  1.00  0.00     0.079 A 
ATOM      4  C   UNL     1      18.837  42.135  76.722  1.00  0.00     0.126 A 
ATOM      5  C   UNL     1      18.562  41.303  75.617  1.00  0.00     0.143 A 
ATOM      6  C   UNL     1      18.210  39.961  75.827  1.00  0.00     0.094 A 
ATOM      7  C   UNL     1      18.112  39.452  77.127  1.00  0.00     0.128 A 
ATOM      8  C   UNL     1      18.319  40.297  78.225  1.00  0.00     0.162 A 
ATOM      9  C   UNL     1      18.646  41.640  78.028  1.00  0.00     0.368 A 
ATOM     10  O   UNL     1      18.749  42.465  79.070  1.00  0.00    -0.202 OA
ENDROOT
BRANCH   1  11
ATOM     11  C   UNL     1      19.009  44.630  80.119  1.00  0.00     0.087 A 
ATOM     12  C   UNL     1      17.719  45.457  82.020  1.00  0.00     0.161 A 
ATOM     13  C   UNL     1      18.825  46.246  82.397  1.00  0.00     0.157 A 
ATOM     14  C   UNL     1      17.836  44.647  80.881  1.00  0.00     0.068 A 
ATOM     15  C   UNL     1      20.003  46.241  81.628  1.00  0.00     0.051 A 
ATOM     16  C   UNL     1      20.101  45.426  80.495  1.00  0.00     0.022 A 
BRANCH  12  17
ATOM     17  O   UNL     1      16.550  45.497  82.795  1.00  0.00    -0.493 OA
ATOM     18  C   UNL     1      15.947  44.361  83.405  1.00  0.00     0.278 C 
ENDBRANCH  12  17
BRANCH  13  19
ATOM     19  O   UNL     1      18.783  47.029  83.554  1.00  0.00    -0.504 OA
ATOM     20  H   UNL     1      19.533  47.016  84.245  1.00  0.00     0.293 HD
ENDBRANCH  13  19
ENDBRANCH   1  11
BRANCH   2  21
ATOM     21  O   UNL     1      19.895  45.611  77.570  1.00  0.00    -0.452 OA
BRANCH  21  22
ATOM     22  C   UNL     1      19.214  46.646  76.865  1.00  0.00     0.339 C 
ATOM     23  C   UNL     1      18.908  47.812  77.819  1.00  0.00     0.214 C 
ATOM     24  O   UNL     1      20.021  47.095  75.790  1.00  0.00    -0.332 OA
ATOM     25  C   UNL     1      18.206  48.952  77.036  1.00  0.00     0.180 C 
ATOM     26  C   UNL     1      19.300  47.992  74.957  1.00  0.00     0.179 C 
ATOM     27  C   UNL     1      18.927  49.293  75.721  1.00  0.00     0.177 C 
BRANCH  23  28
ATOM     28  O   UNL     1      20.091  48.258  78.435  1.00  0.00    -0.384 OA
ATOM     29  H   UNL     1      20.121  49.237  78.312  1.00  0.00     0.211 HD
ENDBRANCH  23  28
BRANCH  25  30
ATOM     30  O   UNL     1      18.087  50.092  77.841  1.00  0.00    -0.387 OA
ATOM     31  H   UNL     1      18.440  50.849  77.311  1.00  0.00     0.211 HD
ENDBRANCH  25  30
BRANCH  26  32
ATOM     32  C   UNL     1      20.125  48.285  73.693  1.00  0.00     0.191 C 
BRANCH  32  33
ATOM     33  O   UNL     1      20.080  49.642  73.369  1.00  0.00    -0.394 OA
ATOM     34  H   UNL     1      21.012  49.887  73.121  1.00  0.00     0.210 HD
ENDBRANCH  32  33
ENDBRANCH  26  32
BRANCH  27  35
ATOM     35  O   UNL     1      20.043  50.124  75.955  1.00  0.00    -0.387 OA
ATOM     36  H   UNL     1      19.896  50.621  76.797  1.00  0.00     0.211 HD
ENDBRANCH  27  35
ENDBRANCH  21  22
ENDBRANCH   2  21
BRANCH   5  37
ATOM     37  O   UNL     1      18.615  41.848  74.326  1.00  0.00    -0.461 OA
BRANCH  37  38
ATOM     38  C   UNL     1      17.791  42.929  73.906  1.00  0.00     0.339 C 
ATOM     39  C   UNL     1      18.688  44.074  73.397  1.00  0.00     0.214 C 
ATOM     40  O   UNL     1      17.000  43.369  74.993  1.00  0.00    -0.332 OA
ATOM     41  C   UNL     1      17.897  45.404  73.243  1.00  0.00     0.180 C 
ATOM     42  C   UNL     1      16.067  44.395  74.654  1.00  0.00     0.179 C 
ATOM     43  C   UNL     1      16.386  45.186  73.350  1.00  0.00     0.177 C 
BRANCH  39  44
ATOM     44  O   UNL     1      19.764  44.258  74.298  1.00  0.00    -0.384 OA
ATOM     45  H   UNL     1      19.503  45.010  74.890  1.00  0.00     0.211 HD
ENDBRANCH  39  44
BRANCH  41  46
ATOM     46  O   UNL     1      18.189  46.002  72.005  1.00  0.00    -0.387 OA
ATOM     47  H   UNL     1      17.344  46.409  71.669  1.00  0.00     0.211 HD
ENDBRANCH  41  46
BRANCH  42  48
ATOM     48  C   UNL     1      14.643  43.816  74.652  1.00  0.00     0.191 C 
BRANCH  48  49
ATOM     49  O   UNL     1      14.597  42.603  73.950  1.00  0.00    -0.394 OA
ATOM     50  H   UNL     1      13.844  42.076  74.318  1.00  0.00     0.210 HD
ENDBRANCH  48  49
ENDBRANCH  42  48
BRANCH  43  51
ATOM     51  O   UNL     1      15.739  46.433  73.360  1.00  0.00    -0.387 OA
ATOM     52  H   UNL     1      16.451  47.122  73.358  1.00  0.00     0.211 HD
ENDBRANCH  43  51
ENDBRANCH  37  38
ENDBRANCH   5  37
BRANCH   7  53
ATOM     53  O   UNL     1      17.822  38.107  77.347  1.00  0.00    -0.507 OA
ATOM     54  H   UNL     1      17.145  37.612  76.790  1.00  0.00     0.293 HD
ENDBRANCH   7  53
TORSDOF 18
ENDMDL
MODEL 4
REMARK VINA RESULT:    -3.176      2.866      6.236
REMARK INTER + INTRA:          -7.506
REMARK INTER:                  -6.048
REMARK INTRA:                  -1.458
REMARK UNBOUND:                -1.917
REMARK SMILES COc1cc(-c2[o+]c3cc(O)cc(O[C@H]4O[C@H](CO)[C@@H](O)[C@H](O)[C@H]4O)c3cc2O[C@@H]2O[C@H](CO)[C@H](O)[C@H](O)[C@@H]2O)ccc1O
REMARK SMILES IDX 6 1 28 2 27 3 26 4 13 5 12 6 10 7 9 8 8 9 7 10 5 11 3 12
REMARK SMILES IDX 43 13 4 14 42 15 41 16 2 17 1 18 44 19 29 21 30 22 39 23
REMARK SMILES IDX 31 24 37 25 32 26 35 27 40 28 38 30 33 32 34 33 36 35 14 37
REMARK SMILES IDX 15 38 24 39 16 40 22 41 17 42 20 43 25 44 23 46 18 48 19 49
REMARK SMILES IDX 21 51 11 53
REMARK H PARENT 44 20 40 29 38 31 34 34 36 36 25 45 23 47 19 50 21 52 11 54
REMARK Flexibility Score: inf
ROOT
ATOM      1  C   UNL     1      17.732  45.305  73.646  1.00  0.00     0.402 A 
ATOM      2  C   UNL     1      18.730  44.973  74.583  1.00  0.00     0.229 A 
ATOM      3  C   UNL     1      18.731  43.674  75.091  1.00  0.00     0.079 A 
ATOM      4  C   UNL     1      17.732  42.763  74.723  1.00  0.00     0.126 A 
ATOM      5  C   UNL     1      17.760  41.414  75.132  1.00  0.00     0.143 A 
ATOM      6  C   UNL     1      16.698  40.561  74.792  1.00  0.00     0.094 A 
ATOM      7  C   UNL     1      15.624  41.040  74.033  1.00  0.00     0.128 A 
ATOM      8  C   UNL     1      15.631  42.363  73.570  1.00  0.00     0.162 A 
ATOM      9  C   UNL     1      16.693  43.212  73.883  1.00  0.00     0.368 A 
ATOM     10  O   UNL     1      16.746  44.439  73.364  1.00  0.00    -0.202 OA
ENDROOT
BRANCH   1  11
ATOM     11  C   UNL     1      17.799  46.569  72.905  1.00  0.00     0.087 A 
ATOM     12  C   UNL     1      19.016  48.008  71.353  1.00  0.00     0.161 A 
ATOM     13  C   UNL     1      17.968  48.948  71.440  1.00  0.00     0.157 A 
ATOM     14  C   UNL     1      18.906  46.818  72.087  1.00  0.00     0.068 A 
ATOM     15  C   UNL     1      16.858  48.707  72.270  1.00  0.00     0.051 A 
ATOM     16  C   UNL     1      16.767  47.514  72.995  1.00  0.00     0.022 A 
BRANCH  12  17
ATOM     17  O   UNL     1      20.120  48.283  70.533  1.00  0.00    -0.493 OA
ATOM     18  C   UNL     1      20.034  48.665  69.164  1.00  0.00     0.278 C 
ENDBRANCH  12  17
BRANCH  13  19
ATOM     19  O   UNL     1      18.000  50.125  70.687  1.00  0.00    -0.504 OA
ATOM     20  H   UNL     1      17.413  50.927  70.912  1.00  0.00     0.293 HD
ENDBRANCH  13  19
ENDBRANCH   1  11
BRANCH   2  21
ATOM     21  O   UNL     1      19.684  45.933  74.977  1.00  0.00    -0.452 OA
BRANCH  21  22
ATOM     22  C   UNL     1      19.963  46.266  76.335  1.00  0.00     0.339 C 
ATOM     23  C   UNL     1      19.418  47.668  76.650  1.00  0.00     0.214 C 
ATOM     24  O   UNL     1      19.364  45.306  77.188  1.00  0.00    -0.332 OA
ATOM     25  C   UNL     1      19.688  48.005  78.140  1.00  0.00     0.180 C 
ATOM     26  C   UNL     1      19.775  45.501  78.534  1.00  0.00     0.179 C 
ATOM     27  C   UNL     1      19.275  46.865  79.085  1.00  0.00     0.177 C 
BRANCH  23  28
ATOM     28  O   UNL     1      18.047  47.737  76.342  1.00  0.00    -0.384 OA
ATOM     29  H   UNL     1      17.576  47.905  77.192  1.00  0.00     0.211 HD
ENDBRANCH  23  28
BRANCH  25  30
ATOM     30  O   UNL     1      19.038  49.195  78.493  1.00  0.00    -0.387 OA
ATOM     31  H   UNL     1      18.174  49.199  78.011  1.00  0.00     0.211 HD
ENDBRANCH  25  30
BRANCH  26  32
ATOM     32  C   UNL     1      19.284  44.321  79.390  1.00  0.00     0.191 C 
BRANCH  32  33
ATOM     33  O   UNL     1      18.851  43.265  78.587  1.00  0.00    -0.394 OA
ATOM     34  H   UNL     1      18.574  43.681  77.727  1.00  0.00     0.210 HD
ENDBRANCH  32  33
ENDBRANCH  26  32
BRANCH  27  35
ATOM     35  O   UNL     1      17.884  46.878  79.320  1.00  0.00    -0.387 OA
ATOM     36  H   UNL     1      17.538  45.957  79.226  1.00  0.00     0.211 HD
ENDBRANCH  27  35
ENDBRANCH  21  22
ENDBRANCH   2  21
BRANCH   5  37
ATOM     37  O   UNL     1      18.871  40.942  75.846  1.00  0.00    -0.461 OA
BRANCH  37  38
ATOM     38  C   UNL     1      18.942  39.631  76.392  1.00  0.00     0.339 C 
ATOM     39  C   UNL     1      19.140  39.734  77.918  1.00  0.00     0.214 C 
ATOM     40  O   UNL     1      20.019  38.931  75.801  1.00  0.00    -0.332 OA
ATOM     41  C   UNL     1      19.567  38.373  78.538  1.00  0.00     0.180 C 
ATOM     42  C   UNL     1      20.123  37.569  76.214  1.00  0.00     0.179 C 
ATOM     43  C   UNL     1      19.401  37.217  77.549  1.00  0.00     0.177 C 
BRANCH  39  44
ATOM     44  O   UNL     1      20.124  40.714  78.193  1.00  0.00    -0.384 OA
ATOM     45  H   UNL     1      20.960  40.394  77.768  1.00  0.00     0.211 HD
ENDBRANCH  39  44
BRANCH  41  46
ATOM     46  O   UNL     1      18.807  38.105  79.689  1.00  0.00    -0.387 OA
ATOM     47  H   UNL     1      18.671  38.973  80.161  1.00  0.00     0.211 HD
ENDBRANCH  41  46
BRANCH  42  48
ATOM     48  C   UNL     1      19.698  36.646  75.060  1.00  0.00     0.191 C 
BRANCH  48  49
ATOM     49  O   UNL     1      19.308  35.389  75.542  1.00  0.00    -0.394 OA
ATOM     50  H   UNL     1      19.989  35.099  76.200  1.00  0.00     0.210 HD
ENDBRANCH  48  49
ENDBRANCH  42  48
BRANCH  43  51
ATOM     51  O   UNL     1      19.945  36.048  78.109  1.00  0.00    -0.387 OA
ATOM     52  H   UNL     1      19.827  36.123  79.090  1.00  0.00     0.211 HD
ENDBRANCH  43  51
ENDBRANCH  37  38
ENDBRANCH   5  37
BRANCH   7  53
ATOM     53  O   UNL     1      14.536  40.220  73.740  1.00  0.00    -0.507 OA
ATOM     54  H   UNL     1      13.787  40.077  74.397  1.00  0.00     0.293 HD
ENDBRANCH   7  53
TORSDOF 18
ENDMDL
MODEL 5
REMARK VINA RESULT:    -2.896      2.735      8.081
REMARK INTER + INTRA:          -7.014
REMARK INTER:                  -5.939
REMARK INTRA:                  -1.074
REMARK UNBOUND:                -1.917
REMARK SMILES COc1cc(-c2[o+]c3cc(O)cc(O[C@H]4O[C@H](CO)[C@@H](O)[C@H](O)[C@H]4O)c3cc2O[C@@H]2O[C@H](CO)[C@H](O)[C@H](O)[C@@H]2O)ccc1O
REMARK SMILES IDX 6 1 28 2 27 3 26 4 13 5 12 6 10 7 9 8 8 9 7 10 5 11 3 12
REMARK SMILES IDX 43 13 4 14 42 15 41 16 2 17 1 18 44 19 29 21 30 22 39 23
REMARK SMILES IDX 31 24 37 25 32 26 35 27 40 28 38 30 33 32 34 33 36 35 14 37
REMARK SMILES IDX 15 38 24 39 16 40 22 41 17 42 20 43 25 44 23 46 18 48 19 49
REMARK SMILES IDX 21 51 11 53
REMARK H PARENT 44 20 40 29 38 31 34 34 36 36 25 45 23 47 19 50 21 52 11 54
REMARK Flexibility Score: inf
ROOT
ATOM      1  C   UNL     1      19.360  40.830  77.687  1.00  0.00     0.402 A 
ATOM      2  C   UNL     1      19.298  41.430  76.413  1.00  0.00     0.229 A 
ATOM      3  C   UNL     1      19.355  42.822  76.353  1.00  0.00     0.079 A 
ATOM      4  C   UNL     1      19.407  43.585  77.526  1.00  0.00     0.126 A 
ATOM      5  C   UNL     1      19.573  44.985  77.503  1.00  0.00     0.143 A 
ATOM      6  C   UNL     1      19.548  45.709  78.706  1.00  0.00     0.094 A 
ATOM      7  C   UNL     1      19.382  45.045  79.926  1.00  0.00     0.128 A 
ATOM      8  C   UNL     1      19.286  43.647  79.953  1.00  0.00     0.162 A 
ATOM      9  C   UNL     1      19.332  42.915  78.765  1.00  0.00     0.368 A 
ATOM     10  O   UNL     1      19.337  41.583  78.797  1.00  0.00    -0.202 OA
ENDROOT
BRANCH   1  11
ATOM     11  C   UNL     1      19.529  39.379  77.817  1.00  0.00     0.087 A 
ATOM     12  C   UNL     1      19.918  37.225  76.736  1.00  0.00     0.161 A 
ATOM     13  C   UNL     1      19.895  36.610  78.005  1.00  0.00     0.157 A 
ATOM     14  C   UNL     1      19.744  38.615  76.665  1.00  0.00     0.068 A 
ATOM     15  C   UNL     1      19.669  37.372  79.165  1.00  0.00     0.051 A 
ATOM     16  C   UNL     1      19.496  38.759  79.074  1.00  0.00     0.022 A 
BRANCH  12  17
ATOM     17  O   UNL     1      20.125  36.437  75.594  1.00  0.00    -0.493 OA
ATOM     18  C   UNL     1      19.418  36.590  74.367  1.00  0.00     0.278 C 
ENDBRANCH  12  17
BRANCH  13  19
ATOM     19  O   UNL     1      20.119  35.237  78.137  1.00  0.00    -0.504 OA
ATOM     20  H   UNL     1      21.055  34.851  78.260  1.00  0.00     0.293 HD
ENDBRANCH  13  19
ENDBRANCH   1  11
BRANCH   2  21
ATOM     21  O   UNL     1      19.185  40.633  75.257  1.00  0.00    -0.452 OA
BRANCH  21  22
ATOM     22  C   UNL     1      18.088  40.699  74.349  1.00  0.00     0.339 C 
ATOM     23  C   UNL     1      17.197  39.457  74.516  1.00  0.00     0.214 C 
ATOM     24  O   UNL     1      17.337  41.875  74.602  1.00  0.00    -0.332 OA
ATOM     25  C   UNL     1      15.983  39.558  73.557  1.00  0.00     0.180 C 
ATOM     26  C   UNL     1      16.348  42.068  73.601  1.00  0.00     0.179 C 
ATOM     27  C   UNL     1      15.291  40.930  73.625  1.00  0.00     0.177 C 
BRANCH  23  28
ATOM     28  O   UNL     1      16.791  39.329  75.857  1.00  0.00    -0.384 OA
ATOM     29  H   UNL     1      15.893  38.919  75.841  1.00  0.00     0.211 HD
ENDBRANCH  23  28
BRANCH  25  30
ATOM     30  O   UNL     1      15.066  38.533  73.825  1.00  0.00    -0.387 OA
ATOM     31  H   UNL     1      14.221  38.786  73.380  1.00  0.00     0.211 HD
ENDBRANCH  25  30
BRANCH  26  32
ATOM     32  C   UNL     1      15.705  43.453  73.782  1.00  0.00     0.191 C 
BRANCH  32  33
ATOM     33  O   UNL     1      15.874  43.916  75.089  1.00  0.00    -0.394 OA
ATOM     34  H   UNL     1      16.528  44.663  75.024  1.00  0.00     0.210 HD
ENDBRANCH  32  33
ENDBRANCH  26  32
BRANCH  27  35
ATOM     35  O   UNL     1      14.433  41.011  74.742  1.00  0.00    -0.387 OA
ATOM     36  H   UNL     1      14.808  41.663  75.383  1.00  0.00     0.211 HD
ENDBRANCH  27  35
ENDBRANCH  21  22
ENDBRANCH   2  21
BRANCH   5  37
ATOM     37  O   UNL     1      19.791  45.624  76.275  1.00  0.00    -0.461 OA
BRANCH  37  38
ATOM     38  C   UNL     1      18.894  46.584  75.730  1.00  0.00     0.339 C 
ATOM     39  C   UNL     1      18.251  46.001  74.455  1.00  0.00     0.214 C 
ATOM     40  O   UNL     1      19.600  47.772  75.426  1.00  0.00    -0.332 OA
ATOM     41  C   UNL     1      17.529  47.096  73.619  1.00  0.00     0.180 C 
ATOM     42  C   UNL     1      18.772  48.835  74.956  1.00  0.00     0.179 C 
ATOM     43  C   UNL     1      17.383  48.405  74.397  1.00  0.00     0.177 C 
BRANCH  39  44
ATOM     44  O   UNL     1      19.253  45.381  73.670  1.00  0.00    -0.384 OA
ATOM     45  H   UNL     1      19.137  45.730  72.749  1.00  0.00     0.211 HD
ENDBRANCH  39  44
BRANCH  41  46
ATOM     46  O   UNL     1      16.256  46.648  73.229  1.00  0.00    -0.387 OA
ATOM     47  H   UNL     1      16.031  47.110  72.375  1.00  0.00     0.211 HD
ENDBRANCH  41  46
BRANCH  42  48
ATOM     48  C   UNL     1      18.655  49.916  76.044  1.00  0.00     0.191 C 
BRANCH  48  49
ATOM     49  O   UNL     1      17.347  49.981  76.545  1.00  0.00    -0.394 OA
ATOM     50  H   UNL     1      16.731  49.935  75.771  1.00  0.00     0.210 HD
ENDBRANCH  48  49
ENDBRANCH  42  48
BRANCH  43  51
ATOM     51  O   UNL     1      16.869  49.395  73.542  1.00  0.00    -0.387 OA
ATOM     52  H   UNL     1      16.135  49.843  74.034  1.00  0.00     0.211 HD
ENDBRANCH  43  51
ENDBRANCH  37  38
ENDBRANCH   5  37
BRANCH   7  53
ATOM     53  O   UNL     1      19.296  45.757  81.121  1.00  0.00    -0.507 OA
ATOM     54  H   UNL     1      19.987  45.661  81.847  1.00  0.00     0.293 HD
ENDBRANCH   7  53
TORSDOF 18
ENDMDL
MODEL 6
REMARK VINA RESULT:    -2.543      1.430      2.224
REMARK INTER + INTRA:          -6.393
REMARK INTER:                  -4.123
REMARK INTRA:                  -2.270
REMARK UNBOUND:                -1.917
REMARK SMILES COc1cc(-c2[o+]c3cc(O)cc(O[C@H]4O[C@H](CO)[C@@H](O)[C@H](O)[C@H]4O)c3cc2O[C@@H]2O[C@H](CO)[C@H](O)[C@H](O)[C@@H]2O)ccc1O
REMARK SMILES IDX 6 1 28 2 27 3 26 4 13 5 12 6 10 7 9 8 8 9 7 10 5 11 3 12
REMARK SMILES IDX 43 13 4 14 42 15 41 16 2 17 1 18 44 19 29 21 30 22 39 23
REMARK SMILES IDX 31 24 37 25 32 26 35 27 40 28 38 30 33 32 34 33 36 35 14 37
REMARK SMILES IDX 15 38 24 39 16 40 22 41 17 42 20 43 25 44 23 46 18 48 19 49
REMARK SMILES IDX 21 51 11 53
REMARK H PARENT 44 20 40 29 38 31 34 34 36 36 25 45 23 47 19 50 21 52 11 54
REMARK Flexibility Score: inf
ROOT
ATOM      1  C   UNL     1      16.651  47.320  75.129  1.00  0.00     0.402 A 
ATOM      2  C   UNL     1      17.318  46.080  75.111  1.00  0.00     0.229 A 
ATOM      3  C   UNL     1      18.321  45.873  76.057  1.00  0.00     0.079 A 
ATOM      4  C   UNL     1      18.686  46.893  76.945  1.00  0.00     0.126 A 
ATOM      5  C   UNL     1      19.619  46.687  77.982  1.00  0.00     0.143 A 
ATOM      6  C   UNL     1      20.000  47.763  78.800  1.00  0.00     0.094 A 
ATOM      7  C   UNL     1      19.443  49.031  78.602  1.00  0.00     0.128 A 
ATOM      8  C   UNL     1      18.465  49.219  77.616  1.00  0.00     0.162 A 
ATOM      9  C   UNL     1      18.062  48.150  76.813  1.00  0.00     0.368 A 
ATOM     10  O   UNL     1      17.066  48.305  75.940  1.00  0.00    -0.202 OA
ENDROOT
BRANCH   1  11
ATOM     11  C   UNL     1      15.445  47.528  74.321  1.00  0.00     0.087 A 
ATOM     12  C   UNL     1      13.031  47.877  74.238  1.00  0.00     0.161 A 
ATOM     13  C   UNL     1      13.114  47.960  72.834  1.00  0.00     0.157 A 
ATOM     14  C   UNL     1      14.212  47.671  74.965  1.00  0.00     0.068 A 
ATOM     15  C   UNL     1      14.349  47.805  72.179  1.00  0.00     0.051 A 
ATOM     16  C   UNL     1      15.518  47.599  72.922  1.00  0.00     0.022 A 
BRANCH  12  17
ATOM     17  O   UNL     1      11.781  48.015  74.863  1.00  0.00    -0.493 OA
ATOM     18  C   UNL     1      11.105  46.971  75.556  1.00  0.00     0.278 C 
ENDBRANCH  12  17
BRANCH  13  19
ATOM     19  O   UNL     1      11.976  48.220  72.064  1.00  0.00    -0.504 OA
ATOM     20  H   UNL     1      11.038  48.211  72.465  1.00  0.00     0.293 HD
ENDBRANCH  13  19
ENDBRANCH   1  11
BRANCH   2  21
ATOM     21  O   UNL     1      16.966  45.097  74.164  1.00  0.00    -0.452 OA
BRANCH  21  22
ATOM     22  C   UNL     1      16.398  43.833  74.503  1.00  0.00     0.339 C 
ATOM     23  C   UNL     1      14.945  43.765  74.005  1.00  0.00     0.214 C 
ATOM     24  O   UNL     1      17.165  42.798  73.913  1.00  0.00    -0.332 OA
ATOM     25  C   UNL     1      14.349  42.373  74.339  1.00  0.00     0.180 C 
ATOM     26  C   UNL     1      16.740  41.526  74.379  1.00  0.00     0.179 C 
ATOM     27  C   UNL     1      15.283  41.220  73.935  1.00  0.00     0.177 C 
BRANCH  23  28
ATOM     28  O   UNL     1      14.891  44.035  72.626  1.00  0.00    -0.384 OA
ATOM     29  H   UNL     1      14.789  45.012  72.535  1.00  0.00     0.211 HD
ENDBRANCH  23  28
BRANCH  25  30
ATOM     30  O   UNL     1      13.095  42.224  73.733  1.00  0.00    -0.387 OA
ATOM     31  H   UNL     1      12.601  41.553  74.266  1.00  0.00     0.211 HD
ENDBRANCH  25  30
BRANCH  26  32
ATOM     32  C   UNL     1      17.726  40.451  73.893  1.00  0.00     0.191 C 
BRANCH  32  33
ATOM     33  O   UNL     1      17.155  39.179  73.961  1.00  0.00    -0.394 OA
ATOM     34  H   UNL     1      16.243  39.276  73.575  1.00  0.00     0.210 HD
ENDBRANCH  32  33
ENDBRANCH  26  32
BRANCH  27  35
ATOM     35  O   UNL     1      15.183  40.946  72.555  1.00  0.00    -0.387 OA
ATOM     36  H   UNL     1      14.567  40.183  72.427  1.00  0.00     0.211 HD
ENDBRANCH  27  35
ENDBRANCH  21  22
ENDBRANCH   2  21
BRANCH   5  37
ATOM     37  O   UNL     1      20.125  45.397  78.195  1.00  0.00    -0.461 OA
BRANCH  37  38
ATOM     38  C   UNL     1      19.293  44.267  78.427  1.00  0.00     0.339 C 
ATOM     39  C   UNL     1      18.694  44.369  79.844  1.00  0.00     0.214 C 
ATOM     40  O   UNL     1      20.057  43.084  78.300  1.00  0.00    -0.332 OA
ATOM     41  C   UNL     1      18.057  43.026  80.301  1.00  0.00     0.180 C 
ATOM     42  C   UNL     1      19.294  41.884  78.424  1.00  0.00     0.179 C 
ATOM     43  C   UNL     1      17.920  42.035  79.143  1.00  0.00     0.177 C 
BRANCH  39  44
ATOM     44  O   UNL     1      19.711  44.751  80.753  1.00  0.00    -0.384 OA
ATOM     45  H   UNL     1      19.605  44.167  81.547  1.00  0.00     0.211 HD
ENDBRANCH  39  44
BRANCH  41  46
ATOM     46  O   UNL     1      16.789  43.256  80.862  1.00  0.00    -0.387 OA
ATOM     47  H   UNL     1      16.637  42.547  81.545  1.00  0.00     0.211 HD
ENDBRANCH  41  46
BRANCH  42  48
ATOM     48  C   UNL     1      19.162  41.212  77.048  1.00  0.00     0.191 C 
BRANCH  48  49
ATOM     49  O   UNL     1      19.082  39.818  77.177  1.00  0.00    -0.394 OA
ATOM     50  H   UNL     1      18.577  39.476  76.397  1.00  0.00     0.210 HD
ENDBRANCH  48  49
ENDBRANCH  42  48
BRANCH  43  51
ATOM     51  O   UNL     1      17.488  40.796  79.644  1.00  0.00    -0.387 OA
ATOM     52  H   UNL     1      17.775  40.757  80.592  1.00  0.00     0.211 HD
ENDBRANCH  43  51
ENDBRANCH  37  38
ENDBRANCH   5  37
BRANCH   7  53
ATOM     53  O   UNL     1      19.856  50.120  79.368  1.00  0.00    -0.507 OA
ATOM     54  H   UNL     1      19.498  50.284  80.294  1.00  0.00     0.293 HD
ENDBRANCH   7  53
TORSDOF 18
ENDMDL
MODEL 7
REMARK VINA RESULT:    -2.079      2.010      7.068
REMARK INTER + INTRA:          -5.576
REMARK INTER:                  -6.482
REMARK INTRA:                   0.907
REMARK UNBOUND:                -1.917
REMARK SMILES COc1cc(-c2[o+]c3cc(O)cc(O[C@H]4O[C@H](CO)[C@@H](O)[C@H](O)[C@H]4O)c3cc2O[C@@H]2O[C@H](CO)[C@H](O)[C@H](O)[C@@H]2O)ccc1O
REMARK SMILES IDX 6 1 28 2 27 3 26 4 13 5 12 6 10 7 9 8 8 9 7 10 5 11 3 12
REMARK SMILES IDX 43 13 4 14 42 15 41 16 2 17 1 18 44 19 29 21 30 22 39 23
REMARK SMILES IDX 31 24 37 25 32 26 35 27 40 28 38 30 33 32 34 33 36 35 14 37
REMARK SMILES IDX 15 38 24 39 16 40 22 41 17 42 20 43 25 44 23 46 18 48 19 49
REMARK SMILES IDX 21 51 11 53
REMARK H PARENT 44 20 40 29 38 31 34 34 36 36 25 45 23 47 19 50 21 52 11 54
REMARK Flexibility Score: inf
ROOT
ATOM      1  C   UNL     1      18.747  42.850  76.737  1.00  0.00     0.402 A 
ATOM      2  C   UNL     1      18.539  43.898  75.818  1.00  0.00     0.229 A 
ATOM      3  C   UNL     1      18.764  45.200  76.265  1.00  0.00     0.079 A 
ATOM      4  C   UNL     1      19.119  45.446  77.597  1.00  0.00     0.126 A 
ATOM      5  C   UNL     1      19.457  46.736  78.057  1.00  0.00     0.143 A 
ATOM      6  C   UNL     1      19.738  46.938  79.417  1.00  0.00     0.094 A 
ATOM      7  C   UNL     1      19.704  45.863  80.312  1.00  0.00     0.128 A 
ATOM      8  C   UNL     1      19.436  44.570  79.842  1.00  0.00     0.162 A 
ATOM      9  C   UNL     1      19.178  44.354  78.487  1.00  0.00     0.368 A 
ATOM     10  O   UNL     1      19.016  43.115  78.024  1.00  0.00    -0.202 OA
ENDROOT
BRANCH   1  11
ATOM     11  C   UNL     1      18.748  41.455  76.284  1.00  0.00     0.087 A 
ATOM     12  C   UNL     1      19.137  39.101  76.801  1.00  0.00     0.161 A 
ATOM     13  C   UNL     1      18.739  38.771  75.490  1.00  0.00     0.157 A 
ATOM     14  C   UNL     1      19.123  40.450  77.182  1.00  0.00     0.068 A 
ATOM     15  C   UNL     1      18.371  39.778  74.578  1.00  0.00     0.051 A 
ATOM     16  C   UNL     1      18.365  41.120  74.977  1.00  0.00     0.022 A 
BRANCH  12  17
ATOM     17  O   UNL     1      19.518  38.077  77.682  1.00  0.00    -0.493 OA
ATOM     18  C   UNL     1      19.557  38.204  79.100  1.00  0.00     0.278 C 
ENDBRANCH  12  17
BRANCH  13  19
ATOM     19  O   UNL     1      18.679  37.437  75.075  1.00  0.00    -0.504 OA
ATOM     20  H   UNL     1      17.845  36.866  75.207  1.00  0.00     0.293 HD
ENDBRANCH  13  19
ENDBRANCH   1  11
BRANCH   2  21
ATOM     21  O   UNL     1      18.123  43.617  74.501  1.00  0.00    -0.452 OA
BRANCH  21  22
ATOM     22  C   UNL     1      16.832  43.942  73.989  1.00  0.00     0.339 C 
ATOM     23  C   UNL     1      15.920  42.706  74.056  1.00  0.00     0.214 C 
ATOM     24  O   UNL     1      16.276  45.000  74.750  1.00  0.00    -0.332 OA
ATOM     25  C   UNL     1      14.506  43.078  73.538  1.00  0.00     0.180 C 
ATOM     26  C   UNL     1      15.075  45.472  74.155  1.00  0.00     0.179 C 
ATOM     27  C   UNL     1      13.973  44.377  74.165  1.00  0.00     0.177 C 
BRANCH  23  28
ATOM     28  O   UNL     1      15.877  42.205  75.369  1.00  0.00    -0.384 OA
ATOM     29  H   UNL     1      15.507  42.925  75.933  1.00  0.00     0.211 HD
ENDBRANCH  23  28
BRANCH  25  30
ATOM     30  O   UNL     1      13.614  42.022  73.763  1.00  0.00    -0.387 OA
ATOM     31  H   UNL     1      14.159  41.244  74.037  1.00  0.00     0.211 HD
ENDBRANCH  25  30
BRANCH  26  32
ATOM     32  C   UNL     1      14.620  46.752  74.877  1.00  0.00     0.191 C 
BRANCH  32  33
ATOM     33  O   UNL     1      13.675  47.445  74.119  1.00  0.00    -0.394 OA
ATOM     34  H   UNL     1      12.865  47.505  74.693  1.00  0.00     0.210 HD
ENDBRANCH  32  33
ENDBRANCH  26  32
BRANCH  27  35
ATOM     35  O   UNL     1      13.453  44.142  75.455  1.00  0.00    -0.387 OA
ATOM     36  H   UNL     1      14.070  43.541  75.940  1.00  0.00     0.211 HD
ENDBRANCH  27  35
ENDBRANCH  21  22
ENDBRANCH   2  21
BRANCH   5  37
ATOM     37  O   UNL     1      19.536  47.788  77.134  1.00  0.00    -0.461 OA
BRANCH  37  38
ATOM     38  C   UNL     1      18.431  48.210  76.343  1.00  0.00     0.339 C 
ATOM     39  C   UNL     1      18.822  48.130  74.854  1.00  0.00     0.214 C 
ATOM     40  O   UNL     1      18.082  49.536  76.690  1.00  0.00    -0.332 OA
ATOM     41  C   UNL     1      17.810  48.887  73.949  1.00  0.00     0.180 C 
ATOM     42  C   UNL     1      16.923  50.026  76.016  1.00  0.00     0.179 C 
ATOM     43  C   UNL     1      16.538  49.270  74.709  1.00  0.00     0.177 C 
BRANCH  39  44
ATOM     44  O   UNL     1      20.118  48.674  74.683  1.00  0.00    -0.384 OA
ATOM     45  H   UNL     1      20.136  49.515  75.208  1.00  0.00     0.211 HD
ENDBRANCH  39  44
BRANCH  41  46
ATOM     46  O   UNL     1      17.462  48.096  72.841  1.00  0.00    -0.387 OA
ATOM     47  H   UNL     1      16.738  48.575  72.352  1.00  0.00     0.211 HD
ENDBRANCH  41  46
BRANCH  42  48
ATOM     48  C   UNL     1      15.750  50.114  77.007  1.00  0.00     0.191 C 
BRANCH  48  49
ATOM     49  O   UNL     1      14.579  49.586  76.443  1.00  0.00    -0.394 OA
ATOM     50  H   UNL     1      14.306  48.812  76.997  1.00  0.00     0.210 HD
ENDBRANCH  48  49
ENDBRANCH  42  48
BRANCH  43  51
ATOM     51  O   UNL     1      15.736  50.082  73.889  1.00  0.00    -0.387 OA
ATOM     52  H   UNL     1      15.075  50.520  74.483  1.00  0.00     0.211 HD
ENDBRANCH  43  51
ENDBRANCH  37  38
ENDBRANCH   5  37
BRANCH   7  53
ATOM     53  O   UNL     1      19.923  46.061  81.674  1.00  0.00    -0.507 OA
ATOM     54  H   UNL     1      19.203  46.416  82.281  1.00  0.00     0.293 HD
ENDBRANCH   7  53
TORSDOF 18
ENDMDL
MODEL 8
REMARK VINA RESULT:    -1.738      2.895      5.684
REMARK INTER + INTRA:          -4.976
REMARK INTER:                  -5.247
REMARK INTRA:                   0.271
REMARK UNBOUND:                -1.917
REMARK SMILES COc1cc(-c2[o+]c3cc(O)cc(O[C@H]4O[C@H](CO)[C@@H](O)[C@H](O)[C@H]4O)c3cc2O[C@@H]2O[C@H](CO)[C@H](O)[C@H](O)[C@@H]2O)ccc1O
REMARK SMILES IDX 6 1 28 2 27 3 26 4 13 5 12 6 10 7 9 8 8 9 7 10 5 11 3 12
REMARK SMILES IDX 43 13 4 14 42 15 41 16 2 17 1 18 44 19 29 21 30 22 39 23
REMARK SMILES IDX 31 24 37 25 32 26 35 27 40 28 38 30 33 32 34 33 36 35 14 37
REMARK SMILES IDX 15 38 24 39 16 40 22 41 17 42 20 43 25 44 23 46 18 48 19 49
REMARK SMILES IDX 21 51 11 53
REMARK H PARENT 44 20 40 29 38 31 34 34 36 36 25 45 23 47 19 50 21 52 11 54
REMARK Flexibility Score: inf
ROOT
ATOM      1  C   UNL     1      17.262  45.508  75.350  1.00  0.00     0.402 A 
ATOM      2  C   UNL     1      18.119  44.859  74.440  1.00  0.00     0.229 A 
ATOM      3  C   UNL     1      18.680  43.645  74.836  1.00  0.00     0.079 A 
ATOM      4  C   UNL     1      18.443  43.135  76.119  1.00  0.00     0.126 A 
ATOM      5  C   UNL     1      18.905  41.864  76.517  1.00  0.00     0.143 A 
ATOM      6  C   UNL     1      18.699  41.430  77.836  1.00  0.00     0.094 A 
ATOM      7  C   UNL     1      18.020  42.244  78.749  1.00  0.00     0.128 A 
ATOM      8  C   UNL     1      17.501  43.478  78.333  1.00  0.00     0.162 A 
ATOM      9  C   UNL     1      17.680  43.909  77.017  1.00  0.00     0.368 A 
ATOM     10  O   UNL     1      17.107  45.037  76.596  1.00  0.00    -0.202 OA
ENDROOT
BRANCH   1  11
ATOM     11  C   UNL     1      16.464  46.664  74.924  1.00  0.00     0.087 A 
ATOM     12  C   UNL     1      15.718  48.947  75.355  1.00  0.00     0.161 A 
ATOM     13  C   UNL     1      14.991  48.913  74.148  1.00  0.00     0.157 A 
ATOM     14  C   UNL     1      16.459  47.814  75.720  1.00  0.00     0.068 A 
ATOM     15  C   UNL     1      14.984  47.754  73.350  1.00  0.00     0.051 A 
ATOM     16  C   UNL     1      15.728  46.632  73.731  1.00  0.00     0.022 A 
BRANCH  12  17
ATOM     17  O   UNL     1      15.690  50.110  76.141  1.00  0.00    -0.493 OA
ATOM     18  C   UNL     1      15.717  50.122  77.565  1.00  0.00     0.278 C 
ENDBRANCH  12  17
BRANCH  13  19
ATOM     19  O   UNL     1      14.281  50.034  73.709  1.00  0.00    -0.504 OA
ATOM     20  H   UNL     1      13.271  50.014  73.567  1.00  0.00     0.293 HD
ENDBRANCH  13  19
ENDBRANCH   1  11
BRANCH   2  21
ATOM     21  O   UNL     1      18.384  45.432  73.180  1.00  0.00    -0.452 OA
BRANCH  21  22
ATOM     22  C   UNL     1      19.313  46.492  72.967  1.00  0.00     0.339 C 
ATOM     23  C   UNL     1      19.135  47.066  71.552  1.00  0.00     0.214 C 
ATOM     24  O   UNL     1      19.101  47.506  73.935  1.00  0.00    -0.332 OA
ATOM     25  C   UNL     1      20.119  48.247  71.344  1.00  0.00     0.180 C 
ATOM     26  C   UNL     1      20.125  48.489  73.870  1.00  0.00     0.179 C 
ATOM     27  C   UNL     1      20.095  49.246  72.514  1.00  0.00     0.177 C 
BRANCH  23  28
ATOM     28  O   UNL     1      17.800  47.462  71.354  1.00  0.00    -0.384 OA
ATOM     29  H   UNL     1      17.830  48.324  70.875  1.00  0.00     0.211 HD
ENDBRANCH  23  28
BRANCH  25  30
ATOM     30  O   UNL     1      19.845  48.900  70.135  1.00  0.00    -0.387 OA
ATOM     31  H   UNL     1      20.619  48.732  69.543  1.00  0.00     0.211 HD
ENDBRANCH  25  30
BRANCH  26  32
ATOM     32  C   UNL     1      19.986  49.446  75.065  1.00  0.00     0.191 C 
BRANCH  32  33
ATOM     33  O   UNL     1      18.680  49.927  75.174  1.00  0.00    -0.394 OA
ATOM     34  H   UNL     1      18.769  50.904  75.337  1.00  0.00     0.210 HD
ENDBRANCH  32  33
ENDBRANCH  26  32
BRANCH  27  35
ATOM     35  O   UNL     1      18.997  50.125  72.407  1.00  0.00    -0.387 OA
ATOM     36  H   UNL     1      18.418  50.005  73.199  1.00  0.00     0.211 HD
ENDBRANCH  27  35
ENDBRANCH  21  22
ENDBRANCH   2  21
BRANCH   5  37
ATOM     37  O   UNL     1      19.536  41.042  75.572  1.00  0.00    -0.461 OA
BRANCH  37  38
ATOM     38  C   UNL     1      19.595  39.626  75.692  1.00  0.00     0.339 C 
ATOM     39  C   UNL     1      18.839  38.992  74.507  1.00  0.00     0.214 C 
ATOM     40  O   UNL     1      19.010  39.231  76.918  1.00  0.00    -0.332 OA
ATOM     41  C   UNL     1      18.563  37.479  74.740  1.00  0.00     0.180 C 
ATOM     42  C   UNL     1      19.099  37.831  77.179  1.00  0.00     0.179 C 
ATOM     43  C   UNL     1      19.352  36.932  75.932  1.00  0.00     0.177 C 
BRANCH  39  44
ATOM     44  O   UNL     1      17.615  39.678  74.315  1.00  0.00    -0.384 OA
ATOM     45  H   UNL     1      17.169  39.237  73.547  1.00  0.00     0.211 HD
ENDBRANCH  39  44
BRANCH  41  46
ATOM     46  O   UNL     1      18.896  36.742  73.591  1.00  0.00    -0.387 OA
ATOM     47  H   UNL     1      19.104  35.814  73.887  1.00  0.00     0.211 HD
ENDBRANCH  41  46
BRANCH  42  48
ATOM     48  C   UNL     1      20.124  37.580  78.297  1.00  0.00     0.191 C 
BRANCH  48  49
ATOM     49  O   UNL     1      19.520  37.675  79.560  1.00  0.00    -0.394 OA
ATOM     50  H   UNL     1      19.378  36.752  79.890  1.00  0.00     0.210 HD
ENDBRANCH  48  49
ENDBRANCH  42  48
BRANCH  43  51
ATOM     51  O   UNL     1      18.945  35.611  76.188  1.00  0.00    -0.387 OA
ATOM     52  H   UNL     1      19.439  35.034  75.552  1.00  0.00     0.211 HD
ENDBRANCH  43  51
ENDBRANCH  37  38
ENDBRANCH   5  37
BRANCH   7  53
ATOM     53  O   UNL     1      17.860  41.851  80.076  1.00  0.00    -0.507 OA
ATOM     54  H   UNL     1      18.448  41.150  80.496  1.00  0.00     0.293 HD
ENDBRANCH   7  53
TORSDOF 18
ENDMDL
