MODEL 1
REMARK VINA RESULT:    -4.091      0.000      0.000
REMARK INTER + INTRA:          -9.683
REMARK INTER:                  -7.679
REMARK INTRA:                  -2.004
REMARK UNBOUND:                -2.004
REMARK SMILES CCCCCCCCC=CCCCCCCCC(=O)[O-]
REMARK SMILES IDX 10 1 9 2 11 3 12 4 13 5 14 6 15 7 16 8 17 9 18 10 19 11
REMARK SMILES IDX 20 12 8 13 7 14 6 15 5 16 4 17 3 18 2 19 1 20
REMARK H PARENT
REMARK Flexibility Score: inf
ROOT
ATOM      1  C   UNL     1     128.499 121.141 119.362  1.00  0.00    -0.031 C 
ATOM      2  C   UNL     1     128.679 121.561 120.624  1.00  0.00    -0.031 C 
ENDROOT
BRANCH   1   3
ATOM      3  C   UNL     1     127.429 120.144 119.009  1.00  0.00     0.027 C 
BRANCH   3   4
ATOM      4  C   UNL     1     126.460 120.703 117.955  1.00  0.00     0.004 C 
BRANCH   4   5
ATOM      5  C   UNL     1     125.238 119.808 117.669  1.00  0.00     0.000 C 
BRANCH   5   6
ATOM      6  C   UNL     1     124.061 120.583 117.055  1.00  0.00     0.000 C 
BRANCH   6   7
ATOM      7  C   UNL     1     124.292 122.103 117.033  1.00  0.00     0.000 C 
BRANCH   7   8
ATOM      8  C   UNL     1     123.346 122.922 117.929  1.00  0.00     0.006 C 
BRANCH   8   9
ATOM      9  C   UNL     1     122.604 122.065 118.962  1.00  0.00     0.053 C 
BRANCH   9  10
ATOM     10  C   UNL     1     123.232 122.203 120.312  1.00  0.00     0.041 C 
ATOM     11  O   UNL     1     124.485 122.229 120.428  1.00  0.00    -0.550 OA
ATOM     12  O   UNL     1     122.434 122.280 121.445  1.00  0.00    -0.550 OA
ENDBRANCH   9  10
ENDBRANCH   8   9
ENDBRANCH   7   8
ENDBRANCH   6   7
ENDBRANCH   5   6
ENDBRANCH   4   5
ENDBRANCH   3   4
ENDBRANCH   1   3
BRANCH   2  13
ATOM     13  C   UNL     1     129.671 122.638 120.958  1.00  0.00     0.027 C 
BRANCH  13  14
ATOM     14  C   UNL     1     130.922 122.514 120.079  1.00  0.00     0.004 C 
BRANCH  14  15
ATOM     15  C   UNL     1     132.153 122.159 120.921  1.00  0.00     0.000 C 
BRANCH  15  16
ATOM     16  C   UNL     1     132.818 120.877 120.406  1.00  0.00     0.000 C 
BRANCH  16  17
ATOM     17  C   UNL     1     131.987 119.639 120.772  1.00  0.00    -0.000 C 
BRANCH  17  18
ATOM     18  C   UNL     1     131.473 118.888 119.525  1.00  0.00    -0.000 C 
BRANCH  18  19
ATOM     19  C   UNL     1     130.537 117.714 119.857  1.00  0.00    -0.003 C 
ATOM     20  C   UNL     1     129.662 117.973 121.081  1.00  0.00     0.004 C 
ENDBRANCH  18  19
ENDBRANCH  17  18
ENDBRANCH  16  17
ENDBRANCH  15  16
ENDBRANCH  14  15
ENDBRANCH  13  14
ENDBRANCH   2  13
TORSDOF 15
ENDMDL
MODEL 2
REMARK VINA RESULT:    -4.050      2.580      7.655
REMARK INTER + INTRA:          -9.606
REMARK INTER:                  -7.479
REMARK INTRA:                  -2.126
REMARK UNBOUND:                -2.004
REMARK SMILES CCCCCCCCC=CCCCCCCCC(=O)[O-]
REMARK SMILES IDX 10 1 9 2 11 3 12 4 13 5 14 6 15 7 16 8 17 9 18 10 19 11
REMARK SMILES IDX 20 12 8 13 7 14 6 15 5 16 4 17 3 18 2 19 1 20
REMARK H PARENT
REMARK Flexibility Score: inf
ROOT
ATOM      1  C   UNL     1     128.105 120.198 118.099  1.00  0.00    -0.031 C 
ATOM      2  C   UNL     1     126.789 120.419 118.245  1.00  0.00    -0.031 C 
ENDROOT
BRANCH   1   3
ATOM      3  C   UNL     1     129.130 121.125 118.692  1.00  0.00     0.027 C 
BRANCH   3   4
ATOM      4  C   UNL     1     128.815 121.454 120.161  1.00  0.00     0.004 C 
BRANCH   4   5
ATOM      5  C   UNL     1     129.823 122.405 120.835  1.00  0.00     0.000 C 
BRANCH   5   6
ATOM      6  C   UNL     1     131.182 122.442 120.118  1.00  0.00     0.000 C 
BRANCH   6   7
ATOM      7  C   UNL     1     132.251 121.586 120.818  1.00  0.00     0.000 C 
BRANCH   7   8
ATOM      8  C   UNL     1     132.491 120.199 120.195  1.00  0.00     0.006 C 
BRANCH   8   9
ATOM      9  C   UNL     1     131.753 119.074 120.931  1.00  0.00     0.053 C 
BRANCH   9  10
ATOM     10  C   UNL     1     130.918 118.279 119.978  1.00  0.00     0.041 C 
ATOM     11  O   UNL     1     129.778 117.871 120.324  1.00  0.00    -0.550 OA
ATOM     12  O   UNL     1     131.406 117.968 118.717  1.00  0.00    -0.550 OA
ENDBRANCH   9  10
ENDBRANCH   8   9
ENDBRANCH   7   8
ENDBRANCH   6   7
ENDBRANCH   5   6
ENDBRANCH   4   5
ENDBRANCH   3   4
ENDBRANCH   1   3
BRANCH   2  13
ATOM     13  C   UNL     1     125.769 119.434 117.750  1.00  0.00     0.027 C 
BRANCH  13  14
ATOM     14  C   UNL     1     124.486 120.155 117.319  1.00  0.00     0.004 C 
BRANCH  14  15
ATOM     15  C   UNL     1     124.713 121.668 117.214  1.00  0.00     0.000 C 
BRANCH  15  16
ATOM     16  C   UNL     1     123.400 122.434 117.418  1.00  0.00     0.000 C 
BRANCH  16  17
ATOM     17  C   UNL     1     123.288 122.965 118.854  1.00  0.00    -0.000 C 
BRANCH  17  18
ATOM     18  C   UNL     1     122.520 121.997 119.779  1.00  0.00    -0.000 C 
BRANCH  18  19
ATOM     19  C   UNL     1     123.422 121.264 120.787  1.00  0.00    -0.003 C 
ATOM     20  C   UNL     1     124.786 121.926 120.961  1.00  0.00     0.004 C 
ENDBRANCH  18  19
ENDBRANCH  17  18
ENDBRANCH  16  17
ENDBRANCH  15  16
ENDBRANCH  14  15
ENDBRANCH  13  14
ENDBRANCH   2  13
TORSDOF 15
ENDMDL
MODEL 3
REMARK VINA RESULT:    -4.048      3.043      7.377
REMARK INTER + INTRA:          -9.601
REMARK INTER:                  -7.309
REMARK INTRA:                  -2.292
REMARK UNBOUND:                -2.004
REMARK SMILES CCCCCCCCC=CCCCCCCCC(=O)[O-]
REMARK SMILES IDX 10 1 9 2 11 3 12 4 13 5 14 6 15 7 16 8 17 9 18 10 19 11
REMARK SMILES IDX 20 12 8 13 7 14 6 15 5 16 4 17 3 18 2 19 1 20
REMARK H PARENT
REMARK Flexibility Score: inf
ROOT
ATOM      1  C   UNL     1     125.455 120.300 117.741  1.00  0.00    -0.031 C 
ATOM      2  C   UNL     1     125.379 121.574 117.330  1.00  0.00    -0.031 C 
ENDROOT
BRANCH   1   3
ATOM      3  C   UNL     1     126.757 119.693 118.190  1.00  0.00     0.027 C 
BRANCH   3   4
ATOM      4  C   UNL     1     127.805 120.772 118.508  1.00  0.00     0.004 C 
BRANCH   4   5
ATOM      5  C   UNL     1     128.564 120.557 119.832  1.00  0.00     0.000 C 
BRANCH   5   6
ATOM      6  C   UNL     1     128.572 121.807 120.726  1.00  0.00     0.000 C 
BRANCH   6   7
ATOM      7  C   UNL     1     129.947 122.497 120.778  1.00  0.00     0.000 C 
BRANCH   7   8
ATOM      8  C   UNL     1     131.016 121.895 119.849  1.00  0.00     0.006 C 
BRANCH   8   9
ATOM      9  C   UNL     1     132.244 121.372 120.605  1.00  0.00     0.053 C 
BRANCH   9  10
ATOM     10  C   UNL     1     132.335 119.883 120.499  1.00  0.00     0.041 C 
ATOM     11  O   UNL     1     131.588 119.150 121.199  1.00  0.00    -0.550 OA
ATOM     12  O   UNL     1     133.261 119.302 119.643  1.00  0.00    -0.550 OA
ENDBRANCH   9  10
ENDBRANCH   8   9
ENDBRANCH   7   8
ENDBRANCH   6   7
ENDBRANCH   5   6
ENDBRANCH   4   5
ENDBRANCH   3   4
ENDBRANCH   1   3
BRANCH   2  13
ATOM     13  C   UNL     1     124.061 122.211 116.990  1.00  0.00     0.027 C 
BRANCH  13  14
ATOM     14  C   UNL     1     122.930 121.589 117.819  1.00  0.00     0.004 C 
BRANCH  14  15
ATOM     15  C   UNL     1     122.505 122.522 118.958  1.00  0.00     0.000 C 
BRANCH  15  16
ATOM     16  C   UNL     1     122.454 121.769 120.293  1.00  0.00     0.000 C 
BRANCH  16  17
ATOM     17  C   UNL     1     123.514 122.302 121.268  1.00  0.00    -0.000 C 
BRANCH  17  18
ATOM     18  C   UNL     1     124.891 121.638 121.058  1.00  0.00    -0.000 C 
BRANCH  18  19
ATOM     19  C   UNL     1     125.293 120.683 122.194  1.00  0.00    -0.003 C 
ATOM     20  C   UNL     1     125.637 119.279 121.703  1.00  0.00     0.004 C 
ENDBRANCH  18  19
ENDBRANCH  17  18
ENDBRANCH  16  17
ENDBRANCH  15  16
ENDBRANCH  14  15
ENDBRANCH  13  14
ENDBRANCH   2  13
TORSDOF 15
ENDMDL
MODEL 4
REMARK VINA RESULT:    -4.026      1.821      3.519
REMARK INTER + INTRA:          -9.561
REMARK INTER:                  -7.554
REMARK INTRA:                  -2.007
REMARK UNBOUND:                -2.004
REMARK SMILES CCCCCCCCC=CCCCCCCCC(=O)[O-]
REMARK SMILES IDX 10 1 9 2 11 3 12 4 13 5 14 6 15 7 16 8 17 9 18 10 19 11
REMARK SMILES IDX 20 12 8 13 7 14 6 15 5 16 4 17 3 18 2 19 1 20
REMARK H PARENT
REMARK Flexibility Score: inf
ROOT
ATOM      1  C   UNL     1     126.381 120.527 117.767  1.00  0.00    -0.031 C 
ATOM      2  C   UNL     1     127.007 119.416 118.187  1.00  0.00    -0.031 C 
ENDROOT
BRANCH   1   3
ATOM      3  C   UNL     1     124.945 120.502 117.322  1.00  0.00     0.027 C 
BRANCH   3   4
ATOM      4  C   UNL     1     124.412 121.917 117.044  1.00  0.00     0.004 C 
BRANCH   4   5
ATOM      5  C   UNL     1     123.033 122.216 117.664  1.00  0.00     0.000 C 
BRANCH   5   6
ATOM      6  C   UNL     1     123.123 123.095 118.922  1.00  0.00     0.000 C 
BRANCH   6   7
ATOM      7  C   UNL     1     123.282 122.276 120.214  1.00  0.00     0.000 C 
BRANCH   7   8
ATOM      8  C   UNL     1     124.728 122.122 120.718  1.00  0.00     0.006 C 
BRANCH   8   9
ATOM      9  C   UNL     1     125.059 120.693 121.167  1.00  0.00     0.053 C 
BRANCH   9  10
ATOM     10  C   UNL     1     126.279 120.681 122.032  1.00  0.00     0.041 C 
ATOM     11  O   UNL     1     127.380 121.092 121.581  1.00  0.00    -0.550 OA
ATOM     12  O   UNL     1     126.207 120.194 123.329  1.00  0.00    -0.550 OA
ENDBRANCH   9  10
ENDBRANCH   8   9
ENDBRANCH   7   8
ENDBRANCH   6   7
ENDBRANCH   5   6
ENDBRANCH   4   5
ENDBRANCH   3   4
ENDBRANCH   1   3
BRANCH   2  13
ATOM     13  C   UNL     1     128.404 119.463 118.736  1.00  0.00     0.027 C 
BRANCH  13  14
ATOM     14  C   UNL     1     129.071 120.804 118.404  1.00  0.00     0.004 C 
BRANCH  14  15
ATOM     15  C   UNL     1     130.447 120.590 117.763  1.00  0.00     0.000 C 
BRANCH  15  16
ATOM     16  C   UNL     1     131.237 119.509 118.511  1.00  0.00     0.000 C 
BRANCH  16  17
ATOM     17  C   UNL     1     132.459 120.110 119.221  1.00  0.00    -0.000 C 
BRANCH  17  18
ATOM     18  C   UNL     1     132.125 120.603 120.645  1.00  0.00    -0.000 C 
BRANCH  18  19
ATOM     19  C   UNL     1     132.422 122.097 120.864  1.00  0.00    -0.003 C 
ATOM     20  C   UNL     1     131.188 122.982 120.707  1.00  0.00     0.004 C 
ENDBRANCH  18  19
ENDBRANCH  17  18
ENDBRANCH  16  17
ENDBRANCH  15  16
ENDBRANCH  14  15
ENDBRANCH  13  14
ENDBRANCH   2  13
TORSDOF 15
ENDMDL
MODEL 5
REMARK VINA RESULT:    -3.998      9.197     10.781
REMARK INTER + INTRA:          -9.508
REMARK INTER:                  -7.282
REMARK INTRA:                  -2.226
REMARK UNBOUND:                -2.004
REMARK SMILES CCCCCCCCC=CCCCCCCCC(=O)[O-]
REMARK SMILES IDX 10 1 9 2 11 3 12 4 13 5 14 6 15 7 16 8 17 9 18 10 19 11
REMARK SMILES IDX 20 12 8 13 7 14 6 15 5 16 4 17 3 18 2 19 1 20
REMARK H PARENT
REMARK Flexibility Score: inf
ROOT
ATOM      1  C   UNL     1     123.381 127.871 125.934  1.00  0.00    -0.031 C 
ATOM      2  C   UNL     1     124.146 127.321 124.979  1.00  0.00    -0.031 C 
ENDROOT
BRANCH   1   3
ATOM      3  C   UNL     1     122.012 128.417 125.630  1.00  0.00     0.027 C 
BRANCH   3   4
ATOM      4  C   UNL     1     122.025 129.315 124.382  1.00  0.00     0.004 C 
BRANCH   4   5
ATOM      5  C   UNL     1     122.343 130.797 124.662  1.00  0.00     0.000 C 
BRANCH   5   6
ATOM      6  C   UNL     1     123.796 131.170 124.326  1.00  0.00     0.000 C 
BRANCH   6   7
ATOM      7  C   UNL     1     124.323 130.451 123.072  1.00  0.00     0.000 C 
BRANCH   7   8
ATOM      8  C   UNL     1     123.944 131.109 121.733  1.00  0.00     0.006 C 
BRANCH   8   9
ATOM      9  C   UNL     1     123.544 130.092 120.657  1.00  0.00     0.053 C 
BRANCH   9  10
ATOM     10  C   UNL     1     124.548 130.073 119.549  1.00  0.00     0.041 C 
ATOM     11  O   UNL     1     125.722 130.479 119.751  1.00  0.00    -0.550 OA
ATOM     12  O   UNL     1     124.182 129.630 118.286  1.00  0.00    -0.550 OA
ENDBRANCH   9  10
ENDBRANCH   8   9
ENDBRANCH   7   8
ENDBRANCH   6   7
ENDBRANCH   5   6
ENDBRANCH   4   5
ENDBRANCH   3   4
ENDBRANCH   1   3
BRANCH   2  13
ATOM     13  C   UNL     1     125.462 126.675 125.304  1.00  0.00     0.027 C 
BRANCH  13  14
ATOM     14  C   UNL     1     126.547 127.738 125.522  1.00  0.00     0.004 C 
BRANCH  14  15
ATOM     15  C   UNL     1     127.308 127.488 126.829  1.00  0.00     0.000 C 
BRANCH  15  16
ATOM     16  C   UNL     1     126.912 128.514 127.898  1.00  0.00     0.000 C 
BRANCH  16  17
ATOM     17  C   UNL     1     126.333 127.822 129.140  1.00  0.00    -0.000 C 
BRANCH  17  18
ATOM     18  C   UNL     1     126.343 126.284 129.013  1.00  0.00    -0.000 C 
BRANCH  18  19
ATOM     19  C   UNL     1     124.937 125.664 128.946  1.00  0.00    -0.003 C 
ATOM     20  C   UNL     1     123.833 126.637 129.351  1.00  0.00     0.004 C 
ENDBRANCH  18  19
ENDBRANCH  17  18
ENDBRANCH  16  17
ENDBRANCH  15  16
ENDBRANCH  14  15
ENDBRANCH  13  14
ENDBRANCH   2  13
TORSDOF 15
ENDMDL
MODEL 6
REMARK VINA RESULT:    -3.993      1.551      3.108
REMARK INTER + INTRA:          -9.498
REMARK INTER:                  -7.062
REMARK INTRA:                  -2.436
REMARK UNBOUND:                -2.004
REMARK SMILES CCCCCCCCC=CCCCCCCCC(=O)[O-]
REMARK SMILES IDX 10 1 9 2 11 3 12 4 13 5 14 6 15 7 16 8 17 9 18 10 19 11
REMARK SMILES IDX 20 12 8 13 7 14 6 15 5 16 4 17 3 18 2 19 1 20
REMARK H PARENT
REMARK Flexibility Score: inf
ROOT
ATOM      1  C   UNL     1     128.411 120.716 120.138  1.00  0.00    -0.031 C 
ATOM      2  C   UNL     1     128.649 121.129 118.883  1.00  0.00    -0.031 C 
ENDROOT
BRANCH   1   3
ATOM      3  C   UNL     1     127.250 121.246 120.934  1.00  0.00     0.027 C 
BRANCH   3   4
ATOM      4  C   UNL     1     125.908 120.719 120.399  1.00  0.00     0.004 C 
BRANCH   4   5
ATOM      5  C   UNL     1     125.837 119.187 120.244  1.00  0.00     0.000 C 
BRANCH   5   6
ATOM      6  C   UNL     1     125.328 118.750 118.861  1.00  0.00     0.000 C 
BRANCH   6   7
ATOM      7  C   UNL     1     125.508 119.836 117.786  1.00  0.00     0.000 C 
BRANCH   7   8
ATOM      8  C   UNL     1     124.213 120.289 117.090  1.00  0.00     0.006 C 
BRANCH   8   9
ATOM      9  C   UNL     1     124.047 121.814 117.063  1.00  0.00     0.053 C 
BRANCH   9  10
ATOM     10  C   UNL     1     122.995 122.248 118.034  1.00  0.00     0.041 C 
ATOM     11  O   UNL     1     122.443 121.405 118.788  1.00  0.00    -0.550 OA
ATOM     12  O   UNL     1     122.608 123.579 118.090  1.00  0.00    -0.550 OA
ENDBRANCH   9  10
ENDBRANCH   8   9
ENDBRANCH   7   8
ENDBRANCH   6   7
ENDBRANCH   5   6
ENDBRANCH   4   5
ENDBRANCH   3   4
ENDBRANCH   1   3
BRANCH   2  13
ATOM     13  C   UNL     1     129.740 120.517 118.051  1.00  0.00     0.027 C 
BRANCH  13  14
ATOM     14  C   UNL     1     129.920 119.034 118.399  1.00  0.00     0.004 C 
BRANCH  14  15
ATOM     15  C   UNL     1     131.281 118.786 119.060  1.00  0.00     0.000 C 
BRANCH  15  16
ATOM     16  C   UNL     1     132.266 119.912 118.725  1.00  0.00     0.000 C 
BRANCH  16  17
ATOM     17  C   UNL     1     132.981 120.414 119.988  1.00  0.00    -0.000 C 
BRANCH  17  18
ATOM     18  C   UNL     1     132.050 121.243 120.898  1.00  0.00    -0.000 C 
BRANCH  18  19
ATOM     19  C   UNL     1     131.802 122.672 120.385  1.00  0.00    -0.003 C 
ATOM     20  C   UNL     1     130.667 123.382 121.117  1.00  0.00     0.004 C 
ENDBRANCH  18  19
ENDBRANCH  17  18
ENDBRANCH  16  17
ENDBRANCH  15  16
ENDBRANCH  14  15
ENDBRANCH  13  14
ENDBRANCH   2  13
TORSDOF 15
ENDMDL
MODEL 7
REMARK VINA RESULT:    -3.989      3.276      7.699
REMARK INTER + INTRA:          -9.491
REMARK INTER:                  -7.673
REMARK INTRA:                  -1.819
REMARK UNBOUND:                -2.004
REMARK SMILES CCCCCCCCC=CCCCCCCCC(=O)[O-]
REMARK SMILES IDX 10 1 9 2 11 3 12 4 13 5 14 6 15 7 16 8 17 9 18 10 19 11
REMARK SMILES IDX 20 12 8 13 7 14 6 15 5 16 4 17 3 18 2 19 1 20
REMARK H PARENT
REMARK Flexibility Score: inf
ROOT
ATOM      1  C   UNL     1     129.733 122.271 120.312  1.00  0.00    -0.031 C 
ATOM      2  C   UNL     1     128.755 121.636 120.976  1.00  0.00    -0.031 C 
ENDROOT
BRANCH   1   3
ATOM      3  C   UNL     1     130.700 123.182 121.017  1.00  0.00     0.027 C 
BRANCH   3   4
ATOM      4  C   UNL     1     132.157 122.851 120.655  1.00  0.00     0.004 C 
BRANCH   4   5
ATOM      5  C   UNL     1     132.593 121.414 121.000  1.00  0.00     0.000 C 
BRANCH   5   6
ATOM      6  C   UNL     1     132.797 120.535 119.755  1.00  0.00     0.000 C 
BRANCH   6   7
ATOM      7  C   UNL     1     131.876 119.303 119.736  1.00  0.00     0.000 C 
BRANCH   7   8
ATOM      8  C   UNL     1     131.284 118.907 121.101  1.00  0.00     0.006 C 
BRANCH   8   9
ATOM      9  C   UNL     1     130.483 117.601 121.052  1.00  0.00     0.053 C 
BRANCH   9  10
ATOM     10  C   UNL     1     131.250 116.486 121.689  1.00  0.00     0.041 C 
ATOM     11  O   UNL     1     130.733 115.813 122.619  1.00  0.00    -0.550 OA
ATOM     12  O   UNL     1     132.544 116.206 121.274  1.00  0.00    -0.550 OA
ENDBRANCH   9  10
ENDBRANCH   8   9
ENDBRANCH   7   8
ENDBRANCH   6   7
ENDBRANCH   5   6
ENDBRANCH   4   5
ENDBRANCH   3   4
ENDBRANCH   1   3
BRANCH   2  13
ATOM     13  C   UNL     1     127.861 120.641 120.292  1.00  0.00     0.027 C 
BRANCH  13  14
ATOM     14  C   UNL     1     128.394 120.308 118.892  1.00  0.00     0.004 C 
BRANCH  14  15
ATOM     15  C   UNL     1     127.451 120.835 117.805  1.00  0.00     0.000 C 
BRANCH  15  16
ATOM     16  C   UNL     1     126.090 120.131 117.870  1.00  0.00     0.000 C 
BRANCH  16  17
ATOM     17  C   UNL     1     124.975 121.119 118.239  1.00  0.00    -0.000 C 
BRANCH  17  18
ATOM     18  C   UNL     1     124.509 121.956 117.029  1.00  0.00    -0.000 C 
BRANCH  18  19
ATOM     19  C   UNL     1     123.162 122.663 117.252  1.00  0.00    -0.003 C 
ATOM     20  C   UNL     1     122.938 123.083 118.702  1.00  0.00     0.004 C 
ENDBRANCH  18  19
ENDBRANCH  17  18
ENDBRANCH  16  17
ENDBRANCH  15  16
ENDBRANCH  14  15
ENDBRANCH  13  14
ENDBRANCH   2  13
TORSDOF 15
ENDMDL
MODEL 8
REMARK VINA RESULT:    -3.966      1.589      2.469
REMARK INTER + INTRA:          -9.448
REMARK INTER:                  -7.045
REMARK INTRA:                  -2.403
REMARK UNBOUND:                -2.004
REMARK SMILES CCCCCCCCC=CCCCCCCCC(=O)[O-]
REMARK SMILES IDX 10 1 9 2 11 3 12 4 13 5 14 6 15 7 16 8 17 9 18 10 19 11
REMARK SMILES IDX 20 12 8 13 7 14 6 15 5 16 4 17 3 18 2 19 1 20
REMARK H PARENT
REMARK Flexibility Score: inf
ROOT
ATOM      1  C   UNL     1     128.398 120.558 121.107  1.00  0.00    -0.031 C 
ATOM      2  C   UNL     1     128.289 121.895 121.078  1.00  0.00    -0.031 C 
ENDROOT
BRANCH   1   3
ATOM      3  C   UNL     1     127.185 119.669 121.163  1.00  0.00     0.027 C 
BRANCH   3   4
ATOM      4  C   UNL     1     127.230 118.579 120.080  1.00  0.00     0.004 C 
BRANCH   4   5
ATOM      5  C   UNL     1     128.203 118.868 118.920  1.00  0.00     0.000 C 
BRANCH   5   6
ATOM      6  C   UNL     1     127.489 119.335 117.642  1.00  0.00     0.000 C 
BRANCH   6   7
ATOM      7  C   UNL     1     126.859 120.731 117.785  1.00  0.00     0.000 C 
BRANCH   7   8
ATOM      8  C   UNL     1     125.325 120.772 117.669  1.00  0.00     0.006 C 
BRANCH   8   9
ATOM      9  C   UNL     1     124.650 121.453 118.867  1.00  0.00     0.053 C 
BRANCH   9  10
ATOM     10  C   UNL     1     123.319 122.012 118.476  1.00  0.00     0.041 C 
ATOM     11  O   UNL     1     123.141 123.258 118.440  1.00  0.00    -0.550 OA
ATOM     12  O   UNL     1     122.268 121.157 118.175  1.00  0.00    -0.550 OA
ENDBRANCH   9  10
ENDBRANCH   8   9
ENDBRANCH   7   8
ENDBRANCH   6   7
ENDBRANCH   5   6
ENDBRANCH   4   5
ENDBRANCH   3   4
ENDBRANCH   1   3
BRANCH   2  13
ATOM     13  C   UNL     1     129.493 122.776 120.908  1.00  0.00     0.027 C 
BRANCH  13  14
ATOM     14  C   UNL     1     130.567 122.069 120.071  1.00  0.00     0.004 C 
BRANCH  14  15
ATOM     15  C   UNL     1     131.965 122.313 120.652  1.00  0.00     0.000 C 
BRANCH  15  16
ATOM     16  C   UNL     1     132.763 121.005 120.725  1.00  0.00     0.000 C 
BRANCH  16  17
ATOM     17  C   UNL     1     131.843 119.787 120.561  1.00  0.00    -0.000 C 
BRANCH  17  18
ATOM     18  C   UNL     1     132.277 118.878 119.392  1.00  0.00    -0.000 C 
BRANCH  18  19
ATOM     19  C   UNL     1     132.618 119.650 118.106  1.00  0.00    -0.003 C 
ATOM     20  C   UNL     1     131.404 119.888 117.211  1.00  0.00     0.004 C 
ENDBRANCH  18  19
ENDBRANCH  17  18
ENDBRANCH  16  17
ENDBRANCH  15  16
ENDBRANCH  14  15
ENDBRANCH  13  14
ENDBRANCH   2  13
TORSDOF 15
ENDMDL
MODEL 9
REMARK VINA RESULT:    -3.954      1.956      3.551
REMARK INTER + INTRA:          -9.424
REMARK INTER:                  -6.817
REMARK INTRA:                  -2.608
REMARK UNBOUND:                -2.004
REMARK SMILES CCCCCCCCC=CCCCCCCCC(=O)[O-]
REMARK SMILES IDX 10 1 9 2 11 3 12 4 13 5 14 6 15 7 16 8 17 9 18 10 19 11
REMARK SMILES IDX 20 12 8 13 7 14 6 15 5 16 4 17 3 18 2 19 1 20
REMARK H PARENT
REMARK Flexibility Score: inf
ROOT
ATOM      1  C   UNL     1     126.322 120.521 117.782  1.00  0.00    -0.031 C 
ATOM      2  C   UNL     1     127.532 119.942 117.751  1.00  0.00    -0.031 C 
ENDROOT
BRANCH   1   3
ATOM      3  C   UNL     1     125.059 119.713 117.656  1.00  0.00     0.027 C 
BRANCH   3   4
ATOM      4  C   UNL     1     123.899 120.558 117.104  1.00  0.00     0.004 C 
BRANCH   4   5
ATOM      5  C   UNL     1     124.184 122.071 117.035  1.00  0.00     0.000 C 
BRANCH   5   6
ATOM      6  C   UNL     1     123.271 122.894 117.959  1.00  0.00     0.000 C 
BRANCH   6   7
ATOM      7  C   UNL     1     123.504 122.595 119.450  1.00  0.00     0.000 C 
BRANCH   7   8
ATOM      8  C   UNL     1     122.303 121.979 120.189  1.00  0.00     0.006 C 
BRANCH   8   9
ATOM      9  C   UNL     1     122.391 122.136 121.713  1.00  0.00     0.053 C 
BRANCH   9  10
ATOM     10  C   UNL     1     121.674 121.019 122.401  1.00  0.00     0.041 C 
ATOM     11  O   UNL     1     120.700 121.264 123.161  1.00  0.00    -0.550 OA
ATOM     12  O   UNL     1     122.094 119.708 122.223  1.00  0.00    -0.550 OA
ENDBRANCH   9  10
ENDBRANCH   8   9
ENDBRANCH   7   8
ENDBRANCH   6   7
ENDBRANCH   5   6
ENDBRANCH   4   5
ENDBRANCH   3   4
ENDBRANCH   1   3
BRANCH   2  13
ATOM     13  C   UNL     1     128.786 120.734 117.990  1.00  0.00     0.027 C 
BRANCH  13  14
ATOM     14  C   UNL     1     129.489 120.261 119.269  1.00  0.00     0.004 C 
BRANCH  14  15
ATOM     15  C   UNL     1     129.953 121.453 120.115  1.00  0.00     0.000 C 
BRANCH  15  16
ATOM     16  C   UNL     1     128.775 122.082 120.868  1.00  0.00     0.000 C 
BRANCH  16  17
ATOM     17  C   UNL     1     127.873 121.002 121.483  1.00  0.00    -0.000 C 
BRANCH  17  18
ATOM     18  C   UNL     1     126.378 121.253 121.193  1.00  0.00    -0.000 C 
BRANCH  18  19
ATOM     19  C   UNL     1     125.492 120.015 121.416  1.00  0.00    -0.003 C 
ATOM     20  C   UNL     1     126.199 118.704 121.080  1.00  0.00     0.004 C 
ENDBRANCH  18  19
ENDBRANCH  17  18
ENDBRANCH  16  17
ENDBRANCH  15  16
ENDBRANCH  14  15
ENDBRANCH  13  14
ENDBRANCH   2  13
TORSDOF 15
ENDMDL
