MODEL 1
REMARK VINA RESULT:    -5.382      0.000      0.000
REMARK INTER + INTRA:          -9.719
REMARK INTER:                  -7.899
REMARK INTRA:                  -1.820
REMARK UNBOUND:                -1.820
REMARK SMILES O=c1c(O[C@H]2O[C@@H](CO)[C@@H](O)[C@@H](O)[C@@H]2O)c(-c2ccc(O)c(O)c2)oc2cc(O)cc(O)c12
REMARK SMILES IDX 4 1 3 2 16 3 25 4 2 5 26 6 1 7 33 8 27 9 31 10 28 11 30 12
REMARK SMILES IDX 17 13 18 14 19 15 20 16 24 17 22 18 21 19 23 21 32 23 29 25
REMARK SMILES IDX 5 27 14 28 6 29 12 30 7 31 10 32 15 33 13 35 8 37 9 38 11 40
REMARK H PARENT 21 20 23 22 32 24 29 26 15 34 13 36 9 39 11 41
REMARK Flexibility Score: inf
ROOT
ATOM      1  O   UNL     1      -0.116 -16.295  -6.908  1.00  0.00    -0.454 OA
ENDROOT
BRANCH   1   2
ATOM      2  C   UNL     1      -0.896 -15.358  -6.226  1.00  0.00     0.214 A 
ATOM      3  C   UNL     1      -2.303 -15.414  -6.255  1.00  0.00     0.180 A 
ATOM      4  O   UNL     1      -3.013 -14.521  -5.569  1.00  0.00    -0.452 OA
ATOM      5  C   UNL     1      -0.274 -14.334  -5.502  1.00  0.00     0.239 A 
ATOM      6  C   UNL     1      -2.462 -13.534  -4.869  1.00  0.00     0.146 A 
ATOM      7  O   UNL     1       0.986 -14.271  -5.490  1.00  0.00    -0.285 OA
ATOM      8  C   UNL     1      -1.058 -13.390  -4.809  1.00  0.00     0.111 A 
ATOM      9  C   UNL     1      -3.293 -12.627  -4.200  1.00  0.00     0.094 A 
ATOM     10  C   UNL     1      -0.504 -12.308  -4.082  1.00  0.00     0.134 A 
ATOM     11  C   UNL     1      -2.743 -11.548  -3.508  1.00  0.00     0.123 A 
ATOM     12  C   UNL     1      -1.353 -11.384  -3.461  1.00  0.00     0.093 A 
BRANCH   3  13
ATOM     13  C   UNL     1      -3.027 -16.447  -7.022  1.00  0.00     0.025 A 
ATOM     14  C   UNL     1      -3.476 -17.624  -6.404  1.00  0.00     0.016 A 
ATOM     15  C   UNL     1      -4.171 -18.586  -7.141  1.00  0.00     0.051 A 
ATOM     16  C   UNL     1      -4.423 -18.384  -8.506  1.00  0.00     0.157 A 
ATOM     17  C   UNL     1      -3.258 -16.258  -8.390  1.00  0.00     0.062 A 
ATOM     18  C   UNL     1      -3.965 -17.212  -9.132  1.00  0.00     0.158 A 
BRANCH  16  19
ATOM     19  O   UNL     1      -5.112 -19.349  -9.236  1.00  0.00    -0.504 OA
ATOM     20  H   UNL     1      -5.633 -19.104 -10.065  1.00  0.00     0.293 HD
ENDBRANCH  16  19
BRANCH  18  21
ATOM     21  O   UNL     1      -4.209 -16.972 -10.482  1.00  0.00    -0.504 OA
ATOM     22  H   UNL     1      -3.787 -16.196 -10.980  1.00  0.00     0.293 HD
ENDBRANCH  18  21
ENDBRANCH   3  13
BRANCH  10  23
ATOM     23  O   UNL     1       0.877 -12.146  -3.970  1.00  0.00    -0.507 OA
ATOM     24  H   UNL     1       1.330 -11.998  -3.077  1.00  0.00     0.293 HD
ENDBRANCH  10  23
BRANCH  11  25
ATOM     25  O   UNL     1      -3.586 -10.639  -2.875  1.00  0.00    -0.508 OA
ATOM     26  H   UNL     1      -4.117 -10.898  -2.051  1.00  0.00     0.293 HD
ENDBRANCH  11  25
ENDBRANCH   1   2
BRANCH   1  27
ATOM     27  C   UNL     1       0.239 -17.549  -6.330  1.00  0.00     0.339 C 
ATOM     28  C   UNL     1       1.776 -17.641  -6.251  1.00  0.00     0.214 C 
ATOM     29  O   UNL     1      -0.254 -18.598  -7.139  1.00  0.00    -0.332 OA
ATOM     30  C   UNL     1       2.251 -19.110  -6.079  1.00  0.00     0.180 C 
ATOM     31  C   UNL     1      -0.173 -19.866  -6.495  1.00  0.00     0.179 C 
ATOM     32  C   UNL     1       1.094 -20.003  -5.579  1.00  0.00     0.177 C 
BRANCH  28  33
ATOM     33  O   UNL     1       2.231 -16.860  -5.171  1.00  0.00    -0.384 OA
ATOM     34  H   UNL     1       2.828 -17.435  -4.623  1.00  0.00     0.211 HD
ENDBRANCH  28  33
BRANCH  30  35
ATOM     35  O   UNL     1       2.735 -19.604  -7.302  1.00  0.00    -0.387 OA
ATOM     36  H   UNL     1       2.830 -18.821  -7.907  1.00  0.00     0.211 HD
ENDBRANCH  30  35
BRANCH  31  37
ATOM     37  C   UNL     1      -0.264 -20.946  -7.597  1.00  0.00     0.191 C 
BRANCH  37  38
ATOM     38  O   UNL     1       0.377 -20.533  -8.775  1.00  0.00    -0.394 OA
ATOM     39  H   UNL     1       1.343 -20.742  -8.678  1.00  0.00     0.210 HD
ENDBRANCH  37  38
ENDBRANCH  31  37
BRANCH  32  40
ATOM     40  O   UNL     1       1.495 -21.335  -5.362  1.00  0.00    -0.387 OA
ATOM     41  H   UNL     1       2.095 -21.361  -4.574  1.00  0.00     0.211 HD
ENDBRANCH  32  40
ENDBRANCH   1  27
TORSDOF 12
ENDMDL
MODEL 2
REMARK VINA RESULT:    -5.218      2.599      7.537
REMARK INTER + INTRA:          -9.479
REMARK INTER:                  -7.831
REMARK INTRA:                  -1.648
REMARK UNBOUND:                -1.820
REMARK SMILES O=c1c(O[C@H]2O[C@@H](CO)[C@@H](O)[C@@H](O)[C@@H]2O)c(-c2ccc(O)c(O)c2)oc2cc(O)cc(O)c12
REMARK SMILES IDX 4 1 3 2 16 3 25 4 2 5 26 6 1 7 33 8 27 9 31 10 28 11 30 12
REMARK SMILES IDX 17 13 18 14 19 15 20 16 24 17 22 18 21 19 23 21 32 23 29 25
REMARK SMILES IDX 5 27 14 28 6 29 12 30 7 31 10 32 15 33 13 35 8 37 9 38 11 40
REMARK H PARENT 21 20 23 22 32 24 29 26 15 34 13 36 9 39 11 41
REMARK Flexibility Score: inf
ROOT
ATOM      1  O   UNL     1       0.155 -20.072  -6.346  1.00  0.00    -0.454 OA
ENDROOT
BRANCH   1   2
ATOM      2  C   UNL     1      -0.330 -20.638  -7.527  1.00  0.00     0.214 A 
ATOM      3  C   UNL     1      -1.447 -20.100  -8.194  1.00  0.00     0.180 A 
ATOM      4  O   UNL     1      -1.863 -20.648  -9.333  1.00  0.00    -0.452 OA
ATOM      5  C   UNL     1       0.298 -21.769  -8.062  1.00  0.00     0.239 A 
ATOM      6  C   UNL     1      -1.295 -21.722  -9.876  1.00  0.00     0.146 A 
ATOM      7  O   UNL     1       1.288 -22.264  -7.456  1.00  0.00    -0.285 OA
ATOM      8  C   UNL     1      -0.185 -22.339  -9.257  1.00  0.00     0.111 A 
ATOM      9  C   UNL     1      -1.820 -22.243 -11.065  1.00  0.00     0.094 A 
ATOM     10  C   UNL     1       0.375 -23.501  -9.843  1.00  0.00     0.134 A 
ATOM     11  C   UNL     1      -1.281 -23.401 -11.623  1.00  0.00     0.123 A 
ATOM     12  C   UNL     1      -0.195 -24.034 -11.005  1.00  0.00     0.093 A 
BRANCH   3  13
ATOM     13  C   UNL     1      -2.178 -18.928  -7.672  1.00  0.00     0.025 A 
ATOM     14  C   UNL     1      -2.986 -19.030  -6.529  1.00  0.00     0.016 A 
ATOM     15  C   UNL     1      -3.660 -17.909  -6.040  1.00  0.00     0.051 A 
ATOM     16  C   UNL     1      -3.538 -16.672  -6.689  1.00  0.00     0.157 A 
ATOM     17  C   UNL     1      -2.076 -17.697  -8.332  1.00  0.00     0.062 A 
ATOM     18  C   UNL     1      -2.738 -16.567  -7.840  1.00  0.00     0.158 A 
BRANCH  16  19
ATOM     19  O   UNL     1      -4.216 -15.560  -6.199  1.00  0.00    -0.504 OA
ATOM     20  H   UNL     1      -5.193 -15.409  -6.405  1.00  0.00     0.293 HD
ENDBRANCH  16  19
BRANCH  18  21
ATOM     21  O   UNL     1      -2.584 -15.352  -8.502  1.00  0.00    -0.504 OA
ATOM     22  H   UNL     1      -3.239 -14.585  -8.390  1.00  0.00     0.293 HD
ENDBRANCH  18  21
ENDBRANCH   3  13
BRANCH  10  23
ATOM     23  O   UNL     1       1.491 -24.124  -9.283  1.00  0.00    -0.507 OA
ATOM     24  H   UNL     1       1.431 -24.670  -8.433  1.00  0.00     0.293 HD
ENDBRANCH  10  23
BRANCH  11  25
ATOM     25  O   UNL     1      -1.836 -23.922 -12.788  1.00  0.00    -0.508 OA
ATOM     26  H   UNL     1      -2.138 -24.888 -12.843  1.00  0.00     0.293 HD
ENDBRANCH  11  25
ENDBRANCH   1   2
BRANCH   1  27
ATOM     27  C   UNL     1       0.978 -18.908  -6.346  1.00  0.00     0.339 C 
ATOM     28  C   UNL     1       2.274 -19.217  -5.571  1.00  0.00     0.214 C 
ATOM     29  O   UNL     1       0.293 -17.846  -5.712  1.00  0.00    -0.332 OA
ATOM     30  C   UNL     1       2.998 -17.915  -5.128  1.00  0.00     0.180 C 
ATOM     31  C   UNL     1       0.935 -16.589  -5.909  1.00  0.00     0.179 C 
ATOM     32  C   UNL     1       2.501 -16.706  -5.951  1.00  0.00     0.177 C 
BRANCH  28  33
ATOM     33  O   UNL     1       3.128 -19.986  -6.386  1.00  0.00    -0.384 OA
ATOM     34  H   UNL     1       2.561 -20.639  -6.875  1.00  0.00     0.211 HD
ENDBRANCH  28  33
BRANCH  30  35
ATOM     35  O   UNL     1       2.771 -17.682  -3.760  1.00  0.00    -0.387 OA
ATOM     36  H   UNL     1       2.373 -16.775  -3.690  1.00  0.00     0.211 HD
ENDBRANCH  30  35
BRANCH  31  37
ATOM     37  C   UNL     1       0.412 -15.631  -4.815  1.00  0.00     0.191 C 
BRANCH  37  38
ATOM     38  O   UNL     1       0.533 -14.289  -5.208  1.00  0.00    -0.394 OA
ATOM     39  H   UNL     1      -0.088 -14.144  -5.969  1.00  0.00     0.210 HD
ENDBRANCH  37  38
ENDBRANCH  31  37
BRANCH  32  40
ATOM     40  O   UNL     1       3.167 -15.513  -5.614  1.00  0.00    -0.387 OA
ATOM     41  H   UNL     1       2.891 -14.806  -6.250  1.00  0.00     0.211 HD
ENDBRANCH  32  40
ENDBRANCH   1  27
TORSDOF 12
ENDMDL
MODEL 3
REMARK VINA RESULT:    -5.217      2.411      6.805
REMARK INTER + INTRA:          -9.477
REMARK INTER:                  -8.178
REMARK INTRA:                  -1.299
REMARK UNBOUND:                -1.820
REMARK SMILES O=c1c(O[C@H]2O[C@@H](CO)[C@@H](O)[C@@H](O)[C@@H]2O)c(-c2ccc(O)c(O)c2)oc2cc(O)cc(O)c12
REMARK SMILES IDX 4 1 3 2 16 3 25 4 2 5 26 6 1 7 33 8 27 9 31 10 28 11 30 12
REMARK SMILES IDX 17 13 18 14 19 15 20 16 24 17 22 18 21 19 23 21 32 23 29 25
REMARK SMILES IDX 5 27 14 28 6 29 12 30 7 31 10 32 15 33 13 35 8 37 9 38 11 40
REMARK H PARENT 21 20 23 22 32 24 29 26 15 34 13 36 9 39 11 41
REMARK Flexibility Score: inf
ROOT
ATOM      1  O   UNL     1       0.792 -18.349  -7.744  1.00  0.00    -0.454 OA
ENDROOT
BRANCH   1   2
ATOM      2  C   UNL     1      -0.293 -19.142  -8.125  1.00  0.00     0.214 A 
ATOM      3  C   UNL     1      -1.620 -18.735  -7.888  1.00  0.00     0.180 A 
ATOM      4  O   UNL     1      -2.628 -19.504  -8.290  1.00  0.00    -0.452 OA
ATOM      5  C   UNL     1      -0.064 -20.374  -8.750  1.00  0.00     0.239 A 
ATOM      6  C   UNL     1      -2.455 -20.680  -8.888  1.00  0.00     0.146 A 
ATOM      7  O   UNL     1       1.124 -20.750  -8.947  1.00  0.00    -0.285 OA
ATOM      8  C   UNL     1      -1.156 -21.175  -9.141  1.00  0.00     0.111 A 
ATOM      9  C   UNL     1      -3.579 -21.430  -9.253  1.00  0.00     0.094 A 
ATOM     10  C   UNL     1      -1.007 -22.446  -9.747  1.00  0.00     0.134 A 
ATOM     11  C   UNL     1      -3.427 -22.692  -9.827  1.00  0.00     0.123 A 
ATOM     12  C   UNL     1      -2.143 -23.202 -10.061  1.00  0.00     0.093 A 
BRANCH   3  13
ATOM     13  C   UNL     1      -1.935 -17.464  -7.206  1.00  0.00     0.025 A 
ATOM     14  C   UNL     1      -2.112 -17.415  -5.815  1.00  0.00     0.016 A 
ATOM     15  C   UNL     1      -2.398 -16.202  -5.183  1.00  0.00     0.051 A 
ATOM     16  C   UNL     1      -2.513 -15.023  -5.935  1.00  0.00     0.157 A 
ATOM     17  C   UNL     1      -2.074 -16.291  -7.958  1.00  0.00     0.062 A 
ATOM     18  C   UNL     1      -2.347 -15.070  -7.330  1.00  0.00     0.158 A 
BRANCH  16  19
ATOM     19  O   UNL     1      -2.802 -13.819  -5.300  1.00  0.00    -0.504 OA
ATOM     20  H   UNL     1      -2.182 -13.025  -5.376  1.00  0.00     0.293 HD
ENDBRANCH  16  19
BRANCH  18  21
ATOM     21  O   UNL     1      -2.441 -13.918  -8.106  1.00  0.00    -0.504 OA
ATOM     22  H   UNL     1      -1.948 -13.063  -7.871  1.00  0.00     0.293 HD
ENDBRANCH  18  21
ENDBRANCH   3  13
BRANCH  10  23
ATOM     23  O   UNL     1       0.256 -22.959 -10.044  1.00  0.00    -0.507 OA
ATOM     24  H   UNL     1       0.901 -22.477 -10.656  1.00  0.00     0.293 HD
ENDBRANCH  10  23
BRANCH  11  25
ATOM     25  O   UNL     1      -4.556 -23.436 -10.155  1.00  0.00    -0.508 OA
ATOM     26  H   UNL     1      -5.277 -23.061 -10.761  1.00  0.00     0.293 HD
ENDBRANCH  11  25
ENDBRANCH   1   2
BRANCH   1  27
ATOM     27  C   UNL     1       1.283 -18.328  -6.406  1.00  0.00     0.339 C 
ATOM     28  C   UNL     1       1.986 -16.979  -6.157  1.00  0.00     0.214 C 
ATOM     29  O   UNL     1       2.209 -19.381  -6.227  1.00  0.00    -0.332 OA
ATOM     30  C   UNL     1       2.931 -17.048  -4.926  1.00  0.00     0.180 C 
ATOM     31  C   UNL     1       2.538 -19.590  -4.857  1.00  0.00     0.179 C 
ATOM     32  C   UNL     1       2.576 -18.255  -4.030  1.00  0.00     0.177 C 
BRANCH  28  33
ATOM     33  O   UNL     1       1.014 -15.980  -5.959  1.00  0.00    -0.384 OA
ATOM     34  H   UNL     1       1.117 -15.648  -5.028  1.00  0.00     0.211 HD
ENDBRANCH  28  33
BRANCH  30  35
ATOM     35  O   UNL     1       4.267 -17.151  -5.351  1.00  0.00    -0.387 OA
ATOM     36  H   UNL     1       4.828 -17.118  -4.532  1.00  0.00     0.211 HD
ENDBRANCH  30  35
BRANCH  31  37
ATOM     37  C   UNL     1       3.865 -20.383  -4.820  1.00  0.00     0.191 C 
BRANCH  37  38
ATOM     38  O   UNL     1       4.971 -19.527  -4.704  1.00  0.00    -0.394 OA
ATOM     39  H   UNL     1       5.476 -19.801  -3.895  1.00  0.00     0.210 HD
ENDBRANCH  37  38
ENDBRANCH  31  37
BRANCH  32  40
ATOM     40  O   UNL     1       3.378 -18.326  -2.876  1.00  0.00    -0.387 OA
ATOM     41  H   UNL     1       2.868 -18.791  -2.165  1.00  0.00     0.211 HD
ENDBRANCH  32  40
ENDBRANCH   1  27
TORSDOF 12
ENDMDL
MODEL 4
REMARK VINA RESULT:    -5.207      1.705      6.595
REMARK INTER + INTRA:          -9.463
REMARK INTER:                  -8.536
REMARK INTRA:                  -0.927
REMARK UNBOUND:                -1.820
REMARK SMILES O=c1c(O[C@H]2O[C@@H](CO)[C@@H](O)[C@@H](O)[C@@H]2O)c(-c2ccc(O)c(O)c2)oc2cc(O)cc(O)c12
REMARK SMILES IDX 4 1 3 2 16 3 25 4 2 5 26 6 1 7 33 8 27 9 31 10 28 11 30 12
REMARK SMILES IDX 17 13 18 14 19 15 20 16 24 17 22 18 21 19 23 21 32 23 29 25
REMARK SMILES IDX 5 27 14 28 6 29 12 30 7 31 10 32 15 33 13 35 8 37 9 38 11 40
REMARK H PARENT 21 20 23 22 32 24 29 26 15 34 13 36 9 39 11 41
REMARK Flexibility Score: inf
ROOT
ATOM      1  O   UNL     1      -0.272 -15.927  -7.625  1.00  0.00    -0.454 OA
ENDROOT
BRANCH   1   2
ATOM      2  C   UNL     1       0.271 -16.758  -6.642  1.00  0.00     0.214 A 
ATOM      3  C   UNL     1       0.047 -16.518  -5.272  1.00  0.00     0.180 A 
ATOM      4  O   UNL     1       0.556 -17.348  -4.366  1.00  0.00    -0.452 OA
ATOM      5  C   UNL     1       1.063 -17.850  -7.017  1.00  0.00     0.239 A 
ATOM      6  C   UNL     1       1.312 -18.396  -4.679  1.00  0.00     0.146 A 
ATOM      7  O   UNL     1       1.280 -18.056  -8.243  1.00  0.00    -0.285 OA
ATOM      8  C   UNL     1       1.607 -18.693  -6.028  1.00  0.00     0.111 A 
ATOM      9  C   UNL     1       1.825 -19.198  -3.652  1.00  0.00     0.094 A 
ATOM     10  C   UNL     1       2.443 -19.797  -6.326  1.00  0.00     0.134 A 
ATOM     11  C   UNL     1       2.669 -20.268  -3.949  1.00  0.00     0.123 A 
ATOM     12  C   UNL     1       2.986 -20.557  -5.283  1.00  0.00     0.093 A 
BRANCH   3  13
ATOM     13  C   UNL     1      -0.752 -15.369  -4.803  1.00  0.00     0.025 A 
ATOM     14  C   UNL     1      -2.048 -15.548  -4.296  1.00  0.00     0.016 A 
ATOM     15  C   UNL     1      -2.786 -14.451  -3.844  1.00  0.00     0.051 A 
ATOM     16  C   UNL     1      -2.238 -13.161  -3.895  1.00  0.00     0.157 A 
ATOM     17  C   UNL     1      -0.215 -14.077  -4.875  1.00  0.00     0.062 A 
ATOM     18  C   UNL     1      -0.943 -12.975  -4.411  1.00  0.00     0.158 A 
BRANCH  16  19
ATOM     19  O   UNL     1      -2.979 -12.072  -3.446  1.00  0.00    -0.504 OA
ATOM     20  H   UNL     1      -3.915 -11.902  -3.783  1.00  0.00     0.293 HD
ENDBRANCH  16  19
BRANCH  18  21
ATOM     21  O   UNL     1      -0.363 -11.711  -4.464  1.00  0.00    -0.504 OA
ATOM     22  H   UNL     1      -0.164 -11.170  -3.630  1.00  0.00     0.293 HD
ENDBRANCH  18  21
ENDBRANCH   3  13
BRANCH  10  23
ATOM     23  O   UNL     1       2.735 -20.145  -7.645  1.00  0.00    -0.507 OA
ATOM     24  H   UNL     1       2.022 -20.470  -8.285  1.00  0.00     0.293 HD
ENDBRANCH  10  23
BRANCH  11  25
ATOM     25  O   UNL     1       3.193 -21.034  -2.913  1.00  0.00    -0.508 OA
ATOM     26  H   UNL     1       2.810 -21.944  -2.684  1.00  0.00     0.293 HD
ENDBRANCH  11  25
ENDBRANCH   1   2
BRANCH   1  27
ATOM     27  C   UNL     1      -1.484 -16.249  -8.304  1.00  0.00     0.339 C 
ATOM     28  C   UNL     1      -2.661 -15.600  -7.550  1.00  0.00     0.214 C 
ATOM     29  O   UNL     1      -1.654 -17.652  -8.326  1.00  0.00    -0.332 OA
ATOM     30  C   UNL     1      -4.015 -16.262  -7.930  1.00  0.00     0.180 C 
ATOM     31  C   UNL     1      -2.693 -18.060  -9.211  1.00  0.00     0.179 C 
ATOM     32  C   UNL     1      -3.889 -17.043  -9.256  1.00  0.00     0.177 C 
BRANCH  28  33
ATOM     33  O   UNL     1      -2.701 -14.224  -7.848  1.00  0.00    -0.384 OA
ATOM     34  H   UNL     1      -1.800 -13.968  -8.179  1.00  0.00     0.211 HD
ENDBRANCH  28  33
BRANCH  30  35
ATOM     35  O   UNL     1      -4.428 -17.133  -6.906  1.00  0.00    -0.387 OA
ATOM     36  H   UNL     1      -3.804 -16.993  -6.146  1.00  0.00     0.211 HD
ENDBRANCH  30  35
BRANCH  31  37
ATOM     37  C   UNL     1      -3.109 -19.491  -8.800  1.00  0.00     0.191 C 
BRANCH  37  38
ATOM     38  O   UNL     1      -3.062 -19.659  -7.407  1.00  0.00    -0.394 OA
ATOM     39  H   UNL     1      -2.237 -20.169  -7.196  1.00  0.00     0.210 HD
ENDBRANCH  37  38
ENDBRANCH  31  37
BRANCH  32  40
ATOM     40  O   UNL     1      -5.107 -17.618  -9.663  1.00  0.00    -0.387 OA
ATOM     41  H   UNL     1      -5.671 -16.912 -10.069  1.00  0.00     0.211 HD
ENDBRANCH  32  40
ENDBRANCH   1  27
TORSDOF 12
ENDMDL
MODEL 5
REMARK VINA RESULT:    -5.032      2.174      6.451
REMARK INTER + INTRA:          -9.206
REMARK INTER:                  -8.200
REMARK INTRA:                  -1.005
REMARK UNBOUND:                -1.820
REMARK SMILES O=c1c(O[C@H]2O[C@@H](CO)[C@@H](O)[C@@H](O)[C@@H]2O)c(-c2ccc(O)c(O)c2)oc2cc(O)cc(O)c12
REMARK SMILES IDX 4 1 3 2 16 3 25 4 2 5 26 6 1 7 33 8 27 9 31 10 28 11 30 12
REMARK SMILES IDX 17 13 18 14 19 15 20 16 24 17 22 18 21 19 23 21 32 23 29 25
REMARK SMILES IDX 5 27 14 28 6 29 12 30 7 31 10 32 15 33 13 35 8 37 9 38 11 40
REMARK H PARENT 21 20 23 22 32 24 29 26 15 34 13 36 9 39 11 41
REMARK Flexibility Score: inf
ROOT
ATOM      1  O   UNL     1      -0.960 -19.053  -5.256  1.00  0.00    -0.454 OA
ENDROOT
BRANCH   1   2
ATOM      2  C   UNL     1       0.358 -18.721  -4.934  1.00  0.00     0.214 A 
ATOM      3  C   UNL     1       0.736 -17.390  -4.672  1.00  0.00     0.180 A 
ATOM      4  O   UNL     1       1.995 -17.115  -4.340  1.00  0.00    -0.452 OA
ATOM      5  C   UNL     1       1.331 -19.726  -4.875  1.00  0.00     0.239 A 
ATOM      6  C   UNL     1       2.950 -18.039  -4.271  1.00  0.00     0.146 A 
ATOM      7  O   UNL     1       0.999 -20.916  -5.127  1.00  0.00    -0.285 OA
ATOM      8  C   UNL     1       2.661 -19.394  -4.544  1.00  0.00     0.111 A 
ATOM      9  C   UNL     1       4.252 -17.649  -3.937  1.00  0.00     0.094 A 
ATOM     10  C   UNL     1       3.707 -20.347  -4.496  1.00  0.00     0.134 A 
ATOM     11  C   UNL     1       5.284 -18.587  -3.917  1.00  0.00     0.123 A 
ATOM     12  C   UNL     1       5.012 -19.930  -4.208  1.00  0.00     0.093 A 
BRANCH   3  13
ATOM     13  C   UNL     1      -0.230 -16.276  -4.746  1.00  0.00     0.025 A 
ATOM     14  C   UNL     1      -1.158 -16.055  -3.718  1.00  0.00     0.016 A 
ATOM     15  C   UNL     1      -2.057 -14.989  -3.797  1.00  0.00     0.051 A 
ATOM     16  C   UNL     1      -2.041 -14.132  -4.907  1.00  0.00     0.157 A 
ATOM     17  C   UNL     1      -0.231 -15.434  -5.865  1.00  0.00     0.062 A 
ATOM     18  C   UNL     1      -1.120 -14.355  -5.945  1.00  0.00     0.158 A 
BRANCH  16  19
ATOM     19  O   UNL     1      -2.943 -13.074  -4.982  1.00  0.00    -0.504 OA
ATOM     20  H   UNL     1      -2.641 -12.147  -5.246  1.00  0.00     0.293 HD
ENDBRANCH  16  19
BRANCH  18  21
ATOM     21  O   UNL     1      -1.067 -13.517  -7.056  1.00  0.00    -0.504 OA
ATOM     22  H   UNL     1      -0.314 -12.852  -7.198  1.00  0.00     0.293 HD
ENDBRANCH  18  21
ENDBRANCH   3  13
BRANCH  10  23
ATOM     23  O   UNL     1       3.461 -21.701  -4.727  1.00  0.00    -0.507 OA
ATOM     24  H   UNL     1       4.025 -22.248  -5.364  1.00  0.00     0.293 HD
ENDBRANCH  10  23
BRANCH  11  25
ATOM     25  O   UNL     1       6.578 -18.175  -3.613  1.00  0.00    -0.508 OA
ATOM     26  H   UNL     1       6.764 -17.551  -2.836  1.00  0.00     0.293 HD
ENDBRANCH  11  25
ENDBRANCH   1   2
BRANCH   1  27
ATOM     27  C   UNL     1      -1.474 -18.918  -6.579  1.00  0.00     0.339 C 
ATOM     28  C   UNL     1      -0.292 -18.794  -7.560  1.00  0.00     0.214 C 
ATOM     29  O   UNL     1      -2.275 -17.756  -6.656  1.00  0.00    -0.332 OA
ATOM     30  C   UNL     1      -0.742 -18.189  -8.919  1.00  0.00     0.180 C 
ATOM     31  C   UNL     1      -3.035 -17.697  -7.860  1.00  0.00     0.179 C 
ATOM     32  C   UNL     1      -2.272 -18.306  -9.091  1.00  0.00     0.177 C 
BRANCH  28  33
ATOM     33  O   UNL     1       0.275 -20.066  -7.766  1.00  0.00    -0.384 OA
ATOM     34  H   UNL     1       1.232 -19.929  -7.995  1.00  0.00     0.211 HD
ENDBRANCH  28  33
BRANCH  30  35
ATOM     35  O   UNL     1      -0.359 -16.838  -8.994  1.00  0.00    -0.387 OA
ATOM     36  H   UNL     1      -0.025 -16.588  -8.092  1.00  0.00     0.211 HD
ENDBRANCH  30  35
BRANCH  31  37
ATOM     37  C   UNL     1      -3.464 -16.226  -8.060  1.00  0.00     0.191 C 
BRANCH  37  38
ATOM     38  O   UNL     1      -2.521 -15.515  -8.819  1.00  0.00    -0.394 OA
ATOM     39  H   UNL     1      -2.702 -15.709  -9.776  1.00  0.00     0.210 HD
ENDBRANCH  37  38
ENDBRANCH  31  37
BRANCH  32  40
ATOM     40  O   UNL     1      -2.716 -17.814 -10.332  1.00  0.00    -0.387 OA
ATOM     41  H   UNL     1      -2.135 -17.057 -10.599  1.00  0.00     0.211 HD
ENDBRANCH  32  40
ENDBRANCH   1  27
TORSDOF 12
ENDMDL
MODEL 6
REMARK VINA RESULT:    -4.925      2.395      8.085
REMARK INTER + INTRA:          -9.048
REMARK INTER:                  -8.067
REMARK INTRA:                  -0.981
REMARK UNBOUND:                -1.820
REMARK SMILES O=c1c(O[C@H]2O[C@@H](CO)[C@@H](O)[C@@H](O)[C@@H]2O)c(-c2ccc(O)c(O)c2)oc2cc(O)cc(O)c12
REMARK SMILES IDX 4 1 3 2 16 3 25 4 2 5 26 6 1 7 33 8 27 9 31 10 28 11 30 12
REMARK SMILES IDX 17 13 18 14 19 15 20 16 24 17 22 18 21 19 23 21 32 23 29 25
REMARK SMILES IDX 5 27 14 28 6 29 12 30 7 31 10 32 15 33 13 35 8 37 9 38 11 40
REMARK H PARENT 21 20 23 22 32 24 29 26 15 34 13 36 9 39 11 41
REMARK Flexibility Score: inf
ROOT
ATOM      1  O   UNL     1      -1.064 -18.673  -4.988  1.00  0.00    -0.454 OA
ENDROOT
BRANCH   1   2
ATOM      2  C   UNL     1      -0.816 -19.403  -6.153  1.00  0.00     0.214 A 
ATOM      3  C   UNL     1       0.494 -19.612  -6.624  1.00  0.00     0.180 A 
ATOM      4  O   UNL     1       0.693 -20.337  -7.721  1.00  0.00    -0.452 OA
ATOM      5  C   UNL     1      -1.889 -19.936  -6.878  1.00  0.00     0.239 A 
ATOM      6  C   UNL     1      -0.297 -20.862  -8.439  1.00  0.00     0.146 A 
ATOM      7  O   UNL     1      -3.065 -19.734  -6.468  1.00  0.00    -0.285 OA
ATOM      8  C   UNL     1      -1.642 -20.678  -8.050  1.00  0.00     0.111 A 
ATOM      9  C   UNL     1       0.011 -21.590  -9.594  1.00  0.00     0.094 A 
ATOM     10  C   UNL     1      -2.674 -21.220  -8.855  1.00  0.00     0.134 A 
ATOM     11  C   UNL     1      -1.009 -22.099 -10.397  1.00  0.00     0.123 A 
ATOM     12  C   UNL     1      -2.348 -21.903 -10.033  1.00  0.00     0.093 A 
BRANCH   3  13
ATOM     13  C   UNL     1       1.671 -19.054  -5.928  1.00  0.00     0.025 A 
ATOM     14  C   UNL     1       2.472 -19.859  -5.103  1.00  0.00     0.016 A 
ATOM     15  C   UNL     1       3.589 -19.319  -4.462  1.00  0.00     0.051 A 
ATOM     16  C   UNL     1       3.918 -17.966  -4.634  1.00  0.00     0.157 A 
ATOM     17  C   UNL     1       1.988 -17.698  -6.080  1.00  0.00     0.062 A 
ATOM     18  C   UNL     1       3.113 -17.154  -5.451  1.00  0.00     0.158 A 
BRANCH  16  19
ATOM     19  O   UNL     1       5.030 -17.433  -3.989  1.00  0.00    -0.504 OA
ATOM     20  H   UNL     1       5.908 -17.313  -4.473  1.00  0.00     0.293 HD
ENDBRANCH  16  19
BRANCH  18  21
ATOM     21  O   UNL     1       3.417 -15.810  -5.656  1.00  0.00    -0.504 OA
ATOM     22  H   UNL     1       2.707 -15.086  -5.648  1.00  0.00     0.293 HD
ENDBRANCH  18  21
ENDBRANCH   3  13
BRANCH  10  23
ATOM     23  O   UNL     1      -4.015 -21.090  -8.493  1.00  0.00    -0.507 OA
ATOM     24  H   UNL     1      -4.298 -20.626  -7.639  1.00  0.00     0.293 HD
ENDBRANCH  10  23
BRANCH  11  25
ATOM     25  O   UNL     1      -0.684 -22.793 -11.558  1.00  0.00    -0.508 OA
ATOM     26  H   UNL     1      -0.155 -23.657 -11.526  1.00  0.00     0.293 HD
ENDBRANCH  11  25
ENDBRANCH   1   2
BRANCH   1  27
ATOM     27  C   UNL     1      -1.301 -17.267  -5.010  1.00  0.00     0.339 C 
ATOM     28  C   UNL     1      -2.720 -16.996  -4.473  1.00  0.00     0.214 C 
ATOM     29  O   UNL     1      -1.202 -16.793  -6.338  1.00  0.00    -0.332 OA
ATOM     30  C   UNL     1      -3.226 -15.586  -4.887  1.00  0.00     0.180 C 
ATOM     31  C   UNL     1      -1.161 -15.370  -6.407  1.00  0.00     0.179 C 
ATOM     32  C   UNL     1      -2.045 -14.683  -5.306  1.00  0.00     0.177 C 
BRANCH  28  33
ATOM     33  O   UNL     1      -2.714 -17.109  -3.069  1.00  0.00    -0.384 OA
ATOM     34  H   UNL     1      -2.529 -16.205  -2.701  1.00  0.00     0.211 HD
ENDBRANCH  28  33
BRANCH  30  35
ATOM     35  O   UNL     1      -4.138 -15.696  -5.951  1.00  0.00    -0.387 OA
ATOM     36  H   UNL     1      -4.932 -16.177  -5.595  1.00  0.00     0.211 HD
ENDBRANCH  30  35
BRANCH  31  37
ATOM     37  C   UNL     1      -1.540 -14.970  -7.851  1.00  0.00     0.191 C 
BRANCH  37  38
ATOM     38  O   UNL     1      -2.810 -14.373  -7.901  1.00  0.00    -0.394 OA
ATOM     39  H   UNL     1      -2.677 -13.389  -7.892  1.00  0.00     0.210 HD
ENDBRANCH  37  38
ENDBRANCH  31  37
BRANCH  32  40
ATOM     40  O   UNL     1      -2.455 -13.379  -5.643  1.00  0.00    -0.387 OA
ATOM     41  H   UNL     1      -2.069 -12.746  -4.985  1.00  0.00     0.211 HD
ENDBRANCH  32  40
ENDBRANCH   1  27
TORSDOF 12
ENDMDL
MODEL 7
REMARK VINA RESULT:    -4.922      2.477      7.271
REMARK INTER + INTRA:          -9.044
REMARK INTER:                  -7.486
REMARK INTRA:                  -1.558
REMARK UNBOUND:                -1.820
REMARK SMILES O=c1c(O[C@H]2O[C@@H](CO)[C@@H](O)[C@@H](O)[C@@H]2O)c(-c2ccc(O)c(O)c2)oc2cc(O)cc(O)c12
REMARK SMILES IDX 4 1 3 2 16 3 25 4 2 5 26 6 1 7 33 8 27 9 31 10 28 11 30 12
REMARK SMILES IDX 17 13 18 14 19 15 20 16 24 17 22 18 21 19 23 21 32 23 29 25
REMARK SMILES IDX 5 27 14 28 6 29 12 30 7 31 10 32 15 33 13 35 8 37 9 38 11 40
REMARK H PARENT 21 20 23 22 32 24 29 26 15 34 13 36 9 39 11 41
REMARK Flexibility Score: inf
ROOT
ATOM      1  O   UNL     1       0.336 -18.857  -8.155  1.00  0.00    -0.454 OA
ENDROOT
BRANCH   1   2
ATOM      2  C   UNL     1       1.032 -19.819  -7.420  1.00  0.00     0.214 A 
ATOM      3  C   UNL     1       0.717 -21.188  -7.516  1.00  0.00     0.180 A 
ATOM      4  O   UNL     1       1.422 -22.078  -6.823  1.00  0.00    -0.452 OA
ATOM      5  C   UNL     1       2.065 -19.421  -6.562  1.00  0.00     0.239 A 
ATOM      6  C   UNL     1       2.410 -21.743  -5.998  1.00  0.00     0.146 A 
ATOM      7  O   UNL     1       2.338 -18.194  -6.460  1.00  0.00    -0.285 OA
ATOM      8  C   UNL     1       2.774 -20.389  -5.824  1.00  0.00     0.111 A 
ATOM      9  C   UNL     1       3.078 -22.750  -5.291  1.00  0.00     0.094 A 
ATOM     10  C   UNL     1       3.808 -20.064  -4.911  1.00  0.00     0.134 A 
ATOM     11  C   UNL     1       4.077 -22.422  -4.375  1.00  0.00     0.123 A 
ATOM     12  C   UNL     1       4.431 -21.081  -4.178  1.00  0.00     0.093 A 
BRANCH   3  13
ATOM     13  C   UNL     1      -0.379 -21.676  -8.377  1.00  0.00     0.025 A 
ATOM     14  C   UNL     1      -1.640 -21.977  -7.840  1.00  0.00     0.016 A 
ATOM     15  C   UNL     1      -2.670 -22.427  -8.670  1.00  0.00     0.051 A 
ATOM     16  C   UNL     1      -2.452 -22.584 -10.046  1.00  0.00     0.157 A 
ATOM     17  C   UNL     1      -0.156 -21.856  -9.748  1.00  0.00     0.062 A 
ATOM     18  C   UNL     1      -1.187 -22.293 -10.587  1.00  0.00     0.158 A 
BRANCH  16  19
ATOM     19  O   UNL     1      -3.481 -23.036 -10.867  1.00  0.00    -0.504 OA
ATOM     20  H   UNL     1      -3.887 -23.951 -10.741  1.00  0.00     0.293 HD
ENDBRANCH  16  19
BRANCH  18  21
ATOM     21  O   UNL     1      -0.938 -22.425 -11.950  1.00  0.00    -0.504 OA
ATOM     22  H   UNL     1      -1.663 -22.681 -12.612  1.00  0.00     0.293 HD
ENDBRANCH  18  21
ENDBRANCH   3  13
BRANCH  10  23
ATOM     23  O   UNL     1       4.221 -18.744  -4.732  1.00  0.00    -0.507 OA
ATOM     24  H   UNL     1       3.868 -17.988  -5.303  1.00  0.00     0.293 HD
ENDBRANCH  10  23
BRANCH  11  25
ATOM     25  O   UNL     1       4.709 -23.435  -3.660  1.00  0.00    -0.508 OA
ATOM     26  H   UNL     1       4.204 -23.998  -2.985  1.00  0.00     0.293 HD
ENDBRANCH  11  25
ENDBRANCH   1   2
BRANCH   1  27
ATOM     27  C   UNL     1      -0.874 -18.269  -7.680  1.00  0.00     0.339 C 
ATOM     28  C   UNL     1      -1.697 -17.784  -8.888  1.00  0.00     0.214 C 
ATOM     29  O   UNL     1      -0.568 -17.170  -6.846  1.00  0.00    -0.332 OA
ATOM     30  C   UNL     1      -2.772 -16.744  -8.465  1.00  0.00     0.180 C 
ATOM     31  C   UNL     1      -1.703 -16.701  -6.124  1.00  0.00     0.179 C 
ATOM     32  C   UNL     1      -3.037 -16.820  -6.945  1.00  0.00     0.177 C 
BRANCH  28  33
ATOM     33  O   UNL     1      -2.317 -18.890  -9.501  1.00  0.00    -0.384 OA
ATOM     34  H   UNL     1      -2.736 -19.430  -8.781  1.00  0.00     0.211 HD
ENDBRANCH  28  33
BRANCH  30  35
ATOM     35  O   UNL     1      -2.347 -15.448  -8.807  1.00  0.00    -0.387 OA
ATOM     36  H   UNL     1      -2.899 -15.165  -9.583  1.00  0.00     0.211 HD
ENDBRANCH  30  35
BRANCH  31  37
ATOM     37  C   UNL     1      -1.387 -15.262  -5.656  1.00  0.00     0.191 C 
BRANCH  37  38
ATOM     38  O   UNL     1      -0.624 -14.568  -6.609  1.00  0.00    -0.394 OA
ATOM     39  H   UNL     1       0.058 -15.199  -6.960  1.00  0.00     0.210 HD
ENDBRANCH  37  38
ENDBRANCH  31  37
BRANCH  32  40
ATOM     40  O   UNL     1      -4.041 -15.926  -6.527  1.00  0.00    -0.387 OA
ATOM     41  H   UNL     1      -4.726 -15.864  -7.239  1.00  0.00     0.211 HD
ENDBRANCH  32  40
ENDBRANCH   1  27
TORSDOF 12
ENDMDL
MODEL 8
REMARK VINA RESULT:    -4.809      2.021      4.813
REMARK INTER + INTRA:          -8.879
REMARK INTER:                  -7.236
REMARK INTRA:                  -1.643
REMARK UNBOUND:                -1.820
REMARK SMILES O=c1c(O[C@H]2O[C@@H](CO)[C@@H](O)[C@@H](O)[C@@H]2O)c(-c2ccc(O)c(O)c2)oc2cc(O)cc(O)c12
REMARK SMILES IDX 4 1 3 2 16 3 25 4 2 5 26 6 1 7 33 8 27 9 31 10 28 11 30 12
REMARK SMILES IDX 17 13 18 14 19 15 20 16 24 17 22 18 21 19 23 21 32 23 29 25
REMARK SMILES IDX 5 27 14 28 6 29 12 30 7 31 10 32 15 33 13 35 8 37 9 38 11 40
REMARK H PARENT 21 20 23 22 32 24 29 26 15 34 13 36 9 39 11 41
REMARK Flexibility Score: inf
ROOT
ATOM      1  O   UNL     1      -1.708 -17.697  -4.264  1.00  0.00    -0.454 OA
ENDROOT
BRANCH   1   2
ATOM      2  C   UNL     1      -1.623 -16.307  -4.166  1.00  0.00     0.214 A 
ATOM      3  C   UNL     1      -0.383 -15.641  -4.219  1.00  0.00     0.180 A 
ATOM      4  O   UNL     1      -0.343 -14.313  -4.152  1.00  0.00    -0.452 OA
ATOM      5  C   UNL     1      -2.790 -15.550  -4.004  1.00  0.00     0.239 A 
ATOM      6  C   UNL     1      -1.427 -13.558  -3.999  1.00  0.00     0.146 A 
ATOM      7  O   UNL     1      -3.901 -16.145  -3.938  1.00  0.00    -0.285 OA
ATOM      8  C   UNL     1      -2.708 -14.147  -3.911  1.00  0.00     0.111 A 
ATOM      9  C   UNL     1      -1.282 -12.168  -3.913  1.00  0.00     0.094 A 
ATOM     10  C   UNL     1      -3.838 -13.316  -3.714  1.00  0.00     0.134 A 
ATOM     11  C   UNL     1      -2.395 -11.357  -3.693  1.00  0.00     0.123 A 
ATOM     12  C   UNL     1      -3.667 -11.933  -3.581  1.00  0.00     0.093 A 
BRANCH   3  13
ATOM     13  C   UNL     1       0.890 -16.376  -4.357  1.00  0.00     0.025 A 
ATOM     14  C   UNL     1       1.635 -16.750  -3.228  1.00  0.00     0.016 A 
ATOM     15  C   UNL     1       2.832 -17.456  -3.375  1.00  0.00     0.051 A 
ATOM     16  C   UNL     1       3.301 -17.794  -4.653  1.00  0.00     0.157 A 
ATOM     17  C   UNL     1       1.373 -16.693  -5.633  1.00  0.00     0.062 A 
ATOM     18  C   UNL     1       2.564 -17.412  -5.787  1.00  0.00     0.158 A 
BRANCH  16  19
ATOM     19  O   UNL     1       4.496 -18.493  -4.793  1.00  0.00    -0.504 OA
ATOM     20  H   UNL     1       4.799 -18.837  -5.692  1.00  0.00     0.293 HD
ENDBRANCH  16  19
BRANCH  18  21
ATOM     21  O   UNL     1       2.992 -17.742  -7.070  1.00  0.00    -0.504 OA
ATOM     22  H   UNL     1       2.351 -17.826  -7.851  1.00  0.00     0.293 HD
ENDBRANCH  18  21
ENDBRANCH   3  13
BRANCH  10  23
ATOM     23  O   UNL     1      -5.125 -13.852  -3.653  1.00  0.00    -0.507 OA
ATOM     24  H   UNL     1      -5.882 -13.379  -3.176  1.00  0.00     0.293 HD
ENDBRANCH  10  23
BRANCH  11  25
ATOM     25  O   UNL     1      -2.227  -9.980  -3.579  1.00  0.00    -0.508 OA
ATOM     26  H   UNL     1      -1.314  -9.550  -3.676  1.00  0.00     0.293 HD
ENDBRANCH  11  25
ENDBRANCH   1   2
BRANCH   1  27
ATOM     27  C   UNL     1      -1.967 -18.355  -5.502  1.00  0.00     0.339 C 
ATOM     28  C   UNL     1      -0.783 -19.287  -5.825  1.00  0.00     0.214 C 
ATOM     29  O   UNL     1      -2.104 -17.393  -6.528  1.00  0.00    -0.332 OA
ATOM     30  C   UNL     1      -0.758 -19.675  -7.330  1.00  0.00     0.180 C 
ATOM     31  C   UNL     1      -2.625 -17.950  -7.731  1.00  0.00     0.179 C 
ATOM     32  C   UNL     1      -2.134 -19.420  -7.983  1.00  0.00     0.177 C 
BRANCH  28  33
ATOM     33  O   UNL     1      -0.877 -20.448  -5.033  1.00  0.00    -0.384 OA
ATOM     34  H   UNL     1      -0.471 -21.192  -5.552  1.00  0.00     0.211 HD
ENDBRANCH  28  33
BRANCH  30  35
ATOM     35  O   UNL     1       0.229 -18.931  -8.000  1.00  0.00    -0.387 OA
ATOM     36  H   UNL     1       0.678 -18.371  -7.313  1.00  0.00     0.211 HD
ENDBRANCH  30  35
BRANCH  31  37
ATOM     37  C   UNL     1      -2.277 -16.973  -8.877  1.00  0.00     0.191 C 
BRANCH  37  38
ATOM     38  O   UNL     1      -1.005 -16.407  -8.700  1.00  0.00    -0.394 OA
ATOM     39  H   UNL     1      -1.012 -15.515  -9.138  1.00  0.00     0.210 HD
ENDBRANCH  37  38
ENDBRANCH  31  37
BRANCH  32  40
ATOM     40  O   UNL     1      -2.169 -19.805  -9.337  1.00  0.00    -0.387 OA
ATOM     41  H   UNL     1      -2.631 -19.098  -9.855  1.00  0.00     0.211 HD
ENDBRANCH  32  40
ENDBRANCH   1  27
TORSDOF 12
ENDMDL
MODEL 9
REMARK VINA RESULT:    -4.793      2.285      5.338
REMARK INTER + INTRA:          -8.855
REMARK INTER:                  -7.423
REMARK INTRA:                  -1.432
REMARK UNBOUND:                -1.820
REMARK SMILES O=c1c(O[C@H]2O[C@@H](CO)[C@@H](O)[C@@H](O)[C@@H]2O)c(-c2ccc(O)c(O)c2)oc2cc(O)cc(O)c12
REMARK SMILES IDX 4 1 3 2 16 3 25 4 2 5 26 6 1 7 33 8 27 9 31 10 28 11 30 12
REMARK SMILES IDX 17 13 18 14 19 15 20 16 24 17 22 18 21 19 23 21 32 23 29 25
REMARK SMILES IDX 5 27 14 28 6 29 12 30 7 31 10 32 15 33 13 35 8 37 9 38 11 40
REMARK H PARENT 21 20 23 22 32 24 29 26 15 34 13 36 9 39 11 41
REMARK Flexibility Score: inf
ROOT
ATOM      1  O   UNL     1       1.296 -17.991  -7.258  1.00  0.00    -0.454 OA
ENDROOT
BRANCH   1   2
ATOM      2  C   UNL     1       0.788 -16.977  -6.442  1.00  0.00     0.214 A 
ATOM      3  C   UNL     1       1.330 -16.718  -5.169  1.00  0.00     0.180 A 
ATOM      4  O   UNL     1       0.839 -15.725  -4.432  1.00  0.00    -0.452 OA
ATOM      5  C   UNL     1      -0.288 -16.202  -6.890  1.00  0.00     0.239 A 
ATOM      6  C   UNL     1      -0.181 -14.965  -4.820  1.00  0.00     0.146 A 
ATOM      7  O   UNL     1      -0.787 -16.444  -8.023  1.00  0.00    -0.285 OA
ATOM      8  C   UNL     1      -0.799 -15.174  -6.072  1.00  0.00     0.111 A 
ATOM      9  C   UNL     1      -0.645 -13.958  -3.964  1.00  0.00     0.094 A 
ATOM     10  C   UNL     1      -1.905 -14.369  -6.440  1.00  0.00     0.134 A 
ATOM     11  C   UNL     1      -1.750 -13.187  -4.319  1.00  0.00     0.123 A 
ATOM     12  C   UNL     1      -2.385 -13.402  -5.550  1.00  0.00     0.093 A 
BRANCH   3  13
ATOM     13  C   UNL     1       2.445 -17.515  -4.619  1.00  0.00     0.025 A 
ATOM     14  C   UNL     1       2.206 -18.723  -3.946  1.00  0.00     0.016 A 
ATOM     15  C   UNL     1       3.273 -19.472  -3.442  1.00  0.00     0.051 A 
ATOM     16  C   UNL     1       4.591 -19.021  -3.604  1.00  0.00     0.157 A 
ATOM     17  C   UNL     1       3.761 -17.055  -4.758  1.00  0.00     0.062 A 
ATOM     18  C   UNL     1       4.835 -17.807  -4.268  1.00  0.00     0.158 A 
BRANCH  16  19
ATOM     19  O   UNL     1       5.649 -19.770  -3.096  1.00  0.00    -0.504 OA
ATOM     20  H   UNL     1       5.978 -20.599  -3.569  1.00  0.00     0.293 HD
ENDBRANCH  16  19
BRANCH  18  21
ATOM     21  O   UNL     1       6.131 -17.336  -4.458  1.00  0.00    -0.504 OA
ATOM     22  H   UNL     1       6.405 -16.389  -4.217  1.00  0.00     0.293 HD
ENDBRANCH  18  21
ENDBRANCH   3  13
BRANCH  10  23
ATOM     23  O   UNL     1      -2.526 -14.521  -7.681  1.00  0.00    -0.507 OA
ATOM     24  H   UNL     1      -3.504 -14.302  -7.822  1.00  0.00     0.293 HD
ENDBRANCH  10  23
BRANCH  11  25
ATOM     25  O   UNL     1      -2.216 -12.212  -3.442  1.00  0.00    -0.508 OA
ATOM     26  H   UNL     1      -1.966 -12.224  -2.460  1.00  0.00     0.293 HD
ENDBRANCH  11  25
ENDBRANCH   1   2
BRANCH   1  27
ATOM     27  C   UNL     1       0.933 -19.358  -7.083  1.00  0.00     0.339 C 
ATOM     28  C   UNL     1       2.013 -20.246  -7.731  1.00  0.00     0.214 C 
ATOM     29  O   UNL     1      -0.312 -19.599  -7.709  1.00  0.00    -0.332 OA
ATOM     30  C   UNL     1       1.487 -21.683  -7.996  1.00  0.00     0.180 C 
ATOM     31  C   UNL     1      -0.866 -20.863  -7.352  1.00  0.00     0.179 C 
ATOM     32  C   UNL     1       0.229 -21.970  -7.147  1.00  0.00     0.177 C 
BRANCH  28  33
ATOM     33  O   UNL     1       3.139 -20.297  -6.886  1.00  0.00    -0.384 OA
ATOM     34  H   UNL     1       2.865 -20.774  -6.058  1.00  0.00     0.211 HD
ENDBRANCH  28  33
BRANCH  30  35
ATOM     35  O   UNL     1       1.183 -21.839  -9.360  1.00  0.00    -0.387 OA
ATOM     36  H   UNL     1       0.458 -22.516  -9.413  1.00  0.00     0.211 HD
ENDBRANCH  30  35
BRANCH  31  37
ATOM     37  C   UNL     1      -1.920 -21.220  -8.424  1.00  0.00     0.191 C 
BRANCH  37  38
ATOM     38  O   UNL     1      -1.534 -20.767  -9.695  1.00  0.00    -0.394 OA
ATOM     39  H   UNL     1      -1.900 -21.404 -10.363  1.00  0.00     0.210 HD
ENDBRANCH  37  38
ENDBRANCH  31  37
BRANCH  32  40
ATOM     40  O   UNL     1      -0.253 -23.281  -7.321  1.00  0.00    -0.387 OA
ATOM     41  H   UNL     1       0.099 -23.637  -8.176  1.00  0.00     0.211 HD
ENDBRANCH  32  40
ENDBRANCH   1  27
TORSDOF 12
ENDMDL
