MODEL 1
REMARK VINA RESULT:     5.311      0.000      0.000
REMARK INTER + INTRA:           9.770
REMARK INTER:                   7.018
REMARK INTRA:                   2.752
REMARK UNBOUND:                 2.752
REMARK SMILES CC[C@@H](C=C[C@@H](C)[C@H]1CC[C@H]2[C@H]3CC=C4C[C@H](O)CC[C@@]4(C)[C@@H]3CC[C@@]12C)C(C)C
REMARK SMILES IDX 6 1 7 2 5 3 4 4 3 5 2 6 1 7 28 8 29 9 30 10 8 11 9 12 26 13
REMARK SMILES IDX 10 14 11 15 25 16 27 17 12 18 24 19 23 20 13 21 21 22 14 23
REMARK SMILES IDX 15 24 20 25 22 26 16 27 19 28 17 29 18 30
REMARK H PARENT 18 31
REMARK Flexibility Score: inf
ROOT
ATOM      1  C   UNL     1       6.514 -33.237  16.303  1.00  0.00     0.012 C 
ATOM      2  C   UNL     1       5.919 -34.045  17.467  1.00  0.00     0.012 C 
ENDROOT
BRANCH   1   3
ATOM      3  C   UNL     1       7.760 -33.959  15.811  1.00  0.00    -0.028 C 
ATOM      4  C   UNL     1       8.129 -34.079  14.521  1.00  0.00    -0.027 C 
BRANCH   4   5
ATOM      5  C   UNL     1       7.365 -33.539  13.321  1.00  0.00     0.014 C 
BRANCH   5   6
ATOM      6  C   UNL     1       6.015 -34.307  13.222  1.00  0.00     0.004 C 
ATOM      7  C   UNL     1       5.881 -35.124  11.934  1.00  0.00     0.004 C 
ENDBRANCH   5   6
BRANCH   5   8
ATOM      8  C   UNL     1       8.248 -33.682  12.042  1.00  0.00    -0.011 C 
ATOM      9  C   UNL     1       8.981 -35.037  12.017  1.00  0.00     0.008 C 
ATOM     10  C   UNL     1       9.287 -32.555  11.918  1.00  0.00     0.008 C 
ENDBRANCH   5   8
ENDBRANCH   4   5
ENDBRANCH   1   3
BRANCH   1  11
ATOM     11  C   UNL     1       6.870 -31.765  16.707  1.00  0.00     0.002 C 
ATOM     12  C   UNL     1       7.786 -31.732  17.946  1.00  0.00     0.005 C 
ATOM     13  C   UNL     1       7.594 -30.863  15.655  1.00  0.00    -0.026 C 
ATOM     14  C   UNL     1       8.680 -30.503  17.820  1.00  0.00     0.005 C 
ATOM     15  C   UNL     1       8.243 -29.773  16.546  1.00  0.00    -0.001 C 
ATOM     16  C   UNL     1       8.692 -31.657  14.885  1.00  0.00     0.007 C 
ATOM     17  C   UNL     1       6.586 -30.212  14.671  1.00  0.00     0.012 C 
ATOM     18  C   UNL     1       9.355 -28.925  15.841  1.00  0.00     0.000 C 
ATOM     19  C   UNL     1       9.674 -30.757  14.132  1.00  0.00     0.005 C 
ATOM     20  C   UNL     1      10.404 -29.794  15.097  1.00  0.00     0.003 C 
ATOM     21  C   UNL     1      10.003 -27.905  16.811  1.00  0.00     0.031 C 
ATOM     22  C   UNL     1      11.500 -28.901  14.397  1.00  0.00    -0.008 C 
ATOM     23  C   UNL     1      11.398 -27.462  16.454  1.00  0.00    -0.027 C 
ATOM     24  C   UNL     1      12.127 -27.981  15.445  1.00  0.00    -0.065 C 
ATOM     25  C   UNL     1      12.623 -29.806  13.806  1.00  0.00     0.014 C 
ATOM     26  C   UNL     1      10.900 -28.027  13.262  1.00  0.00     0.016 C 
ATOM     27  C   UNL     1      13.629 -27.773  15.482  1.00  0.00     0.063 C 
ATOM     28  C   UNL     1      13.839 -29.032  13.253  1.00  0.00     0.033 C 
ATOM     29  C   UNL     1      14.262 -27.799  14.087  1.00  0.00     0.118 C 
BRANCH  29  30
ATOM     30  O   UNL     1      13.941 -26.609  13.414  1.00  0.00    -0.393 OA
ATOM     31  H   UNL     1      14.148 -26.755  12.455  1.00  0.00     0.210 HD
ENDBRANCH  29  30
ENDBRANCH   1  11
TORSDOF 6
ENDMDL
MODEL 2
REMARK VINA RESULT:     6.046      1.365      3.885
REMARK INTER + INTRA:          10.742
REMARK INTER:                  12.163
REMARK INTRA:                  -1.421
REMARK UNBOUND:                 2.752
REMARK SMILES CC[C@@H](C=C[C@@H](C)[C@H]1CC[C@H]2[C@H]3CC=C4C[C@H](O)CC[C@@]4(C)[C@@H]3CC[C@@]12C)C(C)C
REMARK SMILES IDX 6 1 7 2 5 3 4 4 3 5 2 6 1 7 28 8 29 9 30 10 8 11 9 12 26 13
REMARK SMILES IDX 10 14 11 15 25 16 27 17 12 18 24 19 23 20 13 21 21 22 14 23
REMARK SMILES IDX 15 24 20 25 22 26 16 27 19 28 17 29 18 30
REMARK H PARENT 18 31
REMARK Flexibility Score: inf
ROOT
ATOM      1  C   UNL     1       6.656 -33.914  14.697  1.00  0.00     0.012 C 
ATOM      2  C   UNL     1       5.878 -35.125  14.157  1.00  0.00     0.012 C 
ENDROOT
BRANCH   1   3
ATOM      3  C   UNL     1       5.875 -33.331  15.866  1.00  0.00    -0.028 C 
ATOM      4  C   UNL     1       6.396 -32.561  16.841  1.00  0.00    -0.027 C 
BRANCH   4   5
ATOM      5  C   UNL     1       7.856 -32.150  16.969  1.00  0.00     0.014 C 
BRANCH   5   6
ATOM      6  C   UNL     1       8.592 -33.236  17.806  1.00  0.00     0.004 C 
ATOM      7  C   UNL     1       7.723 -33.826  18.922  1.00  0.00     0.004 C 
ENDBRANCH   5   6
BRANCH   5   8
ATOM      8  C   UNL     1       7.936 -30.726  17.602  1.00  0.00    -0.011 C 
ATOM      9  C   UNL     1       6.531 -30.158  17.880  1.00  0.00     0.008 C 
ATOM     10  C   UNL     1       8.706 -29.733  16.716  1.00  0.00     0.008 C 
ENDBRANCH   5   8
ENDBRANCH   4   5
ENDBRANCH   1   3
BRANCH   1  11
ATOM     11  C   UNL     1       6.895 -32.813  13.608  1.00  0.00     0.002 C 
ATOM     12  C   UNL     1       6.273 -31.467  14.028  1.00  0.00     0.005 C 
ATOM     13  C   UNL     1       8.370 -32.463  13.222  1.00  0.00    -0.026 C 
ATOM     14  C   UNL     1       7.135 -30.359  13.432  1.00  0.00     0.005 C 
ATOM     15  C   UNL     1       8.222 -31.049  12.602  1.00  0.00    -0.001 C 
ATOM     16  C   UNL     1       9.290 -32.409  14.478  1.00  0.00     0.007 C 
ATOM     17  C   UNL     1       8.931 -33.449  12.163  1.00  0.00     0.012 C 
ATOM     18  C   UNL     1       9.563 -30.253  12.454  1.00  0.00     0.000 C 
ATOM     19  C   UNL     1      10.627 -31.713  14.220  1.00  0.00     0.005 C 
ATOM     20  C   UNL     1      10.417 -30.254  13.750  1.00  0.00     0.003 C 
ATOM     21  C   UNL     1       9.327 -28.829  11.894  1.00  0.00     0.031 C 
ATOM     22  C   UNL     1      11.760 -29.449  13.556  1.00  0.00    -0.008 C 
ATOM     23  C   UNL     1      10.386 -27.812  12.233  1.00  0.00    -0.027 C 
ATOM     24  C   UNL     1      11.420 -28.039  13.068  1.00  0.00    -0.065 C 
ATOM     25  C   UNL     1      12.509 -29.329  14.917  1.00  0.00     0.014 C 
ATOM     26  C   UNL     1      12.697 -30.123  12.516  1.00  0.00     0.016 C 
ATOM     27  C   UNL     1      12.128 -26.834  13.657  1.00  0.00     0.063 C 
ATOM     28  C   UNL     1      13.746 -28.407  14.883  1.00  0.00     0.033 C 
ATOM     29  C   UNL     1      13.585 -27.129  14.026  1.00  0.00     0.118 C 
BRANCH  29  30
ATOM     30  O   UNL     1      14.349 -27.217  12.851  1.00  0.00    -0.393 OA
ATOM     31  H   UNL     1      14.970 -26.443  12.852  1.00  0.00     0.210 HD
ENDBRANCH  29  30
ENDBRANCH   1  11
TORSDOF 6
ENDMDL
