MODEL 1
REMARK VINA RESULT:    24.737      0.000      0.000
REMARK INTER + INTRA:          30.327
REMARK INTER:                  29.799
REMARK INTRA:                   0.528
REMARK UNBOUND:                 0.528
REMARK SMILES O=c1c(O)c(-c2ccc(O)cc2O)oc2cc(O)cc(O)c12
REMARK SMILES IDX 5 1 3 2 2 3 1 4 22 5 20 6 19 7 17 8 16 9 15 10 14 11 6 12
REMARK SMILES IDX 8 13 7 14 9 15 11 16 12 17 10 18 13 20 4 22 21 24 18 26
REMARK H PARENT 10 19 13 21 4 23 21 25 18 27
REMARK Flexibility Score: inf
ROOT
ATOM      1  C   UNL     1      29.813  23.741  45.398  1.00  0.00     0.184 A 
ATOM      2  C   UNL     1      29.028  24.330  44.395  1.00  0.00     0.208 A 
ATOM      3  C   UNL     1      27.630  24.286  44.513  1.00  0.00     0.238 A 
ATOM      4  O   UNL     1      26.933  24.869  43.641  1.00  0.00    -0.285 OA
ATOM      5  C   UNL     1      27.037  23.631  45.618  1.00  0.00     0.111 A 
ATOM      6  C   UNL     1      25.630  23.491  45.820  1.00  0.00     0.134 A 
ATOM      7  C   UNL     1      25.156  22.930  47.011  1.00  0.00     0.093 A 
ATOM      8  C   UNL     1      26.034  22.443  47.979  1.00  0.00     0.123 A 
ATOM      9  C   UNL     1      27.410  22.521  47.767  1.00  0.00     0.094 A 
ATOM     10  C   UNL     1      27.915  23.110  46.605  1.00  0.00     0.146 A 
ATOM     11  O   UNL     1      29.232  23.177  46.448  1.00  0.00    -0.451 OA
ENDROOT
BRANCH   1  12
ATOM     12  C   UNL     1      31.290  23.735  45.315  1.00  0.00     0.063 A 
ATOM     13  C   UNL     1      33.317  24.439  44.166  1.00  0.00     0.047 A 
ATOM     14  C   UNL     1      31.926  24.471  44.301  1.00  0.00     0.020 A 
ATOM     15  C   UNL     1      34.089  23.666  45.035  1.00  0.00     0.119 A 
ATOM     16  C   UNL     1      33.466  22.927  46.049  1.00  0.00     0.093 A 
ATOM     17  C   UNL     1      32.074  22.961  46.202  1.00  0.00     0.130 A 
BRANCH  15  18
ATOM     18  O   UNL     1      35.474  23.639  44.884  1.00  0.00    -0.508 OA
ATOM     19  H   UNL     1      35.928  22.957  44.289  1.00  0.00     0.293 HD
ENDBRANCH  15  18
BRANCH  17  20
ATOM     20  O   UNL     1      31.509  22.234  47.251  1.00  0.00    -0.507 OA
ATOM     21  H   UNL     1      30.997  22.665  48.010  1.00  0.00     0.293 HD
ENDBRANCH  17  20
ENDBRANCH   1  12
BRANCH   2  22
ATOM     22  O   UNL     1      29.641  24.967  43.313  1.00  0.00    -0.502 OA
ATOM     23  H   UNL     1      29.352  24.808  42.355  1.00  0.00     0.293 HD
ENDBRANCH   2  22
BRANCH   6  24
ATOM     24  O   UNL     1      24.665  23.861  44.878  1.00  0.00    -0.507 OA
ATOM     25  H   UNL     1      24.000  24.611  45.000  1.00  0.00     0.293 HD
ENDBRANCH   6  24
BRANCH   8  26
ATOM     26  O   UNL     1      25.526  21.875  49.146  1.00  0.00    -0.508 OA
ATOM     27  H   UNL     1      25.712  22.278  50.057  1.00  0.00     0.293 HD
ENDBRANCH   8  26
TORSDOF 6
ENDMDL
MODEL 2
REMARK VINA RESULT:    25.908     10.513     11.317
REMARK INTER + INTRA:          31.737
REMARK INTER:                  32.099
REMARK INTRA:                  -0.362
REMARK UNBOUND:                 0.528
REMARK SMILES O=c1c(O)c(-c2ccc(O)cc2O)oc2cc(O)cc(O)c12
REMARK SMILES IDX 5 1 3 2 2 3 1 4 22 5 20 6 19 7 17 8 16 9 15 10 14 11 6 12
REMARK SMILES IDX 8 13 7 14 9 15 11 16 12 17 10 18 13 20 4 22 21 24 18 26
REMARK H PARENT 10 19 13 21 4 23 21 25 18 27
REMARK Flexibility Score: inf
ROOT
ATOM      1  C   UNL     1      29.627  33.732  49.121  1.00  0.00     0.184 A 
ATOM      2  C   UNL     1      29.993  32.809  50.111  1.00  0.00     0.208 A 
ATOM      3  C   UNL     1      29.593  31.471  49.974  1.00  0.00     0.238 A 
ATOM      4  O   UNL     1      29.977  30.635  50.835  1.00  0.00    -0.285 OA
ATOM      5  C   UNL     1      28.809  31.080  48.862  1.00  0.00     0.111 A 
ATOM      6  C   UNL     1      28.314  29.759  48.641  1.00  0.00     0.134 A 
ATOM      7  C   UNL     1      27.652  29.461  47.444  1.00  0.00     0.093 A 
ATOM      8  C   UNL     1      27.408  30.448  46.490  1.00  0.00     0.123 A 
ATOM      9  C   UNL     1      27.836  31.755  46.720  1.00  0.00     0.094 A 
ATOM     10  C   UNL     1      28.533  32.076  47.889  1.00  0.00     0.146 A 
ATOM     11  O   UNL     1      28.935  33.330  48.063  1.00  0.00    -0.451 OA
ENDROOT
BRANCH   1  12
ATOM     12  C   UNL     1      29.999  35.160  49.224  1.00  0.00     0.063 A 
ATOM     13  C   UNL     1      31.682  36.900  48.972  1.00  0.00     0.047 A 
ATOM     14  C   UNL     1      31.286  35.567  48.835  1.00  0.00     0.020 A 
ATOM     15  C   UNL     1      30.802  37.842  49.509  1.00  0.00     0.119 A 
ATOM     16  C   UNL     1      29.517  37.448  49.902  1.00  0.00     0.093 A 
ATOM     17  C   UNL     1      29.104  36.117  49.757  1.00  0.00     0.130 A 
BRANCH  15  18
ATOM     18  O   UNL     1      31.213  39.166  49.646  1.00  0.00    -0.508 OA
ATOM     19  H   UNL     1      30.812  39.774  50.351  1.00  0.00     0.293 HD
ENDBRANCH  15  18
BRANCH  17  20
ATOM     20  O   UNL     1      27.800  35.787  50.132  1.00  0.00    -0.507 OA
ATOM     21  H   UNL     1      27.127  36.472  50.451  1.00  0.00     0.293 HD
ENDBRANCH  17  20
ENDBRANCH   1  12
BRANCH   2  22
ATOM     22  O   UNL     1      30.764  33.222  51.201  1.00  0.00    -0.502 OA
ATOM     23  H   UNL     1      31.757  33.406  51.125  1.00  0.00     0.293 HD
ENDBRANCH   2  22
BRANCH   6  24
ATOM     24  O   UNL     1      28.423  28.719  49.569  1.00  0.00    -0.507 OA
ATOM     25  H   UNL     1      28.088  27.778  49.420  1.00  0.00     0.293 HD
ENDBRANCH   6  24
BRANCH   8  26
ATOM     26  O   UNL     1      26.731  30.119  45.317  1.00  0.00    -0.508 OA
ATOM     27  H   UNL     1      26.353  30.832  44.705  1.00  0.00     0.293 HD
ENDBRANCH   8  26
TORSDOF 6
ENDMDL
MODEL 3
REMARK VINA RESULT:    26.390     10.242     10.803
REMARK INTER + INTRA:          32.318
REMARK INTER:                  32.647
REMARK INTRA:                  -0.329
REMARK UNBOUND:                 0.528
REMARK SMILES O=c1c(O)c(-c2ccc(O)cc2O)oc2cc(O)cc(O)c12
REMARK SMILES IDX 5 1 3 2 2 3 1 4 22 5 20 6 19 7 17 8 16 9 15 10 14 11 6 12
REMARK SMILES IDX 8 13 7 14 9 15 11 16 12 17 10 18 13 20 4 22 21 24 18 26
REMARK H PARENT 10 19 13 21 4 23 21 25 18 27
REMARK Flexibility Score: inf
ROOT
ATOM      1  C   UNL     1      29.308  33.673  48.565  1.00  0.00     0.184 A 
ATOM      2  C   UNL     1      28.453  33.501  47.465  1.00  0.00     0.208 A 
ATOM      3  C   UNL     1      28.004  32.210  47.149  1.00  0.00     0.238 A 
ATOM      4  O   UNL     1      27.189  32.070  46.200  1.00  0.00    -0.285 OA
ATOM      5  C   UNL     1      28.438  31.105  47.921  1.00  0.00     0.111 A 
ATOM      6  C   UNL     1      28.078  29.747  47.668  1.00  0.00     0.134 A 
ATOM      7  C   UNL     1      28.468  28.749  48.569  1.00  0.00     0.093 A 
ATOM      8  C   UNL     1      29.259  29.048  49.678  1.00  0.00     0.123 A 
ATOM      9  C   UNL     1      29.666  30.364  49.904  1.00  0.00     0.094 A 
ATOM     10  C   UNL     1      29.262  31.387  49.042  1.00  0.00     0.146 A 
ATOM     11  O   UNL     1      29.659  32.628  49.301  1.00  0.00    -0.451 OA
ENDROOT
BRANCH   1  12
ATOM     12  C   UNL     1      29.833  35.007  48.930  1.00  0.00     0.063 A 
ATOM     13  C   UNL     1      31.706  36.559  49.013  1.00  0.00     0.047 A 
ATOM     14  C   UNL     1      31.169  35.327  48.631  1.00  0.00     0.020 A 
ATOM     15  C   UNL     1      30.922  37.483  49.706  1.00  0.00     0.119 A 
ATOM     16  C   UNL     1      29.589  37.175  50.010  1.00  0.00     0.093 A 
ATOM     17  C   UNL     1      29.036  35.949  49.622  1.00  0.00     0.130 A 
BRANCH  15  18
ATOM     18  O   UNL     1      31.473  38.705  50.085  1.00  0.00    -0.508 OA
ATOM     19  H   UNL     1      31.104  39.583  49.738  1.00  0.00     0.293 HD
ENDBRANCH  15  18
BRANCH  17  20
ATOM     20  O   UNL     1      27.693  35.708  49.920  1.00  0.00    -0.507 OA
ATOM     21  H   UNL     1      27.021  36.447  50.078  1.00  0.00     0.293 HD
ENDBRANCH  17  20
ENDBRANCH   1  12
BRANCH   2  22
ATOM     22  O   UNL     1      28.044  34.609  46.719  1.00  0.00    -0.502 OA
ATOM     23  H   UNL     1      28.202  34.680  45.721  1.00  0.00     0.293 HD
ENDBRANCH   2  22
BRANCH   6  24
ATOM     24  O   UNL     1      27.366  29.324  46.541  1.00  0.00    -0.507 OA
ATOM     25  H   UNL     1      26.380  29.106  46.532  1.00  0.00     0.293 HD
ENDBRANCH   6  24
BRANCH   8  26
ATOM     26  O   UNL     1      29.643  28.028  50.545  1.00  0.00    -0.508 OA
ATOM     27  H   UNL     1      29.319  27.076  50.420  1.00  0.00     0.293 HD
ENDBRANCH   8  26
TORSDOF 6
ENDMDL
