MODEL 1
REMARK VINA RESULT:    -6.806      0.000      0.000
REMARK INTER + INTRA:          -8.099
REMARK INTER:                  -8.198
REMARK INTRA:                   0.100
REMARK UNBOUND:                 0.100
REMARK SMILES O=c1c(O)c(-c2ccc(O)c(O)c2)oc2cc(O)cc(O)c12
REMARK SMILES IDX 5 1 3 2 2 3 1 4 22 5 20 6 19 7 17 8 16 9 15 10 14 11 6 12
REMARK SMILES IDX 7 13 8 14 9 15 13 16 11 17 10 18 12 20 4 22 21 24 18 26
REMARK H PARENT 10 19 12 21 4 23 21 25 18 27
REMARK Flexibility Score: inf
ROOT
ATOM      1  C   UNL     1       8.130  26.134  15.581  1.00  0.00     0.180 A 
ATOM      2  C   UNL     1       8.598  26.263  16.900  1.00  0.00     0.208 A 
ATOM      3  C   UNL     1       9.789  25.615  17.267  1.00  0.00     0.238 A 
ATOM      4  O   UNL     1      10.231  25.779  18.434  1.00  0.00    -0.285 OA
ATOM      5  C   UNL     1      10.487  24.834  16.315  1.00  0.00     0.111 A 
ATOM      6  C   UNL     1      11.682  24.102  16.587  1.00  0.00     0.134 A 
ATOM      7  C   UNL     1      12.360  23.470  15.538  1.00  0.00     0.093 A 
ATOM      8  C   UNL     1      11.850  23.489  14.238  1.00  0.00     0.123 A 
ATOM      9  C   UNL     1      10.653  24.150  13.972  1.00  0.00     0.094 A 
ATOM     10  C   UNL     1       9.974  24.821  14.992  1.00  0.00     0.146 A 
ATOM     11  O   UNL     1       8.842  25.448  14.695  1.00  0.00    -0.452 OA
ENDROOT
BRANCH   1  12
ATOM     12  C   UNL     1       6.870  26.765  15.127  1.00  0.00     0.025 A 
ATOM     13  C   UNL     1       5.942  26.065  14.340  1.00  0.00     0.016 A 
ATOM     14  C   UNL     1       4.773  26.689  13.904  1.00  0.00     0.051 A 
ATOM     15  C   UNL     1       4.510  28.024  14.232  1.00  0.00     0.157 A 
ATOM     16  C   UNL     1       6.619  28.111  15.439  1.00  0.00     0.062 A 
ATOM     17  C   UNL     1       5.449  28.746  15.007  1.00  0.00     0.158 A 
BRANCH  15  18
ATOM     18  O   UNL     1       3.319  28.588  13.769  1.00  0.00    -0.504 OA
ATOM     19  H   UNL     1       3.137  29.582  13.745  1.00  0.00     0.293 HD
ENDBRANCH  15  18
BRANCH  17  20
ATOM     20  O   UNL     1       5.262  30.083  15.366  1.00  0.00    -0.504 OA
ATOM     21  H   UNL     1       5.868  30.836  15.072  1.00  0.00     0.293 HD
ENDBRANCH  17  20
ENDBRANCH   1  12
BRANCH   2  22
ATOM     22  O   UNL     1       7.904  27.057  17.818  1.00  0.00    -0.502 OA
ATOM     23  H   UNL     1       8.358  27.495  18.610  1.00  0.00     0.293 HD
ENDBRANCH   2  22
BRANCH   6  24
ATOM     24  O   UNL     1      12.226  23.944  17.865  1.00  0.00    -0.507 OA
ATOM     25  H   UNL     1      13.195  23.740  18.057  1.00  0.00     0.293 HD
ENDBRANCH   6  24
BRANCH   8  26
ATOM     26  O   UNL     1      12.521  22.844  13.201  1.00  0.00    -0.508 OA
ATOM     27  H   UNL     1      12.021  22.337  12.479  1.00  0.00     0.293 HD
ENDBRANCH   8  26
TORSDOF 6
ENDMDL
MODEL 2
REMARK VINA RESULT:    -6.797     10.027     11.040
REMARK INTER + INTRA:          -8.088
REMARK INTER:                  -7.783
REMARK INTRA:                  -0.305
REMARK UNBOUND:                 0.100
REMARK SMILES O=c1c(O)c(-c2ccc(O)c(O)c2)oc2cc(O)cc(O)c12
REMARK SMILES IDX 5 1 3 2 2 3 1 4 22 5 20 6 19 7 17 8 16 9 15 10 14 11 6 12
REMARK SMILES IDX 7 13 8 14 9 15 13 16 11 17 10 18 12 20 4 22 21 24 18 26
REMARK H PARENT 10 19 12 21 4 23 21 25 18 27
REMARK Flexibility Score: inf
ROOT
ATOM      1  C   UNL     1      11.379  16.374  12.370  1.00  0.00     0.180 A 
ATOM      2  C   UNL     1      11.738  16.955  11.141  1.00  0.00     0.208 A 
ATOM      3  C   UNL     1      13.016  17.518  11.001  1.00  0.00     0.238 A 
ATOM      4  O   UNL     1      13.350  17.988   9.882  1.00  0.00    -0.285 OA
ATOM      5  C   UNL     1      13.914  17.507  12.095  1.00  0.00     0.111 A 
ATOM      6  C   UNL     1      15.220  18.083  12.077  1.00  0.00     0.134 A 
ATOM      7  C   UNL     1      16.072  17.899  13.173  1.00  0.00     0.093 A 
ATOM      8  C   UNL     1      15.641  17.215  14.312  1.00  0.00     0.123 A 
ATOM      9  C   UNL     1      14.348  16.700  14.363  1.00  0.00     0.094 A 
ATOM     10  C   UNL     1      13.488  16.836  13.270  1.00  0.00     0.146 A 
ATOM     11  O   UNL     1      12.267  16.322  13.356  1.00  0.00    -0.452 OA
ENDROOT
BRANCH   1  12
ATOM     12  C   UNL     1      10.041  15.784  12.602  1.00  0.00     0.025 A 
ATOM     13  C   UNL     1       9.736  14.478  12.189  1.00  0.00     0.016 A 
ATOM     14  C   UNL     1       8.460  13.952  12.398  1.00  0.00     0.051 A 
ATOM     15  C   UNL     1       7.461  14.720  13.007  1.00  0.00     0.157 A 
ATOM     16  C   UNL     1       9.035  16.564  13.193  1.00  0.00     0.062 A 
ATOM     17  C   UNL     1       7.752  16.045  13.407  1.00  0.00     0.158 A 
BRANCH  15  18
ATOM     18  O   UNL     1       6.207  14.133  13.190  1.00  0.00    -0.504 OA
ATOM     19  H   UNL     1       5.620  13.807  12.435  1.00  0.00     0.293 HD
ENDBRANCH  15  18
BRANCH  17  20
ATOM     20  O   UNL     1       6.806  16.876  14.012  1.00  0.00    -0.504 OA
ATOM     21  H   UNL     1       7.030  17.576  14.705  1.00  0.00     0.293 HD
ENDBRANCH  17  20
ENDBRANCH   1  12
BRANCH   2  22
ATOM     22  O   UNL     1      10.842  16.936  10.067  1.00  0.00    -0.502 OA
ATOM     23  H   UNL     1      10.793  16.162   9.414  1.00  0.00     0.293 HD
ENDBRANCH   2  22
BRANCH   6  24
ATOM     24  O   UNL     1      15.714  18.863  11.028  1.00  0.00    -0.507 OA
ATOM     25  H   UNL     1      16.676  18.874  10.722  1.00  0.00     0.293 HD
ENDBRANCH   6  24
BRANCH   8  26
ATOM     26  O   UNL     1      16.488  17.049  15.405  1.00  0.00    -0.508 OA
ATOM     27  H   UNL     1      17.154  17.765  15.674  1.00  0.00     0.293 HD
ENDBRANCH   8  26
TORSDOF 6
ENDMDL
MODEL 3
REMARK VINA RESULT:    -6.764      6.379      9.645
REMARK INTER + INTRA:          -8.048
REMARK INTER:                  -7.725
REMARK INTRA:                  -0.323
REMARK UNBOUND:                 0.100
REMARK SMILES O=c1c(O)c(-c2ccc(O)c(O)c2)oc2cc(O)cc(O)c12
REMARK SMILES IDX 5 1 3 2 2 3 1 4 22 5 20 6 19 7 17 8 16 9 15 10 14 11 6 12
REMARK SMILES IDX 7 13 8 14 9 15 13 16 11 17 10 18 12 20 4 22 21 24 18 26
REMARK H PARENT 10 19 12 21 4 23 21 25 18 27
REMARK Flexibility Score: inf
ROOT
ATOM      1  C   UNL     1       7.563  20.781  20.456  1.00  0.00     0.180 A 
ATOM      2  C   UNL     1       6.260  20.309  20.692  1.00  0.00     0.208 A 
ATOM      3  C   UNL     1       5.169  21.046  20.204  1.00  0.00     0.238 A 
ATOM      4  O   UNL     1       4.008  20.590  20.371  1.00  0.00    -0.285 OA
ATOM      5  C   UNL     1       5.394  22.254  19.500  1.00  0.00     0.111 A 
ATOM      6  C   UNL     1       4.363  23.101  18.995  1.00  0.00     0.134 A 
ATOM      7  C   UNL     1       4.701  24.204  18.201  1.00  0.00     0.093 A 
ATOM      8  C   UNL     1       6.036  24.526  17.948  1.00  0.00     0.123 A 
ATOM      9  C   UNL     1       7.052  23.739  18.486  1.00  0.00     0.094 A 
ATOM     10  C   UNL     1       6.744  22.611  19.252  1.00  0.00     0.146 A 
ATOM     11  O   UNL     1       7.742  21.883  19.737  1.00  0.00    -0.452 OA
ENDROOT
BRANCH   1  12
ATOM     12  C   UNL     1       8.760  20.073  20.962  1.00  0.00     0.025 A 
ATOM     13  C   UNL     1       9.384  19.063  20.213  1.00  0.00     0.016 A 
ATOM     14  C   UNL     1      10.498  18.393  20.721  1.00  0.00     0.051 A 
ATOM     15  C   UNL     1      11.004  18.706  21.988  1.00  0.00     0.157 A 
ATOM     16  C   UNL     1       9.253  20.374  22.242  1.00  0.00     0.062 A 
ATOM     17  C   UNL     1      10.370  19.708  22.760  1.00  0.00     0.158 A 
BRANCH  15  18
ATOM     18  O   UNL     1      12.124  18.002  22.435  1.00  0.00    -0.504 OA
ATOM     19  H   UNL     1      12.698  17.419  21.843  1.00  0.00     0.293 HD
ENDBRANCH  15  18
BRANCH  17  20
ATOM     20  O   UNL     1      10.810  20.068  24.036  1.00  0.00    -0.504 OA
ATOM     21  H   UNL     1      11.340  19.459  24.643  1.00  0.00     0.293 HD
ENDBRANCH  17  20
ENDBRANCH   1  12
BRANCH   2  22
ATOM     22  O   UNL     1       6.062  19.103  21.371  1.00  0.00    -0.502 OA
ATOM     23  H   UNL     1       5.865  19.064  22.364  1.00  0.00     0.293 HD
ENDBRANCH   2  22
BRANCH   6  24
ATOM     24  O   UNL     1       3.003  22.921  19.265  1.00  0.00    -0.507 OA
ATOM     25  H   UNL     1       2.271  23.553  18.977  1.00  0.00     0.293 HD
ENDBRANCH   6  24
BRANCH   8  26
ATOM     26  O   UNL     1       6.366  25.633  17.170  1.00  0.00    -0.508 OA
ATOM     27  H   UNL     1       5.799  25.912  16.377  1.00  0.00     0.293 HD
ENDBRANCH   8  26
TORSDOF 6
ENDMDL
MODEL 4
REMARK VINA RESULT:    -6.731      9.248     11.105
REMARK INTER + INTRA:          -8.008
REMARK INTER:                  -7.745
REMARK INTRA:                  -0.263
REMARK UNBOUND:                 0.100
REMARK SMILES O=c1c(O)c(-c2ccc(O)c(O)c2)oc2cc(O)cc(O)c12
REMARK SMILES IDX 5 1 3 2 2 3 1 4 22 5 20 6 19 7 17 8 16 9 15 10 14 11 6 12
REMARK SMILES IDX 7 13 8 14 9 15 13 16 11 17 10 18 12 20 4 22 21 24 18 26
REMARK H PARENT 10 19 12 21 4 23 21 25 18 27
REMARK Flexibility Score: inf
ROOT
ATOM      1  C   UNL     1      14.056  18.841  12.288  1.00  0.00     0.180 A 
ATOM      2  C   UNL     1      13.448  18.476  11.074  1.00  0.00     0.208 A 
ATOM      3  C   UNL     1      12.395  17.548  11.091  1.00  0.00     0.238 A 
ATOM      4  O   UNL     1      11.819  17.267  10.008  1.00  0.00    -0.285 OA
ATOM      5  C   UNL     1      11.973  16.985  12.320  1.00  0.00     0.111 A 
ATOM      6  C   UNL     1      10.942  16.006  12.450  1.00  0.00     0.134 A 
ATOM      7  C   UNL     1      10.517  15.616  13.726  1.00  0.00     0.093 A 
ATOM      8  C   UNL     1      11.131  16.121  14.875  1.00  0.00     0.123 A 
ATOM      9  C   UNL     1      12.178  17.032  14.756  1.00  0.00     0.094 A 
ATOM     10  C   UNL     1      12.599  17.468  13.497  1.00  0.00     0.146 A 
ATOM     11  O   UNL     1      13.594  18.344  13.430  1.00  0.00    -0.452 OA
ENDROOT
BRANCH   1  12
ATOM     12  C   UNL     1      15.188  19.793  12.347  1.00  0.00     0.025 A 
ATOM     13  C   UNL     1      16.499  19.356  12.593  1.00  0.00     0.016 A 
ATOM     14  C   UNL     1      17.547  20.275  12.668  1.00  0.00     0.051 A 
ATOM     15  C   UNL     1      17.309  21.645  12.514  1.00  0.00     0.157 A 
ATOM     16  C   UNL     1      14.943  21.169  12.214  1.00  0.00     0.062 A 
ATOM     17  C   UNL     1      15.987  22.098  12.287  1.00  0.00     0.158 A 
BRANCH  15  18
ATOM     18  O   UNL     1      18.401  22.511  12.595  1.00  0.00    -0.504 OA
ATOM     19  H   UNL     1      18.488  23.248  13.281  1.00  0.00     0.293 HD
ENDBRANCH  15  18
BRANCH  17  20
ATOM     20  O   UNL     1      15.669  23.450  12.133  1.00  0.00    -0.504 OA
ATOM     21  H   UNL     1      16.268  24.122  11.675  1.00  0.00     0.293 HD
ENDBRANCH  17  20
ENDBRANCH   1  12
BRANCH   2  22
ATOM     22  O   UNL     1      13.867  19.061   9.875  1.00  0.00    -0.502 OA
ATOM     23  H   UNL     1      13.392  18.896   8.995  1.00  0.00     0.293 HD
ENDBRANCH   2  22
BRANCH   6  24
ATOM     24  O   UNL     1      10.327  15.372  11.368  1.00  0.00    -0.507 OA
ATOM     25  H   UNL     1       9.489  15.698  10.909  1.00  0.00     0.293 HD
ENDBRANCH   6  24
BRANCH   8  26
ATOM     26  O   UNL     1      10.714  15.716  16.141  1.00  0.00    -0.508 OA
ATOM     27  H   UNL     1      11.324  15.191  16.758  1.00  0.00     0.293 HD
ENDBRANCH   8  26
TORSDOF 6
ENDMDL
MODEL 5
REMARK VINA RESULT:    -6.648      4.552      7.919
REMARK INTER + INTRA:          -7.908
REMARK INTER:                  -7.855
REMARK INTRA:                  -0.053
REMARK UNBOUND:                 0.100
REMARK SMILES O=c1c(O)c(-c2ccc(O)c(O)c2)oc2cc(O)cc(O)c12
REMARK SMILES IDX 5 1 3 2 2 3 1 4 22 5 20 6 19 7 17 8 16 9 15 10 14 11 6 12
REMARK SMILES IDX 7 13 8 14 9 15 13 16 11 17 10 18 12 20 4 22 21 24 18 26
REMARK H PARENT 10 19 12 21 4 23 21 25 18 27
REMARK Flexibility Score: inf
ROOT
ATOM      1  C   UNL     1      10.371  25.718  20.860  1.00  0.00     0.180 A 
ATOM      2  C   UNL     1       9.800  24.436  20.947  1.00  0.00     0.208 A 
ATOM      3  C   UNL     1       8.920  24.014  19.938  1.00  0.00     0.238 A 
ATOM      4  O   UNL     1       8.454  22.845  19.993  1.00  0.00    -0.285 OA
ATOM      5  C   UNL     1       8.609  24.882  18.864  1.00  0.00     0.111 A 
ATOM      6  C   UNL     1       7.700  24.573  17.808  1.00  0.00     0.134 A 
ATOM      7  C   UNL     1       7.568  25.455  16.729  1.00  0.00     0.093 A 
ATOM      8  C   UNL     1       8.264  26.665  16.700  1.00  0.00     0.123 A 
ATOM      9  C   UNL     1       9.109  27.004  17.754  1.00  0.00     0.094 A 
ATOM     10  C   UNL     1       9.289  26.127  18.828  1.00  0.00     0.146 A 
ATOM     11  O   UNL     1      10.110  26.484  19.807  1.00  0.00    -0.452 OA
ENDROOT
BRANCH   1  12
ATOM     12  C   UNL     1      11.287  26.244  21.897  1.00  0.00     0.025 A 
ATOM     13  C   UNL     1      12.448  25.548  22.270  1.00  0.00     0.016 A 
ATOM     14  C   UNL     1      13.283  26.052  23.268  1.00  0.00     0.051 A 
ATOM     15  C   UNL     1      12.974  27.249  23.922  1.00  0.00     0.157 A 
ATOM     16  C   UNL     1      10.963  27.434  22.567  1.00  0.00     0.062 A 
ATOM     17  C   UNL     1      11.795  27.948  23.569  1.00  0.00     0.158 A 
BRANCH  15  18
ATOM     18  O   UNL     1      13.854  27.701  24.908  1.00  0.00    -0.504 OA
ATOM     19  H   UNL     1      14.841  27.854  24.756  1.00  0.00     0.293 HD
ENDBRANCH  15  18
BRANCH  17  20
ATOM     20  O   UNL     1      11.414  29.144  24.184  1.00  0.00    -0.504 OA
ATOM     21  H   UNL     1      11.034  29.937  23.687  1.00  0.00     0.293 HD
ENDBRANCH  17  20
ENDBRANCH   1  12
BRANCH   2  22
ATOM     22  O   UNL     1      10.138  23.587  22.005  1.00  0.00    -0.502 OA
ATOM     23  H   UNL     1      11.026  23.102  22.051  1.00  0.00     0.293 HD
ENDBRANCH   2  22
BRANCH   6  24
ATOM     24  O   UNL     1       6.889  23.434  17.786  1.00  0.00    -0.507 OA
ATOM     25  H   UNL     1       6.768  22.830  16.987  1.00  0.00     0.293 HD
ENDBRANCH   6  24
BRANCH   8  26
ATOM     26  O   UNL     1       8.116  27.545  15.631  1.00  0.00    -0.508 OA
ATOM     27  H   UNL     1       8.917  27.976  15.183  1.00  0.00     0.293 HD
ENDBRANCH   8  26
TORSDOF 6
ENDMDL
MODEL 6
REMARK VINA RESULT:    -6.620      4.901      7.057
REMARK INTER + INTRA:          -7.875
REMARK INTER:                  -8.055
REMARK INTRA:                   0.180
REMARK UNBOUND:                 0.100
REMARK SMILES O=c1c(O)c(-c2ccc(O)c(O)c2)oc2cc(O)cc(O)c12
REMARK SMILES IDX 5 1 3 2 2 3 1 4 22 5 20 6 19 7 17 8 16 9 15 10 14 11 6 12
REMARK SMILES IDX 7 13 8 14 9 15 13 16 11 17 10 18 12 20 4 22 21 24 18 26
REMARK H PARENT 10 19 12 21 4 23 21 25 18 27
REMARK Flexibility Score: inf
ROOT
ATOM      1  C   UNL     1       7.241  23.247  19.247  1.00  0.00     0.180 A 
ATOM      2  C   UNL     1       8.406  23.879  19.716  1.00  0.00     0.208 A 
ATOM      3  C   UNL     1       8.854  25.044  19.073  1.00  0.00     0.238 A 
ATOM      4  O   UNL     1       9.867  25.636  19.531  1.00  0.00    -0.285 OA
ATOM      5  C   UNL     1       8.141  25.554  17.962  1.00  0.00     0.111 A 
ATOM      6  C   UNL     1       8.526  26.706  17.211  1.00  0.00     0.134 A 
ATOM      7  C   UNL     1       7.675  27.196  16.213  1.00  0.00     0.093 A 
ATOM      8  C   UNL     1       6.485  26.538  15.895  1.00  0.00     0.123 A 
ATOM      9  C   UNL     1       6.129  25.380  16.582  1.00  0.00     0.094 A 
ATOM     10  C   UNL     1       6.940  24.887  17.608  1.00  0.00     0.146 A 
ATOM     11  O   UNL     1       6.559  23.786  18.244  1.00  0.00    -0.452 OA
ENDROOT
BRANCH   1  12
ATOM     12  C   UNL     1       6.722  22.001  19.856  1.00  0.00     0.025 A 
ATOM     13  C   UNL     1       7.587  21.017  20.360  1.00  0.00     0.016 A 
ATOM     14  C   UNL     1       7.075  19.840  20.907  1.00  0.00     0.051 A 
ATOM     15  C   UNL     1       5.695  19.614  20.951  1.00  0.00     0.157 A 
ATOM     16  C   UNL     1       5.338  21.767  19.879  1.00  0.00     0.062 A 
ATOM     17  C   UNL     1       4.815  20.590  20.427  1.00  0.00     0.158 A 
BRANCH  15  18
ATOM     18  O   UNL     1       5.247  18.418  21.517  1.00  0.00    -0.504 OA
ATOM     19  H   UNL     1       4.273  18.167  21.608  1.00  0.00     0.293 HD
ENDBRANCH  15  18
BRANCH  17  20
ATOM     20  O   UNL     1       3.427  20.432  20.426  1.00  0.00    -0.504 OA
ATOM     21  H   UNL     1       2.868  20.354  19.588  1.00  0.00     0.293 HD
ENDBRANCH  17  20
ENDBRANCH   1  12
BRANCH   2  22
ATOM     22  O   UNL     1       9.083  23.370  20.828  1.00  0.00    -0.502 OA
ATOM     23  H   UNL     1       9.239  22.378  20.963  1.00  0.00     0.293 HD
ENDBRANCH   2  22
BRANCH   6  24
ATOM     24  O   UNL     1       9.736  27.382  17.386  1.00  0.00    -0.507 OA
ATOM     25  H   UNL     1      10.331  27.701  16.636  1.00  0.00     0.293 HD
ENDBRANCH   6  24
BRANCH   8  26
ATOM     26  O   UNL     1       5.651  27.023  14.890  1.00  0.00    -0.508 OA
ATOM     27  H   UNL     1       4.653  27.129  15.034  1.00  0.00     0.293 HD
ENDBRANCH   8  26
TORSDOF 6
ENDMDL
MODEL 7
REMARK VINA RESULT:    -6.570     10.066     11.768
REMARK INTER + INTRA:          -7.815
REMARK INTER:                  -7.516
REMARK INTRA:                  -0.299
REMARK UNBOUND:                 0.100
REMARK SMILES O=c1c(O)c(-c2ccc(O)c(O)c2)oc2cc(O)cc(O)c12
REMARK SMILES IDX 5 1 3 2 2 3 1 4 22 5 20 6 19 7 17 8 16 9 15 10 14 11 6 12
REMARK SMILES IDX 7 13 8 14 9 15 13 16 11 17 10 18 12 20 4 22 21 24 18 26
REMARK H PARENT 10 19 12 21 4 23 21 25 18 27
REMARK Flexibility Score: inf
ROOT
ATOM      1  C   UNL     1      15.646  17.637  13.204  1.00  0.00     0.180 A 
ATOM      2  C   UNL     1      16.362  18.846  13.169  1.00  0.00     0.208 A 
ATOM      3  C   UNL     1      17.508  18.983  13.969  1.00  0.00     0.238 A 
ATOM      4  O   UNL     1      18.175  20.048  13.892  1.00  0.00    -0.285 OA
ATOM      5  C   UNL     1      17.915  17.915  14.804  1.00  0.00     0.111 A 
ATOM      6  C   UNL     1      19.037  17.958  15.685  1.00  0.00     0.134 A 
ATOM      7  C   UNL     1      19.425  16.798  16.368  1.00  0.00     0.093 A 
ATOM      8  C   UNL     1      18.691  15.616  16.252  1.00  0.00     0.123 A 
ATOM      9  C   UNL     1      17.559  15.580  15.440  1.00  0.00     0.094 A 
ATOM     10  C   UNL     1      17.169  16.711  14.718  1.00  0.00     0.146 A 
ATOM     11  O   UNL     1      16.090  16.632  13.949  1.00  0.00    -0.452 OA
ENDROOT
BRANCH   1  12
ATOM     12  C   UNL     1      14.415  17.428  12.409  1.00  0.00     0.025 A 
ATOM     13  C   UNL     1      14.470  17.080  11.050  1.00  0.00     0.016 A 
ATOM     14  C   UNL     1      13.296  16.912  10.316  1.00  0.00     0.051 A 
ATOM     15  C   UNL     1      12.045  17.099  10.915  1.00  0.00     0.157 A 
ATOM     16  C   UNL     1      13.162  17.637  13.007  1.00  0.00     0.062 A 
ATOM     17  C   UNL     1      11.978  17.470  12.279  1.00  0.00     0.158 A 
BRANCH  15  18
ATOM     18  O   UNL     1      10.908  16.910  10.127  1.00  0.00    -0.504 OA
ATOM     19  H   UNL     1      10.882  17.063   9.128  1.00  0.00     0.293 HD
ENDBRANCH  15  18
BRANCH  17  20
ATOM     20  O   UNL     1      10.768  17.683  12.944  1.00  0.00    -0.504 OA
ATOM     21  H   UNL     1      10.610  18.435  13.601  1.00  0.00     0.293 HD
ENDBRANCH  17  20
ENDBRANCH   1  12
BRANCH   2  22
ATOM     22  O   UNL     1      15.955  19.880  12.320  1.00  0.00    -0.502 OA
ATOM     23  H   UNL     1      16.335  20.817  12.383  1.00  0.00     0.293 HD
ENDBRANCH   2  22
BRANCH   6  24
ATOM     24  O   UNL     1      19.782  19.112  15.944  1.00  0.00    -0.507 OA
ATOM     25  H   UNL     1      20.680  19.126  16.405  1.00  0.00     0.293 HD
ENDBRANCH   6  24
BRANCH   8  26
ATOM     26  O   UNL     1      19.073  14.470  16.946  1.00  0.00    -0.508 OA
ATOM     27  H   UNL     1      19.596  13.727  16.497  1.00  0.00     0.293 HD
ENDBRANCH   8  26
TORSDOF 6
ENDMDL
MODEL 8
REMARK VINA RESULT:    -6.449      6.539      8.982
REMARK INTER + INTRA:          -7.669
REMARK INTER:                  -7.411
REMARK INTRA:                  -0.258
REMARK UNBOUND:                 0.100
REMARK SMILES O=c1c(O)c(-c2ccc(O)c(O)c2)oc2cc(O)cc(O)c12
REMARK SMILES IDX 5 1 3 2 2 3 1 4 22 5 20 6 19 7 17 8 16 9 15 10 14 11 6 12
REMARK SMILES IDX 7 13 8 14 9 15 13 16 11 17 10 18 12 20 4 22 21 24 18 26
REMARK H PARENT 10 19 12 21 4 23 21 25 18 27
REMARK Flexibility Score: inf
ROOT
ATOM      1  C   UNL     1      11.840  26.083  22.303  1.00  0.00     0.180 A 
ATOM      2  C   UNL     1      11.308  27.267  22.844  1.00  0.00     0.208 A 
ATOM      3  C   UNL     1      11.964  27.875  23.926  1.00  0.00     0.238 A 
ATOM      4  O   UNL     1      11.513  28.964  24.371  1.00  0.00    -0.285 OA
ATOM      5  C   UNL     1      13.133  27.285  24.464  1.00  0.00     0.111 A 
ATOM      6  C   UNL     1      13.856  27.794  25.584  1.00  0.00     0.134 A 
ATOM      7  C   UNL     1      15.071  27.203  25.949  1.00  0.00     0.093 A 
ATOM      8  C   UNL     1      15.557  26.081  25.274  1.00  0.00     0.123 A 
ATOM      9  C   UNL     1      14.829  25.540  24.216  1.00  0.00     0.094 A 
ATOM     10  C   UNL     1      13.631  26.131  23.806  1.00  0.00     0.146 A 
ATOM     11  O   UNL     1      12.973  25.590  22.788  1.00  0.00    -0.452 OA
ENDROOT
BRANCH   1  12
ATOM     12  C   UNL     1      11.191  25.370  21.179  1.00  0.00     0.025 A 
ATOM     13  C   UNL     1      10.498  24.166  21.379  1.00  0.00     0.016 A 
ATOM     14  C   UNL     1       9.915  23.499  20.301  1.00  0.00     0.051 A 
ATOM     15  C   UNL     1      10.021  24.010  19.003  1.00  0.00     0.157 A 
ATOM     16  C   UNL     1      11.318  25.874  19.875  1.00  0.00     0.062 A 
ATOM     17  C   UNL     1      10.736  25.213  18.787  1.00  0.00     0.158 A 
BRANCH  15  18
ATOM     18  O   UNL     1       9.411  23.298  17.968  1.00  0.00    -0.504 OA
ATOM     19  H   UNL     1       9.915  22.744  17.290  1.00  0.00     0.293 HD
ENDBRANCH  15  18
BRANCH  17  20
ATOM     20  O   UNL     1      10.893  25.779  17.520  1.00  0.00    -0.504 OA
ATOM     21  H   UNL     1      10.536  25.368  16.669  1.00  0.00     0.293 HD
ENDBRANCH  17  20
ENDBRANCH   1  12
BRANCH   2  22
ATOM     22  O   UNL     1      10.165  27.844  22.284  1.00  0.00    -0.502 OA
ATOM     23  H   UNL     1       9.545  27.333  21.666  1.00  0.00     0.293 HD
ENDBRANCH   2  22
BRANCH   6  24
ATOM     24  O   UNL     1      13.413  28.852  26.383  1.00  0.00    -0.507 OA
ATOM     25  H   UNL     1      13.647  28.975  27.357  1.00  0.00     0.293 HD
ENDBRANCH   6  24
BRANCH   8  26
ATOM     26  O   UNL     1      16.759  25.488  25.652  1.00  0.00    -0.508 OA
ATOM     27  H   UNL     1      17.635  25.999  25.625  1.00  0.00     0.293 HD
ENDBRANCH   8  26
TORSDOF 6
ENDMDL
MODEL 9
REMARK VINA RESULT:    -6.401     11.141     13.127
REMARK INTER + INTRA:          -7.611
REMARK INTER:                  -7.293
REMARK INTRA:                  -0.318
REMARK UNBOUND:                 0.100
REMARK SMILES O=c1c(O)c(-c2ccc(O)c(O)c2)oc2cc(O)cc(O)c12
REMARK SMILES IDX 5 1 3 2 2 3 1 4 22 5 20 6 19 7 17 8 16 9 15 10 14 11 6 12
REMARK SMILES IDX 7 13 8 14 9 15 13 16 11 17 10 18 12 20 4 22 21 24 18 26
REMARK H PARENT 10 19 12 21 4 23 21 25 18 27
REMARK Flexibility Score: inf
ROOT
ATOM      1  C   UNL     1      17.190  16.908  15.068  1.00  0.00     0.180 A 
ATOM      2  C   UNL     1      17.788  15.699  15.466  1.00  0.00     0.208 A 
ATOM      3  C   UNL     1      18.934  15.741  16.275  1.00  0.00     0.238 A 
ATOM      4  O   UNL     1      19.433  14.656  16.673  1.00  0.00    -0.285 OA
ATOM      5  C   UNL     1      19.477  16.990  16.664  1.00  0.00     0.111 A 
ATOM      6  C   UNL     1      20.658  17.151  17.450  1.00  0.00     0.134 A 
ATOM      7  C   UNL     1      21.030  18.429  17.884  1.00  0.00     0.093 A 
ATOM      8  C   UNL     1      20.300  19.558  17.506  1.00  0.00     0.123 A 
ATOM      9  C   UNL     1      19.180  19.417  16.690  1.00  0.00     0.094 A 
ATOM     10  C   UNL     1      18.763  18.151  16.271  1.00  0.00     0.146 A 
ATOM     11  O   UNL     1      17.685  18.061  15.502  1.00  0.00    -0.452 OA
ENDROOT
BRANCH   1  12
ATOM     12  C   UNL     1      15.995  16.945  14.194  1.00  0.00     0.025 A 
ATOM     13  C   UNL     1      14.699  16.838  14.721  1.00  0.00     0.016 A 
ATOM     14  C   UNL     1      13.589  16.851  13.875  1.00  0.00     0.051 A 
ATOM     15  C   UNL     1      13.749  16.958  12.489  1.00  0.00     0.157 A 
ATOM     16  C   UNL     1      16.159  17.030  12.803  1.00  0.00     0.062 A 
ATOM     17  C   UNL     1      15.052  17.044  11.945  1.00  0.00     0.158 A 
BRANCH  15  18
ATOM     18  O   UNL     1      12.597  16.970  11.698  1.00  0.00    -0.504 OA
ATOM     19  H   UNL     1      11.797  17.561  11.876  1.00  0.00     0.293 HD
ENDBRANCH  15  18
BRANCH  17  20
ATOM     20  O   UNL     1      15.292  17.143  10.572  1.00  0.00    -0.504 OA
ATOM     21  H   UNL     1      15.296  18.014  10.061  1.00  0.00     0.293 HD
ENDBRANCH  17  20
ENDBRANCH   1  12
BRANCH   2  22
ATOM     22  O   UNL     1      17.223  14.478  15.088  1.00  0.00    -0.502 OA
ATOM     23  H   UNL     1      17.283  14.120  14.143  1.00  0.00     0.293 HD
ENDBRANCH   2  22
BRANCH   6  24
ATOM     24  O   UNL     1      21.508  16.099  17.805  1.00  0.00    -0.507 OA
ATOM     25  H   UNL     1      22.328  15.823  17.286  1.00  0.00     0.293 HD
ENDBRANCH   6  24
BRANCH   8  26
ATOM     26  O   UNL     1      20.685  20.828  17.929  1.00  0.00    -0.508 OA
ATOM     27  H   UNL     1      20.286  21.667  17.522  1.00  0.00     0.293 HD
ENDBRANCH   8  26
TORSDOF 6
ENDMDL
