MODEL 1
REMARK VINA RESULT:    -6.903      0.000      0.000
REMARK INTER + INTRA:          -7.498
REMARK INTER:                  -7.307
REMARK INTRA:                  -0.191
REMARK UNBOUND:                -0.191
REMARK SMILES CC1=CC[C@H](C(C)C)C=C1
REMARK SMILES IDX 1 1 2 2 3 3 4 4 5 5 9 6 10 7 6 8 7 9 8 10
REMARK H PARENT
REMARK Flexibility Score: inf
ROOT
ATOM      1  C   UNL     1      -1.494 -18.041  13.622  1.00  0.00     0.044 C 
ATOM      2  C   UNL     1      -0.171 -18.043  14.330  1.00  0.00    -0.055 C 
ATOM      3  C   UNL     1      -0.096 -17.690  15.623  1.00  0.00    -0.023 C 
ATOM      4  C   UNL     1       1.238 -17.620  16.320  1.00  0.00     0.035 C 
ATOM      5  C   UNL     1       2.177 -18.742  15.817  1.00  0.00     0.018 C 
ATOM      6  C   UNL     1       2.160 -18.801  14.302  1.00  0.00    -0.023 C 
ATOM      7  C   UNL     1       1.040 -18.522  13.625  1.00  0.00    -0.001 C 
ENDROOT
BRANCH   5   8
ATOM      8  C   UNL     1       3.609 -18.623  16.420  1.00  0.00    -0.010 C 
ATOM      9  C   UNL     1       4.686 -18.747  15.332  1.00  0.00     0.008 C 
ATOM     10  C   UNL     1       3.829 -17.337  17.238  1.00  0.00     0.008 C 
ENDBRANCH   5   8
TORSDOF 1
ENDMDL
MODEL 2
REMARK VINA RESULT:    -6.374      1.416      4.906
REMARK INTER + INTRA:          -6.938
REMARK INTER:                  -6.746
REMARK INTRA:                  -0.192
REMARK UNBOUND:                -0.191
REMARK SMILES CC1=CC[C@H](C(C)C)C=C1
REMARK SMILES IDX 1 1 2 2 3 3 4 4 5 5 9 6 10 7 6 8 7 9 8 10
REMARK H PARENT
REMARK Flexibility Score: inf
ROOT
ATOM      1  C   UNL     1       6.355 -15.883  17.681  1.00  0.00     0.044 C 
ATOM      2  C   UNL     1       5.237 -16.526  16.915  1.00  0.00    -0.055 C 
ATOM      3  C   UNL     1       5.491 -17.186  15.773  1.00  0.00    -0.023 C 
ATOM      4  C   UNL     1       4.364 -17.771  14.962  1.00  0.00     0.035 C 
ATOM      5  C   UNL     1       3.253 -18.321  15.887  1.00  0.00     0.018 C 
ATOM      6  C   UNL     1       2.912 -17.305  16.960  1.00  0.00    -0.023 C 
ATOM      7  C   UNL     1       3.862 -16.510  17.466  1.00  0.00    -0.001 C 
ENDROOT
BRANCH   5   8
ATOM      8  C   UNL     1       2.013 -18.817  15.083  1.00  0.00    -0.010 C 
ATOM      9  C   UNL     1       0.734 -18.089  15.523  1.00  0.00     0.008 C 
ATOM     10  C   UNL     1       2.184 -18.710  13.557  1.00  0.00     0.008 C 
ENDBRANCH   5   8
TORSDOF 1
ENDMDL
MODEL 3
REMARK VINA RESULT:    -6.274      0.958      4.340
REMARK INTER + INTRA:          -6.832
REMARK INTER:                  -6.708
REMARK INTRA:                  -0.123
REMARK UNBOUND:                -0.191
REMARK SMILES CC1=CC[C@H](C(C)C)C=C1
REMARK SMILES IDX 1 1 2 2 3 3 4 4 5 5 9 6 10 7 6 8 7 9 8 10
REMARK H PARENT
REMARK Flexibility Score: inf
ROOT
ATOM      1  C   UNL     1       4.601 -18.548  15.484  1.00  0.00     0.044 C 
ATOM      2  C   UNL     1       3.114 -18.514  15.285  1.00  0.00    -0.055 C 
ATOM      3  C   UNL     1       2.316 -18.001  16.236  1.00  0.00    -0.023 C 
ATOM      4  C   UNL     1       0.819 -18.030  16.073  1.00  0.00     0.035 C 
ATOM      5  C   UNL     1       0.424 -17.805  14.594  1.00  0.00     0.018 C 
ATOM      6  C   UNL     1       1.262 -18.686  13.688  1.00  0.00    -0.023 C 
ATOM      7  C   UNL     1       2.533 -18.965  14.000  1.00  0.00    -0.001 C 
ENDROOT
BRANCH   5   8
ATOM      8  C   UNL     1      -1.110 -17.958  14.367  1.00  0.00    -0.010 C 
ATOM      9  C   UNL     1      -1.910 -17.340  15.523  1.00  0.00     0.008 C 
ATOM     10  C   UNL     1      -1.594 -17.383  13.023  1.00  0.00     0.008 C 
ENDBRANCH   5   8
TORSDOF 1
ENDMDL
MODEL 4
REMARK VINA RESULT:    -6.051      6.298      9.674
REMARK INTER + INTRA:          -6.596
REMARK INTER:                  -6.413
REMARK INTRA:                  -0.183
REMARK UNBOUND:                -0.191
REMARK SMILES CC1=CC[C@H](C(C)C)C=C1
REMARK SMILES IDX 1 1 2 2 3 3 4 4 5 5 9 6 10 7 6 8 7 9 8 10
REMARK H PARENT
REMARK Flexibility Score: inf
ROOT
ATOM      1  C   UNL     1      -2.349 -16.047  12.214  1.00  0.00     0.044 C 
ATOM      2  C   UNL     1      -2.889 -15.581  10.894  1.00  0.00    -0.055 C 
ATOM      3  C   UNL     1      -2.297 -14.569  10.240  1.00  0.00    -0.023 C 
ATOM      4  C   UNL     1      -2.878 -14.049   8.950  1.00  0.00     0.035 C 
ATOM      5  C   UNL     1      -3.472 -15.206   8.113  1.00  0.00     0.018 C 
ATOM      6  C   UNL     1      -4.339 -16.094   8.984  1.00  0.00    -0.023 C 
ATOM      7  C   UNL     1      -4.024 -16.299  10.268  1.00  0.00    -0.001 C 
ENDROOT
BRANCH   5   8
ATOM      8  C   UNL     1      -4.196 -14.692   6.832  1.00  0.00    -0.010 C 
ATOM      9  C   UNL     1      -5.046 -15.797   6.189  1.00  0.00     0.008 C 
ATOM     10  C   UNL     1      -5.055 -13.436   7.071  1.00  0.00     0.008 C 
ENDBRANCH   5   8
TORSDOF 1
ENDMDL
MODEL 5
REMARK VINA RESULT:    -6.040      7.095      9.532
REMARK INTER + INTRA:          -6.584
REMARK INTER:                  -6.401
REMARK INTRA:                  -0.183
REMARK UNBOUND:                -0.191
REMARK SMILES CC1=CC[C@H](C(C)C)C=C1
REMARK SMILES IDX 1 1 2 2 3 3 4 4 5 5 9 6 10 7 6 8 7 9 8 10
REMARK H PARENT
REMARK Flexibility Score: inf
ROOT
ATOM      1  C   UNL     1      -5.393 -15.356   5.234  1.00  0.00     0.044 C 
ATOM      2  C   UNL     1      -4.610 -15.276   6.511  1.00  0.00    -0.055 C 
ATOM      3  C   UNL     1      -3.872 -16.321   6.918  1.00  0.00    -0.023 C 
ATOM      4  C   UNL     1      -3.141 -16.274   8.235  1.00  0.00     0.035 C 
ATOM      5  C   UNL     1      -2.599 -14.851   8.509  1.00  0.00     0.018 C 
ATOM      6  C   UNL     1      -3.679 -13.819   8.249  1.00  0.00    -0.023 C 
ATOM      7  C   UNL     1      -4.579 -14.009   7.277  1.00  0.00    -0.001 C 
ENDROOT
BRANCH   5   8
ATOM      8  C   UNL     1      -1.950 -14.732   9.920  1.00  0.00    -0.010 C 
ATOM      9  C   UNL     1      -1.735 -13.263  10.314  1.00  0.00     0.008 C 
ATOM     10  C   UNL     1      -2.733 -15.467  11.023  1.00  0.00     0.008 C 
ENDBRANCH   5   8
TORSDOF 1
ENDMDL
MODEL 6
REMARK VINA RESULT:    -5.933      6.537      9.318
REMARK INTER + INTRA:          -6.471
REMARK INTER:                  -6.342
REMARK INTRA:                  -0.129
REMARK UNBOUND:                -0.191
REMARK SMILES CC1=CC[C@H](C(C)C)C=C1
REMARK SMILES IDX 1 1 2 2 3 3 4 4 5 5 9 6 10 7 6 8 7 9 8 10
REMARK H PARENT
REMARK Flexibility Score: inf
ROOT
ATOM      1  C   UNL     1      -5.402 -15.343   5.295  1.00  0.00     0.044 C 
ATOM      2  C   UNL     1      -4.980 -15.384   6.733  1.00  0.00    -0.055 C 
ATOM      3  C   UNL     1      -5.374 -16.394   7.526  1.00  0.00    -0.023 C 
ATOM      4  C   UNL     1      -5.013 -16.403   8.988  1.00  0.00     0.035 C 
ATOM      5  C   UNL     1      -3.598 -15.818   9.207  1.00  0.00     0.018 C 
ATOM      6  C   UNL     1      -3.442 -14.521   8.437  1.00  0.00    -0.023 C 
ATOM      7  C   UNL     1      -4.053 -14.355   7.258  1.00  0.00    -0.001 C 
ENDROOT
BRANCH   5   8
ATOM      8  C   UNL     1      -3.243 -15.692  10.719  1.00  0.00    -0.010 C 
ATOM      9  C   UNL     1      -2.640 -16.996  11.262  1.00  0.00     0.008 C 
ATOM     10  C   UNL     1      -2.312 -14.507  11.037  1.00  0.00     0.008 C 
ENDBRANCH   5   8
TORSDOF 1
ENDMDL
MODEL 7
REMARK VINA RESULT:    -5.770      6.613      8.761
REMARK INTER + INTRA:          -6.299
REMARK INTER:                  -6.156
REMARK INTRA:                  -0.143
REMARK UNBOUND:                -0.191
REMARK SMILES CC1=CC[C@H](C(C)C)C=C1
REMARK SMILES IDX 1 1 2 2 3 3 4 4 5 5 9 6 10 7 6 8 7 9 8 10
REMARK H PARENT
REMARK Flexibility Score: inf
ROOT
ATOM      1  C   UNL     1      -2.361 -14.060  12.972  1.00  0.00     0.044 C 
ATOM      2  C   UNL     1      -2.661 -14.782  11.691  1.00  0.00    -0.055 C 
ATOM      3  C   UNL     1      -3.543 -15.794  11.676  1.00  0.00    -0.023 C 
ATOM      4  C   UNL     1      -3.793 -16.570  10.409  1.00  0.00     0.035 C 
ATOM      5  C   UNL     1      -3.736 -15.638   9.176  1.00  0.00     0.018 C 
ATOM      6  C   UNL     1      -2.507 -14.751   9.244  1.00  0.00    -0.023 C 
ATOM      7  C   UNL     1      -2.049 -14.318  10.425  1.00  0.00    -0.001 C 
ENDROOT
BRANCH   5   8
ATOM      8  C   UNL     1      -3.861 -16.426   7.838  1.00  0.00    -0.010 C 
ATOM      9  C   UNL     1      -3.730 -17.939   8.066  1.00  0.00     0.008 C 
ATOM     10  C   UNL     1      -5.154 -16.119   7.060  1.00  0.00     0.008 C 
ENDBRANCH   5   8
TORSDOF 1
ENDMDL
MODEL 8
REMARK VINA RESULT:    -5.750      7.194      9.167
REMARK INTER + INTRA:          -6.277
REMARK INTER:                  -6.091
REMARK INTRA:                  -0.186
REMARK UNBOUND:                -0.191
REMARK SMILES CC1=CC[C@H](C(C)C)C=C1
REMARK SMILES IDX 1 1 2 2 3 3 4 4 5 5 9 6 10 7 6 8 7 9 8 10
REMARK H PARENT
REMARK Flexibility Score: inf
ROOT
ATOM      1  C   UNL     1      -1.281 -12.707  10.535  1.00  0.00     0.044 C 
ATOM      2  C   UNL     1      -2.060 -13.799   9.863  1.00  0.00    -0.055 C 
ATOM      3  C   UNL     1      -2.752 -13.545   8.740  1.00  0.00    -0.023 C 
ATOM      4  C   UNL     1      -3.593 -14.619   8.102  1.00  0.00     0.035 C 
ATOM      5  C   UNL     1      -2.912 -16.001   8.237  1.00  0.00     0.018 C 
ATOM      6  C   UNL     1      -2.435 -16.214   9.661  1.00  0.00    -0.023 C 
ATOM      7  C   UNL     1      -1.992 -15.182  10.389  1.00  0.00    -0.001 C 
ENDROOT
BRANCH   5   8
ATOM      8  C   UNL     1      -3.813 -17.154   7.703  1.00  0.00    -0.010 C 
ATOM      9  C   UNL     1      -3.384 -18.512   8.280  1.00  0.00     0.008 C 
ATOM     10  C   UNL     1      -5.316 -16.927   7.949  1.00  0.00     0.008 C 
ENDBRANCH   5   8
TORSDOF 1
ENDMDL
MODEL 9
REMARK VINA RESULT:    -5.535      4.704      7.463
REMARK INTER + INTRA:          -6.049
REMARK INTER:                  -5.900
REMARK INTRA:                  -0.149
REMARK UNBOUND:                -0.191
REMARK SMILES CC1=CC[C@H](C(C)C)C=C1
REMARK SMILES IDX 1 1 2 2 3 3 4 4 5 5 9 6 10 7 6 8 7 9 8 10
REMARK H PARENT
REMARK Flexibility Score: inf
ROOT
ATOM      1  C   UNL     1      -5.024 -16.300   7.253  1.00  0.00     0.044 C 
ATOM      2  C   UNL     1      -4.329 -16.145   8.573  1.00  0.00    -0.055 C 
ATOM      3  C   UNL     1      -4.939 -16.522   9.708  1.00  0.00    -0.023 C 
ATOM      4  C   UNL     1      -4.275 -16.302  11.042  1.00  0.00     0.035 C 
ATOM      5  C   UNL     1      -2.747 -16.514  10.935  1.00  0.00     0.018 C 
ATOM      6  C   UNL     1      -2.198 -15.776   9.729  1.00  0.00    -0.023 C 
ATOM      7  C   UNL     1      -2.931 -15.658   8.616  1.00  0.00    -0.001 C 
ENDROOT
BRANCH   5   8
ATOM      8  C   UNL     1      -2.011 -16.169  12.264  1.00  0.00    -0.010 C 
ATOM      9  C   UNL     1      -2.827 -15.182  13.114  1.00  0.00     0.008 C 
ATOM     10  C   UNL     1      -1.638 -17.405  13.103  1.00  0.00     0.008 C 
ENDBRANCH   5   8
TORSDOF 1
ENDMDL
