MODEL 1
REMARK VINA RESULT:    -5.268      0.000      0.000
REMARK INTER + INTRA:          -6.693
REMARK INTER:                  -6.346
REMARK INTRA:                  -0.347
REMARK UNBOUND:                -0.347
REMARK SMILES Oc1cc(O)c2cc(O)c(-c3ccc(O)c(O)c3)[o+]c2c1
REMARK SMILES IDX 10 1 19 2 20 3 21 4 2 5 3 6 4 7 6 8 7 9 8 10 11 11 12 12
REMARK SMILES IDX 13 13 14 14 18 15 16 16 15 17 17 19 9 21 1 23 5 25
REMARK H PARENT 15 18 17 20 9 22 1 24 5 26
REMARK Flexibility Score: inf
ROOT
ATOM      1  C   UNL     1      53.138   7.735 -48.830  1.00  0.00     0.402 A 
ATOM      2  O   UNL     1      54.153   7.944 -47.995  1.00  0.00    -0.202 OA
ATOM      3  C   UNL     1      54.056   7.792 -46.678  1.00  0.00     0.368 A 
ATOM      4  C   UNL     1      55.178   8.037 -45.881  1.00  0.00     0.162 A 
ATOM      5  C   UNL     1      55.105   7.890 -44.496  1.00  0.00     0.128 A 
ATOM      6  C   UNL     1      53.903   7.493 -43.900  1.00  0.00     0.093 A 
ATOM      7  C   UNL     1      52.765   7.242 -44.676  1.00  0.00     0.136 A 
ATOM      8  C   UNL     1      52.835   7.389 -46.085  1.00  0.00     0.125 A 
ATOM      9  C   UNL     1      51.750   7.146 -46.943  1.00  0.00     0.078 A 
ATOM     10  C   UNL     1      51.897   7.307 -48.324  1.00  0.00     0.223 A 
ENDROOT
BRANCH   1  11
ATOM     11  C   UNL     1      53.368   7.947 -50.277  1.00  0.00     0.087 A 
ATOM     12  C   UNL     1      53.222   9.217 -50.864  1.00  0.00     0.022 A 
ATOM     13  C   UNL     1      53.468   9.397 -52.228  1.00  0.00     0.051 A 
ATOM     14  C   UNL     1      53.876   8.318 -53.022  1.00  0.00     0.157 A 
ATOM     15  C   UNL     1      53.799   6.873 -51.074  1.00  0.00     0.068 A 
ATOM     16  C   UNL     1      54.045   7.050 -52.440  1.00  0.00     0.158 A 
BRANCH  14  17
ATOM     17  O   UNL     1      54.119   8.501 -54.383  1.00  0.00    -0.504 OA
ATOM     18  H   UNL     1      55.060   8.488 -54.760  1.00  0.00     0.293 HD
ENDBRANCH  14  17
BRANCH  16  19
ATOM     19  O   UNL     1      54.457   5.957 -53.202  1.00  0.00    -0.504 OA
ATOM     20  H   UNL     1      54.014   5.050 -53.125  1.00  0.00     0.293 HD
ENDBRANCH  16  19
ENDBRANCH   1  11
BRANCH  10  21
ATOM     21  O   UNL     1      50.834   7.018 -49.179  1.00  0.00    -0.500 OA
ATOM     22  H   UNL     1      50.021   6.502 -48.864  1.00  0.00     0.294 HD
ENDBRANCH  10  21
BRANCH   5  23
ATOM     23  O   UNL     1      56.234   8.138 -43.719  1.00  0.00    -0.507 OA
ATOM     24  H   UNL     1      56.756   7.385 -43.286  1.00  0.00     0.293 HD
ENDBRANCH   5  23
BRANCH   7  25
ATOM     25  O   UNL     1      51.602   6.854 -44.005  1.00  0.00    -0.507 OA
ATOM     26  H   UNL     1      51.272   7.270 -43.147  1.00  0.00     0.293 HD
ENDBRANCH   7  25
TORSDOF 6
ENDMDL
MODEL 2
REMARK VINA RESULT:    -5.148      1.367      7.094
REMARK INTER + INTRA:          -6.548
REMARK INTER:                  -6.205
REMARK INTRA:                  -0.343
REMARK UNBOUND:                -0.347
REMARK SMILES Oc1cc(O)c2cc(O)c(-c3ccc(O)c(O)c3)[o+]c2c1
REMARK SMILES IDX 10 1 19 2 20 3 21 4 2 5 3 6 4 7 6 8 7 9 8 10 11 11 12 12
REMARK SMILES IDX 13 13 14 14 18 15 16 16 15 17 17 19 9 21 1 23 5 25
REMARK H PARENT 15 18 17 20 9 22 1 24 5 26
REMARK Flexibility Score: inf
ROOT
ATOM      1  C   UNL     1      54.224   7.219 -48.348  1.00  0.00     0.402 A 
ATOM      2  O   UNL     1      53.771   8.178 -49.153  1.00  0.00    -0.202 OA
ATOM      3  C   UNL     1      53.763   8.073 -50.478  1.00  0.00     0.368 A 
ATOM      4  C   UNL     1      53.269   9.135 -51.241  1.00  0.00     0.162 A 
ATOM      5  C   UNL     1      53.252   9.056 -52.633  1.00  0.00     0.128 A 
ATOM      6  C   UNL     1      53.731   7.906 -53.271  1.00  0.00     0.093 A 
ATOM      7  C   UNL     1      54.232   6.829 -52.530  1.00  0.00     0.136 A 
ATOM      8  C   UNL     1      54.249   6.905 -51.114  1.00  0.00     0.125 A 
ATOM      9  C   UNL     1      54.718   5.869 -50.289  1.00  0.00     0.078 A 
ATOM     10  C   UNL     1      54.700   6.015 -48.899  1.00  0.00     0.223 A 
ENDROOT
BRANCH   1  11
ATOM     11  C   UNL     1      54.189   7.458 -46.887  1.00  0.00     0.087 A 
ATOM     12  C   UNL     1      53.043   7.169 -46.126  1.00  0.00     0.022 A 
ATOM     13  C   UNL     1      53.041   7.381 -44.744  1.00  0.00     0.051 A 
ATOM     14  C   UNL     1      54.185   7.870 -44.102  1.00  0.00     0.157 A 
ATOM     15  C   UNL     1      55.340   7.928 -46.235  1.00  0.00     0.068 A 
ATOM     16  C   UNL     1      55.342   8.142 -44.852  1.00  0.00     0.158 A 
BRANCH  14  17
ATOM     17  O   UNL     1      54.180   8.081 -42.724  1.00  0.00    -0.504 OA
ATOM     18  H   UNL     1      54.055   7.316 -42.071  1.00  0.00     0.293 HD
ENDBRANCH  14  17
BRANCH  16  19
ATOM     19  O   UNL     1      56.500   8.623 -44.242  1.00  0.00    -0.504 OA
ATOM     20  H   UNL     1      56.470   9.200 -43.411  1.00  0.00     0.293 HD
ENDBRANCH  16  19
ENDBRANCH   1  11
BRANCH  10  21
ATOM     21  O   UNL     1      55.120   4.968 -48.080  1.00  0.00    -0.500 OA
ATOM     22  H   UNL     1      55.946   5.045 -47.497  1.00  0.00     0.294 HD
ENDBRANCH  10  21
BRANCH   5  23
ATOM     23  O   UNL     1      52.755  10.125 -53.376  1.00  0.00    -0.507 OA
ATOM     24  H   UNL     1      53.270  10.511 -54.159  1.00  0.00     0.293 HD
ENDBRANCH   5  23
BRANCH   7  25
ATOM     25  O   UNL     1      54.695   5.718 -53.241  1.00  0.00    -0.507 OA
ATOM     26  H   UNL     1      55.635   5.356 -53.185  1.00  0.00     0.293 HD
ENDBRANCH   7  25
TORSDOF 6
ENDMDL
MODEL 3
REMARK VINA RESULT:    -5.126      2.006      3.283
REMARK INTER + INTRA:          -6.521
REMARK INTER:                  -6.178
REMARK INTRA:                  -0.343
REMARK UNBOUND:                -0.347
REMARK SMILES Oc1cc(O)c2cc(O)c(-c3ccc(O)c(O)c3)[o+]c2c1
REMARK SMILES IDX 10 1 19 2 20 3 21 4 2 5 3 6 4 7 6 8 7 9 8 10 11 11 12 12
REMARK SMILES IDX 13 13 14 14 18 15 16 16 15 17 17 19 9 21 1 23 5 25
REMARK H PARENT 15 18 17 20 9 22 1 24 5 26
REMARK Flexibility Score: inf
ROOT
ATOM      1  C   UNL     1      54.144   7.362 -46.046  1.00  0.00     0.402 A 
ATOM      2  O   UNL     1      55.077   7.959 -45.307  1.00  0.00    -0.202 OA
ATOM      3  C   UNL     1      55.081   7.931 -43.978  1.00  0.00     0.368 A 
ATOM      4  C   UNL     1      56.102   8.590 -43.288  1.00  0.00     0.162 A 
ATOM      5  C   UNL     1      56.131   8.581 -41.893  1.00  0.00     0.128 A 
ATOM      6  C   UNL     1      55.132   7.908 -41.180  1.00  0.00     0.093 A 
ATOM      7  C   UNL     1      54.099   7.241 -41.848  1.00  0.00     0.136 A 
ATOM      8  C   UNL     1      54.067   7.245 -43.266  1.00  0.00     0.125 A 
ATOM      9  C   UNL     1      53.078   6.592 -44.020  1.00  0.00     0.078 A 
ATOM     10  C   UNL     1      53.116   6.637 -45.416  1.00  0.00     0.223 A 
ENDROOT
BRANCH   1  11
ATOM     11  C   UNL     1      54.243   7.472 -47.519  1.00  0.00     0.087 A 
ATOM     12  C   UNL     1      55.019   6.572 -48.270  1.00  0.00     0.022 A 
ATOM     13  C   UNL     1      55.078   6.682 -49.663  1.00  0.00     0.051 A 
ATOM     14  C   UNL     1      54.354   7.681 -50.325  1.00  0.00     0.157 A 
ATOM     15  C   UNL     1      53.503   8.459 -48.190  1.00  0.00     0.068 A 
ATOM     16  C   UNL     1      53.559   8.573 -49.584  1.00  0.00     0.158 A 
BRANCH  14  17
ATOM     17  O   UNL     1      54.416   7.789 -51.714  1.00  0.00    -0.504 OA
ATOM     18  H   UNL     1      53.577   7.847 -52.279  1.00  0.00     0.293 HD
ENDBRANCH  14  17
BRANCH  16  19
ATOM     19  O   UNL     1      52.821   9.574 -50.214  1.00  0.00    -0.504 OA
ATOM     20  H   UNL     1      52.149   9.370 -50.942  1.00  0.00     0.293 HD
ENDBRANCH  16  19
ENDBRANCH   1  11
BRANCH  10  21
ATOM     21  O   UNL     1      52.162   5.947 -46.165  1.00  0.00    -0.500 OA
ATOM     22  H   UNL     1      52.107   6.039 -47.173  1.00  0.00     0.294 HD
ENDBRANCH  10  21
BRANCH   5  23
ATOM     23  O   UNL     1      57.157   9.244 -41.224  1.00  0.00    -0.507 OA
ATOM     24  H   UNL     1      57.044  10.193 -40.886  1.00  0.00     0.293 HD
ENDBRANCH   5  23
BRANCH   7  25
ATOM     25  O   UNL     1      53.138   6.595 -41.064  1.00  0.00    -0.507 OA
ATOM     26  H   UNL     1      53.193   6.495 -40.061  1.00  0.00     0.293 HD
ENDBRANCH   7  25
TORSDOF 6
ENDMDL
MODEL 4
REMARK VINA RESULT:    -5.114      1.603      7.143
REMARK INTER + INTRA:          -6.508
REMARK INTER:                  -6.179
REMARK INTRA:                  -0.329
REMARK UNBOUND:                -0.347
REMARK SMILES Oc1cc(O)c2cc(O)c(-c3ccc(O)c(O)c3)[o+]c2c1
REMARK SMILES IDX 10 1 19 2 20 3 21 4 2 5 3 6 4 7 6 8 7 9 8 10 11 11 12 12
REMARK SMILES IDX 13 13 14 14 18 15 16 16 15 17 17 19 9 21 1 23 5 25
REMARK H PARENT 15 18 17 20 9 22 1 24 5 26
REMARK Flexibility Score: inf
ROOT
ATOM      1  C   UNL     1      54.685   7.186 -47.482  1.00  0.00     0.402 A 
ATOM      2  O   UNL     1      54.151   8.110 -48.278  1.00  0.00    -0.202 OA
ATOM      3  C   UNL     1      54.057   7.970 -49.597  1.00  0.00     0.368 A 
ATOM      4  C   UNL     1      53.482   8.997 -50.350  1.00  0.00     0.162 A 
ATOM      5  C   UNL     1      53.374   8.880 -51.736  1.00  0.00     0.128 A 
ATOM      6  C   UNL     1      53.844   7.728 -52.376  1.00  0.00     0.093 A 
ATOM      7  C   UNL     1      54.424   6.685 -51.644  1.00  0.00     0.136 A 
ATOM      8  C   UNL     1      54.534   6.799 -50.234  1.00  0.00     0.125 A 
ATOM      9  C   UNL     1      55.088   5.799 -49.419  1.00  0.00     0.078 A 
ATOM     10  C   UNL     1      55.158   5.981 -48.034  1.00  0.00     0.223 A 
ENDROOT
BRANCH   1  11
ATOM     11  C   UNL     1      54.740   7.462 -46.029  1.00  0.00     0.087 A 
ATOM     12  C   UNL     1      55.758   8.258 -45.473  1.00  0.00     0.022 A 
ATOM     13  C   UNL     1      55.776   8.524 -44.101  1.00  0.00     0.051 A 
ATOM     14  C   UNL     1      54.773   8.014 -43.268  1.00  0.00     0.157 A 
ATOM     15  C   UNL     1      53.725   6.971 -45.192  1.00  0.00     0.068 A 
ATOM     16  C   UNL     1      53.739   7.236 -43.818  1.00  0.00     0.158 A 
BRANCH  14  17
ATOM     17  O   UNL     1      54.794   8.280 -41.899  1.00  0.00    -0.504 OA
ATOM     18  H   UNL     1      54.660   7.546 -41.214  1.00  0.00     0.293 HD
ENDBRANCH  14  17
BRANCH  16  19
ATOM     19  O   UNL     1      52.722   6.719 -43.017  1.00  0.00    -0.504 OA
ATOM     20  H   UNL     1      52.788   5.805 -42.586  1.00  0.00     0.293 HD
ENDBRANCH  16  19
ENDBRANCH   1  11
BRANCH  10  21
ATOM     21  O   UNL     1      55.663   4.968 -47.220  1.00  0.00    -0.500 OA
ATOM     22  H   UNL     1      56.639   4.697 -47.249  1.00  0.00     0.294 HD
ENDBRANCH  10  21
BRANCH   5  23
ATOM     23  O   UNL     1      52.798   9.915 -52.469  1.00  0.00    -0.507 OA
ATOM     24  H   UNL     1      52.970  10.021 -53.462  1.00  0.00     0.293 HD
ENDBRANCH   5  23
BRANCH   7  25
ATOM     25  O   UNL     1      54.871   5.569 -52.358  1.00  0.00    -0.507 OA
ATOM     26  H   UNL     1      55.519   4.884 -51.998  1.00  0.00     0.293 HD
ENDBRANCH   7  25
TORSDOF 6
ENDMDL
MODEL 5
REMARK VINA RESULT:    -5.035     10.101     11.683
REMARK INTER + INTRA:          -6.412
REMARK INTER:                  -6.063
REMARK INTRA:                  -0.348
REMARK UNBOUND:                -0.347
REMARK SMILES Oc1cc(O)c2cc(O)c(-c3ccc(O)c(O)c3)[o+]c2c1
REMARK SMILES IDX 10 1 19 2 20 3 21 4 2 5 3 6 4 7 6 8 7 9 8 10 11 11 12 12
REMARK SMILES IDX 13 13 14 14 18 15 16 16 15 17 17 19 9 21 1 23 5 25
REMARK H PARENT 15 18 17 20 9 22 1 24 5 26
REMARK Flexibility Score: inf
ROOT
ATOM      1  C   UNL     1      56.396  -2.203 -52.024  1.00  0.00     0.402 A 
ATOM      2  O   UNL     1      57.497  -2.948 -51.973  1.00  0.00    -0.202 OA
ATOM      3  C   UNL     1      58.494  -2.718 -51.123  1.00  0.00     0.368 A 
ATOM      4  C   UNL     1      59.613  -3.555 -51.146  1.00  0.00     0.162 A 
ATOM      5  C   UNL     1      60.675  -3.337 -50.268  1.00  0.00     0.128 A 
ATOM      6  C   UNL     1      60.620  -2.274 -49.359  1.00  0.00     0.093 A 
ATOM      7  C   UNL     1      59.510  -1.421 -49.317  1.00  0.00     0.136 A 
ATOM      8  C   UNL     1      58.427  -1.642 -50.206  1.00  0.00     0.125 A 
ATOM      9  C   UNL     1      57.269  -0.847 -50.226  1.00  0.00     0.078 A 
ATOM     10  C   UNL     1      56.240  -1.129 -51.129  1.00  0.00     0.223 A 
ENDROOT
BRANCH   1  11
ATOM     11  C   UNL     1      55.360  -2.554 -53.023  1.00  0.00     0.087 A 
ATOM     12  C   UNL     1      54.333  -3.465 -52.722  1.00  0.00     0.022 A 
ATOM     13  C   UNL     1      53.353  -3.763 -53.673  1.00  0.00     0.051 A 
ATOM     14  C   UNL     1      53.375  -3.146 -54.930  1.00  0.00     0.157 A 
ATOM     15  C   UNL     1      55.366  -1.922 -54.277  1.00  0.00     0.068 A 
ATOM     16  C   UNL     1      54.386  -2.217 -55.232  1.00  0.00     0.158 A 
BRANCH  14  17
ATOM     17  O   UNL     1      52.396  -3.446 -55.876  1.00  0.00    -0.504 OA
ATOM     18  H   UNL     1      52.527  -3.236 -56.859  1.00  0.00     0.293 HD
ENDBRANCH  14  17
BRANCH  16  19
ATOM     19  O   UNL     1      54.433  -1.581 -56.471  1.00  0.00    -0.504 OA
ATOM     20  H   UNL     1      54.533  -0.577 -56.557  1.00  0.00     0.293 HD
ENDBRANCH  16  19
ENDBRANCH   1  11
BRANCH  10  21
ATOM     21  O   UNL     1      55.069  -0.371 -51.114  1.00  0.00    -0.500 OA
ATOM     22  H   UNL     1      54.484  -0.309 -50.289  1.00  0.00     0.294 HD
ENDBRANCH  10  21
BRANCH   5  23
ATOM     23  O   UNL     1      61.782  -4.182 -50.306  1.00  0.00    -0.507 OA
ATOM     24  H   UNL     1      62.437  -4.231 -49.535  1.00  0.00     0.293 HD
ENDBRANCH   5  23
BRANCH   7  25
ATOM     25  O   UNL     1      59.533  -0.382 -48.383  1.00  0.00    -0.507 OA
ATOM     26  H   UNL     1      59.267   0.571 -48.583  1.00  0.00     0.293 HD
ENDBRANCH   7  25
TORSDOF 6
ENDMDL
MODEL 6
REMARK VINA RESULT:    -5.030      2.136      7.614
REMARK INTER + INTRA:          -6.405
REMARK INTER:                  -6.069
REMARK INTRA:                  -0.337
REMARK UNBOUND:                -0.347
REMARK SMILES Oc1cc(O)c2cc(O)c(-c3ccc(O)c(O)c3)[o+]c2c1
REMARK SMILES IDX 10 1 19 2 20 3 21 4 2 5 3 6 4 7 6 8 7 9 8 10 11 11 12 12
REMARK SMILES IDX 13 13 14 14 18 15 16 16 15 17 17 19 9 21 1 23 5 25
REMARK H PARENT 15 18 17 20 9 22 1 24 5 26
REMARK Flexibility Score: inf
ROOT
ATOM      1  C   UNL     1      54.984   7.063 -45.881  1.00  0.00     0.402 A 
ATOM      2  O   UNL     1      54.267   7.807 -46.720  1.00  0.00    -0.202 OA
ATOM      3  C   UNL     1      54.303   7.658 -48.040  1.00  0.00     0.368 A 
ATOM      4  C   UNL     1      53.515   8.489 -48.840  1.00  0.00     0.162 A 
ATOM      5  C   UNL     1      53.535   8.358 -50.229  1.00  0.00     0.128 A 
ATOM      6  C   UNL     1      54.349   7.387 -50.825  1.00  0.00     0.093 A 
ATOM      7  C   UNL     1      55.148   6.542 -50.046  1.00  0.00     0.136 A 
ATOM      8  C   UNL     1      55.128   6.671 -48.633  1.00  0.00     0.125 A 
ATOM      9  C   UNL     1      55.885   5.859 -47.772  1.00  0.00     0.078 A 
ATOM     10  C   UNL     1      55.810   6.043 -46.388  1.00  0.00     0.223 A 
ENDROOT
BRANCH   1  11
ATOM     11  C   UNL     1      54.865   7.332 -44.430  1.00  0.00     0.087 A 
ATOM     12  C   UNL     1      53.832   6.764 -43.663  1.00  0.00     0.022 A 
ATOM     13  C   UNL     1      53.754   7.014 -42.290  1.00  0.00     0.051 A 
ATOM     14  C   UNL     1      54.711   7.821 -41.661  1.00  0.00     0.157 A 
ATOM     15  C   UNL     1      55.834   8.122 -43.791  1.00  0.00     0.068 A 
ATOM     16  C   UNL     1      55.759   8.375 -42.416  1.00  0.00     0.158 A 
BRANCH  14  17
ATOM     17  O   UNL     1      54.629   8.069 -40.292  1.00  0.00    -0.504 OA
ATOM     18  H   UNL     1      55.079   7.464 -39.615  1.00  0.00     0.293 HD
ENDBRANCH  14  17
BRANCH  16  19
ATOM     19  O   UNL     1      56.731   9.176 -41.820  1.00  0.00    -0.504 OA
ATOM     20  H   UNL     1      57.640   9.323 -42.241  1.00  0.00     0.293 HD
ENDBRANCH  16  19
ENDBRANCH   1  11
BRANCH  10  21
ATOM     21  O   UNL     1      56.523   5.204 -45.532  1.00  0.00    -0.500 OA
ATOM     22  H   UNL     1      57.124   5.573 -44.803  1.00  0.00     0.294 HD
ENDBRANCH  10  21
BRANCH   5  23
ATOM     23  O   UNL     1      52.742   9.196 -51.009  1.00  0.00    -0.507 OA
ATOM     24  H   UNL     1      51.875   9.584 -50.657  1.00  0.00     0.293 HD
ENDBRANCH   5  23
BRANCH   7  25
ATOM     25  O   UNL     1      55.934   5.602 -50.716  1.00  0.00    -0.507 OA
ATOM     26  H   UNL     1      56.378   4.809 -50.275  1.00  0.00     0.293 HD
ENDBRANCH   7  25
TORSDOF 6
ENDMDL
MODEL 7
REMARK VINA RESULT:    -4.949      2.126      4.411
REMARK INTER + INTRA:          -6.309
REMARK INTER:                  -5.998
REMARK INTRA:                  -0.310
REMARK UNBOUND:                -0.347
REMARK SMILES Oc1cc(O)c2cc(O)c(-c3ccc(O)c(O)c3)[o+]c2c1
REMARK SMILES IDX 10 1 19 2 20 3 21 4 2 5 3 6 4 7 6 8 7 9 8 10 11 11 12 12
REMARK SMILES IDX 13 13 14 14 18 15 16 16 15 17 17 19 9 21 1 23 5 25
REMARK H PARENT 15 18 17 20 9 22 1 24 5 26
REMARK Flexibility Score: inf
ROOT
ATOM      1  C   UNL     1      54.559   7.401 -45.556  1.00  0.00     0.402 A 
ATOM      2  O   UNL     1      53.562   6.808 -44.902  1.00  0.00    -0.202 OA
ATOM      3  C   UNL     1      53.437   6.841 -43.579  1.00  0.00     0.368 A 
ATOM      4  C   UNL     1      52.356   6.186 -42.982  1.00  0.00     0.162 A 
ATOM      5  C   UNL     1      52.201   6.200 -41.596  1.00  0.00     0.128 A 
ATOM      6  C   UNL     1      53.131   6.875 -40.798  1.00  0.00     0.093 A 
ATOM      7  C   UNL     1      54.222   7.538 -41.371  1.00  0.00     0.136 A 
ATOM      8  C   UNL     1      54.383   7.528 -42.781  1.00  0.00     0.125 A 
ATOM      9  C   UNL     1      55.437   8.177 -43.444  1.00  0.00     0.078 A 
ATOM     10  C   UNL     1      55.527   8.127 -44.838  1.00  0.00     0.223 A 
ENDROOT
BRANCH   1  11
ATOM     11  C   UNL     1      54.594   7.285 -47.031  1.00  0.00     0.087 A 
ATOM     12  C   UNL     1      55.506   6.430 -47.676  1.00  0.00     0.022 A 
ATOM     13  C   UNL     1      55.505   6.320 -49.070  1.00  0.00     0.051 A 
ATOM     14  C   UNL     1      54.586   7.048 -49.837  1.00  0.00     0.157 A 
ATOM     15  C   UNL     1      53.662   7.996 -47.804  1.00  0.00     0.068 A 
ATOM     16  C   UNL     1      53.658   7.888 -49.199  1.00  0.00     0.158 A 
BRANCH  14  17
ATOM     17  O   UNL     1      54.589   6.936 -51.227  1.00  0.00    -0.504 OA
ATOM     18  H   UNL     1      54.338   7.717 -51.822  1.00  0.00     0.293 HD
ENDBRANCH  14  17
BRANCH  16  19
ATOM     19  O   UNL     1      52.726   8.621 -49.933  1.00  0.00    -0.504 OA
ATOM     20  H   UNL     1      52.293   8.254 -50.771  1.00  0.00     0.293 HD
ENDBRANCH  16  19
ENDBRANCH   1  11
BRANCH  10  21
ATOM     21  O   UNL     1      56.546   8.812 -45.499  1.00  0.00    -0.500 OA
ATOM     22  H   UNL     1      56.369   9.347 -46.341  1.00  0.00     0.294 HD
ENDBRANCH  10  21
BRANCH   5  23
ATOM     23  O   UNL     1      51.117   5.541 -41.020  1.00  0.00    -0.507 OA
ATOM     24  H   UNL     1      51.155   4.554 -40.796  1.00  0.00     0.293 HD
ENDBRANCH   5  23
BRANCH   7  25
ATOM     25  O   UNL     1      55.109   8.186 -40.506  1.00  0.00    -0.507 OA
ATOM     26  H   UNL     1      55.326   9.171 -40.544  1.00  0.00     0.293 HD
ENDBRANCH   7  25
TORSDOF 6
ENDMDL
MODEL 8
REMARK VINA RESULT:    -4.946      1.503      6.972
REMARK INTER + INTRA:          -6.305
REMARK INTER:                  -5.976
REMARK INTRA:                  -0.329
REMARK UNBOUND:                -0.347
REMARK SMILES Oc1cc(O)c2cc(O)c(-c3ccc(O)c(O)c3)[o+]c2c1
REMARK SMILES IDX 10 1 19 2 20 3 21 4 2 5 3 6 4 7 6 8 7 9 8 10 11 11 12 12
REMARK SMILES IDX 13 13 14 14 18 15 16 16 15 17 17 19 9 21 1 23 5 25
REMARK H PARENT 15 18 17 20 9 22 1 24 5 26
REMARK Flexibility Score: inf
ROOT
ATOM      1  C   UNL     1      53.889   7.538 -48.958  1.00  0.00     0.402 A 
ATOM      2  O   UNL     1      54.470   6.474 -49.507  1.00  0.00    -0.202 OA
ATOM      3  C   UNL     1      54.511   6.261 -50.819  1.00  0.00     0.368 A 
ATOM      4  C   UNL     1      55.143   5.112 -51.302  1.00  0.00     0.162 A 
ATOM      5  C   UNL     1      55.197   4.861 -52.673  1.00  0.00     0.128 A 
ATOM      6  C   UNL     1      54.618   5.765 -53.571  1.00  0.00     0.093 A 
ATOM      7  C   UNL     1      53.979   6.923 -53.112  1.00  0.00     0.136 A 
ATOM      8  C   UNL     1      53.923   7.183 -51.719  1.00  0.00     0.125 A 
ATOM      9  C   UNL     1      53.316   8.324 -51.169  1.00  0.00     0.078 A 
ATOM     10  C   UNL     1      53.304   8.515 -49.784  1.00  0.00     0.223 A 
ENDROOT
BRANCH   1  11
ATOM     11  C   UNL     1      53.902   7.658 -47.482  1.00  0.00     0.087 A 
ATOM     12  C   UNL     1      52.764   7.355 -46.714  1.00  0.00     0.022 A 
ATOM     13  C   UNL     1      52.807   7.453 -45.320  1.00  0.00     0.051 A 
ATOM     14  C   UNL     1      53.987   7.840 -44.674  1.00  0.00     0.157 A 
ATOM     15  C   UNL     1      55.089   8.025 -46.828  1.00  0.00     0.068 A 
ATOM     16  C   UNL     1      55.136   8.125 -45.433  1.00  0.00     0.158 A 
BRANCH  14  17
ATOM     17  O   UNL     1      54.026   7.938 -43.284  1.00  0.00    -0.504 OA
ATOM     18  H   UNL     1      54.392   7.188 -42.709  1.00  0.00     0.293 HD
ENDBRANCH  14  17
BRANCH  16  19
ATOM     19  O   UNL     1      56.328   8.506 -44.820  1.00  0.00    -0.504 OA
ATOM     20  H   UNL     1      57.199   8.019 -44.987  1.00  0.00     0.293 HD
ENDBRANCH  16  19
ENDBRANCH   1  11
BRANCH  10  21
ATOM     21  O   UNL     1      52.746   9.672 -49.242  1.00  0.00    -0.500 OA
ATOM     22  H   UNL     1      53.191  10.174 -48.482  1.00  0.00     0.294 HD
ENDBRANCH  10  21
BRANCH   5  23
ATOM     23  O   UNL     1      55.832   3.710 -53.135  1.00  0.00    -0.507 OA
ATOM     24  H   UNL     1      56.841   3.625 -53.135  1.00  0.00     0.293 HD
ENDBRANCH   5  23
BRANCH   7  25
ATOM     25  O   UNL     1      53.422   7.773 -54.071  1.00  0.00    -0.507 OA
ATOM     26  H   UNL     1      53.710   8.729 -54.223  1.00  0.00     0.293 HD
ENDBRANCH   7  25
TORSDOF 6
ENDMDL
MODEL 9
REMARK VINA RESULT:    -4.941      2.023      2.775
REMARK INTER + INTRA:          -6.298
REMARK INTER:                  -5.954
REMARK INTRA:                  -0.344
REMARK UNBOUND:                -0.347
REMARK SMILES Oc1cc(O)c2cc(O)c(-c3ccc(O)c(O)c3)[o+]c2c1
REMARK SMILES IDX 10 1 19 2 20 3 21 4 2 5 3 6 4 7 6 8 7 9 8 10 11 11 12 12
REMARK SMILES IDX 13 13 14 14 18 15 16 16 15 17 17 19 9 21 1 23 5 25
REMARK H PARENT 15 18 17 20 9 22 1 24 5 26
REMARK Flexibility Score: inf
ROOT
ATOM      1  C   UNL     1      54.274   7.334 -49.234  1.00  0.00     0.402 A 
ATOM      2  O   UNL     1      53.890   7.789 -48.043  1.00  0.00    -0.202 OA
ATOM      3  C   UNL     1      54.377   7.329 -46.895  1.00  0.00     0.368 A 
ATOM      4  C   UNL     1      53.909   7.869 -45.694  1.00  0.00     0.162 A 
ATOM      5  C   UNL     1      54.400   7.404 -44.473  1.00  0.00     0.128 A 
ATOM      6  C   UNL     1      55.367   6.393 -44.451  1.00  0.00     0.093 A 
ATOM      7  C   UNL     1      55.852   5.836 -45.641  1.00  0.00     0.136 A 
ATOM      8  C   UNL     1      55.357   6.307 -46.884  1.00  0.00     0.125 A 
ATOM      9  C   UNL     1      55.794   5.818 -48.126  1.00  0.00     0.078 A 
ATOM     10  C   UNL     1      55.263   6.336 -49.311  1.00  0.00     0.223 A 
ENDROOT
BRANCH   1  11
ATOM     11  C   UNL     1      53.649   7.920 -50.441  1.00  0.00     0.087 A 
ATOM     12  C   UNL     1      54.242   8.998 -51.122  1.00  0.00     0.022 A 
ATOM     13  C   UNL     1      53.646   9.519 -52.274  1.00  0.00     0.051 A 
ATOM     14  C   UNL     1      52.459   8.964 -52.770  1.00  0.00     0.157 A 
ATOM     15  C   UNL     1      52.471   7.353 -50.955  1.00  0.00     0.068 A 
ATOM     16  C   UNL     1      51.871   7.872 -52.108  1.00  0.00     0.158 A 
BRANCH  14  17
ATOM     17  O   UNL     1      51.867   9.487 -53.918  1.00  0.00    -0.504 OA
ATOM     18  H   UNL     1      52.327   9.442 -54.820  1.00  0.00     0.293 HD
ENDBRANCH  14  17
BRANCH  16  19
ATOM     19  O   UNL     1      50.695   7.292 -52.580  1.00  0.00    -0.504 OA
ATOM     20  H   UNL     1      49.782   7.670 -52.359  1.00  0.00     0.293 HD
ENDBRANCH  16  19
ENDBRANCH   1  11
BRANCH  10  21
ATOM     21  O   UNL     1      55.733   5.886 -50.544  1.00  0.00    -0.500 OA
ATOM     22  H   UNL     1      56.718   5.713 -50.708  1.00  0.00     0.294 HD
ENDBRANCH  10  21
BRANCH   5  23
ATOM     23  O   UNL     1      53.921   7.954 -43.287  1.00  0.00    -0.507 OA
ATOM     24  H   UNL     1      53.756   7.383 -42.466  1.00  0.00     0.293 HD
ENDBRANCH   5  23
BRANCH   7  25
ATOM     25  O   UNL     1      56.815   4.828 -45.534  1.00  0.00    -0.507 OA
ATOM     26  H   UNL     1      57.429   4.707 -44.742  1.00  0.00     0.293 HD
ENDBRANCH   7  25
TORSDOF 6
ENDMDL
