MODEL 1
REMARK VINA RESULT:    -4.040      0.000      0.000
REMARK INTER + INTRA:          -7.808
REMARK INTER:                  -6.874
REMARK INTRA:                  -0.933
REMARK UNBOUND:                -0.933
REMARK SMILES CCCCCCCCCCCCCC(=O)[O-]
REMARK SMILES IDX 8 1 9 2 10 3 11 4 12 5 13 6 14 7 15 8 16 9 7 10 6 11 5 12
REMARK SMILES IDX 4 13 3 14 2 15 1 16
REMARK H PARENT
REMARK Flexibility Score: inf
ROOT
ATOM      1  C   UNL     1      -1.633  11.762  -4.420  1.00  0.00     0.000 C 
ENDROOT
BRANCH   1   2
ATOM      2  C   UNL     1      -0.321  12.501  -4.085  1.00  0.00     0.000 C 
BRANCH   2   3
ATOM      3  C   UNL     1       0.784  11.626  -3.461  1.00  0.00     0.000 C 
BRANCH   3   4
ATOM      4  C   UNL     1       0.387  10.906  -2.159  1.00  0.00     0.000 C 
BRANCH   4   5
ATOM      5  C   UNL     1       1.500   9.988  -1.622  1.00  0.00     0.006 C 
BRANCH   5   6
ATOM      6  C   UNL     1       1.179   9.447  -0.223  1.00  0.00     0.053 C 
BRANCH   6   7
ATOM      7  C   UNL     1       1.819   8.115   0.022  1.00  0.00     0.041 C 
ATOM      8  O   UNL     1       2.639   7.644  -0.810  1.00  0.00    -0.550 OA
ATOM      9  O   UNL     1       1.533   7.407   1.183  1.00  0.00    -0.550 OA
ENDBRANCH   6   7
ENDBRANCH   5   6
ENDBRANCH   4   5
ENDBRANCH   3   4
ENDBRANCH   2   3
ENDBRANCH   1   2
BRANCH   1  10
ATOM     10  C   UNL     1      -2.638  12.576  -5.254  1.00  0.00     0.000 C 
BRANCH  10  11
ATOM     11  C   UNL     1      -3.014  13.913  -4.592  1.00  0.00    -0.000 C 
BRANCH  11  12
ATOM     12  C   UNL     1      -2.681  15.124  -5.477  1.00  0.00    -0.000 C 
BRANCH  12  13
ATOM     13  C   UNL     1      -1.789  16.150  -4.763  1.00  0.00    -0.000 C 
BRANCH  13  14
ATOM     14  C   UNL     1      -1.757  15.893  -3.252  1.00  0.00    -0.000 C 
BRANCH  14  15
ATOM     15  C   UNL     1      -0.334  16.034  -2.700  1.00  0.00    -0.003 C 
ATOM     16  C   UNL     1      -0.311  15.863  -1.184  1.00  0.00     0.004 C 
ENDBRANCH  14  15
ENDBRANCH  13  14
ENDBRANCH  12  13
ENDBRANCH  11  12
ENDBRANCH  10  11
ENDBRANCH   1  10
TORSDOF 12
ENDMDL
MODEL 2
REMARK VINA RESULT:    -3.893      0.831      1.757
REMARK INTER + INTRA:          -7.557
REMARK INTER:                  -6.696
REMARK INTRA:                  -0.861
REMARK UNBOUND:                -0.933
REMARK SMILES CCCCCCCCCCCCCC(=O)[O-]
REMARK SMILES IDX 8 1 9 2 10 3 11 4 12 5 13 6 14 7 15 8 16 9 7 10 6 11 5 12
REMARK SMILES IDX 4 13 3 14 2 15 1 16
REMARK H PARENT
REMARK Flexibility Score: inf
ROOT
ATOM      1  C   UNL     1      -0.341  12.374  -4.022  1.00  0.00     0.000 C 
ENDROOT
BRANCH   1   2
ATOM      2  C   UNL     1       0.806  11.485  -3.499  1.00  0.00     0.000 C 
BRANCH   2   3
ATOM      3  C   UNL     1       0.742  11.148  -1.996  1.00  0.00     0.000 C 
BRANCH   3   4
ATOM      4  C   UNL     1       1.427   9.829  -1.594  1.00  0.00     0.000 C 
BRANCH   4   5
ATOM      5  C   UNL     1       1.045   9.366  -0.177  1.00  0.00     0.006 C 
BRANCH   5   6
ATOM      6  C   UNL     1       1.342   7.877   0.045  1.00  0.00     0.053 C 
BRANCH   6   7
ATOM      7  C   UNL     1       2.522   7.671   0.944  1.00  0.00     0.041 C 
ATOM      8  O   UNL     1       2.611   6.626   1.642  1.00  0.00    -0.550 OA
ATOM      9  O   UNL     1       3.539   8.617   0.988  1.00  0.00    -0.550 OA
ENDBRANCH   6   7
ENDBRANCH   5   6
ENDBRANCH   4   5
ENDBRANCH   3   4
ENDBRANCH   2   3
ENDBRANCH   1   2
BRANCH   1  10
ATOM     10  C   UNL     1      -1.666  11.634  -4.281  1.00  0.00     0.000 C 
BRANCH  10  11
ATOM     11  C   UNL     1      -2.608  12.412  -5.216  1.00  0.00    -0.000 C 
BRANCH  11  12
ATOM     12  C   UNL     1      -3.009  13.781  -4.645  1.00  0.00    -0.000 C 
BRANCH  12  13
ATOM     13  C   UNL     1      -2.739  14.932  -5.626  1.00  0.00    -0.000 C 
BRANCH  13  14
ATOM     14  C   UNL     1      -1.892  16.028  -4.967  1.00  0.00    -0.000 C 
BRANCH  14  15
ATOM     15  C   UNL     1      -1.814  15.825  -3.450  1.00  0.00    -0.003 C 
ATOM     16  C   UNL     1      -0.377  15.940  -2.952  1.00  0.00     0.004 C 
ENDBRANCH  14  15
ENDBRANCH  13  14
ENDBRANCH  12  13
ENDBRANCH  11  12
ENDBRANCH  10  11
ENDBRANCH   1  10
TORSDOF 12
ENDMDL
MODEL 3
REMARK VINA RESULT:    -3.801      0.902      1.538
REMARK INTER + INTRA:          -7.400
REMARK INTER:                  -6.340
REMARK INTRA:                  -1.060
REMARK UNBOUND:                -0.933
REMARK SMILES CCCCCCCCCCCCCC(=O)[O-]
REMARK SMILES IDX 8 1 9 2 10 3 11 4 12 5 13 6 14 7 15 8 16 9 7 10 6 11 5 12
REMARK SMILES IDX 4 13 3 14 2 15 1 16
REMARK H PARENT
REMARK Flexibility Score: inf
ROOT
ATOM      1  C   UNL     1      -2.443  12.600  -5.182  1.00  0.00     0.000 C 
ENDROOT
BRANCH   1   2
ATOM      2  C   UNL     1      -1.505  11.737  -4.314  1.00  0.00     0.000 C 
BRANCH   2   3
ATOM      3  C   UNL     1      -0.177  12.411  -3.913  1.00  0.00     0.000 C 
BRANCH   3   4
ATOM      4  C   UNL     1       0.917  11.449  -3.415  1.00  0.00     0.000 C 
BRANCH   4   5
ATOM      5  C   UNL     1       0.588  10.829  -2.046  1.00  0.00     0.006 C 
BRANCH   5   6
ATOM      6  C   UNL     1       1.731   9.952  -1.518  1.00  0.00     0.053 C 
BRANCH   6   7
ATOM      7  C   UNL     1       1.384   9.309  -0.210  1.00  0.00     0.041 C 
ATOM      8  O   UNL     1       0.205   9.365   0.230  1.00  0.00    -0.550 OA
ATOM      9  O   UNL     1       2.355   8.622   0.508  1.00  0.00    -0.550 OA
ENDBRANCH   6   7
ENDBRANCH   5   6
ENDBRANCH   4   5
ENDBRANCH   3   4
ENDBRANCH   2   3
ENDBRANCH   1   2
BRANCH   1  10
ATOM     10  C   UNL     1      -2.873  13.932  -4.543  1.00  0.00     0.000 C 
BRANCH  10  11
ATOM     11  C   UNL     1      -2.734  15.125  -5.506  1.00  0.00    -0.000 C 
BRANCH  11  12
ATOM     12  C   UNL     1      -1.301  15.678  -5.556  1.00  0.00    -0.000 C 
BRANCH  12  13
ATOM     13  C   UNL     1      -1.035  16.730  -4.469  1.00  0.00    -0.000 C 
BRANCH  13  14
ATOM     14  C   UNL     1      -0.064  16.192  -3.410  1.00  0.00    -0.000 C 
BRANCH  14  15
ATOM     15  C   UNL     1      -0.816  15.746  -2.151  1.00  0.00    -0.003 C 
ATOM     16  C   UNL     1      -0.010  16.049  -0.892  1.00  0.00     0.004 C 
ENDBRANCH  14  15
ENDBRANCH  13  14
ENDBRANCH  12  13
ENDBRANCH  11  12
ENDBRANCH  10  11
ENDBRANCH   1  10
TORSDOF 12
ENDMDL
MODEL 4
REMARK VINA RESULT:    -3.716      3.766      7.892
REMARK INTER + INTRA:          -7.256
REMARK INTER:                  -6.732
REMARK INTRA:                  -0.524
REMARK UNBOUND:                -0.933
REMARK SMILES CCCCCCCCCCCCCC(=O)[O-]
REMARK SMILES IDX 8 1 9 2 10 3 11 4 12 5 13 6 14 7 15 8 16 9 7 10 6 11 5 12
REMARK SMILES IDX 4 13 3 14 2 15 1 16
REMARK H PARENT
REMARK Flexibility Score: inf
ROOT
ATOM      1  C   UNL     1       0.726  11.415  -3.115  1.00  0.00     0.000 C 
ENDROOT
BRANCH   1   2
ATOM      2  C   UNL     1       0.744  12.501  -4.210  1.00  0.00     0.000 C 
BRANCH   2   3
ATOM      3  C   UNL     1      -0.076  13.767  -3.893  1.00  0.00     0.000 C 
BRANCH   3   4
ATOM      4  C   UNL     1      -0.196  14.773  -5.052  1.00  0.00     0.000 C 
BRANCH   4   5
ATOM      5  C   UNL     1      -1.436  15.676  -4.932  1.00  0.00     0.006 C 
BRANCH   5   6
ATOM      6  C   UNL     1      -2.572  15.227  -5.861  1.00  0.00     0.053 C 
BRANCH   6   7
ATOM      7  C   UNL     1      -3.315  14.050  -5.308  1.00  0.00     0.041 C 
ATOM      8  O   UNL     1      -3.699  14.051  -4.109  1.00  0.00    -0.550 OA
ATOM      9  O   UNL     1      -3.611  12.966  -6.125  1.00  0.00    -0.550 OA
ENDBRANCH   6   7
ENDBRANCH   5   6
ENDBRANCH   4   5
ENDBRANCH   3   4
ENDBRANCH   2   3
ENDBRANCH   1   2
BRANCH   1  10
ATOM     10  C   UNL     1       1.977  10.519  -3.072  1.00  0.00     0.000 C 
BRANCH  10  11
ATOM     11  C   UNL     1       2.121   9.764  -1.739  1.00  0.00    -0.000 C 
BRANCH  11  12
ATOM     12  C   UNL     1       0.855   9.848  -0.873  1.00  0.00    -0.000 C 
BRANCH  12  13
ATOM     13  C   UNL     1       0.851   8.820   0.268  1.00  0.00    -0.000 C 
BRANCH  13  14
ATOM     14  C   UNL     1       2.252   8.238   0.489  1.00  0.00    -0.000 C 
BRANCH  14  15
ATOM     15  C   UNL     1       2.191   6.962   1.336  1.00  0.00    -0.003 C 
ATOM     16  C   UNL     1       3.588   6.494   1.730  1.00  0.00     0.004 C 
ENDBRANCH  14  15
ENDBRANCH  13  14
ENDBRANCH  12  13
ENDBRANCH  11  12
ENDBRANCH  10  11
ENDBRANCH   1  10
TORSDOF 12
ENDMDL
MODEL 5
REMARK VINA RESULT:    -3.699      0.895      2.567
REMARK INTER + INTRA:          -7.228
REMARK INTER:                  -6.177
REMARK INTRA:                  -1.050
REMARK UNBOUND:                -0.933
REMARK SMILES CCCCCCCCCCCCCC(=O)[O-]
REMARK SMILES IDX 8 1 9 2 10 3 11 4 12 5 13 6 14 7 15 8 16 9 7 10 6 11 5 12
REMARK SMILES IDX 4 13 3 14 2 15 1 16
REMARK H PARENT
REMARK Flexibility Score: inf
ROOT
ATOM      1  C   UNL     1       0.831  13.628  -4.850  1.00  0.00     0.000 C 
ENDROOT
BRANCH   1   2
ATOM      2  C   UNL     1       0.155  12.652  -3.866  1.00  0.00     0.000 C 
BRANCH   2   3
ATOM      3  C   UNL     1       1.040  11.484  -3.388  1.00  0.00     0.000 C 
BRANCH   3   4
ATOM      4  C   UNL     1       0.755  10.994  -1.956  1.00  0.00     0.000 C 
BRANCH   4   5
ATOM      5  C   UNL     1       1.623   9.788  -1.555  1.00  0.00     0.006 C 
BRANCH   5   6
ATOM      6  C   UNL     1       1.291   9.280  -0.145  1.00  0.00     0.053 C 
BRANCH   6   7
ATOM      7  C   UNL     1       1.981   7.986   0.159  1.00  0.00     0.041 C 
ATOM      8  O   UNL     1       2.931   7.589  -0.566  1.00  0.00    -0.550 OA
ATOM      9  O   UNL     1       1.594   7.232   1.261  1.00  0.00    -0.550 OA
ENDBRANCH   6   7
ENDBRANCH   5   6
ENDBRANCH   4   5
ENDBRANCH   3   4
ENDBRANCH   2   3
ENDBRANCH   1   2
BRANCH   1  10
ATOM     10  C   UNL     1       0.414  15.101  -4.689  1.00  0.00     0.000 C 
BRANCH  10  11
ATOM     11  C   UNL     1      -0.417  15.348  -3.418  1.00  0.00    -0.000 C 
BRANCH  11  12
ATOM     12  C   UNL     1      -1.845  15.821  -3.728  1.00  0.00    -0.000 C 
BRANCH  12  13
ATOM     13  C   UNL     1      -2.037  16.189  -5.207  1.00  0.00    -0.000 C 
BRANCH  13  14
ATOM     14  C   UNL     1      -2.994  15.210  -5.897  1.00  0.00    -0.000 C 
BRANCH  14  15
ATOM     15  C   UNL     1      -3.382  14.064  -4.956  1.00  0.00    -0.003 C 
ATOM     16  C   UNL     1      -3.057  12.708  -5.575  1.00  0.00     0.004 C 
ENDBRANCH  14  15
ENDBRANCH  13  14
ENDBRANCH  12  13
ENDBRANCH  11  12
ENDBRANCH  10  11
ENDBRANCH   1  10
TORSDOF 12
ENDMDL
MODEL 6
REMARK VINA RESULT:    -3.694      3.268      6.774
REMARK INTER + INTRA:          -7.218
REMARK INTER:                  -6.403
REMARK INTRA:                  -0.815
REMARK UNBOUND:                -0.933
REMARK SMILES CCCCCCCCCCCCCC(=O)[O-]
REMARK SMILES IDX 8 1 9 2 10 3 11 4 12 5 13 6 14 7 15 8 16 9 7 10 6 11 5 12
REMARK SMILES IDX 4 13 3 14 2 15 1 16
REMARK H PARENT
REMARK Flexibility Score: inf
ROOT
ATOM      1  C   UNL     1      -1.844  11.663  -4.627  1.00  0.00     0.000 C 
ENDROOT
BRANCH   1   2
ATOM      2  C   UNL     1      -2.968  12.499  -5.274  1.00  0.00     0.000 C 
BRANCH   2   3
ATOM      3  C   UNL     1      -3.172  13.903  -4.672  1.00  0.00     0.000 C 
BRANCH   3   4
ATOM      4  C   UNL     1      -2.739  15.070  -5.578  1.00  0.00     0.000 C 
BRANCH   4   5
ATOM      5  C   UNL     1      -1.852  16.094  -4.849  1.00  0.00     0.006 C 
BRANCH   5   6
ATOM      6  C   UNL     1      -1.824  15.860  -3.333  1.00  0.00     0.053 C 
BRANCH   6   7
ATOM      7  C   UNL     1      -0.462  16.095  -2.756  1.00  0.00     0.041 C 
ATOM      8  O   UNL     1       0.465  16.541  -3.482  1.00  0.00    -0.550 OA
ATOM      9  O   UNL     1      -0.223  15.850  -1.409  1.00  0.00    -0.550 OA
ENDBRANCH   6   7
ENDBRANCH   5   6
ENDBRANCH   4   5
ENDBRANCH   3   4
ENDBRANCH   2   3
ENDBRANCH   1   2
BRANCH   1  10
ATOM     10  C   UNL     1      -0.772  12.484  -3.889  1.00  0.00     0.000 C 
BRANCH  10  11
ATOM     11  C   UNL     1       0.589  11.768  -3.831  1.00  0.00    -0.000 C 
BRANCH  11  12
ATOM     12  C   UNL     1       0.828  11.063  -2.487  1.00  0.00    -0.000 C 
BRANCH  12  13
ATOM     13  C   UNL     1       1.964  10.032  -2.554  1.00  0.00    -0.000 C 
BRANCH  13  14
ATOM     14  C   UNL     1       2.347   9.544  -1.151  1.00  0.00    -0.000 C 
BRANCH  14  15
ATOM     15  C   UNL     1       1.106   9.391  -0.264  1.00  0.00    -0.003 C 
ATOM     16  C   UNL     1       1.128   8.064   0.488  1.00  0.00     0.004 C 
ENDBRANCH  14  15
ENDBRANCH  13  14
ENDBRANCH  12  13
ENDBRANCH  11  12
ENDBRANCH  10  11
ENDBRANCH   1  10
TORSDOF 12
ENDMDL
MODEL 7
REMARK VINA RESULT:    -3.693      1.671      2.227
REMARK INTER + INTRA:          -7.216
REMARK INTER:                  -6.460
REMARK INTRA:                  -0.756
REMARK UNBOUND:                -0.933
REMARK SMILES CCCCCCCCCCCCCC(=O)[O-]
REMARK SMILES IDX 8 1 9 2 10 3 11 4 12 5 13 6 14 7 15 8 16 9 7 10 6 11 5 12
REMARK SMILES IDX 4 13 3 14 2 15 1 16
REMARK H PARENT
REMARK Flexibility Score: inf
ROOT
ATOM      1  C   UNL     1       0.689  11.531  -3.274  1.00  0.00     0.000 C 
ENDROOT
BRANCH   1   2
ATOM      2  C   UNL     1       1.957  10.660  -3.162  1.00  0.00     0.000 C 
BRANCH   2   3
ATOM      3  C   UNL     1       2.019   9.747  -1.921  1.00  0.00     0.000 C 
BRANCH   3   4
ATOM      4  C   UNL     1       0.905   9.981  -0.884  1.00  0.00     0.000 C 
BRANCH   4   5
ATOM      5  C   UNL     1       0.883   8.908   0.219  1.00  0.00     0.006 C 
BRANCH   5   6
ATOM      6  C   UNL     1       1.863   7.763  -0.068  1.00  0.00     0.053 C 
BRANCH   6   7
ATOM      7  C   UNL     1       2.905   7.638   1.000  1.00  0.00     0.041 C 
ATOM      8  O   UNL     1       3.784   8.530   1.135  1.00  0.00    -0.550 OA
ATOM      9  O   UNL     1       2.889   6.552   1.867  1.00  0.00    -0.550 OA
ENDBRANCH   6   7
ENDBRANCH   5   6
ENDBRANCH   4   5
ENDBRANCH   3   4
ENDBRANCH   2   3
ENDBRANCH   1   2
BRANCH   1  10
ATOM     10  C   UNL     1       0.786  12.686  -4.287  1.00  0.00     0.000 C 
BRANCH  10  11
ATOM     11  C   UNL     1      -0.376  13.686  -4.160  1.00  0.00    -0.000 C 
BRANCH  11  12
ATOM     12  C   UNL     1      -0.014  15.082  -4.691  1.00  0.00    -0.000 C 
BRANCH  12  13
ATOM     13  C   UNL     1      -0.477  16.208  -3.756  1.00  0.00    -0.000 C 
BRANCH  13  14
ATOM     14  C   UNL     1      -1.755  15.810  -3.008  1.00  0.00    -0.000 C 
BRANCH  14  15
ATOM     15  C   UNL     1      -1.585  15.991  -1.495  1.00  0.00    -0.003 C 
ATOM     16  C   UNL     1      -0.120  15.876  -1.087  1.00  0.00     0.004 C 
ENDBRANCH  14  15
ENDBRANCH  13  14
ENDBRANCH  12  13
ENDBRANCH  11  12
ENDBRANCH  10  11
ENDBRANCH   1  10
TORSDOF 12
ENDMDL
MODEL 8
REMARK VINA RESULT:    -3.649      3.668      7.742
REMARK INTER + INTRA:          -7.141
REMARK INTER:                  -6.518
REMARK INTRA:                  -0.624
REMARK UNBOUND:                -0.933
REMARK SMILES CCCCCCCCCCCCCC(=O)[O-]
REMARK SMILES IDX 8 1 9 2 10 3 11 4 12 5 13 6 14 7 15 8 16 9 7 10 6 11 5 12
REMARK SMILES IDX 4 13 3 14 2 15 1 16
REMARK H PARENT
REMARK Flexibility Score: inf
ROOT
ATOM      1  C   UNL     1      -0.377  12.363  -3.948  1.00  0.00     0.000 C 
ENDROOT
BRANCH   1   2
ATOM      2  C   UNL     1      -1.587  11.665  -4.603  1.00  0.00     0.000 C 
BRANCH   2   3
ATOM      3  C   UNL     1      -2.876  12.508  -4.667  1.00  0.00     0.000 C 
BRANCH   3   4
ATOM      4  C   UNL     1      -2.998  13.419  -5.902  1.00  0.00     0.000 C 
BRANCH   4   5
ATOM      5  C   UNL     1      -3.030  14.914  -5.539  1.00  0.00     0.006 C 
BRANCH   5   6
ATOM      6  C   UNL     1      -1.634  15.550  -5.584  1.00  0.00     0.053 C 
BRANCH   6   7
ATOM      7  C   UNL     1      -1.267  16.184  -4.277  1.00  0.00     0.041 C 
ATOM      8  O   UNL     1      -0.485  17.171  -4.250  1.00  0.00    -0.550 OA
ATOM      9  O   UNL     1      -1.812  15.705  -3.092  1.00  0.00    -0.550 OA
ENDBRANCH   6   7
ENDBRANCH   5   6
ENDBRANCH   4   5
ENDBRANCH   3   4
ENDBRANCH   2   3
ENDBRANCH   1   2
BRANCH   1  10
ATOM     10  C   UNL     1       0.736  11.414  -3.471  1.00  0.00     0.000 C 
BRANCH  10  11
ATOM     11  C   UNL     1       0.597  11.034  -1.986  1.00  0.00    -0.000 C 
BRANCH  11  12
ATOM     12  C   UNL     1       1.514   9.867  -1.588  1.00  0.00    -0.000 C 
BRANCH  12  13
ATOM     13  C   UNL     1       1.329   9.444  -0.123  1.00  0.00    -0.000 C 
BRANCH  13  14
ATOM     14  C   UNL     1       2.476   8.537   0.337  1.00  0.00    -0.000 C 
BRANCH  14  15
ATOM     15  C   UNL     1       1.939   7.247   0.967  1.00  0.00    -0.003 C 
ATOM     16  C   UNL     1       3.054   6.463   1.652  1.00  0.00     0.004 C 
ENDBRANCH  14  15
ENDBRANCH  13  14
ENDBRANCH  12  13
ENDBRANCH  11  12
ENDBRANCH  10  11
ENDBRANCH   1  10
TORSDOF 12
ENDMDL
MODEL 9
REMARK VINA RESULT:    -3.446      1.642      3.604
REMARK INTER + INTRA:          -6.797
REMARK INTER:                  -6.157
REMARK INTRA:                  -0.640
REMARK UNBOUND:                -0.933
REMARK SMILES CCCCCCCCCCCCCC(=O)[O-]
REMARK SMILES IDX 8 1 9 2 10 3 11 4 12 5 13 6 14 7 15 8 16 9 7 10 6 11 5 12
REMARK SMILES IDX 4 13 3 14 2 15 1 16
REMARK H PARENT
REMARK Flexibility Score: inf
ROOT
ATOM      1  C   UNL     1       0.510  10.616  -1.961  1.00  0.00     0.000 C 
ENDROOT
BRANCH   1   2
ATOM      2  C   UNL     1       1.588   9.767  -1.257  1.00  0.00     0.000 C 
BRANCH   2   3
ATOM      3  C   UNL     1       2.856   9.494  -2.091  1.00  0.00     0.000 C 
BRANCH   3   4
ATOM      4  C   UNL     1       4.125   9.199  -1.270  1.00  0.00     0.000 C 
BRANCH   4   5
ATOM      5  C   UNL     1       4.109   7.799  -0.631  1.00  0.00     0.006 C 
BRANCH   5   6
ATOM      6  C   UNL     1       3.913   7.860   0.890  1.00  0.00     0.053 C 
BRANCH   6   7
ATOM      7  C   UNL     1       2.892   6.871   1.362  1.00  0.00     0.041 C 
ATOM      8  O   UNL     1       3.255   5.760   1.831  1.00  0.00    -0.550 OA
ATOM      9  O   UNL     1       1.540   7.189   1.313  1.00  0.00    -0.550 OA
ENDBRANCH   6   7
ENDBRANCH   5   6
ENDBRANCH   4   5
ENDBRANCH   3   4
ENDBRANCH   2   3
ENDBRANCH   1   2
BRANCH   1  10
ATOM     10  C   UNL     1       1.008  11.415  -3.179  1.00  0.00     0.000 C 
BRANCH  10  11
ATOM     11  C   UNL     1      -0.124  12.166  -3.900  1.00  0.00    -0.000 C 
BRANCH  11  12
ATOM     12  C   UNL     1       0.095  13.686  -3.920  1.00  0.00    -0.000 C 
BRANCH  12  13
ATOM     13  C   UNL     1      -0.762  14.393  -4.980  1.00  0.00    -0.000 C 
BRANCH  13  14
ATOM     14  C   UNL     1      -2.175  14.668  -4.452  1.00  0.00    -0.000 C 
BRANCH  14  15
ATOM     15  C   UNL     1      -3.230  14.370  -5.523  1.00  0.00    -0.003 C 
ATOM     16  C   UNL     1      -3.197  12.901  -5.934  1.00  0.00     0.004 C 
ENDBRANCH  14  15
ENDBRANCH  13  14
ENDBRANCH  12  13
ENDBRANCH  11  12
ENDBRANCH  10  11
ENDBRANCH   1  10
TORSDOF 12
ENDMDL
