MODEL 1
REMARK VINA RESULT:    -4.219      0.000      0.000
REMARK INTER + INTRA:          -8.264
REMARK INTER:                  -7.178
REMARK INTRA:                  -1.086
REMARK UNBOUND:                -1.086
REMARK SMILES CCCCCCCCCCCCCC(=O)[O-]
REMARK SMILES IDX 8 1 9 2 10 3 11 4 12 5 13 6 14 7 15 8 16 9 7 10 6 11 5 12
REMARK SMILES IDX 4 13 3 14 2 15 1 16
REMARK H PARENT
REMARK Flexibility Score: inf
ROOT
ATOM      1  C   UNL     1      13.778  22.662 -25.886  1.00  0.00     0.000 C 
ENDROOT
BRANCH   1   2
ATOM      2  C   UNL     1      12.512  22.273 -26.669  1.00  0.00     0.000 C 
BRANCH   2   3
ATOM      3  C   UNL     1      12.825  21.337 -27.855  1.00  0.00     0.000 C 
BRANCH   3   4
ATOM      4  C   UNL     1      12.062  19.999 -27.807  1.00  0.00     0.000 C 
BRANCH   4   5
ATOM      5  C   UNL     1      11.916  19.391 -26.402  1.00  0.00     0.006 C 
BRANCH   5   6
ATOM      6  C   UNL     1      12.951  18.294 -26.122  1.00  0.00     0.053 C 
BRANCH   6   7
ATOM      7  C   UNL     1      13.062  18.046 -24.650  1.00  0.00     0.041 C 
ATOM      8  O   UNL     1      12.993  19.007 -23.839  1.00  0.00    -0.550 OA
ATOM      9  O   UNL     1      13.292  16.761 -24.177  1.00  0.00    -0.550 OA
ENDBRANCH   6   7
ENDBRANCH   5   6
ENDBRANCH   4   5
ENDBRANCH   3   4
ENDBRANCH   2   3
ENDBRANCH   1   2
BRANCH   1  10
ATOM     10  C   UNL     1      13.644  22.407 -24.376  1.00  0.00     0.000 C 
BRANCH  10  11
ATOM     11  C   UNL     1      12.201  22.570 -23.874  1.00  0.00    -0.000 C 
BRANCH  11  12
ATOM     12  C   UNL     1      12.063  22.053 -22.434  1.00  0.00    -0.000 C 
BRANCH  12  13
ATOM     13  C   UNL     1      13.379  22.131 -21.642  1.00  0.00    -0.000 C 
BRANCH  13  14
ATOM     14  C   UNL     1      13.322  23.007 -20.376  1.00  0.00    -0.000 C 
BRANCH  14  15
ATOM     15  C   UNL     1      12.017  22.849 -19.567  1.00  0.00    -0.003 C 
ATOM     16  C   UNL     1      12.224  22.076 -18.265  1.00  0.00     0.004 C 
ENDBRANCH  14  15
ENDBRANCH  13  14
ENDBRANCH  12  13
ENDBRANCH  11  12
ENDBRANCH  10  11
ENDBRANCH   1  10
TORSDOF 12
ENDMDL
MODEL 2
REMARK VINA RESULT:    -4.122     21.656     24.423
REMARK INTER + INTRA:          -8.100
REMARK INTER:                  -7.071
REMARK INTRA:                  -1.029
REMARK UNBOUND:                -1.086
REMARK SMILES CCCCCCCCCCCCCC(=O)[O-]
REMARK SMILES IDX 8 1 9 2 10 3 11 4 12 5 13 6 14 7 15 8 16 9 7 10 6 11 5 12
REMARK SMILES IDX 4 13 3 14 2 15 1 16
REMARK H PARENT
REMARK Flexibility Score: inf
ROOT
ATOM      1  C   UNL     1      31.489   4.208 -22.523  1.00  0.00     0.000 C 
ENDROOT
BRANCH   1   2
ATOM      2  C   UNL     1      32.072   5.434 -21.800  1.00  0.00     0.000 C 
BRANCH   2   3
ATOM      3  C   UNL     1      31.971   5.309 -20.265  1.00  0.00     0.000 C 
BRANCH   3   4
ATOM      4  C   UNL     1      30.719   5.981 -19.670  1.00  0.00     0.000 C 
BRANCH   4   5
ATOM      5  C   UNL     1      29.526   5.037 -19.446  1.00  0.00     0.006 C 
BRANCH   5   6
ATOM      6  C   UNL     1      28.340   5.354 -20.366  1.00  0.00     0.053 C 
BRANCH   6   7
ATOM      7  C   UNL     1      27.480   6.417 -19.758  1.00  0.00     0.041 C 
ATOM      8  O   UNL     1      26.908   7.266 -20.492  1.00  0.00    -0.550 OA
ATOM      9  O   UNL     1      27.350   6.501 -18.378  1.00  0.00    -0.550 OA
ENDBRANCH   6   7
ENDBRANCH   5   6
ENDBRANCH   4   5
ENDBRANCH   3   4
ENDBRANCH   2   3
ENDBRANCH   1   2
BRANCH   1  10
ATOM     10  C   UNL     1      30.326   4.569 -23.461  1.00  0.00     0.000 C 
BRANCH  10  11
ATOM     11  C   UNL     1      30.665   5.736 -24.401  1.00  0.00    -0.000 C 
BRANCH  11  12
ATOM     12  C   UNL     1      31.446   5.241 -25.627  1.00  0.00    -0.000 C 
BRANCH  12  13
ATOM     13  C   UNL     1      30.954   3.876 -26.138  1.00  0.00    -0.000 C 
BRANCH  13  14
ATOM     14  C   UNL     1      30.337   3.897 -27.549  1.00  0.00    -0.000 C 
BRANCH  14  15
ATOM     15  C   UNL     1      30.996   4.917 -28.502  1.00  0.00    -0.003 C 
ATOM     16  C   UNL     1      31.703   4.247 -29.679  1.00  0.00     0.004 C 
ENDBRANCH  14  15
ENDBRANCH  13  14
ENDBRANCH  12  13
ENDBRANCH  11  12
ENDBRANCH  10  11
ENDBRANCH   1  10
TORSDOF 12
ENDMDL
MODEL 3
REMARK VINA RESULT:    -4.050      2.889      6.785
REMARK INTER + INTRA:          -7.976
REMARK INTER:                  -7.373
REMARK INTRA:                  -0.603
REMARK UNBOUND:                -1.086
REMARK SMILES CCCCCCCCCCCCCC(=O)[O-]
REMARK SMILES IDX 8 1 9 2 10 3 11 4 12 5 13 6 14 7 15 8 16 9 7 10 6 11 5 12
REMARK SMILES IDX 4 13 3 14 2 15 1 16
REMARK H PARENT
REMARK Flexibility Score: inf
ROOT
ATOM      1  C   UNL     1      12.840  22.546 -23.011  1.00  0.00     0.000 C 
ENDROOT
BRANCH   1   2
ATOM      2  C   UNL     1      12.600  23.361 -21.729  1.00  0.00     0.000 C 
BRANCH   2   3
ATOM      3  C   UNL     1      13.455  22.856 -20.548  1.00  0.00     0.000 C 
BRANCH   3   4
ATOM      4  C   UNL     1      12.625  22.409 -19.330  1.00  0.00     0.000 C 
BRANCH   4   5
ATOM      5  C   UNL     1      13.367  21.486 -18.348  1.00  0.00     0.006 C 
BRANCH   5   6
ATOM      6  C   UNL     1      14.526  20.729 -19.009  1.00  0.00     0.053 C 
BRANCH   6   7
ATOM      7  C   UNL     1      15.776  20.882 -18.200  1.00  0.00     0.041 C 
ATOM      8  O   UNL     1      16.400  21.976 -18.199  1.00  0.00    -0.550 OA
ATOM      9  O   UNL     1      16.279  19.802 -17.487  1.00  0.00    -0.550 OA
ENDBRANCH   6   7
ENDBRANCH   5   6
ENDBRANCH   4   5
ENDBRANCH   3   4
ENDBRANCH   2   3
ENDBRANCH   1   2
BRANCH   1  10
ATOM     10  C   UNL     1      13.042  23.433 -24.250  1.00  0.00     0.000 C 
BRANCH  10  11
ATOM     11  C   UNL     1      13.593  22.652 -25.454  1.00  0.00    -0.000 C 
BRANCH  11  12
ATOM     12  C   UNL     1      12.551  22.579 -26.581  1.00  0.00    -0.000 C 
BRANCH  12  13
ATOM     13  C   UNL     1      12.897  21.526 -27.646  1.00  0.00    -0.000 C 
BRANCH  13  14
ATOM     14  C   UNL     1      11.920  20.337 -27.722  1.00  0.00    -0.000 C 
BRANCH  14  15
ATOM     15  C   UNL     1      11.903  19.462 -26.451  1.00  0.00    -0.003 C 
ATOM     16  C   UNL     1      12.881  18.291 -26.532  1.00  0.00     0.004 C 
ENDBRANCH  14  15
ENDBRANCH  13  14
ENDBRANCH  12  13
ENDBRANCH  11  12
ENDBRANCH  10  11
ENDBRANCH   1  10
TORSDOF 12
ENDMDL
MODEL 4
REMARK VINA RESULT:    -4.038      3.342      5.182
REMARK INTER + INTRA:          -7.956
REMARK INTER:                  -7.117
REMARK INTRA:                  -0.839
REMARK UNBOUND:                -1.086
REMARK SMILES CCCCCCCCCCCCCC(=O)[O-]
REMARK SMILES IDX 8 1 9 2 10 3 11 4 12 5 13 6 14 7 15 8 16 9 7 10 6 11 5 12
REMARK SMILES IDX 4 13 3 14 2 15 1 16
REMARK H PARENT
REMARK Flexibility Score: inf
ROOT
ATOM      1  C   UNL     1      13.093  23.037 -20.611  1.00  0.00     0.000 C 
ENDROOT
BRANCH   1   2
ATOM      2  C   UNL     1      11.952  22.124 -21.094  1.00  0.00     0.000 C 
BRANCH   2   3
ATOM      3  C   UNL     1      11.905  22.013 -22.632  1.00  0.00     0.000 C 
BRANCH   3   4
ATOM      4  C   UNL     1      13.257  21.635 -23.268  1.00  0.00     0.000 C 
BRANCH   4   5
ATOM      5  C   UNL     1      13.768  22.623 -24.330  1.00  0.00     0.006 C 
BRANCH   5   6
ATOM      6  C   UNL     1      12.688  23.008 -25.349  1.00  0.00     0.053 C 
BRANCH   6   7
ATOM      7  C   UNL     1      12.800  22.158 -26.574  1.00  0.00     0.041 C 
ATOM      8  O   UNL     1      13.498  22.540 -27.550  1.00  0.00    -0.550 OA
ATOM      9  O   UNL     1      12.093  20.965 -26.659  1.00  0.00    -0.550 OA
ENDBRANCH   6   7
ENDBRANCH   5   6
ENDBRANCH   4   5
ENDBRANCH   3   4
ENDBRANCH   2   3
ENDBRANCH   1   2
BRANCH   1  10
ATOM     10  C   UNL     1      14.119  22.296 -19.740  1.00  0.00     0.000 C 
BRANCH  10  11
ATOM     11  C   UNL     1      13.817  20.794 -19.618  1.00  0.00    -0.000 C 
BRANCH  11  12
ATOM     12  C   UNL     1      14.926  20.076 -18.834  1.00  0.00    -0.000 C 
BRANCH  12  13
ATOM     13  C   UNL     1      15.679  21.011 -17.873  1.00  0.00    -0.000 C 
BRANCH  13  14
ATOM     14  C   UNL     1      17.167  21.226 -18.212  1.00  0.00    -0.000 C 
BRANCH  14  15
ATOM     15  C   UNL     1      18.133  20.722 -17.119  1.00  0.00    -0.003 C 
ATOM     16  C   UNL     1      17.767  19.329 -16.609  1.00  0.00     0.004 C 
ENDBRANCH  14  15
ENDBRANCH  13  14
ENDBRANCH  12  13
ENDBRANCH  11  12
ENDBRANCH  10  11
ENDBRANCH   1  10
TORSDOF 12
ENDMDL
MODEL 5
REMARK VINA RESULT:    -4.016      5.783      8.578
REMARK INTER + INTRA:          -7.919
REMARK INTER:                  -6.923
REMARK INTRA:                  -0.996
REMARK UNBOUND:                -1.086
REMARK SMILES CCCCCCCCCCCCCC(=O)[O-]
REMARK SMILES IDX 8 1 9 2 10 3 11 4 12 5 13 6 14 7 15 8 16 9 7 10 6 11 5 12
REMARK SMILES IDX 4 13 3 14 2 15 1 16
REMARK H PARENT
REMARK Flexibility Score: inf
ROOT
ATOM      1  C   UNL     1      14.441  20.199 -19.218  1.00  0.00     0.000 C 
ENDROOT
BRANCH   1   2
ATOM      2  C   UNL     1      15.836  19.903 -18.640  1.00  0.00     0.000 C 
BRANCH   2   3
ATOM      3  C   UNL     1      16.583  21.191 -18.232  1.00  0.00     0.000 C 
BRANCH   3   4
ATOM      4  C   UNL     1      17.857  20.932 -17.406  1.00  0.00     0.000 C 
BRANCH   4   5
ATOM      5  C   UNL     1      18.017  19.487 -16.902  1.00  0.00     0.006 C 
BRANCH   5   6
ATOM      6  C   UNL     1      19.359  19.251 -16.197  1.00  0.00     0.053 C 
BRANCH   6   7
ATOM      7  C   UNL     1      19.286  19.705 -14.773  1.00  0.00     0.041 C 
ATOM      8  O   UNL     1      20.021  20.643 -14.368  1.00  0.00    -0.550 OA
ATOM      9  O   UNL     1      18.441  19.057 -13.880  1.00  0.00    -0.550 OA
ENDBRANCH   6   7
ENDBRANCH   5   6
ENDBRANCH   4   5
ENDBRANCH   3   4
ENDBRANCH   2   3
ENDBRANCH   1   2
BRANCH   1  10
ATOM     10  C   UNL     1      14.042  21.676 -19.080  1.00  0.00     0.000 C 
BRANCH  10  11
ATOM     11  C   UNL     1      12.532  21.865 -18.870  1.00  0.00    -0.000 C 
BRANCH  11  12
ATOM     12  C   UNL     1      11.908  22.630 -20.047  1.00  0.00    -0.000 C 
BRANCH  12  13
ATOM     13  C   UNL     1      12.960  23.218 -21.002  1.00  0.00    -0.000 C 
BRANCH  13  14
ATOM     14  C   UNL     1      12.660  23.016 -22.500  1.00  0.00    -0.000 C 
BRANCH  14  15
ATOM     15  C   UNL     1      13.680  22.112 -23.224  1.00  0.00    -0.003 C 
ATOM     16  C   UNL     1      13.454  20.628 -22.938  1.00  0.00     0.004 C 
ENDBRANCH  14  15
ENDBRANCH  13  14
ENDBRANCH  12  13
ENDBRANCH  11  12
ENDBRANCH  10  11
ENDBRANCH   1  10
TORSDOF 12
ENDMDL
MODEL 6
REMARK VINA RESULT:    -3.981      2.809      4.874
REMARK INTER + INTRA:          -7.860
REMARK INTER:                  -7.246
REMARK INTRA:                  -0.614
REMARK UNBOUND:                -1.086
REMARK SMILES CCCCCCCCCCCCCC(=O)[O-]
REMARK SMILES IDX 8 1 9 2 10 3 11 4 12 5 13 6 14 7 15 8 16 9 7 10 6 11 5 12
REMARK SMILES IDX 4 13 3 14 2 15 1 16
REMARK H PARENT
REMARK Flexibility Score: inf
ROOT
ATOM      1  C   UNL     1      12.003  22.752 -20.506  1.00  0.00     0.000 C 
ENDROOT
BRANCH   1   2
ATOM      2  C   UNL     1      12.953  22.960 -21.698  1.00  0.00     0.000 C 
BRANCH   2   3
ATOM      3  C   UNL     1      12.334  22.481 -23.028  1.00  0.00     0.000 C 
BRANCH   3   4
ATOM      4  C   UNL     1      12.696  23.367 -24.235  1.00  0.00     0.000 C 
BRANCH   4   5
ATOM      5  C   UNL     1      13.548  22.674 -25.311  1.00  0.00     0.006 C 
BRANCH   5   6
ATOM      6  C   UNL     1      12.817  22.547 -26.654  1.00  0.00     0.053 C 
BRANCH   6   7
ATOM      7  C   UNL     1      12.669  21.108 -27.033  1.00  0.00     0.041 C 
ATOM      8  O   UNL     1      12.625  20.772 -28.246  1.00  0.00    -0.550 OA
ATOM      9  O   UNL     1      12.529  20.140 -26.046  1.00  0.00    -0.550 OA
ENDBRANCH   6   7
ENDBRANCH   5   6
ENDBRANCH   4   5
ENDBRANCH   3   4
ENDBRANCH   2   3
ENDBRANCH   1   2
BRANCH   1  10
ATOM     10  C   UNL     1      12.277  21.443 -19.749  1.00  0.00     0.000 C 
BRANCH  10  11
ATOM     11  C   UNL     1      13.179  21.646 -18.522  1.00  0.00    -0.000 C 
BRANCH  11  12
ATOM     12  C   UNL     1      14.658  21.471 -18.896  1.00  0.00    -0.000 C 
BRANCH  12  13
ATOM     13  C   UNL     1      15.460  20.714 -17.824  1.00  0.00    -0.000 C 
BRANCH  13  14
ATOM     14  C   UNL     1      15.922  19.304 -18.237  1.00  0.00    -0.000 C 
BRANCH  14  15
ATOM     15  C   UNL     1      15.498  18.902 -19.665  1.00  0.00    -0.003 C 
ATOM     16  C   UNL     1      16.148  17.597 -20.124  1.00  0.00     0.004 C 
ENDBRANCH  14  15
ENDBRANCH  13  14
ENDBRANCH  12  13
ENDBRANCH  11  12
ENDBRANCH  10  11
ENDBRANCH   1  10
TORSDOF 12
ENDMDL
MODEL 7
REMARK VINA RESULT:    -3.970      1.812      2.528
REMARK INTER + INTRA:          -7.840
REMARK INTER:                  -6.949
REMARK INTRA:                  -0.891
REMARK UNBOUND:                -1.086
REMARK SMILES CCCCCCCCCCCCCC(=O)[O-]
REMARK SMILES IDX 8 1 9 2 10 3 11 4 12 5 13 6 14 7 15 8 16 9 7 10 6 11 5 12
REMARK SMILES IDX 4 13 3 14 2 15 1 16
REMARK H PARENT
REMARK Flexibility Score: inf
ROOT
ATOM      1  C   UNL     1      13.716  22.614 -23.514  1.00  0.00     0.000 C 
ENDROOT
BRANCH   1   2
ATOM      2  C   UNL     1      13.996  22.988 -24.980  1.00  0.00     0.000 C 
BRANCH   2   3
ATOM      3  C   UNL     1      12.714  22.975 -25.840  1.00  0.00     0.000 C 
BRANCH   3   4
ATOM      4  C   UNL     1      12.838  22.134 -27.125  1.00  0.00     0.000 C 
BRANCH   4   5
ATOM      5  C   UNL     1      12.038  20.821 -27.115  1.00  0.00     0.006 C 
BRANCH   5   6
ATOM      6  C   UNL     1      12.449  19.886 -25.970  1.00  0.00     0.053 C 
BRANCH   6   7
ATOM      7  C   UNL     1      12.635  18.491 -26.478  1.00  0.00     0.041 C 
ATOM      8  O   UNL     1      13.393  17.690 -25.869  1.00  0.00    -0.550 OA
ATOM      9  O   UNL     1      12.011  18.090 -27.652  1.00  0.00    -0.550 OA
ENDBRANCH   6   7
ENDBRANCH   5   6
ENDBRANCH   4   5
ENDBRANCH   3   4
ENDBRANCH   2   3
ENDBRANCH   1   2
BRANCH   1  10
ATOM     10  C   UNL     1      12.235  22.296 -23.255  1.00  0.00     0.000 C 
BRANCH  10  11
ATOM     11  C   UNL     1      11.945  21.987 -21.778  1.00  0.00    -0.000 C 
BRANCH  11  12
ATOM     12  C   UNL     1      12.550  23.065 -20.866  1.00  0.00    -0.000 C 
BRANCH  12  13
ATOM     13  C   UNL     1      12.705  22.596 -19.409  1.00  0.00    -0.000 C 
BRANCH  13  14
ATOM     14  C   UNL     1      13.286  21.179 -19.243  1.00  0.00    -0.000 C 
BRANCH  14  15
ATOM     15  C   UNL     1      14.790  21.160 -18.895  1.00  0.00    -0.003 C 
ATOM     16  C   UNL     1      15.309  19.749 -18.621  1.00  0.00     0.004 C 
ENDBRANCH  14  15
ENDBRANCH  13  14
ENDBRANCH  12  13
ENDBRANCH  11  12
ENDBRANCH  10  11
ENDBRANCH   1  10
TORSDOF 12
ENDMDL
MODEL 8
REMARK VINA RESULT:    -3.906      2.918      6.480
REMARK INTER + INTRA:          -7.731
REMARK INTER:                  -6.629
REMARK INTRA:                  -1.102
REMARK UNBOUND:                -1.086
REMARK SMILES CCCCCCCCCCCCCC(=O)[O-]
REMARK SMILES IDX 8 1 9 2 10 3 11 4 12 5 13 6 14 7 15 8 16 9 7 10 6 11 5 12
REMARK SMILES IDX 4 13 3 14 2 15 1 16
REMARK H PARENT
REMARK Flexibility Score: inf
ROOT
ATOM      1  C   UNL     1      13.123  22.206 -21.674  1.00  0.00     0.000 C 
ENDROOT
BRANCH   1   2
ATOM      2  C   UNL     1      12.959  23.118 -20.445  1.00  0.00     0.000 C 
BRANCH   2   3
ATOM      3  C   UNL     1      12.256  22.399 -19.275  1.00  0.00     0.000 C 
BRANCH   3   4
ATOM      4  C   UNL     1      13.192  21.494 -18.451  1.00  0.00     0.000 C 
BRANCH   4   5
ATOM      5  C   UNL     1      14.681  21.600 -18.822  1.00  0.00     0.006 C 
BRANCH   5   6
ATOM      6  C   UNL     1      15.592  20.867 -17.828  1.00  0.00     0.053 C 
BRANCH   6   7
ATOM      7  C   UNL     1      15.889  19.485 -18.317  1.00  0.00     0.041 C 
ATOM      8  O   UNL     1      16.442  18.648 -17.555  1.00  0.00    -0.550 OA
ATOM      9  O   UNL     1      15.603  19.135 -19.630  1.00  0.00    -0.550 OA
ENDBRANCH   6   7
ENDBRANCH   5   6
ENDBRANCH   4   5
ENDBRANCH   3   4
ENDBRANCH   2   3
ENDBRANCH   1   2
BRANCH   1  10
ATOM     10  C   UNL     1      11.887  21.329 -21.931  1.00  0.00     0.000 C 
BRANCH  10  11
ATOM     11  C   UNL     1      12.254  19.901 -22.363  1.00  0.00    -0.000 C 
BRANCH  11  12
ATOM     12  C   UNL     1      13.323  19.922 -23.467  1.00  0.00    -0.000 C 
BRANCH  12  13
ATOM     13  C   UNL     1      12.743  19.644 -24.864  1.00  0.00    -0.000 C 
BRANCH  13  14
ATOM     14  C   UNL     1      12.513  20.897 -25.730  1.00  0.00    -0.000 C 
BRANCH  14  15
ATOM     15  C   UNL     1      13.435  22.082 -25.370  1.00  0.00    -0.003 C 
ATOM     16  C   UNL     1      12.655  23.361 -25.069  1.00  0.00     0.004 C 
ENDBRANCH  14  15
ENDBRANCH  13  14
ENDBRANCH  12  13
ENDBRANCH  11  12
ENDBRANCH  10  11
ENDBRANCH   1  10
TORSDOF 12
ENDMDL
MODEL 9
REMARK VINA RESULT:    -3.211     20.738     23.473
REMARK INTER + INTRA:          -6.550
REMARK INTER:                  -5.700
REMARK INTRA:                  -0.850
REMARK UNBOUND:                -1.086
REMARK SMILES CCCCCCCCCCCCCC(=O)[O-]
REMARK SMILES IDX 8 1 9 2 10 3 11 4 12 5 13 6 14 7 15 8 16 9 7 10 6 11 5 12
REMARK SMILES IDX 4 13 3 14 2 15 1 16
REMARK H PARENT
REMARK Flexibility Score: inf
ROOT
ATOM      1  C   UNL     1      30.193   4.559 -22.318  1.00  0.00     0.000 C 
ENDROOT
BRANCH   1   2
ATOM      2  C   UNL     1      30.328   5.667 -21.259  1.00  0.00     0.000 C 
BRANCH   2   3
ATOM      3  C   UNL     1      29.315   5.497 -20.106  1.00  0.00     0.000 C 
BRANCH   3   4
ATOM      4  C   UNL     1      27.873   5.879 -20.487  1.00  0.00     0.000 C 
BRANCH   4   5
ATOM      5  C   UNL     1      27.386   7.219 -19.909  1.00  0.00     0.006 C 
BRANCH   5   6
ATOM      6  C   UNL     1      28.106   7.597 -18.607  1.00  0.00     0.053 C 
BRANCH   6   7
ATOM      7  C   UNL     1      27.442   6.944 -17.437  1.00  0.00     0.041 C 
ATOM      8  O   UNL     1      28.125   6.288 -16.606  1.00  0.00    -0.550 OA
ATOM      9  O   UNL     1      26.063   7.016 -17.290  1.00  0.00    -0.550 OA
ENDBRANCH   6   7
ENDBRANCH   5   6
ENDBRANCH   4   5
ENDBRANCH   3   4
ENDBRANCH   2   3
ENDBRANCH   1   2
BRANCH   1  10
ATOM     10  C   UNL     1      30.080   5.115 -23.746  1.00  0.00     0.000 C 
BRANCH  10  11
ATOM     11  C   UNL     1      31.034   6.292 -24.001  1.00  0.00    -0.000 C 
BRANCH  11  12
ATOM     12  C   UNL     1      31.700   6.166 -25.380  1.00  0.00    -0.000 C 
BRANCH  12  13
ATOM     13  C   UNL     1      30.692   5.894 -26.508  1.00  0.00    -0.000 C 
BRANCH  13  14
ATOM     14  C   UNL     1      31.016   4.670 -27.386  1.00  0.00    -0.000 C 
BRANCH  14  15
ATOM     15  C   UNL     1      29.770   3.875 -27.830  1.00  0.00    -0.003 C 
ATOM     16  C   UNL     1      28.644   3.925 -26.798  1.00  0.00     0.004 C 
ENDBRANCH  14  15
ENDBRANCH  13  14
ENDBRANCH  12  13
ENDBRANCH  11  12
ENDBRANCH  10  11
ENDBRANCH   1  10
TORSDOF 12
ENDMDL
