MODEL 1
REMARK VINA RESULT:    -7.842      0.000      0.000
REMARK INTER + INTRA:          -9.509
REMARK INTER:                  -9.218
REMARK INTRA:                  -0.291
REMARK UNBOUND:                -0.291
REMARK SMILES O=c1cc(-c2ccc(O)c(O)c2)oc2cc(O)cc(O)c12
REMARK SMILES IDX 4 1 3 2 2 3 1 4 21 5 19 6 18 7 16 8 15 9 14 10 13 11 5 12
REMARK SMILES IDX 6 13 7 14 8 15 12 16 10 17 9 18 11 20 20 22 17 24
REMARK H PARENT 9 19 11 21 20 23 17 25
REMARK Flexibility Score: inf
ROOT
ATOM      1  C   UNL     1      50.574 -39.390  -3.461  1.00  0.00     0.138 A 
ATOM      2  C   UNL     1      50.560 -38.247  -4.274  1.00  0.00     0.100 A 
ATOM      3  C   UNL     1      49.344 -37.759  -4.756  1.00  0.00     0.197 A 
ATOM      4  O   UNL     1      49.368 -36.770  -5.533  1.00  0.00    -0.289 OA
ATOM      5  C   UNL     1      48.135 -38.402  -4.396  1.00  0.00     0.107 A 
ATOM      6  C   UNL     1      46.836 -37.969  -4.795  1.00  0.00     0.134 A 
ATOM      7  C   UNL     1      45.719 -38.751  -4.475  1.00  0.00     0.093 A 
ATOM      8  C   UNL     1      45.849 -39.917  -3.720  1.00  0.00     0.123 A 
ATOM      9  C   UNL     1      47.109 -40.321  -3.278  1.00  0.00     0.094 A 
ATOM     10  C   UNL     1      48.246 -39.579  -3.611  1.00  0.00     0.146 A 
ATOM     11  O   UNL     1      49.430 -40.006  -3.183  1.00  0.00    -0.456 OA
ENDROOT
BRANCH   1  12
ATOM     12  C   UNL     1      51.838 -39.950  -2.920  1.00  0.00     0.021 A 
ATOM     13  C   UNL     1      51.923 -41.280  -2.464  1.00  0.00     0.016 A 
ATOM     14  C   UNL     1      53.129 -41.784  -1.970  1.00  0.00     0.051 A 
ATOM     15  C   UNL     1      54.270 -40.974  -1.927  1.00  0.00     0.157 A 
ATOM     16  C   UNL     1      52.992 -39.147  -2.886  1.00  0.00     0.062 A 
ATOM     17  C   UNL     1      54.201 -39.650  -2.390  1.00  0.00     0.158 A 
BRANCH  15  18
ATOM     18  O   UNL     1      55.470 -41.480  -1.431  1.00  0.00    -0.504 OA
ATOM     19  H   UNL     1      55.650 -42.476  -1.391  1.00  0.00     0.293 HD
ENDBRANCH  15  18
BRANCH  17  20
ATOM     20  O   UNL     1      55.321 -38.818  -2.364  1.00  0.00    -0.504 OA
ATOM     21  H   UNL     1      55.267 -37.855  -2.056  1.00  0.00     0.293 HD
ENDBRANCH  17  20
ENDBRANCH   1  12
BRANCH   6  22
ATOM     22  O   UNL     1      46.585 -36.775  -5.480  1.00  0.00    -0.507 OA
ATOM     23  H   UNL     1      45.765 -36.202  -5.357  1.00  0.00     0.293 HD
ENDBRANCH   6  22
BRANCH   8  24
ATOM     24  O   UNL     1      44.714 -40.661  -3.406  1.00  0.00    -0.508 OA
ATOM     25  H   UNL     1      44.699 -41.671  -3.503  1.00  0.00     0.293 HD
ENDBRANCH   8  24
TORSDOF 5
ENDMDL
MODEL 2
REMARK VINA RESULT:    -7.216      1.372      3.071
REMARK INTER + INTRA:          -8.772
REMARK INTER:                  -8.480
REMARK INTRA:                  -0.293
REMARK UNBOUND:                -0.291
REMARK SMILES O=c1cc(-c2ccc(O)c(O)c2)oc2cc(O)cc(O)c12
REMARK SMILES IDX 4 1 3 2 2 3 1 4 21 5 19 6 18 7 16 8 15 9 14 10 13 11 5 12
REMARK SMILES IDX 6 13 7 14 8 15 12 16 10 17 9 18 11 20 20 22 17 24
REMARK H PARENT 9 19 11 21 20 23 17 25
REMARK Flexibility Score: inf
ROOT
ATOM      1  C   UNL     1      49.971 -39.376  -3.497  1.00  0.00     0.138 A 
ATOM      2  C   UNL     1      48.883 -40.218  -3.227  1.00  0.00     0.100 A 
ATOM      3  C   UNL     1      47.609 -39.862  -3.671  1.00  0.00     0.197 A 
ATOM      4  O   UNL     1      46.643 -40.606  -3.361  1.00  0.00    -0.289 OA
ATOM      5  C   UNL     1      47.430 -38.671  -4.416  1.00  0.00     0.107 A 
ATOM      6  C   UNL     1      46.185 -38.229  -4.953  1.00  0.00     0.134 A 
ATOM      7  C   UNL     1      46.107 -36.976  -5.573  1.00  0.00     0.093 A 
ATOM      8  C   UNL     1      47.240 -36.177  -5.727  1.00  0.00     0.123 A 
ATOM      9  C   UNL     1      48.474 -36.623  -5.253  1.00  0.00     0.094 A 
ATOM     10  C   UNL     1      48.577 -37.854  -4.600  1.00  0.00     0.146 A 
ATOM     11  O   UNL     1      49.767 -38.237  -4.150  1.00  0.00    -0.456 OA
ENDROOT
BRANCH   1  12
ATOM     12  C   UNL     1      51.348 -39.707  -3.050  1.00  0.00     0.021 A 
ATOM     13  C   UNL     1      52.378 -38.747  -3.051  1.00  0.00     0.016 A 
ATOM     14  C   UNL     1      53.661 -39.085  -2.614  1.00  0.00     0.051 A 
ATOM     15  C   UNL     1      53.938 -40.381  -2.164  1.00  0.00     0.157 A 
ATOM     16  C   UNL     1      51.630 -41.004  -2.583  1.00  0.00     0.062 A 
ATOM     17  C   UNL     1      52.916 -41.344  -2.146  1.00  0.00     0.158 A 
BRANCH  15  18
ATOM     18  O   UNL     1      55.221 -40.714  -1.731  1.00  0.00    -0.504 OA
ATOM     19  H   UNL     1      55.517 -41.678  -1.642  1.00  0.00     0.293 HD
ENDBRANCH  15  18
BRANCH  17  20
ATOM     20  O   UNL     1      53.158 -42.643  -1.700  1.00  0.00    -0.504 OA
ATOM     21  H   UNL     1      52.694 -43.027  -0.885  1.00  0.00     0.293 HD
ENDBRANCH  17  20
ENDBRANCH   1  12
BRANCH   6  22
ATOM     22  O   UNL     1      45.009 -38.986  -4.928  1.00  0.00    -0.507 OA
ATOM     23  H   UNL     1      44.112 -38.646  -4.616  1.00  0.00     0.293 HD
ENDBRANCH   6  22
BRANCH   8  24
ATOM     24  O   UNL     1      47.128 -34.942  -6.364  1.00  0.00    -0.508 OA
ATOM     25  H   UNL     1      47.929 -34.331  -6.479  1.00  0.00     0.293 HD
ENDBRANCH   8  24
TORSDOF 5
ENDMDL
MODEL 3
REMARK VINA RESULT:    -7.184      1.215      2.717
REMARK INTER + INTRA:          -8.735
REMARK INTER:                  -8.417
REMARK INTRA:                  -0.318
REMARK UNBOUND:                -0.291
REMARK SMILES O=c1cc(-c2ccc(O)c(O)c2)oc2cc(O)cc(O)c12
REMARK SMILES IDX 4 1 3 2 2 3 1 4 21 5 19 6 18 7 16 8 15 9 14 10 13 11 5 12
REMARK SMILES IDX 6 13 7 14 8 15 12 16 10 17 9 18 11 20 20 22 17 24
REMARK H PARENT 9 19 11 21 20 23 17 25
REMARK Flexibility Score: inf
ROOT
ATOM      1  C   UNL     1      50.413 -39.637  -3.338  1.00  0.00     0.138 A 
ATOM      2  C   UNL     1      49.257 -40.425  -3.244  1.00  0.00     0.100 A 
ATOM      3  C   UNL     1      48.043 -39.927  -3.722  1.00  0.00     0.197 A 
ATOM      4  O   UNL     1      47.012 -40.631  -3.568  1.00  0.00    -0.289 OA
ATOM      5  C   UNL     1      47.995 -38.647  -4.324  1.00  0.00     0.107 A 
ATOM      6  C   UNL     1      46.823 -38.055  -4.881  1.00  0.00     0.134 A 
ATOM      7  C   UNL     1      46.871 -36.735  -5.346  1.00  0.00     0.093 A 
ATOM      8  C   UNL     1      48.060 -36.007  -5.327  1.00  0.00     0.123 A 
ATOM      9  C   UNL     1      49.226 -36.595  -4.834  1.00  0.00     0.094 A 
ATOM     10  C   UNL     1      49.202 -37.899  -4.332  1.00  0.00     0.146 A 
ATOM     11  O   UNL     1      50.330 -38.417  -3.857  1.00  0.00    -0.456 OA
ENDROOT
BRANCH   1  12
ATOM     12  C   UNL     1      51.730 -40.118  -2.847  1.00  0.00     0.021 A 
ATOM     13  C   UNL     1      51.915 -41.439  -2.397  1.00  0.00     0.016 A 
ATOM     14  C   UNL     1      53.168 -41.866  -1.952  1.00  0.00     0.051 A 
ATOM     15  C   UNL     1      54.258 -40.987  -1.952  1.00  0.00     0.157 A 
ATOM     16  C   UNL     1      52.832 -39.244  -2.858  1.00  0.00     0.062 A 
ATOM     17  C   UNL     1      54.089 -39.671  -2.410  1.00  0.00     0.158 A 
BRANCH  15  18
ATOM     18  O   UNL     1      55.506 -41.417  -1.505  1.00  0.00    -0.504 OA
ATOM     19  H   UNL     1      56.181 -40.771  -1.114  1.00  0.00     0.293 HD
ENDBRANCH  15  18
BRANCH  17  20
ATOM     20  O   UNL     1      55.154 -38.771  -2.427  1.00  0.00    -0.504 OA
ATOM     21  H   UNL     1      55.859 -38.786  -3.154  1.00  0.00     0.293 HD
ENDBRANCH  17  20
ENDBRANCH   1  12
BRANCH   6  22
ATOM     22  O   UNL     1      45.603 -38.723  -5.025  1.00  0.00    -0.507 OA
ATOM     23  H   UNL     1      45.248 -39.419  -4.387  1.00  0.00     0.293 HD
ENDBRANCH   6  22
BRANCH   8  24
ATOM     24  O   UNL     1      48.074 -34.701  -5.812  1.00  0.00    -0.508 OA
ATOM     25  H   UNL     1      47.506 -33.973  -5.393  1.00  0.00     0.293 HD
ENDBRANCH   8  24
TORSDOF 5
ENDMDL
MODEL 4
REMARK VINA RESULT:    -7.017      1.474      7.373
REMARK INTER + INTRA:          -8.539
REMARK INTER:                  -8.248
REMARK INTRA:                  -0.291
REMARK UNBOUND:                -0.291
REMARK SMILES O=c1cc(-c2ccc(O)c(O)c2)oc2cc(O)cc(O)c12
REMARK SMILES IDX 4 1 3 2 2 3 1 4 21 5 19 6 18 7 16 8 15 9 14 10 13 11 5 12
REMARK SMILES IDX 6 13 7 14 8 15 12 16 10 17 9 18 11 20 20 22 17 24
REMARK H PARENT 9 19 11 21 20 23 17 25
REMARK Flexibility Score: inf
ROOT
ATOM      1  C   UNL     1      49.569 -39.308  -3.934  1.00  0.00     0.138 A 
ATOM      2  C   UNL     1      49.441 -40.695  -3.774  1.00  0.00     0.100 A 
ATOM      3  C   UNL     1      50.510 -41.431  -3.261  1.00  0.00     0.197 A 
ATOM      4  O   UNL     1      50.388 -42.682  -3.187  1.00  0.00    -0.289 OA
ATOM      5  C   UNL     1      51.701 -40.769  -2.877  1.00  0.00     0.107 A 
ATOM      6  C   UNL     1      52.839 -41.411  -2.305  1.00  0.00     0.134 A 
ATOM      7  C   UNL     1      54.005 -40.672  -2.073  1.00  0.00     0.093 A 
ATOM      8  C   UNL     1      54.054 -39.303  -2.337  1.00  0.00     0.123 A 
ATOM      9  C   UNL     1      52.929 -38.653  -2.846  1.00  0.00     0.094 A 
ATOM     10  C   UNL     1      51.762 -39.371  -3.120  1.00  0.00     0.146 A 
ATOM     11  O   UNL     1      50.717 -38.719  -3.618  1.00  0.00    -0.456 OA
ENDROOT
BRANCH   1  12
ATOM     12  C   UNL     1      48.463 -38.477  -4.474  1.00  0.00     0.021 A 
ATOM     13  C   UNL     1      48.695 -37.200  -5.021  1.00  0.00     0.016 A 
ATOM     14  C   UNL     1      47.637 -36.445  -5.532  1.00  0.00     0.051 A 
ATOM     15  C   UNL     1      46.331 -36.951  -5.511  1.00  0.00     0.157 A 
ATOM     16  C   UNL     1      47.151 -38.984  -4.470  1.00  0.00     0.062 A 
ATOM     17  C   UNL     1      46.088 -38.227  -4.979  1.00  0.00     0.158 A 
BRANCH  15  18
ATOM     18  O   UNL     1      45.278 -36.193  -6.020  1.00  0.00    -0.504 OA
ATOM     19  H   UNL     1      44.326 -36.324  -5.698  1.00  0.00     0.293 HD
ENDBRANCH  15  18
BRANCH  17  20
ATOM     20  O   UNL     1      44.800 -38.762  -4.947  1.00  0.00    -0.504 OA
ATOM     21  H   UNL     1      44.185 -38.731  -5.751  1.00  0.00     0.293 HD
ENDBRANCH  17  20
ENDBRANCH   1  12
BRANCH   6  22
ATOM     22  O   UNL     1      52.869 -42.757  -1.925  1.00  0.00    -0.507 OA
ATOM     23  H   UNL     1      52.053 -43.329  -1.767  1.00  0.00     0.293 HD
ENDBRANCH   6  22
BRANCH   8  24
ATOM     24  O   UNL     1      55.226 -38.595  -2.078  1.00  0.00    -0.508 OA
ATOM     25  H   UNL     1      55.552 -37.864  -2.701  1.00  0.00     0.293 HD
ENDBRANCH   8  24
TORSDOF 5
ENDMDL
MODEL 5
REMARK VINA RESULT:    -6.931      2.402      7.026
REMARK INTER + INTRA:          -8.437
REMARK INTER:                  -8.172
REMARK INTRA:                  -0.265
REMARK UNBOUND:                -0.291
REMARK SMILES O=c1cc(-c2ccc(O)c(O)c2)oc2cc(O)cc(O)c12
REMARK SMILES IDX 4 1 3 2 2 3 1 4 21 5 19 6 18 7 16 8 15 9 14 10 13 11 5 12
REMARK SMILES IDX 6 13 7 14 8 15 12 16 10 17 9 18 11 20 20 22 17 24
REMARK H PARENT 9 19 11 21 20 23 17 25
REMARK Flexibility Score: inf
ROOT
ATOM      1  C   UNL     1      50.240 -37.673  -4.893  1.00  0.00     0.138 A 
ATOM      2  C   UNL     1      49.476 -38.830  -5.104  1.00  0.00     0.100 A 
ATOM      3  C   UNL     1      49.877 -40.036  -4.529  1.00  0.00     0.197 A 
ATOM      4  O   UNL     1      49.206 -41.069  -4.788  1.00  0.00    -0.289 OA
ATOM      5  C   UNL     1      51.032 -40.077  -3.712  1.00  0.00     0.107 A 
ATOM      6  C   UNL     1      51.512 -41.241  -3.042  1.00  0.00     0.134 A 
ATOM      7  C   UNL     1      52.731 -41.189  -2.355  1.00  0.00     0.093 A 
ATOM      8  C   UNL     1      53.457 -40.001  -2.265  1.00  0.00     0.123 A 
ATOM      9  C   UNL     1      52.969 -38.843  -2.871  1.00  0.00     0.094 A 
ATOM     10  C   UNL     1      51.773 -38.872  -3.592  1.00  0.00     0.146 A 
ATOM     11  O   UNL     1      51.350 -37.751  -4.167  1.00  0.00    -0.456 OA
ENDROOT
BRANCH   1  12
ATOM     12  C   UNL     1      49.858 -36.364  -5.479  1.00  0.00     0.021 A 
ATOM     13  C   UNL     1      50.636 -35.745  -6.477  1.00  0.00     0.016 A 
ATOM     14  C   UNL     1      50.246 -34.517  -7.018  1.00  0.00     0.051 A 
ATOM     15  C   UNL     1      49.074 -33.890  -6.580  1.00  0.00     0.157 A 
ATOM     16  C   UNL     1      48.674 -35.734  -5.054  1.00  0.00     0.062 A 
ATOM     17  C   UNL     1      48.283 -34.503  -5.595  1.00  0.00     0.158 A 
BRANCH  15  18
ATOM     18  O   UNL     1      48.690 -32.664  -7.121  1.00  0.00    -0.504 OA
ATOM     19  H   UNL     1      48.549 -32.545  -8.117  1.00  0.00     0.293 HD
ENDBRANCH  15  18
BRANCH  17  20
ATOM     20  O   UNL     1      47.108 -33.907  -5.139  1.00  0.00    -0.504 OA
ATOM     21  H   UNL     1      47.116 -33.129  -4.491  1.00  0.00     0.293 HD
ENDBRANCH  17  20
ENDBRANCH   1  12
BRANCH   6  22
ATOM     22  O   UNL     1      50.824 -42.458  -2.999  1.00  0.00    -0.507 OA
ATOM     23  H   UNL     1      51.233 -43.358  -3.199  1.00  0.00     0.293 HD
ENDBRANCH   6  22
BRANCH   8  24
ATOM     24  O   UNL     1      54.658 -39.982  -1.559  1.00  0.00    -0.508 OA
ATOM     25  H   UNL     1      55.504 -39.593  -1.962  1.00  0.00     0.293 HD
ENDBRANCH   8  24
TORSDOF 5
ENDMDL
MODEL 6
REMARK VINA RESULT:    -6.761      1.422      1.699
REMARK INTER + INTRA:          -8.238
REMARK INTER:                  -7.955
REMARK INTRA:                  -0.282
REMARK UNBOUND:                -0.291
REMARK SMILES O=c1cc(-c2ccc(O)c(O)c2)oc2cc(O)cc(O)c12
REMARK SMILES IDX 4 1 3 2 2 3 1 4 21 5 19 6 18 7 16 8 15 9 14 10 13 11 5 12
REMARK SMILES IDX 6 13 7 14 8 15 12 16 10 17 9 18 11 20 20 22 17 24
REMARK H PARENT 9 19 11 21 20 23 17 25
REMARK Flexibility Score: inf
ROOT
ATOM      1  C   UNL     1      50.579 -38.625  -3.981  1.00  0.00     0.138 A 
ATOM      2  C   UNL     1      51.017 -37.629  -4.865  1.00  0.00     0.100 A 
ATOM      3  C   UNL     1      50.086 -36.776  -5.460  1.00  0.00     0.197 A 
ATOM      4  O   UNL     1      50.503 -35.934  -6.296  1.00  0.00    -0.289 OA
ATOM      5  C   UNL     1      48.712 -36.904  -5.144  1.00  0.00     0.107 A 
ATOM      6  C   UNL     1      47.680 -36.065  -5.659  1.00  0.00     0.134 A 
ATOM      7  C   UNL     1      46.342 -36.358  -5.366  1.00  0.00     0.093 A 
ATOM      8  C   UNL     1      46.004 -37.422  -4.530  1.00  0.00     0.123 A 
ATOM      9  C   UNL     1      47.009 -38.216  -3.977  1.00  0.00     0.094 A 
ATOM     10  C   UNL     1      48.352 -37.969  -4.278  1.00  0.00     0.146 A 
ATOM     11  O   UNL     1      49.278 -38.757  -3.743  1.00  0.00    -0.456 OA
ENDROOT
BRANCH   1  12
ATOM     12  C   UNL     1      51.526 -39.557  -3.318  1.00  0.00     0.021 A 
ATOM     13  C   UNL     1      51.195 -40.905  -3.084  1.00  0.00     0.016 A 
ATOM     14  C   UNL     1      52.111 -41.762  -2.468  1.00  0.00     0.051 A 
ATOM     15  C   UNL     1      53.372 -41.292  -2.082  1.00  0.00     0.157 A 
ATOM     16  C   UNL     1      52.799 -39.095  -2.939  1.00  0.00     0.062 A 
ATOM     17  C   UNL     1      53.718 -39.952  -2.321  1.00  0.00     0.158 A 
BRANCH  15  18
ATOM     18  O   UNL     1      54.281 -42.150  -1.466  1.00  0.00    -0.504 OA
ATOM     19  H   UNL     1      54.064 -43.126  -1.303  1.00  0.00     0.293 HD
ENDBRANCH  15  18
BRANCH  17  20
ATOM     20  O   UNL     1      54.967 -39.453  -1.951  1.00  0.00    -0.504 OA
ATOM     21  H   UNL     1      55.236 -38.493  -2.131  1.00  0.00     0.293 HD
ENDBRANCH  17  20
ENDBRANCH   1  12
BRANCH   6  22
ATOM     22  O   UNL     1      47.912 -34.925  -6.436  1.00  0.00    -0.507 OA
ATOM     23  H   UNL     1      47.478 -34.738  -7.326  1.00  0.00     0.293 HD
ENDBRANCH   6  22
BRANCH   8  24
ATOM     24  O   UNL     1      44.664 -37.675  -4.247  1.00  0.00    -0.508 OA
ATOM     25  H   UNL     1      44.381 -38.146  -3.395  1.00  0.00     0.293 HD
ENDBRANCH   8  24
TORSDOF 5
ENDMDL
MODEL 7
REMARK VINA RESULT:    -6.334      3.353      6.357
REMARK INTER + INTRA:          -7.736
REMARK INTER:                  -7.467
REMARK INTRA:                  -0.269
REMARK UNBOUND:                -0.291
REMARK SMILES O=c1cc(-c2ccc(O)c(O)c2)oc2cc(O)cc(O)c12
REMARK SMILES IDX 4 1 3 2 2 3 1 4 21 5 19 6 18 7 16 8 15 9 14 10 13 11 5 12
REMARK SMILES IDX 6 13 7 14 8 15 12 16 10 17 9 18 11 20 20 22 17 24
REMARK H PARENT 9 19 11 21 20 23 17 25
REMARK Flexibility Score: inf
ROOT
ATOM      1  C   UNL     1      47.953 -38.239  -3.947  1.00  0.00     0.138 A 
ATOM      2  C   UNL     1      49.185 -38.835  -4.255  1.00  0.00     0.100 A 
ATOM      3  C   UNL     1      50.097 -38.155  -5.063  1.00  0.00     0.197 A 
ATOM      4  O   UNL     1      51.167 -38.740  -5.373  1.00  0.00    -0.289 OA
ATOM      5  C   UNL     1      49.785 -36.858  -5.539  1.00  0.00     0.107 A 
ATOM      6  C   UNL     1      50.655 -36.056  -6.336  1.00  0.00     0.134 A 
ATOM      7  C   UNL     1      50.193 -34.836  -6.846  1.00  0.00     0.093 A 
ATOM      8  C   UNL     1      48.917 -34.363  -6.540  1.00  0.00     0.123 A 
ATOM      9  C   UNL     1      48.078 -35.115  -5.716  1.00  0.00     0.094 A 
ATOM     10  C   UNL     1      48.498 -36.352  -5.220  1.00  0.00     0.146 A 
ATOM     11  O   UNL     1      47.664 -37.044  -4.451  1.00  0.00    -0.456 OA
ENDROOT
BRANCH   1  12
ATOM     12  C   UNL     1      46.947 -38.917  -3.090  1.00  0.00     0.021 A 
ATOM     13  C   UNL     1      45.631 -39.147  -3.535  1.00  0.00     0.016 A 
ATOM     14  C   UNL     1      44.709 -39.797  -2.711  1.00  0.00     0.051 A 
ATOM     15  C   UNL     1      45.084 -40.234  -1.435  1.00  0.00     0.157 A 
ATOM     16  C   UNL     1      47.320 -39.370  -1.812  1.00  0.00     0.062 A 
ATOM     17  C   UNL     1      46.397 -40.021  -0.984  1.00  0.00     0.158 A 
BRANCH  15  18
ATOM     18  O   UNL     1      44.160 -40.880  -0.615  1.00  0.00    -0.504 OA
ATOM     19  H   UNL     1      44.253 -40.879   0.393  1.00  0.00     0.293 HD
ENDBRANCH  15  18
BRANCH  17  20
ATOM     20  O   UNL     1      46.804 -40.446   0.280  1.00  0.00    -0.504 OA
ATOM     21  H   UNL     1      46.420 -40.050   1.130  1.00  0.00     0.293 HD
ENDBRANCH  17  20
ENDBRANCH   1  12
BRANCH   6  22
ATOM     22  O   UNL     1      51.979 -36.395  -6.633  1.00  0.00    -0.507 OA
ATOM     23  H   UNL     1      52.594 -35.852  -7.219  1.00  0.00     0.293 HD
ENDBRANCH   6  22
BRANCH   8  24
ATOM     24  O   UNL     1      48.497 -33.138  -7.052  1.00  0.00    -0.508 OA
ATOM     25  H   UNL     1      47.532 -32.977  -7.318  1.00  0.00     0.293 HD
ENDBRANCH   8  24
TORSDOF 5
ENDMDL
MODEL 8
REMARK VINA RESULT:    -6.105      2.726      3.551
REMARK INTER + INTRA:          -7.467
REMARK INTER:                  -7.204
REMARK INTRA:                  -0.263
REMARK UNBOUND:                -0.291
REMARK SMILES O=c1cc(-c2ccc(O)c(O)c2)oc2cc(O)cc(O)c12
REMARK SMILES IDX 4 1 3 2 2 3 1 4 21 5 19 6 18 7 16 8 15 9 14 10 13 11 5 12
REMARK SMILES IDX 6 13 7 14 8 15 12 16 10 17 9 18 11 20 20 22 17 24
REMARK H PARENT 9 19 11 21 20 23 17 25
REMARK Flexibility Score: inf
ROOT
ATOM      1  C   UNL     1      50.392 -37.680  -3.765  1.00  0.00     0.138 A 
ATOM      2  C   UNL     1      50.358 -37.274  -5.107  1.00  0.00     0.100 A 
ATOM      3  C   UNL     1      49.671 -36.111  -5.459  1.00  0.00     0.197 A 
ATOM      4  O   UNL     1      49.606 -35.807  -6.678  1.00  0.00    -0.289 OA
ATOM      5  C   UNL     1      49.041 -35.335  -4.457  1.00  0.00     0.107 A 
ATOM      6  C   UNL     1      48.347 -34.111  -4.694  1.00  0.00     0.134 A 
ATOM      7  C   UNL     1      47.663 -33.491  -3.642  1.00  0.00     0.093 A 
ATOM      8  C   UNL     1      47.698 -34.017  -2.350  1.00  0.00     0.123 A 
ATOM      9  C   UNL     1      48.418 -35.184  -2.096  1.00  0.00     0.094 A 
ATOM     10  C   UNL     1      49.083 -35.845  -3.133  1.00  0.00     0.146 A 
ATOM     11  O   UNL     1      49.746 -36.962  -2.852  1.00  0.00    -0.456 OA
ENDROOT
BRANCH   1  12
ATOM     12  C   UNL     1      51.109 -38.906  -3.335  1.00  0.00     0.021 A 
ATOM     13  C   UNL     1      50.466 -40.158  -3.277  1.00  0.00     0.016 A 
ATOM     14  C   UNL     1      51.170 -41.298  -2.879  1.00  0.00     0.051 A 
ATOM     15  C   UNL     1      52.525 -41.211  -2.538  1.00  0.00     0.157 A 
ATOM     16  C   UNL     1      52.474 -38.829  -3.004  1.00  0.00     0.062 A 
ATOM     17  C   UNL     1      53.180 -39.970  -2.603  1.00  0.00     0.158 A 
BRANCH  15  18
ATOM     18  O   UNL     1      53.222 -42.350  -2.139  1.00  0.00    -0.504 OA
ATOM     19  H   UNL     1      52.905 -42.922  -1.366  1.00  0.00     0.293 HD
ENDBRANCH  15  18
BRANCH  17  20
ATOM     20  O   UNL     1      54.530 -39.850  -2.273  1.00  0.00    -0.504 OA
ATOM     21  H   UNL     1      55.233 -39.619  -2.965  1.00  0.00     0.293 HD
ENDBRANCH  17  20
ENDBRANCH   1  12
BRANCH   6  22
ATOM     22  O   UNL     1      48.319 -33.455  -5.929  1.00  0.00    -0.507 OA
ATOM     23  H   UNL     1      48.444 -33.904  -6.823  1.00  0.00     0.293 HD
ENDBRANCH   6  22
BRANCH   8  24
ATOM     24  O   UNL     1      47.019 -33.364  -1.324  1.00  0.00    -0.508 OA
ATOM     25  H   UNL     1      46.204 -33.775  -0.882  1.00  0.00     0.293 HD
ENDBRANCH   8  24
TORSDOF 5
ENDMDL
MODEL 9
REMARK VINA RESULT:    -6.059      4.347      6.995
REMARK INTER + INTRA:          -7.412
REMARK INTER:                  -7.153
REMARK INTRA:                  -0.259
REMARK UNBOUND:                -0.291
REMARK SMILES O=c1cc(-c2ccc(O)c(O)c2)oc2cc(O)cc(O)c12
REMARK SMILES IDX 4 1 3 2 2 3 1 4 21 5 19 6 18 7 16 8 15 9 14 10 13 11 5 12
REMARK SMILES IDX 6 13 7 14 8 15 12 16 10 17 9 18 11 20 20 22 17 24
REMARK H PARENT 9 19 11 21 20 23 17 25
REMARK Flexibility Score: inf
ROOT
ATOM      1  C   UNL     1      47.698 -35.563  -2.219  1.00  0.00     0.138 A 
ATOM      2  C   UNL     1      48.883 -36.230  -2.561  1.00  0.00     0.100 A 
ATOM      3  C   UNL     1      48.876 -37.618  -2.709  1.00  0.00     0.197 A 
ATOM      4  O   UNL     1      49.967 -38.194  -2.954  1.00  0.00    -0.289 OA
ATOM      5  C   UNL     1      47.667 -38.337  -2.544  1.00  0.00     0.107 A 
ATOM      6  C   UNL     1      47.533 -39.747  -2.710  1.00  0.00     0.134 A 
ATOM      7  C   UNL     1      46.313 -40.365  -2.407  1.00  0.00     0.093 A 
ATOM      8  C   UNL     1      45.207 -39.616  -2.002  1.00  0.00     0.123 A 
ATOM      9  C   UNL     1      45.313 -38.229  -1.889  1.00  0.00     0.094 A 
ATOM     10  C   UNL     1      46.526 -37.588  -2.151  1.00  0.00     0.146 A 
ATOM     11  O   UNL     1      46.589 -36.268  -2.017  1.00  0.00    -0.456 OA
ENDROOT
BRANCH   1  12
ATOM     12  C   UNL     1      47.649 -34.089  -2.051  1.00  0.00     0.021 A 
ATOM     13  C   UNL     1      47.670 -33.488  -0.778  1.00  0.00     0.016 A 
ATOM     14  C   UNL     1      47.634 -32.097  -0.651  1.00  0.00     0.051 A 
ATOM     15  C   UNL     1      47.582 -31.283  -1.788  1.00  0.00     0.157 A 
ATOM     16  C   UNL     1      47.611 -33.264  -3.190  1.00  0.00     0.062 A 
ATOM     17  C   UNL     1      47.573 -31.870  -3.064  1.00  0.00     0.158 A 
BRANCH  15  18
ATOM     18  O   UNL     1      47.544 -29.896  -1.656  1.00  0.00    -0.504 OA
ATOM     19  H   UNL     1      47.985 -29.286  -2.334  1.00  0.00     0.293 HD
ENDBRANCH  15  18
BRANCH  17  20
ATOM     20  O   UNL     1      47.526 -31.087  -4.218  1.00  0.00    -0.504 OA
ATOM     21  H   UNL     1      48.320 -30.998  -4.840  1.00  0.00     0.293 HD
ENDBRANCH  17  20
ENDBRANCH   1  12
BRANCH   6  22
ATOM     22  O   UNL     1      48.550 -40.579  -3.190  1.00  0.00    -0.507 OA
ATOM     23  H   UNL     1      48.401 -41.414  -3.735  1.00  0.00     0.293 HD
ENDBRANCH   6  22
BRANCH   8  24
ATOM     24  O   UNL     1      44.005 -40.262  -1.725  1.00  0.00    -0.508 OA
ATOM     25  H   UNL     1      43.112 -39.801  -1.859  1.00  0.00     0.293 HD
ENDBRANCH   8  24
TORSDOF 5
ENDMDL
