MODEL 1
REMARK VINA RESULT:    -4.068      0.000      0.000
REMARK INTER + INTRA:          -9.755
REMARK INTER:                  -7.397
REMARK INTRA:                  -2.358
REMARK UNBOUND:                -2.358
REMARK SMILES CCCCCCCCCCCCCCCC(=O)[O-]
REMARK SMILES IDX 9 1 10 2 11 3 12 4 13 5 14 6 15 7 16 8 17 9 18 10 8 11 7 12
REMARK SMILES IDX 6 13 5 14 4 15 3 16 2 17 1 18
REMARK H PARENT
REMARK Flexibility Score: inf
ROOT
ATOM      1  C   UNL     1     174.054 174.549 182.626  1.00  0.00     0.000 C 
ENDROOT
BRANCH   1   2
ATOM      2  C   UNL     1     175.420 173.977 182.193  1.00  0.00     0.000 C 
BRANCH   2   3
ATOM      3  C   UNL     1     176.638 174.840 182.569  1.00  0.00     0.000 C 
BRANCH   3   4
ATOM      4  C   UNL     1     176.251 176.121 183.324  1.00  0.00     0.000 C 
BRANCH   4   5
ATOM      5  C   UNL     1     176.620 177.370 182.512  1.00  0.00     0.000 C 
BRANCH   5   6
ATOM      6  C   UNL     1     177.315 177.041 181.179  1.00  0.00     0.006 C 
BRANCH   6   7
ATOM      7  C   UNL     1     176.508 177.449 179.935  1.00  0.00     0.053 C 
BRANCH   7   8
ATOM      8  C   UNL     1     176.508 176.391 178.873  1.00  0.00     0.041 C 
ATOM      9  O   UNL     1     175.745 175.395 178.972  1.00  0.00    -0.550 OA
ATOM     10  O   UNL     1     177.324 176.522 177.756  1.00  0.00    -0.550 OA
ENDBRANCH   7   8
ENDBRANCH   6   7
ENDBRANCH   5   6
ENDBRANCH   4   5
ENDBRANCH   3   4
ENDBRANCH   2   3
ENDBRANCH   1   2
BRANCH   1  11
ATOM     11  C   UNL     1     173.151 175.023 181.473  1.00  0.00     0.000 C 
BRANCH  11  12
ATOM     12  C   UNL     1     173.244 176.535 181.225  1.00  0.00    -0.000 C 
BRANCH  12  13
ATOM     13  C   UNL     1     172.869 177.323 182.490  1.00  0.00    -0.000 C 
BRANCH  13  14
ATOM     14  C   UNL     1     171.440 177.898 182.424  1.00  0.00    -0.000 C 
BRANCH  14  15
ATOM     15  C   UNL     1     170.394 177.074 183.201  1.00  0.00    -0.000 C 
BRANCH  15  16
ATOM     16  C   UNL     1     169.540 176.142 182.315  1.00  0.00    -0.000 C 
BRANCH  16  17
ATOM     17  C   UNL     1     169.502 174.685 182.813  1.00  0.00    -0.003 C 
ATOM     18  C   UNL     1     170.466 174.440 183.975  1.00  0.00     0.004 C 
ENDBRANCH  16  17
ENDBRANCH  15  16
ENDBRANCH  14  15
ENDBRANCH  13  14
ENDBRANCH  12  13
ENDBRANCH  11  12
ENDBRANCH   1  11
TORSDOF 14
ENDMDL
MODEL 2
REMARK VINA RESULT:    -4.044      2.668      5.996
REMARK INTER + INTRA:          -9.712
REMARK INTER:                  -7.340
REMARK INTRA:                  -2.372
REMARK UNBOUND:                -2.358
REMARK SMILES CCCCCCCCCCCCCCCC(=O)[O-]
REMARK SMILES IDX 9 1 10 2 11 3 12 4 13 5 14 6 15 7 16 8 17 9 18 10 8 11 7 12
REMARK SMILES IDX 6 13 5 14 4 15 3 16 2 17 1 18
REMARK H PARENT
REMARK Flexibility Score: inf
ROOT
ATOM      1  C   UNL     1     173.541 176.208 180.166  1.00  0.00     0.000 C 
ENDROOT
BRANCH   1   2
ATOM      2  C   UNL     1     173.334 177.337 181.198  1.00  0.00     0.000 C 
BRANCH   2   3
ATOM      3  C   UNL     1     172.750 176.886 182.549  1.00  0.00     0.000 C 
BRANCH   3   4
ATOM      4  C   UNL     1     171.847 175.650 182.425  1.00  0.00     0.000 C 
BRANCH   4   5
ATOM      5  C   UNL     1     170.598 175.791 183.308  1.00  0.00     0.000 C 
BRANCH   5   6
ATOM      6  C   UNL     1     169.823 177.096 183.054  1.00  0.00     0.006 C 
BRANCH   6   7
ATOM      7  C   UNL     1     168.592 176.925 182.147  1.00  0.00     0.053 C 
BRANCH   7   8
ATOM      8  C   UNL     1     168.899 177.184 180.703  1.00  0.00     0.041 C 
ATOM      9  O   UNL     1     169.860 177.931 180.384  1.00  0.00    -0.550 OA
ATOM     10  O   UNL     1     168.147 176.571 179.708  1.00  0.00    -0.550 OA
ENDBRANCH   7   8
ENDBRANCH   6   7
ENDBRANCH   5   6
ENDBRANCH   4   5
ENDBRANCH   3   4
ENDBRANCH   2   3
ENDBRANCH   1   2
BRANCH   1  11
ATOM     11  C   UNL     1     174.889 176.245 179.423  1.00  0.00     0.000 C 
BRANCH  11  12
ATOM     12  C   UNL     1     175.755 177.450 179.817  1.00  0.00    -0.000 C 
BRANCH  12  13
ATOM     13  C   UNL     1     177.002 176.999 180.594  1.00  0.00    -0.000 C 
BRANCH  13  14
ATOM     14  C   UNL     1     177.073 177.617 182.005  1.00  0.00    -0.000 C 
BRANCH  14  15
ATOM     15  C   UNL     1     176.549 176.695 183.123  1.00  0.00    -0.000 C 
BRANCH  15  16
ATOM     16  C   UNL     1     176.656 175.189 182.800  1.00  0.00    -0.000 C 
BRANCH  16  17
ATOM     17  C   UNL     1     175.320 174.435 182.934  1.00  0.00    -0.003 C 
ATOM     18  C   UNL     1     175.148 173.358 181.862  1.00  0.00     0.004 C 
ENDBRANCH  16  17
ENDBRANCH  15  16
ENDBRANCH  14  15
ENDBRANCH  13  14
ENDBRANCH  12  13
ENDBRANCH  11  12
ENDBRANCH   1  11
TORSDOF 14
ENDMDL
MODEL 3
REMARK VINA RESULT:    -3.886      2.974      6.365
REMARK INTER + INTRA:          -9.425
REMARK INTER:                  -7.515
REMARK INTRA:                  -1.910
REMARK UNBOUND:                -2.358
REMARK SMILES CCCCCCCCCCCCCCCC(=O)[O-]
REMARK SMILES IDX 9 1 10 2 11 3 12 4 13 5 14 6 15 7 16 8 17 9 18 10 8 11 7 12
REMARK SMILES IDX 6 13 5 14 4 15 3 16 2 17 1 18
REMARK H PARENT
REMARK Flexibility Score: inf
ROOT
ATOM      1  C   UNL     1     173.585 175.412 182.493  1.00  0.00     0.000 C 
ENDROOT
BRANCH   1   2
ATOM      2  C   UNL     1     173.505 176.953 182.489  1.00  0.00     0.000 C 
BRANCH   2   3
ATOM      3  C   UNL     1     172.112 177.533 182.181  1.00  0.00     0.000 C 
BRANCH   3   4
ATOM      4  C   UNL     1     171.412 178.093 183.429  1.00  0.00     0.000 C 
BRANCH   4   5
ATOM      5  C   UNL     1     170.103 177.340 183.708  1.00  0.00     0.000 C 
BRANCH   5   6
ATOM      6  C   UNL     1     169.918 176.097 182.818  1.00  0.00     0.006 C 
BRANCH   6   7
ATOM      7  C   UNL     1     168.567 176.048 182.086  1.00  0.00     0.053 C 
BRANCH   7   8
ATOM      8  C   UNL     1     168.270 177.310 181.334  1.00  0.00     0.041 C 
ATOM      9  O   UNL     1     167.234 177.974 181.596  1.00  0.00    -0.550 OA
ATOM     10  O   UNL     1     169.157 177.773 180.369  1.00  0.00    -0.550 OA
ENDBRANCH   7   8
ENDBRANCH   6   7
ENDBRANCH   5   6
ENDBRANCH   4   5
ENDBRANCH   3   4
ENDBRANCH   2   3
ENDBRANCH   1   2
BRANCH   1  11
ATOM     11  C   UNL     1     174.956 174.833 182.887  1.00  0.00     0.000 C 
BRANCH  11  12
ATOM     12  C   UNL     1     175.981 175.918 183.247  1.00  0.00    -0.000 C 
BRANCH  12  13
ATOM     13  C   UNL     1     177.011 176.096 182.121  1.00  0.00    -0.000 C 
BRANCH  13  14
ATOM     14  C   UNL     1     176.979 177.511 181.512  1.00  0.00    -0.000 C 
BRANCH  14  15
ATOM     15  C   UNL     1     176.957 177.533 179.971  1.00  0.00    -0.000 C 
BRANCH  15  16
ATOM     16  C   UNL     1     175.541 177.637 179.362  1.00  0.00    -0.000 C 
BRANCH  16  17
ATOM     17  C   UNL     1     174.898 176.269 179.064  1.00  0.00    -0.003 C 
ATOM     18  C   UNL     1     173.388 176.369 178.847  1.00  0.00     0.004 C 
ENDBRANCH  16  17
ENDBRANCH  15  16
ENDBRANCH  14  15
ENDBRANCH  13  14
ENDBRANCH  12  13
ENDBRANCH  11  12
ENDBRANCH   1  11
TORSDOF 14
ENDMDL
MODEL 4
REMARK VINA RESULT:    -3.853      1.733      3.374
REMARK INTER + INTRA:          -9.364
REMARK INTER:                  -7.286
REMARK INTRA:                  -2.078
REMARK UNBOUND:                -2.358
REMARK SMILES CCCCCCCCCCCCCCCC(=O)[O-]
REMARK SMILES IDX 9 1 10 2 11 3 12 4 13 5 14 6 15 7 16 8 17 9 18 10 8 11 7 12
REMARK SMILES IDX 6 13 5 14 4 15 3 16 2 17 1 18
REMARK H PARENT
REMARK Flexibility Score: inf
ROOT
ATOM      1  C   UNL     1     176.614 176.812 179.258  1.00  0.00     0.000 C 
ENDROOT
BRANCH   1   2
ATOM      2  C   UNL     1     176.819 177.755 180.462  1.00  0.00     0.000 C 
BRANCH   2   3
ATOM      3  C   UNL     1     177.372 177.082 181.731  1.00  0.00     0.000 C 
BRANCH   3   4
ATOM      4  C   UNL     1     176.335 176.999 182.862  1.00  0.00     0.000 C 
BRANCH   4   5
ATOM      5  C   UNL     1     176.078 175.540 183.265  1.00  0.00     0.000 C 
BRANCH   5   6
ATOM      6  C   UNL     1     176.729 174.525 182.309  1.00  0.00     0.006 C 
BRANCH   6   7
ATOM      7  C   UNL     1     175.740 173.516 181.700  1.00  0.00     0.053 C 
BRANCH   7   8
ATOM      8  C   UNL     1     176.403 172.550 180.765  1.00  0.00     0.041 C 
ATOM      9  O   UNL     1     175.973 172.410 179.590  1.00  0.00    -0.550 OA
ATOM     10  O   UNL     1     177.517 171.831 181.178  1.00  0.00    -0.550 OA
ENDBRANCH   7   8
ENDBRANCH   6   7
ENDBRANCH   5   6
ENDBRANCH   4   5
ENDBRANCH   3   4
ENDBRANCH   2   3
ENDBRANCH   1   2
BRANCH   1  11
ATOM     11  C   UNL     1     175.216 176.175 179.160  1.00  0.00     0.000 C 
BRANCH  11  12
ATOM     12  C   UNL     1     174.082 177.203 179.276  1.00  0.00    -0.000 C 
BRANCH  12  13
ATOM     13  C   UNL     1     172.797 176.547 179.803  1.00  0.00    -0.000 C 
BRANCH  13  14
ATOM     14  C   UNL     1     172.943 176.049 181.255  1.00  0.00    -0.000 C 
BRANCH  14  15
ATOM     15  C   UNL     1     172.928 177.172 182.310  1.00  0.00    -0.000 C 
BRANCH  15  16
ATOM     16  C   UNL     1     171.582 177.923 182.414  1.00  0.00    -0.000 C 
BRANCH  16  17
ATOM     17  C   UNL     1     170.502 177.143 183.186  1.00  0.00    -0.003 C 
ATOM     18  C   UNL     1     169.252 176.887 182.344  1.00  0.00     0.004 C 
ENDBRANCH  16  17
ENDBRANCH  15  16
ENDBRANCH  14  15
ENDBRANCH  13  14
ENDBRANCH  12  13
ENDBRANCH  11  12
ENDBRANCH   1  11
TORSDOF 14
ENDMDL
MODEL 5
REMARK VINA RESULT:    -3.833      2.791      5.290
REMARK INTER + INTRA:          -9.328
REMARK INTER:                  -7.249
REMARK INTRA:                  -2.079
REMARK UNBOUND:                -2.358
REMARK SMILES CCCCCCCCCCCCCCCC(=O)[O-]
REMARK SMILES IDX 9 1 10 2 11 3 12 4 13 5 14 6 15 7 16 8 17 9 18 10 8 11 7 12
REMARK SMILES IDX 6 13 5 14 4 15 3 16 2 17 1 18
REMARK H PARENT
REMARK Flexibility Score: inf
ROOT
ATOM      1  C   UNL     1     176.585 175.378 182.812  1.00  0.00     0.000 C 
ENDROOT
BRANCH   1   2
ATOM      2  C   UNL     1     175.255 174.749 183.275  1.00  0.00     0.000 C 
BRANCH   2   3
ATOM      3  C   UNL     1     174.165 174.653 182.191  1.00  0.00     0.000 C 
BRANCH   3   4
ATOM      4  C   UNL     1     172.903 175.455 182.543  1.00  0.00     0.000 C 
BRANCH   4   5
ATOM      5  C   UNL     1     173.196 176.962 182.554  1.00  0.00     0.000 C 
BRANCH   5   6
ATOM      6  C   UNL     1     171.949 177.822 182.279  1.00  0.00     0.006 C 
BRANCH   6   7
ATOM      7  C   UNL     1     170.637 177.020 182.225  1.00  0.00     0.053 C 
BRANCH   7   8
ATOM      8  C   UNL     1     169.771 177.407 181.065  1.00  0.00     0.041 C 
ATOM      9  O   UNL     1     168.547 177.113 181.063  1.00  0.00    -0.550 OA
ATOM     10  O   UNL     1     170.306 178.125 180.002  1.00  0.00    -0.550 OA
ENDBRANCH   7   8
ENDBRANCH   6   7
ENDBRANCH   5   6
ENDBRANCH   4   5
ENDBRANCH   3   4
ENDBRANCH   2   3
ENDBRANCH   1   2
BRANCH   1  11
ATOM     11  C   UNL     1     176.763 176.864 183.171  1.00  0.00     0.000 C 
BRANCH  11  12
ATOM     12  C   UNL     1     177.169 177.725 181.966  1.00  0.00    -0.000 C 
BRANCH  12  13
ATOM     13  C   UNL     1     177.013 176.941 180.654  1.00  0.00    -0.000 C 
BRANCH  13  14
ATOM     14  C   UNL     1     176.019 177.609 179.683  1.00  0.00    -0.000 C 
BRANCH  14  15
ATOM     15  C   UNL     1     174.745 176.784 179.418  1.00  0.00    -0.000 C 
BRANCH  15  16
ATOM     16  C   UNL     1     173.868 177.328 178.269  1.00  0.00    -0.000 C 
BRANCH  16  17
ATOM     17  C   UNL     1     172.876 176.292 177.710  1.00  0.00    -0.003 C 
ATOM     18  C   UNL     1     172.230 175.448 178.810  1.00  0.00     0.004 C 
ENDBRANCH  16  17
ENDBRANCH  15  16
ENDBRANCH  14  15
ENDBRANCH  13  14
ENDBRANCH  12  13
ENDBRANCH  11  12
ENDBRANCH   1  11
TORSDOF 14
ENDMDL
MODEL 6
REMARK VINA RESULT:    -3.823      2.889      5.481
REMARK INTER + INTRA:          -9.310
REMARK INTER:                  -6.916
REMARK INTRA:                  -2.394
REMARK UNBOUND:                -2.358
REMARK SMILES CCCCCCCCCCCCCCCC(=O)[O-]
REMARK SMILES IDX 9 1 10 2 11 3 12 4 13 5 14 6 15 7 16 8 17 9 18 10 8 11 7 12
REMARK SMILES IDX 6 13 5 14 4 15 3 16 2 17 1 18
REMARK H PARENT
REMARK Flexibility Score: inf
ROOT
ATOM      1  C   UNL     1     176.461 176.652 179.612  1.00  0.00     0.000 C 
ENDROOT
BRANCH   1   2
ATOM      2  C   UNL     1     175.072 177.310 179.748  1.00  0.00     0.000 C 
BRANCH   2   3
ATOM      3  C   UNL     1     173.881 176.335 179.703  1.00  0.00     0.000 C 
BRANCH   3   4
ATOM      4  C   UNL     1     172.612 176.915 180.347  1.00  0.00     0.000 C 
BRANCH   4   5
ATOM      5  C   UNL     1     172.863 177.285 181.816  1.00  0.00     0.000 C 
BRANCH   5   6
ATOM      6  C   UNL     1     171.597 177.783 182.537  1.00  0.00     0.006 C 
BRANCH   6   7
ATOM      7  C   UNL     1     170.602 176.667 182.897  1.00  0.00     0.053 C 
BRANCH   7   8
ATOM      8  C   UNL     1     169.379 176.683 182.031  1.00  0.00     0.041 C 
ATOM      9  O   UNL     1     169.235 177.575 181.156  1.00  0.00    -0.550 OA
ATOM     10  O   UNL     1     168.416 175.690 182.165  1.00  0.00    -0.550 OA
ENDBRANCH   7   8
ENDBRANCH   6   7
ENDBRANCH   5   6
ENDBRANCH   4   5
ENDBRANCH   3   4
ENDBRANCH   2   3
ENDBRANCH   1   2
BRANCH   1  11
ATOM     11  C   UNL     1     177.184 176.378 180.943  1.00  0.00     0.000 C 
BRANCH  11  12
ATOM     12  C   UNL     1     176.831 177.398 182.035  1.00  0.00    -0.000 C 
BRANCH  12  13
ATOM     13  C   UNL     1     176.238 176.699 183.269  1.00  0.00    -0.000 C 
BRANCH  13  14
ATOM     14  C   UNL     1     176.243 175.163 183.134  1.00  0.00    -0.000 C 
BRANCH  14  15
ATOM     15  C   UNL     1     174.838 174.529 183.112  1.00  0.00    -0.000 C 
BRANCH  15  16
ATOM     16  C   UNL     1     174.622 173.515 181.967  1.00  0.00    -0.000 C 
BRANCH  16  17
ATOM     17  C   UNL     1     173.138 173.276 181.630  1.00  0.00    -0.003 C 
ATOM     18  C   UNL     1     172.233 173.402 182.856  1.00  0.00     0.004 C 
ENDBRANCH  16  17
ENDBRANCH  15  16
ENDBRANCH  14  15
ENDBRANCH  13  14
ENDBRANCH  12  13
ENDBRANCH  11  12
ENDBRANCH   1  11
TORSDOF 14
ENDMDL
MODEL 7
REMARK VINA RESULT:    -3.813      2.906      6.438
REMARK INTER + INTRA:          -9.292
REMARK INTER:                  -7.239
REMARK INTRA:                  -2.054
REMARK UNBOUND:                -2.358
REMARK SMILES CCCCCCCCCCCCCCCC(=O)[O-]
REMARK SMILES IDX 9 1 10 2 11 3 12 4 13 5 14 6 15 7 16 8 17 9 18 10 8 11 7 12
REMARK SMILES IDX 6 13 5 14 4 15 3 16 2 17 1 18
REMARK H PARENT
REMARK Flexibility Score: inf
ROOT
ATOM      1  C   UNL     1     173.598 175.833 182.532  1.00  0.00     0.000 C 
ENDROOT
BRANCH   1   2
ATOM      2  C   UNL     1     173.456 177.368 182.473  1.00  0.00     0.000 C 
BRANCH   2   3
ATOM      3  C   UNL     1     172.020 177.897 182.634  1.00  0.00     0.000 C 
BRANCH   3   4
ATOM      4  C   UNL     1     171.032 177.248 181.653  1.00  0.00     0.000 C 
BRANCH   4   5
ATOM      5  C   UNL     1     169.690 176.952 182.340  1.00  0.00     0.000 C 
BRANCH   5   6
ATOM      6  C   UNL     1     169.522 175.472 182.726  1.00  0.00     0.006 C 
BRANCH   6   7
ATOM      7  C   UNL     1     170.179 175.097 184.066  1.00  0.00     0.053 C 
BRANCH   7   8
ATOM      8  C   UNL     1     170.557 173.648 184.138  1.00  0.00     0.041 C 
ATOM      9  O   UNL     1     169.697 172.758 183.910  1.00  0.00    -0.550 OA
ATOM     10  O   UNL     1     171.867 173.281 184.421  1.00  0.00    -0.550 OA
ENDBRANCH   7   8
ENDBRANCH   6   7
ENDBRANCH   5   6
ENDBRANCH   4   5
ENDBRANCH   3   4
ENDBRANCH   2   3
ENDBRANCH   1   2
BRANCH   1  11
ATOM     11  C   UNL     1     175.015 175.321 182.847  1.00  0.00     0.000 C 
BRANCH  11  12
ATOM     12  C   UNL     1     175.972 176.442 183.280  1.00  0.00    -0.000 C 
BRANCH  12  13
ATOM     13  C   UNL     1     177.018 176.722 182.190  1.00  0.00    -0.000 C 
BRANCH  13  14
ATOM     14  C   UNL     1     177.084 175.601 181.134  1.00  0.00    -0.000 C 
BRANCH  14  15
ATOM     15  C   UNL     1     176.681 176.047 179.715  1.00  0.00    -0.000 C 
BRANCH  15  16
ATOM     16  C   UNL     1     176.010 177.437 179.658  1.00  0.00    -0.000 C 
BRANCH  16  17
ATOM     17  C   UNL     1     174.646 177.432 178.943  1.00  0.00    -0.003 C 
ATOM     18  C   UNL     1     174.027 176.035 178.876  1.00  0.00     0.004 C 
ENDBRANCH  16  17
ENDBRANCH  15  16
ENDBRANCH  14  15
ENDBRANCH  13  14
ENDBRANCH  12  13
ENDBRANCH  11  12
ENDBRANCH   1  11
TORSDOF 14
ENDMDL
MODEL 8
REMARK VINA RESULT:    -3.809      3.130      6.025
REMARK INTER + INTRA:          -9.285
REMARK INTER:                  -7.054
REMARK INTRA:                  -2.230
REMARK UNBOUND:                -2.358
REMARK SMILES CCCCCCCCCCCCCCCC(=O)[O-]
REMARK SMILES IDX 9 1 10 2 11 3 12 4 13 5 14 6 15 7 16 8 17 9 18 10 8 11 7 12
REMARK SMILES IDX 6 13 5 14 4 15 3 16 2 17 1 18
REMARK H PARENT
REMARK Flexibility Score: inf
ROOT
ATOM      1  C   UNL     1     177.035 176.745 182.671  1.00  0.00     0.000 C 
ENDROOT
BRANCH   1   2
ATOM      2  C   UNL     1     175.701 176.214 183.234  1.00  0.00     0.000 C 
BRANCH   2   3
ATOM      3  C   UNL     1     174.445 176.966 182.755  1.00  0.00     0.000 C 
BRANCH   3   4
ATOM      4  C   UNL     1     173.315 176.021 182.321  1.00  0.00     0.000 C 
BRANCH   4   5
ATOM      5  C   UNL     1     172.230 176.783 181.546  1.00  0.00     0.000 C 
BRANCH   5   6
ATOM      6  C   UNL     1     171.425 177.754 182.428  1.00  0.00     0.006 C 
BRANCH   6   7
ATOM      7  C   UNL     1     170.224 177.106 183.137  1.00  0.00     0.053 C 
BRANCH   7   8
ATOM      8  C   UNL     1     169.167 176.646 182.178  1.00  0.00     0.041 C 
ATOM      9  O   UNL     1     168.881 175.423 182.091  1.00  0.00    -0.550 OA
ATOM     10  O   UNL     1     168.472 177.570 181.408  1.00  0.00    -0.550 OA
ENDBRANCH   7   8
ENDBRANCH   6   7
ENDBRANCH   5   6
ENDBRANCH   4   5
ENDBRANCH   3   4
ENDBRANCH   2   3
ENDBRANCH   1   2
BRANCH   1  11
ATOM     11  C   UNL     1     176.899 177.762 181.523  1.00  0.00     0.000 C 
BRANCH  11  12
ATOM     12  C   UNL     1     177.083 177.126 180.137  1.00  0.00    -0.000 C 
BRANCH  12  13
ATOM     13  C   UNL     1     175.730 176.950 179.430  1.00  0.00    -0.000 C 
BRANCH  13  14
ATOM     14  C   UNL     1     175.564 175.546 178.816  1.00  0.00    -0.000 C 
BRANCH  14  15
ATOM     15  C   UNL     1     176.279 174.428 179.599  1.00  0.00    -0.000 C 
BRANCH  15  16
ATOM     16  C   UNL     1     175.345 173.599 180.508  1.00  0.00    -0.000 C 
BRANCH  16  17
ATOM     17  C   UNL     1     176.060 172.984 181.726  1.00  0.00    -0.003 C 
ATOM     18  C   UNL     1     177.560 173.283 181.735  1.00  0.00     0.004 C 
ENDBRANCH  16  17
ENDBRANCH  15  16
ENDBRANCH  14  15
ENDBRANCH  13  14
ENDBRANCH  12  13
ENDBRANCH  11  12
ENDBRANCH   1  11
TORSDOF 14
ENDMDL
MODEL 9
REMARK VINA RESULT:    -3.765      3.033      5.657
REMARK INTER + INTRA:          -9.204
REMARK INTER:                  -6.704
REMARK INTRA:                  -2.501
REMARK UNBOUND:                -2.358
REMARK SMILES CCCCCCCCCCCCCCCC(=O)[O-]
REMARK SMILES IDX 9 1 10 2 11 3 12 4 13 5 14 6 15 7 16 8 17 9 18 10 8 11 7 12
REMARK SMILES IDX 6 13 5 14 4 15 3 16 2 17 1 18
REMARK H PARENT
REMARK Flexibility Score: inf
ROOT
ATOM      1  C   UNL     1     175.282 173.193 180.549  1.00  0.00     0.000 C 
ENDROOT
BRANCH   1   2
ATOM      2  C   UNL     1     173.848 173.675 180.850  1.00  0.00     0.000 C 
BRANCH   2   3
ATOM      3  C   UNL     1     173.398 173.512 182.313  1.00  0.00     0.000 C 
BRANCH   3   4
ATOM      4  C   UNL     1     172.779 174.793 182.893  1.00  0.00     0.000 C 
BRANCH   4   5
ATOM      5  C   UNL     1     173.204 176.024 182.079  1.00  0.00     0.000 C 
BRANCH   5   6
ATOM      6  C   UNL     1     172.465 177.308 182.497  1.00  0.00     0.006 C 
BRANCH   6   7
ATOM      7  C   UNL     1     171.364 177.744 181.514  1.00  0.00     0.053 C 
BRANCH   7   8
ATOM      8  C   UNL     1     169.996 177.316 181.952  1.00  0.00     0.041 C 
ATOM      9  O   UNL     1     169.811 176.887 183.120  1.00  0.00    -0.550 OA
ATOM     10  O   UNL     1     168.918 177.425 181.082  1.00  0.00    -0.550 OA
ENDBRANCH   7   8
ENDBRANCH   6   7
ENDBRANCH   5   6
ENDBRANCH   4   5
ENDBRANCH   3   4
ENDBRANCH   2   3
ENDBRANCH   1   2
BRANCH   1  11
ATOM     11  C   UNL     1     176.223 173.150 181.766  1.00  0.00     0.000 C 
BRANCH  11  12
ATOM     12  C   UNL     1     177.154 174.368 181.845  1.00  0.00    -0.000 C 
BRANCH  12  13
ATOM     13  C   UNL     1     176.642 175.385 182.877  1.00  0.00    -0.000 C 
BRANCH  13  14
ATOM     14  C   UNL     1     176.757 176.839 182.379  1.00  0.00    -0.000 C 
BRANCH  14  15
ATOM     15  C   UNL     1     177.037 176.967 180.869  1.00  0.00    -0.000 C 
BRANCH  15  16
ATOM     16  C   UNL     1     175.877 177.591 180.063  1.00  0.00    -0.000 C 
BRANCH  16  17
ATOM     17  C   UNL     1     175.263 176.632 179.027  1.00  0.00    -0.003 C 
ATOM     18  C   UNL     1     173.970 177.179 178.419  1.00  0.00     0.004 C 
ENDBRANCH  16  17
ENDBRANCH  15  16
ENDBRANCH  14  15
ENDBRANCH  13  14
ENDBRANCH  12  13
ENDBRANCH  11  12
ENDBRANCH   1  11
TORSDOF 14
ENDMDL
