MODEL 1
REMARK VINA RESULT:    12.135      0.000      0.000
REMARK INTER + INTRA:          13.877
REMARK INTER:                  13.199
REMARK INTRA:                   0.678
REMARK UNBOUND:                 0.678
REMARK SMILES C[C@H]1[C@@H](C)CC[C@]2(C(=O)[O-])CC[C@]3(C)C(=CC[C@H]4[C@@]5(C)CC[C@H](O)C(C)(C)[C@H]5CC[C@]43C)[C@@H]12
REMARK SMILES IDX 7 1 6 2 11 3 33 4 5 5 12 6 15 7 2 8 3 9 13 10 16 11 1 12
REMARK SMILES IDX 4 13 14 14 31 15 17 16 18 17 30 18 32 19 19 20 29 21 28 22
REMARK SMILES IDX 21 23 20 24 25 25 22 26 23 27 26 28 27 29 8 30 9 31 10 32
REMARK SMILES IDX 24 33
REMARK H PARENT 24 34
REMARK Flexibility Score: inf
ROOT
ATOM      1  C   UNL     1      86.125   9.308   1.196  1.00  0.00     0.017 C 
ATOM      2  C   UNL     1      86.888   8.955  -0.128  1.00  0.00     0.014 C 
ATOM      3  C   UNL     1      87.125   9.665   2.318  1.00  0.00     0.014 C 
ATOM      4  C   UNL     1      85.306   8.069   1.697  1.00  0.00     0.030 C 
ATOM      5  C   UNL     1      87.048   7.445  -0.385  1.00  0.00     0.004 C 
ATOM      6  C   UNL     1      86.417   9.958   3.667  1.00  0.00     0.013 C 
ATOM      7  C   UNL     1      84.591   8.372   3.022  1.00  0.00    -0.063 C 
ATOM      8  C   UNL     1      84.587   7.322   0.527  1.00  0.00    -0.003 C 
ATOM      9  C   UNL     1      85.696   6.665  -0.379  1.00  0.00    -0.011 C 
ATOM     10  C   UNL     1      85.471   8.816   4.215  1.00  0.00    -0.006 C 
ATOM     11  C   UNL     1      83.254   8.380   3.080  1.00  0.00    -0.027 C 
ATOM     12  C   UNL     1      83.598   8.193  -0.290  1.00  0.00     0.008 C 
ATOM     13  C   UNL     1      85.238   6.331  -1.807  1.00  0.00     0.008 C 
ATOM     14  C   UNL     1      86.380   7.614   4.629  1.00  0.00     0.017 C 
ATOM     15  C   UNL     1      84.607   9.311   5.512  1.00  0.00    -0.020 C 
ATOM     16  C   UNL     1      82.472   9.062   4.147  1.00  0.00     0.032 C 
ATOM     17  C   UNL     1      83.286  10.029   5.061  1.00  0.00     0.006 C 
ATOM     18  C   UNL     1      84.163   8.119   6.429  1.00  0.00     0.008 C 
ATOM     19  C   UNL     1      85.530  10.258   6.352  1.00  0.00     0.012 C 
ATOM     20  C   UNL     1      82.394  10.652   6.268  1.00  0.00    -0.025 C 
ATOM     21  C   UNL     1      82.910   8.343   7.328  1.00  0.00     0.005 C 
ATOM     22  C   UNL     1      82.550   9.825   7.628  1.00  0.00     0.003 C 
ATOM     23  C   UNL     1      80.881  10.726   5.843  1.00  0.00     0.010 C 
ATOM     24  C   UNL     1      82.876  12.125   6.478  1.00  0.00     0.012 C 
ATOM     25  C   UNL     1      81.398  10.014   8.727  1.00  0.00    -0.006 C 
ATOM     26  C   UNL     1      79.901  11.081   6.957  1.00  0.00     0.033 C 
ATOM     27  C   UNL     1      79.987  10.048   8.077  1.00  0.00     0.120 C 
ATOM     28  C   UNL     1      81.639  11.312   9.555  1.00  0.00     0.014 C 
ATOM     29  C   UNL     1      81.415   8.865   9.774  1.00  0.00     0.014 C 
ENDROOT
BRANCH   1  30
ATOM     30  C   UNL     1      85.288  10.564   0.943  1.00  0.00     0.048 C 
ATOM     31  O   UNL     1      84.360  10.907   1.718  1.00  0.00    -0.550 OA
ATOM     32  O   UNL     1      85.673  11.456  -0.059  1.00  0.00    -0.550 OA
ENDBRANCH   1  30
BRANCH  27  33
ATOM     33  O   UNL     1      78.995  10.350   9.029  1.00  0.00    -0.393 OA
ATOM     34  H   UNL     1      79.400  10.965   9.693  1.00  0.00     0.210 HD
ENDBRANCH  27  33
TORSDOF 2
ENDMDL
MODEL 2
REMARK VINA RESULT:    13.386      8.348     12.596
REMARK INTER + INTRA:          15.237
REMARK INTER:                  14.239
REMARK INTRA:                   0.998
REMARK UNBOUND:                 0.678
REMARK SMILES C[C@H]1[C@@H](C)CC[C@]2(C(=O)[O-])CC[C@]3(C)C(=CC[C@H]4[C@@]5(C)CC[C@H](O)C(C)(C)[C@H]5CC[C@]43C)[C@@H]12
REMARK SMILES IDX 7 1 6 2 11 3 33 4 5 5 12 6 15 7 2 8 3 9 13 10 16 11 1 12
REMARK SMILES IDX 4 13 14 14 31 15 17 16 18 17 30 18 32 19 19 20 29 21 28 22
REMARK SMILES IDX 21 23 20 24 25 25 22 26 23 27 26 28 27 29 8 30 9 31 10 32
REMARK SMILES IDX 24 33
REMARK H PARENT 24 34
REMARK Flexibility Score: inf
ROOT
ATOM      1  C   UNL     1      84.091   0.735  -8.402  1.00  0.00     0.017 C 
ATOM      2  C   UNL     1      83.762   0.251  -9.858  1.00  0.00     0.014 C 
ATOM      3  C   UNL     1      85.441   1.484  -8.374  1.00  0.00     0.014 C 
ATOM      4  C   UNL     1      84.237  -0.496  -7.442  1.00  0.00     0.030 C 
ATOM      5  C   UNL     1      84.095  -1.229 -10.125  1.00  0.00     0.004 C 
ATOM      6  C   UNL     1      85.841   1.926  -6.942  1.00  0.00     0.013 C 
ATOM      7  C   UNL     1      84.613  -0.052  -6.020  1.00  0.00    -0.063 C 
ATOM      8  C   UNL     1      83.145  -1.583  -7.701  1.00  0.00    -0.003 C 
ATOM      9  C   UNL     1      83.417  -2.212  -9.120  1.00  0.00    -0.011 C 
ATOM     10  C   UNL     1      85.910   0.777  -5.858  1.00  0.00    -0.006 C 
ATOM     11  C   UNL     1      83.770  -0.264  -5.003  1.00  0.00    -0.027 C 
ATOM     12  C   UNL     1      81.684  -1.086  -7.550  1.00  0.00     0.008 C 
ATOM     13  C   UNL     1      82.205  -2.911  -9.753  1.00  0.00     0.008 C 
ATOM     14  C   UNL     1      87.124  -0.137  -6.221  1.00  0.00     0.017 C 
ATOM     15  C   UNL     1      86.116   1.374  -4.349  1.00  0.00    -0.020 C 
ATOM     16  C   UNL     1      83.818   0.480  -3.714  1.00  0.00     0.032 C 
ATOM     17  C   UNL     1      84.734   1.743  -3.702  1.00  0.00     0.006 C 
ATOM     18  C   UNL     1      86.789   0.340  -3.381  1.00  0.00     0.008 C 
ATOM     19  C   UNL     1      87.058   2.620  -4.467  1.00  0.00     0.012 C 
ATOM     20  C   UNL     1      84.824   2.440  -2.238  1.00  0.00    -0.025 C 
ATOM     21  C   UNL     1      86.532   0.527  -1.856  1.00  0.00     0.005 C 
ATOM     22  C   UNL     1      86.104   1.953  -1.411  1.00  0.00     0.003 C 
ATOM     23  C   UNL     1      83.508   2.160  -1.422  1.00  0.00     0.010 C 
ATOM     24  C   UNL     1      84.892   3.984  -2.470  1.00  0.00     0.012 C 
ATOM     25  C   UNL     1      86.064   2.165   0.178  1.00  0.00    -0.006 C 
ATOM     26  C   UNL     1      83.547   2.564   0.049  1.00  0.00     0.033 C 
ATOM     27  C   UNL     1      84.668   1.818   0.767  1.00  0.00     0.120 C 
ATOM     28  C   UNL     1      86.453   3.628   0.546  1.00  0.00     0.014 C 
ATOM     29  C   UNL     1      87.120   1.280   0.897  1.00  0.00     0.014 C 
ENDROOT
BRANCH   1  30
ATOM     30  C   UNL     1      83.022   1.746  -7.983  1.00  0.00     0.048 C 
ATOM     31  O   UNL     1      83.326   2.860  -7.485  1.00  0.00    -0.550 OA
ATOM     32  O   UNL     1      81.689   1.520  -8.326  1.00  0.00    -0.550 OA
ENDBRANCH   1  30
BRANCH  27  33
ATOM     33  O   UNL     1      84.600   2.135   2.136  1.00  0.00    -0.393 OA
ATOM     34  H   UNL     1      84.900   1.336   2.640  1.00  0.00     0.210 HD
ENDBRANCH  27  33
TORSDOF 2
ENDMDL
MODEL 3
REMARK VINA RESULT:    14.687     14.131     16.841
REMARK INTER + INTRA:          16.653
REMARK INTER:                  15.954
REMARK INTRA:                   0.699
REMARK UNBOUND:                 0.678
REMARK SMILES C[C@H]1[C@@H](C)CC[C@]2(C(=O)[O-])CC[C@]3(C)C(=CC[C@H]4[C@@]5(C)CC[C@H](O)C(C)(C)[C@H]5CC[C@]43C)[C@@H]12
REMARK SMILES IDX 7 1 6 2 11 3 33 4 5 5 12 6 15 7 2 8 3 9 13 10 16 11 1 12
REMARK SMILES IDX 4 13 14 14 31 15 17 16 18 17 30 18 32 19 19 20 29 21 28 22
REMARK SMILES IDX 21 23 20 24 25 25 22 26 23 27 26 28 27 29 8 30 9 31 10 32
REMARK SMILES IDX 24 33
REMARK H PARENT 24 34
REMARK Flexibility Score: inf
ROOT
ATOM      1  C   UNL     1      83.856   1.066  -8.395  1.00  0.00     0.017 C 
ATOM      2  C   UNL     1      83.337   2.346  -9.140  1.00  0.00     0.014 C 
ATOM      3  C   UNL     1      85.135   0.528  -9.074  1.00  0.00     0.014 C 
ATOM      4  C   UNL     1      82.787  -0.077  -8.474  1.00  0.00     0.030 C 
ATOM      5  C   UNL     1      82.183   2.084 -10.125  1.00  0.00     0.004 C 
ATOM      6  C   UNL     1      85.648  -0.777  -8.410  1.00  0.00     0.013 C 
ATOM      7  C   UNL     1      83.292  -1.360  -7.798  1.00  0.00    -0.063 C 
ATOM      8  C   UNL     1      81.334   0.454  -8.248  1.00  0.00    -0.003 C 
ATOM      9  C   UNL     1      80.958   1.369  -9.474  1.00  0.00    -0.011 C 
ATOM     10  C   UNL     1      84.611  -1.968  -8.332  1.00  0.00    -0.006 C 
ATOM     11  C   UNL     1      82.677  -1.835  -6.708  1.00  0.00    -0.027 C 
ATOM     12  C   UNL     1      81.107   1.167  -6.890  1.00  0.00     0.008 C 
ATOM     13  C   UNL     1      79.812   2.357  -9.206  1.00  0.00     0.008 C 
ATOM     14  C   UNL     1      84.365  -2.471  -9.791  1.00  0.00     0.017 C 
ATOM     15  C   UNL     1      85.172  -3.206  -7.423  1.00  0.00    -0.020 C 
ATOM     16  C   UNL     1      83.306  -2.778  -5.744  1.00  0.00     0.032 C 
ATOM     17  C   UNL     1      84.846  -2.975  -5.904  1.00  0.00     0.006 C 
ATOM     18  C   UNL     1      84.517  -4.578  -7.805  1.00  0.00     0.008 C 
ATOM     19  C   UNL     1      86.714  -3.311  -7.680  1.00  0.00     0.012 C 
ATOM     20  C   UNL     1      85.445  -4.096  -4.893  1.00  0.00    -0.025 C 
ATOM     21  C   UNL     1      84.501  -5.687  -6.711  1.00  0.00     0.005 C 
ATOM     22  C   UNL     1      85.558  -5.536  -5.581  1.00  0.00     0.003 C 
ATOM     23  C   UNL     1      84.564  -4.180  -3.592  1.00  0.00     0.010 C 
ATOM     24  C   UNL     1      86.860  -3.602  -4.449  1.00  0.00     0.012 C 
ATOM     25  C   UNL     1      85.661  -6.801  -4.601  1.00  0.00    -0.006 C 
ATOM     26  C   UNL     1      84.879  -5.344  -2.658  1.00  0.00     0.033 C 
ATOM     27  C   UNL     1      84.694  -6.668  -3.392  1.00  0.00     0.120 C 
ATOM     28  C   UNL     1      87.124  -6.988  -4.099  1.00  0.00     0.014 C 
ATOM     29  C   UNL     1      85.322  -8.125  -5.342  1.00  0.00     0.014 C 
ENDROOT
BRANCH   1  30
ATOM     30  C   UNL     1      84.253   1.470  -6.974  1.00  0.00     0.048 C 
ATOM     31  O   UNL     1      84.248   0.644  -6.027  1.00  0.00    -0.550 OA
ATOM     32  O   UNL     1      84.812   2.729  -6.747  1.00  0.00    -0.550 OA
ENDBRANCH   1  30
BRANCH  27  33
ATOM     33  O   UNL     1      84.887  -7.713  -2.469  1.00  0.00    -0.393 OA
ATOM     34  H   UNL     1      85.817  -8.037  -2.579  1.00  0.00     0.210 HD
ENDBRANCH  27  33
TORSDOF 2
ENDMDL
