MODEL 1
REMARK VINA RESULT:    -6.600      0.000      0.000
REMARK INTER + INTRA:          -8.091
REMARK INTER:                  -7.951
REMARK INTRA:                  -0.140
REMARK UNBOUND:                -0.140
REMARK SMILES O=c1c(O)c(-c2ccc(O)c(O)c2)oc2cc(O)cc(O)c12
REMARK SMILES IDX 5 1 3 2 2 3 1 4 22 5 20 6 19 7 17 8 16 9 15 10 14 11 6 12
REMARK SMILES IDX 7 13 8 14 9 15 13 16 11 17 10 18 12 20 4 22 21 24 18 26
REMARK H PARENT 10 19 12 21 4 23 21 25 18 27
REMARK Flexibility Score: inf
ROOT
ATOM      1  C   UNL     1      31.057 -92.041  37.639  1.00  0.00     0.180 A 
ATOM      2  C   UNL     1      29.831 -92.649  37.318  1.00  0.00     0.208 A 
ATOM      3  C   UNL     1      29.711 -94.044  37.439  1.00  0.00     0.238 A 
ATOM      4  O   UNL     1      28.595 -94.575  37.202  1.00  0.00    -0.285 OA
ATOM      5  C   UNL     1      30.821 -94.813  37.863  1.00  0.00     0.111 A 
ATOM      6  C   UNL     1      30.823 -96.234  37.981  1.00  0.00     0.134 A 
ATOM      7  C   UNL     1      31.936 -96.880  38.535  1.00  0.00     0.093 A 
ATOM      8  C   UNL     1      33.072 -96.159  38.913  1.00  0.00     0.123 A 
ATOM      9  C   UNL     1      33.102 -94.777  38.746  1.00  0.00     0.094 A 
ATOM     10  C   UNL     1      31.993 -94.101  38.229  1.00  0.00     0.146 A 
ATOM     11  O   UNL     1      32.060 -92.783  38.096  1.00  0.00    -0.452 OA
ENDROOT
BRANCH   1  12
ATOM     12  C   UNL     1      31.269 -90.580  37.514  1.00  0.00     0.025 A 
ATOM     13  C   UNL     1      32.184 -90.094  36.569  1.00  0.00     0.016 A 
ATOM     14  C   UNL     1      32.383 -88.720  36.422  1.00  0.00     0.051 A 
ATOM     15  C   UNL     1      31.664 -87.806  37.199  1.00  0.00     0.157 A 
ATOM     16  C   UNL     1      30.527 -89.665  38.280  1.00  0.00     0.062 A 
ATOM     17  C   UNL     1      30.719 -88.285  38.136  1.00  0.00     0.158 A 
BRANCH  15  18
ATOM     18  O   UNL     1      31.916 -86.447  37.007  1.00  0.00    -0.504 OA
ATOM     19  H   UNL     1      31.197 -85.759  36.831  1.00  0.00     0.293 HD
ENDBRANCH  15  18
BRANCH  17  20
ATOM     20  O   UNL     1      29.949 -87.434  38.933  1.00  0.00    -0.504 OA
ATOM     21  H   UNL     1      29.836 -86.446  38.758  1.00  0.00     0.293 HD
ENDBRANCH  17  20
ENDBRANCH   1  12
BRANCH   2  22
ATOM     22  O   UNL     1      28.741 -91.869  36.923  1.00  0.00    -0.502 OA
ATOM     23  H   UNL     1      27.803 -92.030  37.267  1.00  0.00     0.293 HD
ENDBRANCH   2  22
BRANCH   6  24
ATOM     24  O   UNL     1      29.777 -97.056  37.548  1.00  0.00    -0.507 OA
ATOM     25  H   UNL     1      29.719 -97.478  36.634  1.00  0.00     0.293 HD
ENDBRANCH   6  24
BRANCH   8  26
ATOM     26  O   UNL     1      34.181 -96.811  39.449  1.00  0.00    -0.508 OA
ATOM     27  H   UNL     1      34.509 -96.613  40.386  1.00  0.00     0.293 HD
ENDBRANCH   8  26
TORSDOF 6
ENDMDL
MODEL 2
REMARK VINA RESULT:    -6.126      1.221      3.007
REMARK INTER + INTRA:          -7.519
REMARK INTER:                  -7.359
REMARK INTRA:                  -0.160
REMARK UNBOUND:                -0.140
REMARK SMILES O=c1c(O)c(-c2ccc(O)c(O)c2)oc2cc(O)cc(O)c12
REMARK SMILES IDX 5 1 3 2 2 3 1 4 22 5 20 6 19 7 17 8 16 9 15 10 14 11 6 12
REMARK SMILES IDX 7 13 8 14 9 15 13 16 11 17 10 18 12 20 4 22 21 24 18 26
REMARK H PARENT 10 19 12 21 4 23 21 25 18 27
REMARK Flexibility Score: inf
ROOT
ATOM      1  C   UNL     1      31.058 -92.067  37.631  1.00  0.00     0.180 A 
ATOM      2  C   UNL     1      32.098 -92.917  38.044  1.00  0.00     0.208 A 
ATOM      3  C   UNL     1      31.832 -94.286  38.211  1.00  0.00     0.238 A 
ATOM      4  O   UNL     1      32.781 -95.051  38.529  1.00  0.00    -0.285 OA
ATOM      5  C   UNL     1      30.528 -94.785  37.978  1.00  0.00     0.111 A 
ATOM      6  C   UNL     1      30.138 -96.146  38.156  1.00  0.00     0.134 A 
ATOM      7  C   UNL     1      28.853 -96.551  37.771  1.00  0.00     0.093 A 
ATOM      8  C   UNL     1      27.925 -95.631  37.276  1.00  0.00     0.123 A 
ATOM      9  C   UNL     1      28.278 -94.290  37.156  1.00  0.00     0.094 A 
ATOM     10  C   UNL     1      29.564 -93.861  37.498  1.00  0.00     0.146 A 
ATOM     11  O   UNL     1      29.862 -92.576  37.357  1.00  0.00    -0.452 OA
ENDROOT
BRANCH   1  12
ATOM     12  C   UNL     1      31.254 -90.609  37.457  1.00  0.00     0.025 A 
ATOM     13  C   UNL     1      32.092 -90.143  36.435  1.00  0.00     0.016 A 
ATOM     14  C   UNL     1      32.275 -88.772  36.242  1.00  0.00     0.051 A 
ATOM     15  C   UNL     1      31.614 -87.842  37.051  1.00  0.00     0.157 A 
ATOM     16  C   UNL     1      30.570 -89.678  38.257  1.00  0.00     0.062 A 
ATOM     17  C   UNL     1      30.745 -88.301  38.068  1.00  0.00     0.158 A 
BRANCH  15  18
ATOM     18  O   UNL     1      31.845 -86.487  36.810  1.00  0.00    -0.504 OA
ATOM     19  H   UNL     1      32.765 -86.070  36.770  1.00  0.00     0.293 HD
ENDBRANCH  15  18
BRANCH  17  20
ATOM     20  O   UNL     1      30.036 -87.434  38.902  1.00  0.00    -0.504 OA
ATOM     21  H   UNL     1      29.721 -87.674  39.830  1.00  0.00     0.293 HD
ENDBRANCH  17  20
ENDBRANCH   1  12
BRANCH   2  22
ATOM     22  O   UNL     1      33.383 -92.408  38.247  1.00  0.00    -0.502 OA
ATOM     23  H   UNL     1      33.952 -92.048  37.490  1.00  0.00     0.293 HD
ENDBRANCH   2  22
BRANCH   6  24
ATOM     24  O   UNL     1      30.957 -97.125  38.727  1.00  0.00    -0.507 OA
ATOM     25  H   UNL     1      31.626 -96.956  39.462  1.00  0.00     0.293 HD
ENDBRANCH   6  24
BRANCH   8  26
ATOM     26  O   UNL     1      26.645 -96.041  36.910  1.00  0.00    -0.508 OA
ATOM     27  H   UNL     1      26.330 -96.992  37.060  1.00  0.00     0.293 HD
ENDBRANCH   8  26
TORSDOF 6
ENDMDL
MODEL 3
REMARK VINA RESULT:    -5.707      9.277     10.900
REMARK INTER + INTRA:          -7.015
REMARK INTER:                  -6.907
REMARK INTRA:                  -0.108
REMARK UNBOUND:                -0.140
REMARK SMILES O=c1c(O)c(-c2ccc(O)c(O)c2)oc2cc(O)cc(O)c12
REMARK SMILES IDX 5 1 3 2 2 3 1 4 22 5 20 6 19 7 17 8 16 9 15 10 14 11 6 12
REMARK SMILES IDX 7 13 8 14 9 15 13 16 11 17 10 18 12 20 4 22 21 24 18 26
REMARK H PARENT 10 19 12 21 4 23 21 25 18 27
REMARK Flexibility Score: inf
ROOT
ATOM      1  C   UNL     1      37.421 -95.144  31.046  1.00  0.00     0.180 A 
ATOM      2  C   UNL     1      38.091 -95.751  29.970  1.00  0.00     0.208 A 
ATOM      3  C   UNL     1      37.421 -95.897  28.744  1.00  0.00     0.238 A 
ATOM      4  O   UNL     1      38.046 -96.391  27.770  1.00  0.00    -0.285 OA
ATOM      5  C   UNL     1      36.084 -95.450  28.615  1.00  0.00     0.111 A 
ATOM      6  C   UNL     1      35.296 -95.585  27.433  1.00  0.00     0.134 A 
ATOM      7  C   UNL     1      34.030 -94.989  27.376  1.00  0.00     0.093 A 
ATOM      8  C   UNL     1      33.497 -94.321  28.482  1.00  0.00     0.123 A 
ATOM      9  C   UNL     1      34.235 -94.237  29.660  1.00  0.00     0.094 A 
ATOM     10  C   UNL     1      35.516 -94.789  29.735  1.00  0.00     0.146 A 
ATOM     11  O   UNL     1      36.189 -94.677  30.873  1.00  0.00    -0.452 OA
ENDROOT
BRANCH   1  12
ATOM     12  C   UNL     1      38.052 -94.977  32.375  1.00  0.00     0.025 A 
ATOM     13  C   UNL     1      39.201 -94.183  32.498  1.00  0.00     0.016 A 
ATOM     14  C   UNL     1      39.800 -93.997  33.745  1.00  0.00     0.051 A 
ATOM     15  C   UNL     1      39.258 -94.584  34.894  1.00  0.00     0.157 A 
ATOM     16  C   UNL     1      37.491 -95.550  33.528  1.00  0.00     0.062 A 
ATOM     17  C   UNL     1      38.084 -95.366  34.784  1.00  0.00     0.158 A 
BRANCH  15  18
ATOM     18  O   UNL     1      39.909 -94.364  36.108  1.00  0.00    -0.504 OA
ATOM     19  H   UNL     1      40.540 -93.594  36.279  1.00  0.00     0.293 HD
ENDBRANCH  15  18
BRANCH  17  20
ATOM     20  O   UNL     1      37.474 -95.967  35.888  1.00  0.00    -0.504 OA
ATOM     21  H   UNL     1      36.953 -95.463  36.589  1.00  0.00     0.293 HD
ENDBRANCH  17  20
ENDBRANCH   1  12
BRANCH   2  22
ATOM     22  O   UNL     1      39.419 -96.165  30.113  1.00  0.00    -0.502 OA
ATOM     23  H   UNL     1      40.181 -95.736  29.601  1.00  0.00     0.293 HD
ENDBRANCH   2  22
BRANCH   6  24
ATOM     24  O   UNL     1      35.696 -96.310  26.306  1.00  0.00    -0.507 OA
ATOM     25  H   UNL     1      35.114 -96.488  25.502  1.00  0.00     0.293 HD
ENDBRANCH   6  24
BRANCH   8  26
ATOM     26  O   UNL     1      32.230 -93.745  28.422  1.00  0.00    -0.508 OA
ATOM     27  H   UNL     1      32.065 -92.796  28.734  1.00  0.00     0.293 HD
ENDBRANCH   8  26
TORSDOF 6
ENDMDL
MODEL 4
REMARK VINA RESULT:    -5.670      8.782     10.934
REMARK INTER + INTRA:          -6.970
REMARK INTER:                  -6.655
REMARK INTRA:                  -0.315
REMARK UNBOUND:                -0.140
REMARK SMILES O=c1c(O)c(-c2ccc(O)c(O)c2)oc2cc(O)cc(O)c12
REMARK SMILES IDX 5 1 3 2 2 3 1 4 22 5 20 6 19 7 17 8 16 9 15 10 14 11 6 12
REMARK SMILES IDX 7 13 8 14 9 15 13 16 11 17 10 18 12 20 4 22 21 24 18 26
REMARK H PARENT 10 19 12 21 4 23 21 25 18 27
REMARK Flexibility Score: inf
ROOT
ATOM      1  C   UNL     1      40.060 -95.267  35.980  1.00  0.00     0.180 A 
ATOM      2  C   UNL     1      41.255 -95.159  35.249  1.00  0.00     0.208 A 
ATOM      3  C   UNL     1      41.190 -95.029  33.852  1.00  0.00     0.238 A 
ATOM      4  O   UNL     1      42.261 -94.878  33.209  1.00  0.00    -0.285 OA
ATOM      5  C   UNL     1      39.932 -95.026  33.203  1.00  0.00     0.111 A 
ATOM      6  C   UNL     1      39.750 -94.941  31.790  1.00  0.00     0.134 A 
ATOM      7  C   UNL     1      38.457 -94.815  31.267  1.00  0.00     0.093 A 
ATOM      8  C   UNL     1      37.337 -94.836  32.102  1.00  0.00     0.123 A 
ATOM      9  C   UNL     1      37.502 -94.979  33.477  1.00  0.00     0.094 A 
ATOM     10  C   UNL     1      38.781 -95.071  34.032  1.00  0.00     0.146 A 
ATOM     11  O   UNL     1      38.894 -95.194  35.348  1.00  0.00    -0.452 OA
ENDROOT
BRANCH   1  12
ATOM     12  C   UNL     1      40.048 -95.430  37.452  1.00  0.00     0.025 A 
ATOM     13  C   UNL     1      40.210 -96.708  38.005  1.00  0.00     0.016 A 
ATOM     14  C   UNL     1      40.222 -96.881  39.391  1.00  0.00     0.051 A 
ATOM     15  C   UNL     1      40.090 -95.785  40.250  1.00  0.00     0.157 A 
ATOM     16  C   UNL     1      39.938 -94.324  38.310  1.00  0.00     0.062 A 
ATOM     17  C   UNL     1      39.952 -94.488  39.702  1.00  0.00     0.158 A 
BRANCH  15  18
ATOM     18  O   UNL     1      40.103 -96.027  41.624  1.00  0.00    -0.504 OA
ATOM     19  H   UNL     1      40.608 -95.462  42.292  1.00  0.00     0.293 HD
ENDBRANCH  15  18
BRANCH  17  20
ATOM     20  O   UNL     1      39.835 -93.343  40.494  1.00  0.00    -0.504 OA
ATOM     21  H   UNL     1      39.056 -92.704  40.451  1.00  0.00     0.293 HD
ENDBRANCH  17  20
ENDBRANCH   1  12
BRANCH   2  22
ATOM     22  O   UNL     1      42.485 -95.142  35.912  1.00  0.00    -0.502 OA
ATOM     23  H   UNL     1      43.195 -95.848  35.760  1.00  0.00     0.293 HD
ENDBRANCH   2  22
BRANCH   6  24
ATOM     24  O   UNL     1      40.795 -95.004  30.863  1.00  0.00    -0.507 OA
ATOM     25  H   UNL     1      40.958 -95.775  30.233  1.00  0.00     0.293 HD
ENDBRANCH   6  24
BRANCH   8  26
ATOM     26  O   UNL     1      36.053 -94.726  31.571  1.00  0.00    -0.508 OA
ATOM     27  H   UNL     1      35.323 -95.387  31.810  1.00  0.00     0.293 HD
ENDBRANCH   8  26
TORSDOF 6
ENDMDL
MODEL 5
REMARK VINA RESULT:    -5.600      9.455     10.850
REMARK INTER + INTRA:          -6.886
REMARK INTER:                  -6.610
REMARK INTRA:                  -0.276
REMARK UNBOUND:                -0.140
REMARK SMILES O=c1c(O)c(-c2ccc(O)c(O)c2)oc2cc(O)cc(O)c12
REMARK SMILES IDX 5 1 3 2 2 3 1 4 22 5 20 6 19 7 17 8 16 9 15 10 14 11 6 12
REMARK SMILES IDX 7 13 8 14 9 15 13 16 11 17 10 18 12 20 4 22 21 24 18 26
REMARK H PARENT 10 19 12 21 4 23 21 25 18 27
REMARK Flexibility Score: inf
ROOT
ATOM      1  C   UNL     1      36.144 -95.179  29.869  1.00  0.00     0.180 A 
ATOM      2  C   UNL     1      37.210 -95.596  29.053  1.00  0.00     0.208 A 
ATOM      3  C   UNL     1      38.512 -95.594  29.579  1.00  0.00     0.238 A 
ATOM      4  O   UNL     1      39.454 -96.019  28.861  1.00  0.00    -0.285 OA
ATOM      5  C   UNL     1      38.734 -95.160  30.908  1.00  0.00     0.111 A 
ATOM      6  C   UNL     1      40.016 -95.079  31.529  1.00  0.00     0.134 A 
ATOM      7  C   UNL     1      40.104 -94.760  32.891  1.00  0.00     0.093 A 
ATOM      8  C   UNL     1      38.962 -94.457  33.635  1.00  0.00     0.123 A 
ATOM      9  C   UNL     1      37.711 -94.475  33.022  1.00  0.00     0.094 A 
ATOM     10  C   UNL     1      37.588 -94.825  31.675  1.00  0.00     0.146 A 
ATOM     11  O   UNL     1      36.377 -94.841  31.132  1.00  0.00    -0.452 OA
ENDROOT
BRANCH   1  12
ATOM     12  C   UNL     1      34.747 -95.131  29.378  1.00  0.00     0.025 A 
ATOM     13  C   UNL     1      34.354 -94.095  28.520  1.00  0.00     0.016 A 
ATOM     14  C   UNL     1      33.047 -94.042  28.030  1.00  0.00     0.051 A 
ATOM     15  C   UNL     1      32.115 -95.028  28.373  1.00  0.00     0.157 A 
ATOM     16  C   UNL     1      33.821 -96.135  29.706  1.00  0.00     0.062 A 
ATOM     17  C   UNL     1      32.509 -96.092  29.217  1.00  0.00     0.158 A 
BRANCH  15  18
ATOM     18  O   UNL     1      30.824 -94.912  27.855  1.00  0.00    -0.504 OA
ATOM     19  H   UNL     1      30.532 -94.178  27.226  1.00  0.00     0.293 HD
ENDBRANCH  15  18
BRANCH  17  20
ATOM     20  O   UNL     1      31.641 -97.122  29.587  1.00  0.00    -0.504 OA
ATOM     21  H   UNL     1      31.194 -97.187  30.489  1.00  0.00     0.293 HD
ENDBRANCH  17  20
ENDBRANCH   1  12
BRANCH   2  22
ATOM     22  O   UNL     1      36.965 -96.041  27.751  1.00  0.00    -0.502 OA
ATOM     23  H   UNL     1      37.707 -96.181  27.075  1.00  0.00     0.293 HD
ENDBRANCH   2  22
BRANCH   6  24
ATOM     24  O   UNL     1      41.225 -95.272  30.854  1.00  0.00    -0.507 OA
ATOM     25  H   UNL     1      41.905 -95.981  31.085  1.00  0.00     0.293 HD
ENDBRANCH   6  24
BRANCH   8  26
ATOM     26  O   UNL     1      39.060 -94.125  34.985  1.00  0.00    -0.508 OA
ATOM     27  H   UNL     1      38.605 -94.680  35.701  1.00  0.00     0.293 HD
ENDBRANCH   8  26
TORSDOF 6
ENDMDL
MODEL 6
REMARK VINA RESULT:    -5.393      8.052     10.695
REMARK INTER + INTRA:          -6.637
REMARK INTER:                  -6.393
REMARK INTRA:                  -0.244
REMARK UNBOUND:                -0.140
REMARK SMILES O=c1c(O)c(-c2ccc(O)c(O)c2)oc2cc(O)cc(O)c12
REMARK SMILES IDX 5 1 3 2 2 3 1 4 22 5 20 6 19 7 17 8 16 9 15 10 14 11 6 12
REMARK SMILES IDX 7 13 8 14 9 15 13 16 11 17 10 18 12 20 4 22 21 24 18 26
REMARK H PARENT 10 19 12 21 4 23 21 25 18 27
REMARK Flexibility Score: inf
ROOT
ATOM      1  C   UNL     1      40.012 -95.148  35.370  1.00  0.00     0.180 A 
ATOM      2  C   UNL     1      41.132 -94.783  36.137  1.00  0.00     0.208 A 
ATOM      3  C   UNL     1      41.043 -94.833  37.538  1.00  0.00     0.238 A 
ATOM      4  O   UNL     1      42.066 -94.557  38.217  1.00  0.00    -0.285 OA
ATOM      5  C   UNL     1      39.832 -95.231  38.153  1.00  0.00     0.111 A 
ATOM      6  C   UNL     1      39.619 -95.279  39.563  1.00  0.00     0.134 A 
ATOM      7  C   UNL     1      38.424 -95.813  40.063  1.00  0.00     0.093 A 
ATOM      8  C   UNL     1      37.410 -96.239  39.201  1.00  0.00     0.123 A 
ATOM      9  C   UNL     1      37.586 -96.141  37.824  1.00  0.00     0.094 A 
ATOM     10  C   UNL     1      38.782 -95.646  37.295  1.00  0.00     0.146 A 
ATOM     11  O   UNL     1      38.912 -95.580  35.976  1.00  0.00    -0.452 OA
ENDROOT
BRANCH   1  12
ATOM     12  C   UNL     1      40.021 -95.098  33.889  1.00  0.00     0.025 A 
ATOM     13  C   UNL     1      39.359 -94.051  33.231  1.00  0.00     0.016 A 
ATOM     14  C   UNL     1      39.372 -93.975  31.837  1.00  0.00     0.051 A 
ATOM     15  C   UNL     1      40.056 -94.928  31.075  1.00  0.00     0.157 A 
ATOM     16  C   UNL     1      40.728 -96.044  33.129  1.00  0.00     0.062 A 
ATOM     17  C   UNL     1      40.749 -95.973  31.730  1.00  0.00     0.158 A 
BRANCH  15  18
ATOM     18  O   UNL     1      40.024 -94.798  29.686  1.00  0.00    -0.504 OA
ATOM     19  H   UNL     1      39.990 -93.912  29.202  1.00  0.00     0.293 HD
ENDBRANCH  15  18
BRANCH  17  20
ATOM     20  O   UNL     1      41.470 -96.949  31.039  1.00  0.00    -0.504 OA
ATOM     21  H   UNL     1      41.404 -97.938  31.226  1.00  0.00     0.293 HD
ENDBRANCH  17  20
ENDBRANCH   1  12
BRANCH   2  22
ATOM     22  O   UNL     1      42.324 -94.414  35.508  1.00  0.00    -0.502 OA
ATOM     23  H   UNL     1      43.175 -94.222  36.024  1.00  0.00     0.293 HD
ENDBRANCH   2  22
BRANCH   6  24
ATOM     24  O   UNL     1      40.528 -94.793  40.508  1.00  0.00    -0.507 OA
ATOM     25  H   UNL     1      40.701 -95.214  41.408  1.00  0.00     0.293 HD
ENDBRANCH   6  24
BRANCH   8  26
ATOM     26  O   UNL     1      36.219 -96.755  39.707  1.00  0.00    -0.508 OA
ATOM     27  H   UNL     1      35.390 -96.179  39.799  1.00  0.00     0.293 HD
ENDBRANCH   8  26
TORSDOF 6
ENDMDL
MODEL 7
REMARK VINA RESULT:    -5.128     15.021     16.624
REMARK INTER + INTRA:          -6.317
REMARK INTER:                  -6.000
REMARK INTRA:                  -0.316
REMARK UNBOUND:                -0.140
REMARK SMILES O=c1c(O)c(-c2ccc(O)c(O)c2)oc2cc(O)cc(O)c12
REMARK SMILES IDX 5 1 3 2 2 3 1 4 22 5 20 6 19 7 17 8 16 9 15 10 14 11 6 12
REMARK SMILES IDX 7 13 8 14 9 15 13 16 11 17 10 18 12 20 4 22 21 24 18 26
REMARK H PARENT 10 19 12 21 4 23 21 25 18 27
REMARK Flexibility Score: inf
ROOT
ATOM      1  C   UNL     1      37.329 -77.848  37.687  1.00  0.00     0.180 A 
ATOM      2  C   UNL     1      37.881 -77.638  36.411  1.00  0.00     0.208 A 
ATOM      3  C   UNL     1      37.020 -77.516  35.308  1.00  0.00     0.238 A 
ATOM      4  O   UNL     1      37.518 -77.273  34.178  1.00  0.00    -0.285 OA
ATOM      5  C   UNL     1      35.620 -77.622  35.491  1.00  0.00     0.111 A 
ATOM      6  C   UNL     1      34.659 -77.555  34.439  1.00  0.00     0.134 A 
ATOM      7  C   UNL     1      33.294 -77.542  34.752  1.00  0.00     0.093 A 
ATOM      8  C   UNL     1      32.856 -77.659  36.073  1.00  0.00     0.123 A 
ATOM      9  C   UNL     1      33.787 -77.786  37.102  1.00  0.00     0.094 A 
ATOM     10  C   UNL     1      35.156 -77.766  36.825  1.00  0.00     0.146 A 
ATOM     11  O   UNL     1      36.009 -77.878  37.835  1.00  0.00    -0.452 OA
ENDROOT
BRANCH   1  12
ATOM     12  C   UNL     1      38.172 -78.011  38.893  1.00  0.00     0.025 A 
ATOM     13  C   UNL     1      38.591 -76.875  39.600  1.00  0.00     0.016 A 
ATOM     14  C   UNL     1      39.370 -77.008  40.751  1.00  0.00     0.051 A 
ATOM     15  C   UNL     1      39.731 -78.273  41.229  1.00  0.00     0.157 A 
ATOM     16  C   UNL     1      38.513 -79.284  39.381  1.00  0.00     0.062 A 
ATOM     17  C   UNL     1      39.291 -79.426  40.538  1.00  0.00     0.158 A 
BRANCH  15  18
ATOM     18  O   UNL     1      40.516 -78.336  42.380  1.00  0.00    -0.504 OA
ATOM     19  H   UNL     1      41.475 -78.020  42.428  1.00  0.00     0.293 HD
ENDBRANCH  15  18
BRANCH  17  20
ATOM     20  O   UNL     1      39.594 -80.722  40.964  1.00  0.00    -0.504 OA
ATOM     21  H   UNL     1      39.816 -80.965  41.918  1.00  0.00     0.293 HD
ENDBRANCH  17  20
ENDBRANCH   1  12
BRANCH   2  22
ATOM     22  O   UNL     1      39.264 -77.514  36.256  1.00  0.00    -0.502 OA
ATOM     23  H   UNL     1      39.910 -78.246  36.526  1.00  0.00     0.293 HD
ENDBRANCH   2  22
BRANCH   6  24
ATOM     24  O   UNL     1      34.989 -77.528  33.081  1.00  0.00    -0.507 OA
ATOM     25  H   UNL     1      35.497 -76.784  32.628  1.00  0.00     0.293 HD
ENDBRANCH   6  24
BRANCH   8  26
ATOM     26  O   UNL     1      31.495 -77.661  36.374  1.00  0.00    -0.508 OA
ATOM     27  H   UNL     1      30.997 -76.803  36.578  1.00  0.00     0.293 HD
ENDBRANCH   8  26
TORSDOF 6
ENDMDL
MODEL 8
REMARK VINA RESULT:    -4.909      8.640     10.725
REMARK INTER + INTRA:          -6.053
REMARK INTER:                  -5.733
REMARK INTRA:                  -0.320
REMARK UNBOUND:                -0.140
REMARK SMILES O=c1c(O)c(-c2ccc(O)c(O)c2)oc2cc(O)cc(O)c12
REMARK SMILES IDX 5 1 3 2 2 3 1 4 22 5 20 6 19 7 17 8 16 9 15 10 14 11 6 12
REMARK SMILES IDX 7 13 8 14 9 15 13 16 11 17 10 18 12 20 4 22 21 24 18 26
REMARK H PARENT 10 19 12 21 4 23 21 25 18 27
REMARK Flexibility Score: inf
ROOT
ATOM      1  C   UNL     1      39.558 -95.633  35.761  1.00  0.00     0.180 A 
ATOM      2  C   UNL     1      38.299 -95.575  35.139  1.00  0.00     0.208 A 
ATOM      3  C   UNL     1      38.234 -95.488  33.739  1.00  0.00     0.238 A 
ATOM      4  O   UNL     1      37.103 -95.491  33.186  1.00  0.00    -0.285 OA
ATOM      5  C   UNL     1      39.428 -95.445  32.979  1.00  0.00     0.111 A 
ATOM      6  C   UNL     1      39.479 -95.316  31.559  1.00  0.00     0.134 A 
ATOM      7  C   UNL     1      40.712 -95.415  30.902  1.00  0.00     0.093 A 
ATOM      8  C   UNL     1      41.900 -95.572  31.619  1.00  0.00     0.123 A 
ATOM      9  C   UNL     1      41.866 -95.638  33.009  1.00  0.00     0.094 A 
ATOM     10  C   UNL     1      40.647 -95.579  33.692  1.00  0.00     0.146 A 
ATOM     11  O   UNL     1      40.658 -95.657  35.016  1.00  0.00    -0.452 OA
ENDROOT
BRANCH   1  12
ATOM     12  C   UNL     1      39.708 -95.701  37.233  1.00  0.00     0.025 A 
ATOM     13  C   UNL     1      39.970 -96.936  37.843  1.00  0.00     0.016 A 
ATOM     14  C   UNL     1      40.134 -97.018  39.227  1.00  0.00     0.051 A 
ATOM     15  C   UNL     1      40.058 -95.871  40.026  1.00  0.00     0.157 A 
ATOM     16  C   UNL     1      39.654 -94.544  38.027  1.00  0.00     0.062 A 
ATOM     17  C   UNL     1      39.821 -94.617  39.417  1.00  0.00     0.158 A 
BRANCH  15  18
ATOM     18  O   UNL     1      40.225 -96.023  41.403  1.00  0.00    -0.504 OA
ATOM     19  H   UNL     1      40.825 -96.717  41.825  1.00  0.00     0.293 HD
ENDBRANCH  15  18
BRANCH  17  20
ATOM     20  O   UNL     1      39.752 -93.426  40.145  1.00  0.00    -0.504 OA
ATOM     21  H   UNL     1      40.151 -93.303  41.063  1.00  0.00     0.293 HD
ENDBRANCH  17  20
ENDBRANCH   1  12
BRANCH   2  22
ATOM     22  O   UNL     1      37.133 -95.642  35.907  1.00  0.00    -0.502 OA
ATOM     23  H   UNL     1      36.949 -96.400  36.552  1.00  0.00     0.293 HD
ENDBRANCH   2  22
BRANCH   6  24
ATOM     24  O   UNL     1      38.362 -95.065  30.757  1.00  0.00    -0.507 OA
ATOM     25  H   UNL     1      38.117 -95.592  29.932  1.00  0.00     0.293 HD
ENDBRANCH   6  24
BRANCH   8  26
ATOM     26  O   UNL     1      43.124 -95.654  30.958  1.00  0.00    -0.508 OA
ATOM     27  H   UNL     1      43.978 -95.885  31.452  1.00  0.00     0.293 HD
ENDBRANCH   8  26
TORSDOF 6
ENDMDL
