MODEL 1
REMARK VINA RESULT:    -5.388      0.000      0.000
REMARK INTER + INTRA:         -14.219
REMARK INTER:                 -12.318
REMARK INTRA:                  -1.900
REMARK UNBOUND:                -1.900
REMARK SMILES CCCCCCCCCCCCCCCCCCCCCCCC(=O)[O-]
REMARK SMILES IDX 13 1 14 2 15 3 16 4 17 5 18 6 19 7 20 8 21 9 22 10 23 11
REMARK SMILES IDX 24 12 25 13 26 14 12 15 11 16 10 17 9 18 8 19 7 20 6 21 5 22
REMARK SMILES IDX 4 23 3 24 2 25 1 26
REMARK H PARENT
REMARK Flexibility Score: inf
ROOT
ATOM      1  C   UNL     1      48.638  62.112  92.986  1.00  0.00     0.000 C 
ENDROOT
BRANCH   1   2
ATOM      2  C   UNL     1      49.113  63.565  93.148  1.00  0.00     0.000 C 
BRANCH   2   3
ATOM      3  C   UNL     1      48.096  64.590  92.617  1.00  0.00     0.000 C 
BRANCH   3   4
ATOM      4  C   UNL     1      47.983  65.884  93.447  1.00  0.00     0.000 C 
BRANCH   4   5
ATOM      5  C   UNL     1      47.534  67.130  92.657  1.00  0.00     0.000 C 
BRANCH   5   6
ATOM      6  C   UNL     1      47.198  66.873  91.175  1.00  0.00     0.000 C 
BRANCH   6   7
ATOM      7  C   UNL     1      48.386  67.020  90.203  1.00  0.00     0.000 C 
BRANCH   7   8
ATOM      8  C   UNL     1      49.551  67.887  90.721  1.00  0.00     0.000 C 
BRANCH   8   9
ATOM      9  C   UNL     1      50.830  67.109  91.078  1.00  0.00     0.000 C 
BRANCH   9  10
ATOM     10  C   UNL     1      51.265  67.312  92.536  1.00  0.00     0.006 C 
BRANCH  10  11
ATOM     11  C   UNL     1      52.684  67.885  92.610  1.00  0.00     0.053 C 
BRANCH  11  12
ATOM     12  C   UNL     1      53.321  67.551  93.921  1.00  0.00     0.041 C 
ATOM     13  O   UNL     1      54.529  67.198  93.967  1.00  0.00    -0.550 OA
ATOM     14  O   UNL     1      52.596  67.674  95.099  1.00  0.00    -0.550 OA
ENDBRANCH  11  12
ENDBRANCH  10  11
ENDBRANCH   9  10
ENDBRANCH   8   9
ENDBRANCH   7   8
ENDBRANCH   6   7
ENDBRANCH   5   6
ENDBRANCH   4   5
ENDBRANCH   3   4
ENDBRANCH   2   3
ENDBRANCH   1   2
BRANCH   1  15
ATOM     15  C   UNL     1      49.744  61.126  93.382  1.00  0.00     0.000 C 
BRANCH  15  16
ATOM     16  C   UNL     1      49.718  60.847  94.892  1.00  0.00     0.000 C 
BRANCH  16  17
ATOM     17  C   UNL     1      49.427  59.373  95.220  1.00  0.00     0.000 C 
BRANCH  17  18
ATOM     18  C   UNL     1      50.216  58.350  94.379  1.00  0.00    -0.000 C 
BRANCH  18  19
ATOM     19  C   UNL     1      51.382  57.658  95.112  1.00  0.00    -0.000 C 
BRANCH  19  20
ATOM     20  C   UNL     1      52.574  57.271  94.219  1.00  0.00    -0.000 C 
BRANCH  20  21
ATOM     21  C   UNL     1      52.894  58.335  93.154  1.00  0.00    -0.000 C 
BRANCH  21  22
ATOM     22  C   UNL     1      52.510  57.876  91.730  1.00  0.00    -0.000 C 
BRANCH  22  23
ATOM     23  C   UNL     1      51.745  56.539  91.689  1.00  0.00    -0.000 C 
BRANCH  23  24
ATOM     24  C   UNL     1      52.168  55.585  90.560  1.00  0.00    -0.000 C 
BRANCH  24  25
ATOM     25  C   UNL     1      52.174  54.111  90.990  1.00  0.00    -0.003 C 
ATOM     26  C   UNL     1      52.260  53.986  92.508  1.00  0.00     0.004 C 
ENDBRANCH  24  25
ENDBRANCH  23  24
ENDBRANCH  22  23
ENDBRANCH  21  22
ENDBRANCH  20  21
ENDBRANCH  19  20
ENDBRANCH  18  19
ENDBRANCH  17  18
ENDBRANCH  16  17
ENDBRANCH  15  16
ENDBRANCH   1  15
TORSDOF 22
ENDMDL
MODEL 2
REMARK VINA RESULT:    -5.021      4.057     10.291
REMARK INTER + INTRA:         -13.379
REMARK INTER:                 -11.738
REMARK INTRA:                  -1.641
REMARK UNBOUND:                -1.900
REMARK SMILES CCCCCCCCCCCCCCCCCCCCCCCC(=O)[O-]
REMARK SMILES IDX 13 1 14 2 15 3 16 4 17 5 18 6 19 7 20 8 21 9 22 10 23 11
REMARK SMILES IDX 24 12 25 13 26 14 12 15 11 16 10 17 9 18 8 19 7 20 6 21 5 22
REMARK SMILES IDX 4 23 3 24 2 25 1 26
REMARK H PARENT
REMARK Flexibility Score: inf
ROOT
ATOM      1  C   UNL     1      48.178  63.173  92.617  1.00  0.00     0.000 C 
ENDROOT
BRANCH   1   2
ATOM      2  C   UNL     1      48.616  61.723  92.877  1.00  0.00     0.000 C 
BRANCH   2   3
ATOM      3  C   UNL     1      50.133  61.584  93.088  1.00  0.00     0.000 C 
BRANCH   3   4
ATOM      4  C   UNL     1      50.546  60.848  94.378  1.00  0.00     0.000 C 
BRANCH   4   5
ATOM      5  C   UNL     1      49.413  60.073  95.080  1.00  0.00     0.000 C 
BRANCH   5   6
ATOM      6  C   UNL     1      49.589  58.542  95.102  1.00  0.00     0.000 C 
BRANCH   6   7
ATOM      7  C   UNL     1      50.886  58.027  94.447  1.00  0.00     0.000 C 
BRANCH   7   8
ATOM      8  C   UNL     1      50.778  57.717  92.940  1.00  0.00     0.000 C 
BRANCH   8   9
ATOM      9  C   UNL     1      51.457  56.409  92.497  1.00  0.00     0.000 C 
BRANCH   9  10
ATOM     10  C   UNL     1      52.279  55.754  93.616  1.00  0.00     0.006 C 
BRANCH  10  11
ATOM     11  C   UNL     1      52.845  54.404  93.162  1.00  0.00     0.053 C 
BRANCH  11  12
ATOM     12  C   UNL     1      52.031  53.839  92.042  1.00  0.00     0.041 C 
ATOM     13  O   UNL     1      52.380  54.030  90.847  1.00  0.00    -0.550 OA
ATOM     14  O   UNL     1      50.912  53.064  92.316  1.00  0.00    -0.550 OA
ENDBRANCH  11  12
ENDBRANCH  10  11
ENDBRANCH   9  10
ENDBRANCH   8   9
ENDBRANCH   7   8
ENDBRANCH   6   7
ENDBRANCH   5   6
ENDBRANCH   4   5
ENDBRANCH   3   4
ENDBRANCH   2   3
ENDBRANCH   1   2
BRANCH   1  15
ATOM     15  C   UNL     1      49.148  64.164  93.271  1.00  0.00     0.000 C 
BRANCH  15  16
ATOM     16  C   UNL     1      48.541  65.574  93.327  1.00  0.00     0.000 C 
BRANCH  16  17
ATOM     17  C   UNL     1      47.297  65.723  92.434  1.00  0.00     0.000 C 
BRANCH  17  18
ATOM     18  C   UNL     1      47.156  67.090  91.737  1.00  0.00    -0.000 C 
BRANCH  18  19
ATOM     19  C   UNL     1      48.475  67.859  91.528  1.00  0.00    -0.000 C 
BRANCH  19  20
ATOM     20  C   UNL     1      49.335  67.368  90.350  1.00  0.00    -0.000 C 
BRANCH  20  21
ATOM     21  C   UNL     1      50.841  67.367  90.667  1.00  0.00    -0.000 C 
BRANCH  21  22
ATOM     22  C   UNL     1      51.145  67.931  92.073  1.00  0.00    -0.000 C 
BRANCH  22  23
ATOM     23  C   UNL     1      51.963  66.978  92.966  1.00  0.00    -0.000 C 
BRANCH  23  24
ATOM     24  C   UNL     1      52.781  67.668  94.070  1.00  0.00    -0.000 C 
BRANCH  24  25
ATOM     25  C   UNL     1      54.293  67.640  93.803  1.00  0.00    -0.003 C 
ATOM     26  C   UNL     1      55.080  67.746  95.104  1.00  0.00     0.004 C 
ENDBRANCH  24  25
ENDBRANCH  23  24
ENDBRANCH  22  23
ENDBRANCH  21  22
ENDBRANCH  20  21
ENDBRANCH  19  20
ENDBRANCH  18  19
ENDBRANCH  17  18
ENDBRANCH  16  17
ENDBRANCH  15  16
ENDBRANCH   1  15
TORSDOF 22
ENDMDL
MODEL 3
REMARK VINA RESULT:    -5.012      1.656      2.799
REMARK INTER + INTRA:         -13.358
REMARK INTER:                 -11.098
REMARK INTRA:                  -2.260
REMARK UNBOUND:                -1.900
REMARK SMILES CCCCCCCCCCCCCCCCCCCCCCCC(=O)[O-]
REMARK SMILES IDX 13 1 14 2 15 3 16 4 17 5 18 6 19 7 20 8 21 9 22 10 23 11
REMARK SMILES IDX 24 12 25 13 26 14 12 15 11 16 10 17 9 18 8 19 7 20 6 21 5 22
REMARK SMILES IDX 4 23 3 24 2 25 1 26
REMARK H PARENT
REMARK Flexibility Score: inf
ROOT
ATOM      1  C   UNL     1      47.630  63.853  92.270  1.00  0.00     0.000 C 
ENDROOT
BRANCH   1   2
ATOM      2  C   UNL     1      48.648  64.753  92.987  1.00  0.00     0.000 C 
BRANCH   2   3
ATOM      3  C   UNL     1      48.081  66.140  93.335  1.00  0.00     0.000 C 
BRANCH   3   4
ATOM      4  C   UNL     1      46.905  66.603  92.451  1.00  0.00     0.000 C 
BRANCH   4   5
ATOM      5  C   UNL     1      47.310  67.295  91.134  1.00  0.00     0.000 C 
BRANCH   5   6
ATOM      6  C   UNL     1      48.611  68.119  91.206  1.00  0.00     0.000 C 
BRANCH   6   7
ATOM      7  C   UNL     1      49.833  67.467  90.531  1.00  0.00     0.000 C 
BRANCH   7   8
ATOM      8  C   UNL     1      51.176  67.688  91.255  1.00  0.00     0.000 C 
BRANCH   8   9
ATOM      9  C   UNL     1      51.088  67.710  92.792  1.00  0.00     0.000 C 
BRANCH   9  10
ATOM     10  C   UNL     1      52.246  66.962  93.467  1.00  0.00     0.006 C 
BRANCH  10  11
ATOM     11  C   UNL     1      52.901  67.827  94.548  1.00  0.00     0.053 C 
BRANCH  11  12
ATOM     12  C   UNL     1      54.389  67.821  94.400  1.00  0.00     0.041 C 
ATOM     13  O   UNL     1      55.127  67.786  95.420  1.00  0.00    -0.550 OA
ATOM     14  O   UNL     1      54.964  67.807  93.136  1.00  0.00    -0.550 OA
ENDBRANCH  11  12
ENDBRANCH  10  11
ENDBRANCH   9  10
ENDBRANCH   8   9
ENDBRANCH   7   8
ENDBRANCH   6   7
ENDBRANCH   5   6
ENDBRANCH   4   5
ENDBRANCH   3   4
ENDBRANCH   2   3
ENDBRANCH   1   2
BRANCH   1  15
ATOM     15  C   UNL     1      47.881  62.375  92.592  1.00  0.00     0.000 C 
BRANCH  15  16
ATOM     16  C   UNL     1      49.161  62.202  93.423  1.00  0.00     0.000 C 
BRANCH  16  17
ATOM     17  C   UNL     1      49.631  60.739  93.494  1.00  0.00     0.000 C 
BRANCH  17  18
ATOM     18  C   UNL     1      49.956  60.228  94.912  1.00  0.00    -0.000 C 
BRANCH  18  19
ATOM     19  C   UNL     1      49.591  58.755  95.178  1.00  0.00    -0.000 C 
BRANCH  19  20
ATOM     20  C   UNL     1      50.295  57.736  94.264  1.00  0.00    -0.000 C 
BRANCH  20  21
ATOM     21  C   UNL     1      51.645  57.257  94.827  1.00  0.00    -0.000 C 
BRANCH  21  22
ATOM     22  C   UNL     1      52.765  57.278  93.765  1.00  0.00    -0.000 C 
BRANCH  22  23
ATOM     23  C   UNL     1      53.267  58.691  93.412  1.00  0.00    -0.000 C 
BRANCH  23  24
ATOM     24  C   UNL     1      53.337  58.996  91.906  1.00  0.00    -0.000 C 
BRANCH  24  25
ATOM     25  C   UNL     1      52.755  60.370  91.545  1.00  0.00    -0.003 C 
ATOM     26  C   UNL     1      52.890  61.344  92.711  1.00  0.00     0.004 C 
ENDBRANCH  24  25
ENDBRANCH  23  24
ENDBRANCH  22  23
ENDBRANCH  21  22
ENDBRANCH  20  21
ENDBRANCH  19  20
ENDBRANCH  18  19
ENDBRANCH  17  18
ENDBRANCH  16  17
ENDBRANCH  15  16
ENDBRANCH   1  15
TORSDOF 22
ENDMDL
MODEL 4
REMARK VINA RESULT:    -4.994      2.854      4.071
REMARK INTER + INTRA:         -13.317
REMARK INTER:                 -10.846
REMARK INTRA:                  -2.470
REMARK UNBOUND:                -1.900
REMARK SMILES CCCCCCCCCCCCCCCCCCCCCCCC(=O)[O-]
REMARK SMILES IDX 13 1 14 2 15 3 16 4 17 5 18 6 19 7 20 8 21 9 22 10 23 11
REMARK SMILES IDX 24 12 25 13 26 14 12 15 11 16 10 17 9 18 8 19 7 20 6 21 5 22
REMARK SMILES IDX 4 23 3 24 2 25 1 26
REMARK H PARENT
REMARK Flexibility Score: inf
ROOT
ATOM      1  C   UNL     1      48.313  62.105  92.888  1.00  0.00     0.000 C 
ENDROOT
BRANCH   1   2
ATOM      2  C   UNL     1      48.191  63.614  92.625  1.00  0.00     0.000 C 
BRANCH   2   3
ATOM      3  C   UNL     1      49.380  64.417  93.180  1.00  0.00     0.000 C 
BRANCH   3   4
ATOM      4  C   UNL     1      48.997  65.626  94.056  1.00  0.00     0.000 C 
BRANCH   4   5
ATOM      5  C   UNL     1      49.735  66.937  93.720  1.00  0.00     0.000 C 
BRANCH   5   6
ATOM      6  C   UNL     1      50.819  66.812  92.631  1.00  0.00     0.000 C 
BRANCH   6   7
ATOM      7  C   UNL     1      50.672  67.792  91.450  1.00  0.00     0.000 C 
BRANCH   7   8
ATOM      8  C   UNL     1      49.631  67.384  90.388  1.00  0.00     0.000 C 
BRANCH   8   9
ATOM      9  C   UNL     1      48.175  67.743  90.734  1.00  0.00     0.000 C 
BRANCH   9  10
ATOM     10  C   UNL     1      47.252  66.517  90.777  1.00  0.00     0.006 C 
BRANCH  10  11
ATOM     11  C   UNL     1      46.331  66.566  92.000  1.00  0.00     0.053 C 
BRANCH  11  12
ATOM     12  C   UNL     1      45.086  65.775  91.756  1.00  0.00     0.041 C 
ATOM     13  O   UNL     1      44.122  66.289  91.129  1.00  0.00    -0.550 OA
ATOM     14  O   UNL     1      45.005  64.455  92.180  1.00  0.00    -0.550 OA
ENDBRANCH  11  12
ENDBRANCH  10  11
ENDBRANCH   9  10
ENDBRANCH   8   9
ENDBRANCH   7   8
ENDBRANCH   6   7
ENDBRANCH   5   6
ENDBRANCH   4   5
ENDBRANCH   3   4
ENDBRANCH   2   3
ENDBRANCH   1   2
BRANCH   1  15
ATOM     15  C   UNL     1      49.718  61.747  93.387  1.00  0.00     0.000 C 
BRANCH  15  16
ATOM     16  C   UNL     1      49.652  60.958  94.703  1.00  0.00     0.000 C 
BRANCH  16  17
ATOM     17  C   UNL     1      50.111  59.498  94.545  1.00  0.00     0.000 C 
BRANCH  17  18
ATOM     18  C   UNL     1      50.099  58.964  93.099  1.00  0.00    -0.000 C 
BRANCH  18  19
ATOM     19  C   UNL     1      51.421  58.332  92.622  1.00  0.00    -0.000 C 
BRANCH  19  20
ATOM     20  C   UNL     1      52.666  58.741  93.429  1.00  0.00    -0.000 C 
BRANCH  20  21
ATOM     21  C   UNL     1      53.357  57.546  94.110  1.00  0.00    -0.000 C 
BRANCH  21  22
ATOM     22  C   UNL     1      52.373  56.692  94.938  1.00  0.00    -0.000 C 
BRANCH  22  23
ATOM     23  C   UNL     1      52.766  55.205  95.039  1.00  0.00    -0.000 C 
BRANCH  23  24
ATOM     24  C   UNL     1      53.214  54.563  93.716  1.00  0.00    -0.000 C 
BRANCH  24  25
ATOM     25  C   UNL     1      52.043  54.254  92.773  1.00  0.00    -0.003 C 
ATOM     26  C   UNL     1      52.130  55.090  91.501  1.00  0.00     0.004 C 
ENDBRANCH  24  25
ENDBRANCH  23  24
ENDBRANCH  22  23
ENDBRANCH  21  22
ENDBRANCH  20  21
ENDBRANCH  19  20
ENDBRANCH  18  19
ENDBRANCH  17  18
ENDBRANCH  16  17
ENDBRANCH  15  16
ENDBRANCH   1  15
TORSDOF 22
ENDMDL
MODEL 5
REMARK VINA RESULT:    -4.980      1.256      2.424
REMARK INTER + INTRA:         -13.286
REMARK INTER:                 -11.250
REMARK INTRA:                  -2.036
REMARK UNBOUND:                -1.900
REMARK SMILES CCCCCCCCCCCCCCCCCCCCCCCC(=O)[O-]
REMARK SMILES IDX 13 1 14 2 15 3 16 4 17 5 18 6 19 7 20 8 21 9 22 10 23 11
REMARK SMILES IDX 24 12 25 13 26 14 12 15 11 16 10 17 9 18 8 19 7 20 6 21 5 22
REMARK SMILES IDX 4 23 3 24 2 25 1 26
REMARK H PARENT
REMARK Flexibility Score: inf
ROOT
ATOM      1  C   UNL     1      49.866  61.649  93.486  1.00  0.00     0.000 C 
ENDROOT
BRANCH   1   2
ATOM      2  C   UNL     1      48.635  62.418  92.980  1.00  0.00     0.000 C 
BRANCH   2   3
ATOM      3  C   UNL     1      48.890  63.928  92.834  1.00  0.00     0.000 C 
BRANCH   3   4
ATOM      4  C   UNL     1      47.642  64.769  92.498  1.00  0.00     0.000 C 
BRANCH   4   5
ATOM      5  C   UNL     1      47.843  66.296  92.572  1.00  0.00     0.000 C 
BRANCH   5   6
ATOM      6  C   UNL     1      47.493  67.061  91.281  1.00  0.00     0.000 C 
BRANCH   6   7
ATOM      7  C   UNL     1      48.640  67.906  90.693  1.00  0.00     0.000 C 
BRANCH   7   8
ATOM      8  C   UNL     1      50.012  67.206  90.651  1.00  0.00     0.000 C 
BRANCH   8   9
ATOM      9  C   UNL     1      51.114  67.887  91.482  1.00  0.00     0.000 C 
BRANCH   9  10
ATOM     10  C   UNL     1      51.541  67.058  92.702  1.00  0.00     0.006 C 
BRANCH  10  11
ATOM     11  C   UNL     1      52.145  67.952  93.788  1.00  0.00     0.053 C 
BRANCH  11  12
ATOM     12  C   UNL     1      51.315  67.908  95.032  1.00  0.00     0.041 C 
ATOM     13  O   UNL     1      51.862  67.722  96.151  1.00  0.00    -0.550 OA
ATOM     14  O   UNL     1      49.944  68.116  94.962  1.00  0.00    -0.550 OA
ENDBRANCH  11  12
ENDBRANCH  10  11
ENDBRANCH   9  10
ENDBRANCH   8   9
ENDBRANCH   7   8
ENDBRANCH   6   7
ENDBRANCH   5   6
ENDBRANCH   4   5
ENDBRANCH   3   4
ENDBRANCH   2   3
ENDBRANCH   1   2
BRANCH   1  15
ATOM     15  C   UNL     1      49.645  61.140  94.915  1.00  0.00     0.000 C 
BRANCH  15  16
ATOM     16  C   UNL     1      49.695  59.606  94.968  1.00  0.00     0.000 C 
BRANCH  16  17
ATOM     17  C   UNL     1      50.548  58.999  93.841  1.00  0.00     0.000 C 
BRANCH  17  18
ATOM     18  C   UNL     1      50.115  57.591  93.384  1.00  0.00    -0.000 C 
BRANCH  18  19
ATOM     19  C   UNL     1      50.417  57.258  91.911  1.00  0.00    -0.000 C 
BRANCH  19  20
ATOM     20  C   UNL     1      51.909  57.084  91.576  1.00  0.00    -0.000 C 
BRANCH  20  21
ATOM     21  C   UNL     1      52.269  55.643  91.173  1.00  0.00    -0.000 C 
BRANCH  21  22
ATOM     22  C   UNL     1      51.734  54.601  92.180  1.00  0.00    -0.000 C 
BRANCH  22  23
ATOM     23  C   UNL     1      52.785  54.116  93.197  1.00  0.00    -0.000 C 
BRANCH  23  24
ATOM     24  C   UNL     1      53.279  55.191  94.180  1.00  0.00    -0.000 C 
BRANCH  24  25
ATOM     25  C   UNL     1      52.445  55.254  95.467  1.00  0.00    -0.003 C 
ATOM     26  C   UNL     1      52.468  56.658  96.064  1.00  0.00     0.004 C 
ENDBRANCH  24  25
ENDBRANCH  23  24
ENDBRANCH  22  23
ENDBRANCH  21  22
ENDBRANCH  20  21
ENDBRANCH  19  20
ENDBRANCH  18  19
ENDBRANCH  17  18
ENDBRANCH  16  17
ENDBRANCH  15  16
ENDBRANCH   1  15
TORSDOF 22
ENDMDL
MODEL 6
REMARK VINA RESULT:    -4.975      1.089      2.932
REMARK INTER + INTRA:         -13.273
REMARK INTER:                 -10.869
REMARK INTRA:                  -2.404
REMARK UNBOUND:                -1.900
REMARK SMILES CCCCCCCCCCCCCCCCCCCCCCCC(=O)[O-]
REMARK SMILES IDX 13 1 14 2 15 3 16 4 17 5 18 6 19 7 20 8 21 9 22 10 23 11
REMARK SMILES IDX 24 12 25 13 26 14 12 15 11 16 10 17 9 18 8 19 7 20 6 21 5 22
REMARK SMILES IDX 4 23 3 24 2 25 1 26
REMARK H PARENT
REMARK Flexibility Score: inf
ROOT
ATOM      1  C   UNL     1      49.628  59.901  94.054  1.00  0.00     0.000 C 
ENDROOT
BRANCH   1   2
ATOM      2  C   UNL     1      49.708  61.348  94.565  1.00  0.00     0.000 C 
BRANCH   2   3
ATOM      3  C   UNL     1      49.868  62.376  93.431  1.00  0.00     0.000 C 
BRANCH   3   4
ATOM      4  C   UNL     1      48.576  63.121  93.042  1.00  0.00     0.000 C 
BRANCH   4   5
ATOM      5  C   UNL     1      48.664  64.659  93.101  1.00  0.00     0.000 C 
BRANCH   5   6
ATOM      6  C   UNL     1      47.538  65.404  92.358  1.00  0.00     0.000 C 
BRANCH   6   7
ATOM      7  C   UNL     1      47.555  66.937  92.517  1.00  0.00     0.000 C 
BRANCH   7   8
ATOM      8  C   UNL     1      47.764  67.727  91.210  1.00  0.00     0.000 C 
BRANCH   8   9
ATOM      9  C   UNL     1      49.066  67.403  90.456  1.00  0.00     0.000 C 
BRANCH   9  10
ATOM     10  C   UNL     1      50.303  68.046  91.097  1.00  0.00     0.006 C 
BRANCH  10  11
ATOM     11  C   UNL     1      51.228  66.981  91.694  1.00  0.00     0.053 C 
BRANCH  11  12
ATOM     12  C   UNL     1      51.571  67.314  93.111  1.00  0.00     0.041 C 
ATOM     13  O   UNL     1      50.701  67.814  93.872  1.00  0.00    -0.550 OA
ATOM     14  O   UNL     1      52.837  67.031  93.607  1.00  0.00    -0.550 OA
ENDBRANCH  11  12
ENDBRANCH  10  11
ENDBRANCH   9  10
ENDBRANCH   8   9
ENDBRANCH   7   8
ENDBRANCH   6   7
ENDBRANCH   5   6
ENDBRANCH   4   5
ENDBRANCH   3   4
ENDBRANCH   2   3
ENDBRANCH   1   2
BRANCH   1  15
ATOM     15  C   UNL     1      49.730  58.903  95.214  1.00  0.00     0.000 C 
BRANCH  15  16
ATOM     16  C   UNL     1      50.371  57.586  94.753  1.00  0.00     0.000 C 
BRANCH  16  17
ATOM     17  C   UNL     1      51.838  57.450  95.197  1.00  0.00     0.000 C 
BRANCH  17  18
ATOM     18  C   UNL     1      52.332  56.000  95.373  1.00  0.00    -0.000 C 
BRANCH  18  19
ATOM     19  C   UNL     1      53.232  55.471  94.239  1.00  0.00    -0.000 C 
BRANCH  19  20
ATOM     20  C   UNL     1      52.739  54.177  93.568  1.00  0.00    -0.000 C 
BRANCH  20  21
ATOM     21  C   UNL     1      51.726  54.437  92.438  1.00  0.00    -0.000 C 
BRANCH  21  22
ATOM     22  C   UNL     1      52.403  54.954  91.150  1.00  0.00    -0.000 C 
BRANCH  22  23
ATOM     23  C   UNL     1      51.767  56.236  90.580  1.00  0.00    -0.000 C 
BRANCH  23  24
ATOM     24  C   UNL     1      51.678  57.410  91.570  1.00  0.00    -0.000 C 
BRANCH  24  25
ATOM     25  C   UNL     1      52.950  58.270  91.597  1.00  0.00    -0.003 C 
ATOM     26  C   UNL     1      52.791  59.450  92.549  1.00  0.00     0.004 C 
ENDBRANCH  24  25
ENDBRANCH  23  24
ENDBRANCH  22  23
ENDBRANCH  21  22
ENDBRANCH  20  21
ENDBRANCH  19  20
ENDBRANCH  18  19
ENDBRANCH  17  18
ENDBRANCH  16  17
ENDBRANCH  15  16
ENDBRANCH   1  15
TORSDOF 22
ENDMDL
MODEL 7
REMARK VINA RESULT:    -4.928      1.704      3.343
REMARK INTER + INTRA:         -13.167
REMARK INTER:                 -10.744
REMARK INTRA:                  -2.423
REMARK UNBOUND:                -1.900
REMARK SMILES CCCCCCCCCCCCCCCCCCCCCCCC(=O)[O-]
REMARK SMILES IDX 13 1 14 2 15 3 16 4 17 5 18 6 19 7 20 8 21 9 22 10 23 11
REMARK SMILES IDX 24 12 25 13 26 14 12 15 11 16 10 17 9 18 8 19 7 20 6 21 5 22
REMARK SMILES IDX 4 23 3 24 2 25 1 26
REMARK H PARENT
REMARK Flexibility Score: inf
ROOT
ATOM      1  C   UNL     1      51.464  61.848  93.391  1.00  0.00     0.000 C 
ENDROOT
BRANCH   1   2
ATOM      2  C   UNL     1      50.228  60.937  93.316  1.00  0.00     0.000 C 
BRANCH   2   3
ATOM      3  C   UNL     1      48.927  61.660  93.704  1.00  0.00     0.000 C 
BRANCH   3   4
ATOM      4  C   UNL     1      48.456  62.734  92.704  1.00  0.00     0.000 C 
BRANCH   4   5
ATOM      5  C   UNL     1      48.693  64.192  93.149  1.00  0.00     0.000 C 
BRANCH   5   6
ATOM      6  C   UNL     1      47.824  65.241  92.428  1.00  0.00     0.000 C 
BRANCH   6   7
ATOM      7  C   UNL     1      48.234  66.706  92.674  1.00  0.00     0.000 C 
BRANCH   7   8
ATOM      8  C   UNL     1      47.497  67.404  93.835  1.00  0.00     0.000 C 
BRANCH   8   9
ATOM      9  C   UNL     1      48.388  67.792  95.029  1.00  0.00     0.000 C 
BRANCH   9  10
ATOM     10  C   UNL     1      49.765  67.116  94.991  1.00  0.00     0.006 C 
BRANCH  10  11
ATOM     11  C   UNL     1      50.860  68.124  94.625  1.00  0.00     0.053 C 
BRANCH  11  12
ATOM     12  C   UNL     1      51.943  67.463  93.833  1.00  0.00     0.041 C 
ATOM     13  O   UNL     1      51.652  66.623  92.940  1.00  0.00    -0.550 OA
ATOM     14  O   UNL     1      53.272  67.806  94.047  1.00  0.00    -0.550 OA
ENDBRANCH  11  12
ENDBRANCH  10  11
ENDBRANCH   9  10
ENDBRANCH   8   9
ENDBRANCH   7   8
ENDBRANCH   6   7
ENDBRANCH   5   6
ENDBRANCH   4   5
ENDBRANCH   3   4
ENDBRANCH   2   3
ENDBRANCH   1   2
BRANCH   1  15
ATOM     15  C   UNL     1      52.742  61.067  93.063  1.00  0.00     0.000 C 
BRANCH  15  16
ATOM     16  C   UNL     1      52.919  60.911  91.545  1.00  0.00     0.000 C 
BRANCH  16  17
ATOM     17  C   UNL     1      53.542  59.560  91.155  1.00  0.00     0.000 C 
BRANCH  17  18
ATOM     18  C   UNL     1      53.190  58.386  92.090  1.00  0.00    -0.000 C 
BRANCH  18  19
ATOM     19  C   UNL     1      52.035  57.486  91.608  1.00  0.00    -0.000 C 
BRANCH  19  20
ATOM     20  C   UNL     1      50.656  57.827  92.200  1.00  0.00    -0.000 C 
BRANCH  20  21
ATOM     21  C   UNL     1      50.387  57.121  93.540  1.00  0.00    -0.000 C 
BRANCH  21  22
ATOM     22  C   UNL     1      51.031  57.861  94.733  1.00  0.00    -0.000 C 
BRANCH  22  23
ATOM     23  C   UNL     1      52.306  57.187  95.274  1.00  0.00    -0.000 C 
BRANCH  23  24
ATOM     24  C   UNL     1      52.291  55.650  95.239  1.00  0.00    -0.000 C 
BRANCH  24  25
ATOM     25  C   UNL     1      53.292  55.063  94.234  1.00  0.00    -0.003 C 
ATOM     26  C   UNL     1      52.579  54.223  93.180  1.00  0.00     0.004 C 
ENDBRANCH  24  25
ENDBRANCH  23  24
ENDBRANCH  22  23
ENDBRANCH  21  22
ENDBRANCH  20  21
ENDBRANCH  19  20
ENDBRANCH  18  19
ENDBRANCH  17  18
ENDBRANCH  16  17
ENDBRANCH  15  16
ENDBRANCH   1  15
TORSDOF 22
ENDMDL
MODEL 8
REMARK VINA RESULT:    -4.900      1.501      2.358
REMARK INTER + INTRA:         -13.102
REMARK INTER:                 -11.230
REMARK INTRA:                  -1.872
REMARK UNBOUND:                -1.900
REMARK SMILES CCCCCCCCCCCCCCCCCCCCCCCC(=O)[O-]
REMARK SMILES IDX 13 1 14 2 15 3 16 4 17 5 18 6 19 7 20 8 21 9 22 10 23 11
REMARK SMILES IDX 24 12 25 13 26 14 12 15 11 16 10 17 9 18 8 19 7 20 6 21 5 22
REMARK SMILES IDX 4 23 3 24 2 25 1 26
REMARK H PARENT
REMARK Flexibility Score: inf
ROOT
ATOM      1  C   UNL     1      49.008  63.947  93.401  1.00  0.00     0.000 C 
ENDROOT
BRANCH   1   2
ATOM      2  C   UNL     1      47.929  64.351  92.384  1.00  0.00     0.000 C 
BRANCH   2   3
ATOM      3  C   UNL     1      47.986  65.843  92.011  1.00  0.00     0.000 C 
BRANCH   3   4
ATOM      4  C   UNL     1      46.729  66.655  92.381  1.00  0.00     0.000 C 
BRANCH   4   5
ATOM      5  C   UNL     1      46.550  66.933  93.887  1.00  0.00     0.000 C 
BRANCH   5   6
ATOM      6  C   UNL     1      47.523  67.973  94.476  1.00  0.00     0.000 C 
BRANCH   6   7
ATOM      7  C   UNL     1      48.680  67.385  95.307  1.00  0.00     0.000 C 
BRANCH   7   8
ATOM      8  C   UNL     1      50.086  67.877  94.909  1.00  0.00     0.000 C 
BRANCH   8   9
ATOM      9  C   UNL     1      50.688  67.187  93.671  1.00  0.00     0.000 C 
BRANCH   9  10
ATOM     10  C   UNL     1      52.104  67.679  93.342  1.00  0.00     0.006 C 
BRANCH  10  11
ATOM     11  C   UNL     1      52.962  67.766  94.608  1.00  0.00     0.053 C 
BRANCH  11  12
ATOM     12  C   UNL     1      54.417  67.697  94.267  1.00  0.00     0.041 C 
ATOM     13  O   UNL     1      54.789  67.779  93.066  1.00  0.00    -0.550 OA
ATOM     14  O   UNL     1      55.365  67.590  95.275  1.00  0.00    -0.550 OA
ENDBRANCH  11  12
ENDBRANCH  10  11
ENDBRANCH   9  10
ENDBRANCH   8   9
ENDBRANCH   7   8
ENDBRANCH   6   7
ENDBRANCH   5   6
ENDBRANCH   4   5
ENDBRANCH   3   4
ENDBRANCH   2   3
ENDBRANCH   1   2
BRANCH   1  15
ATOM     15  C   UNL     1      49.639  62.601  93.025  1.00  0.00     0.000 C 
BRANCH  15  16
ATOM     16  C   UNL     1      48.940  61.442  93.753  1.00  0.00     0.000 C 
BRANCH  16  17
ATOM     17  C   UNL     1      49.807  60.830  94.866  1.00  0.00     0.000 C 
BRANCH  17  18
ATOM     18  C   UNL     1      50.002  59.303  94.774  1.00  0.00    -0.000 C 
BRANCH  18  19
ATOM     19  C   UNL     1      49.793  58.699  93.372  1.00  0.00    -0.000 C 
BRANCH  19  20
ATOM     20  C   UNL     1      51.038  58.032  92.760  1.00  0.00    -0.000 C 
BRANCH  20  21
ATOM     21  C   UNL     1      52.356  58.656  93.254  1.00  0.00    -0.000 C 
BRANCH  21  22
ATOM     22  C   UNL     1      53.275  57.619  93.937  1.00  0.00    -0.000 C 
BRANCH  22  23
ATOM     23  C   UNL     1      52.517  56.475  94.637  1.00  0.00    -0.000 C 
BRANCH  23  24
ATOM     24  C   UNL     1      52.774  55.076  94.053  1.00  0.00    -0.000 C 
BRANCH  24  25
ATOM     25  C   UNL     1      52.299  54.937  92.599  1.00  0.00    -0.003 C 
ATOM     26  C   UNL     1      51.781  53.529  92.325  1.00  0.00     0.004 C 
ENDBRANCH  24  25
ENDBRANCH  23  24
ENDBRANCH  22  23
ENDBRANCH  21  22
ENDBRANCH  20  21
ENDBRANCH  19  20
ENDBRANCH  18  19
ENDBRANCH  17  18
ENDBRANCH  16  17
ENDBRANCH  15  16
ENDBRANCH   1  15
TORSDOF 22
ENDMDL
MODEL 9
REMARK VINA RESULT:    -4.878      2.844      4.463
REMARK INTER + INTRA:         -13.051
REMARK INTER:                 -10.913
REMARK INTRA:                  -2.138
REMARK UNBOUND:                -1.900
REMARK SMILES CCCCCCCCCCCCCCCCCCCCCCCC(=O)[O-]
REMARK SMILES IDX 13 1 14 2 15 3 16 4 17 5 18 6 19 7 20 8 21 9 22 10 23 11
REMARK SMILES IDX 24 12 25 13 26 14 12 15 11 16 10 17 9 18 8 19 7 20 6 21 5 22
REMARK SMILES IDX 4 23 3 24 2 25 1 26
REMARK H PARENT
REMARK Flexibility Score: inf
ROOT
ATOM      1  C   UNL     1      49.343  63.631  93.606  1.00  0.00     0.000 C 
ENDROOT
BRANCH   1   2
ATOM      2  C   UNL     1      49.006  65.095  93.283  1.00  0.00     0.000 C 
BRANCH   2   3
ATOM      3  C   UNL     1      49.022  66.002  94.526  1.00  0.00     0.000 C 
BRANCH   3   4
ATOM      4  C   UNL     1      49.311  67.489  94.243  1.00  0.00     0.000 C 
BRANCH   4   5
ATOM      5  C   UNL     1      50.797  67.836  94.022  1.00  0.00     0.000 C 
BRANCH   5   6
ATOM      6  C   UNL     1      51.410  67.272  92.724  1.00  0.00     0.000 C 
BRANCH   6   7
ATOM      7  C   UNL     1      51.031  68.035  91.440  1.00  0.00     0.000 C 
BRANCH   7   8
ATOM      8  C   UNL     1      49.990  67.333  90.545  1.00  0.00     0.000 C 
BRANCH   8   9
ATOM      9  C   UNL     1      48.549  67.853  90.695  1.00  0.00     0.000 C 
BRANCH   9  10
ATOM     10  C   UNL     1      47.503  66.730  90.673  1.00  0.00     0.006 C 
BRANCH  10  11
ATOM     11  C   UNL     1      46.449  66.941  91.765  1.00  0.00     0.053 C 
BRANCH  11  12
ATOM     12  C   UNL     1      45.389  65.889  91.686  1.00  0.00     0.041 C 
ATOM     13  O   UNL     1      44.297  66.133  91.107  1.00  0.00    -0.550 OA
ATOM     14  O   UNL     1      45.621  64.624  92.211  1.00  0.00    -0.550 OA
ENDBRANCH  11  12
ENDBRANCH  10  11
ENDBRANCH   9  10
ENDBRANCH   8   9
ENDBRANCH   7   8
ENDBRANCH   6   7
ENDBRANCH   5   6
ENDBRANCH   4   5
ENDBRANCH   3   4
ENDBRANCH   2   3
ENDBRANCH   1   2
BRANCH   1  15
ATOM     15  C   UNL     1      48.503  62.673  92.752  1.00  0.00     0.000 C 
BRANCH  15  16
ATOM     16  C   UNL     1      48.894  61.212  93.017  1.00  0.00     0.000 C 
BRANCH  16  17
ATOM     17  C   UNL     1      49.675  61.033  94.330  1.00  0.00     0.000 C 
BRANCH  17  18
ATOM     18  C   UNL     1      49.373  59.728  95.095  1.00  0.00    -0.000 C 
BRANCH  18  19
ATOM     19  C   UNL     1      50.265  58.528  94.723  1.00  0.00    -0.000 C 
BRANCH  19  20
ATOM     20  C   UNL     1      50.081  58.001  93.289  1.00  0.00    -0.000 C 
BRANCH  20  21
ATOM     21  C   UNL     1      51.096  56.905  92.919  1.00  0.00    -0.000 C 
BRANCH  21  22
ATOM     22  C   UNL     1      52.450  57.092  93.638  1.00  0.00    -0.000 C 
BRANCH  22  23
ATOM     23  C   UNL     1      53.129  58.445  93.353  1.00  0.00    -0.000 C 
BRANCH  23  24
ATOM     24  C   UNL     1      53.438  58.715  91.871  1.00  0.00    -0.000 C 
BRANCH  24  25
ATOM     25  C   UNL     1      52.950  60.092  91.398  1.00  0.00    -0.003 C 
ATOM     26  C   UNL     1      52.651  61.002  92.584  1.00  0.00     0.004 C 
ENDBRANCH  24  25
ENDBRANCH  23  24
ENDBRANCH  22  23
ENDBRANCH  21  22
ENDBRANCH  20  21
ENDBRANCH  19  20
ENDBRANCH  18  19
ENDBRANCH  17  18
ENDBRANCH  16  17
ENDBRANCH  15  16
ENDBRANCH   1  15
TORSDOF 22
ENDMDL
