MODEL 1
REMARK VINA RESULT:    -2.873      0.000      0.000
REMARK INTER + INTRA:          -2.873
REMARK INTER:                  -2.873
REMARK INTRA:                   0.000
REMARK UNBOUND:                 0.000
REMARK SMILES CC1(C)O[C@]2(C)CC[C@H]1CC2
REMARK SMILES IDX 1 1 2 2 9 3 8 4 7 5 5 6 4 7 11 8 10 9 6 10 3 11
REMARK H PARENT
REMARK Flexibility Score: inf
ROOT
ATOM      1  C   UNL     1      -6.509 -14.260  32.373  1.00  0.00     0.042 C 
ATOM      2  C   UNL     1      -6.922 -12.956  33.088  1.00  0.00     0.066 C 
ATOM      3  C   UNL     1      -5.875 -12.576  34.205  1.00  0.00     0.021 C 
ATOM      4  C   UNL     1      -5.875 -13.692  35.277  1.00  0.00     0.009 C 
ATOM      5  C   UNL     1      -7.330 -13.951  35.740  1.00  0.00     0.035 C 
ATOM      6  C   UNL     1      -8.292 -12.944  35.045  1.00  0.00     0.066 C 
ATOM      7  O   UNL     1      -8.237 -13.143  33.633  1.00  0.00    -0.369 OA
ATOM      8  C   UNL     1      -7.830 -11.495  35.376  1.00  0.00     0.035 C 
ATOM      9  C   UNL     1      -6.365 -11.295  34.922  1.00  0.00     0.009 C 
ATOM     10  C   UNL     1      -9.730 -13.168  35.522  1.00  0.00     0.042 C 
ATOM     11  C   UNL     1      -7.001 -11.848  32.015  1.00  0.00     0.042 C 
ENDROOT
TORSDOF 0
ENDMDL
MODEL 2
REMARK VINA RESULT:    -2.431      1.069      2.528
REMARK INTER + INTRA:          -2.431
REMARK INTER:                  -2.431
REMARK INTRA:                   0.000
REMARK UNBOUND:                 0.000
REMARK SMILES CC1(C)O[C@]2(C)CC[C@H]1CC2
REMARK SMILES IDX 1 1 2 2 9 3 8 4 7 5 5 6 4 7 11 8 10 9 6 10 3 11
REMARK H PARENT
REMARK Flexibility Score: inf
ROOT
ATOM      1  C   UNL     1      -6.996 -10.167  33.574  1.00  0.00     0.042 C 
ATOM      2  C   UNL     1      -6.758 -11.267  34.630  1.00  0.00     0.066 C 
ATOM      3  C   UNL     1      -6.041 -12.516  33.985  1.00  0.00     0.021 C 
ATOM      4  C   UNL     1      -6.980 -13.120  32.914  1.00  0.00     0.009 C 
ATOM      5  C   UNL     1      -8.375 -13.362  33.540  1.00  0.00     0.035 C 
ATOM      6  C   UNL     1      -8.343 -13.004  35.054  1.00  0.00     0.066 C 
ATOM      7  O   UNL     1      -8.027 -11.620  35.201  1.00  0.00    -0.369 OA
ATOM      8  C   UNL     1      -7.243 -13.857  35.750  1.00  0.00     0.035 C 
ATOM      9  C   UNL     1      -5.875 -13.604  35.073  1.00  0.00     0.009 C 
ATOM     10  C   UNL     1      -9.709 -13.271  35.693  1.00  0.00     0.042 C 
ATOM     11  C   UNL     1      -5.884 -10.653  35.745  1.00  0.00     0.042 C 
ENDROOT
TORSDOF 0
ENDMDL
MODEL 3
REMARK VINA RESULT:    -2.345      0.959      3.293
REMARK INTER + INTRA:          -2.345
REMARK INTER:                  -2.345
REMARK INTRA:                   0.000
REMARK UNBOUND:                 0.000
REMARK SMILES CC1(C)O[C@]2(C)CC[C@H]1CC2
REMARK SMILES IDX 1 1 2 2 9 3 8 4 7 5 5 6 4 7 11 8 10 9 6 10 3 11
REMARK H PARENT
REMARK Flexibility Score: inf
ROOT
ATOM      1  C   UNL     1      -8.777 -11.431  35.374  1.00  0.00     0.042 C 
ATOM      2  C   UNL     1      -8.073 -12.756  35.015  1.00  0.00     0.066 C 
ATOM      3  C   UNL     1      -6.540 -12.692  35.383  1.00  0.00     0.021 C 
ATOM      4  C   UNL     1      -5.877 -11.587  34.526  1.00  0.00     0.009 C 
ATOM      5  C   UNL     1      -6.229 -11.819  33.036  1.00  0.00     0.035 C 
ATOM      6  C   UNL     1      -7.052 -13.132  32.888  1.00  0.00     0.066 C 
ATOM      7  O   UNL     1      -8.274 -13.003  33.615  1.00  0.00    -0.369 OA
ATOM      8  C   UNL     1      -6.228 -14.313  33.476  1.00  0.00     0.035 C 
ATOM      9  C   UNL     1      -5.876 -14.023  34.954  1.00  0.00     0.009 C 
ATOM     10  C   UNL     1      -7.379 -13.391  31.414  1.00  0.00     0.042 C 
ATOM     11  C   UNL     1      -8.776 -13.881  35.806  1.00  0.00     0.042 C 
ENDROOT
TORSDOF 0
ENDMDL
MODEL 4
REMARK VINA RESULT:    -0.917      1.311      3.145
REMARK INTER + INTRA:          -0.917
REMARK INTER:                  -0.917
REMARK INTRA:                   0.000
REMARK UNBOUND:                 0.000
REMARK SMILES CC1(C)O[C@]2(C)CC[C@H]1CC2
REMARK SMILES IDX 1 1 2 2 9 3 8 4 7 5 5 6 4 7 11 8 10 9 6 10 3 11
REMARK H PARENT
REMARK Flexibility Score: inf
ROOT
ATOM      1  C   UNL     1      -5.875 -15.012  34.877  1.00  0.00     0.042 C 
ATOM      2  C   UNL     1      -6.944 -13.993  35.328  1.00  0.00     0.066 C 
ATOM      3  C   UNL     1      -7.945 -13.676  34.151  1.00  0.00     0.021 C 
ATOM      4  C   UNL     1      -7.153 -13.012  32.999  1.00  0.00     0.009 C 
ATOM      5  C   UNL     1      -6.338 -11.823  33.563  1.00  0.00     0.035 C 
ATOM      6  C   UNL     1      -6.656 -11.635  35.075  1.00  0.00     0.066 C 
ATOM      7  O   UNL     1      -6.269 -12.811  35.785  1.00  0.00    -0.369 OA
ATOM      8  C   UNL     1      -8.188 -11.416  35.244  1.00  0.00     0.035 C 
ATOM      9  C   UNL     1      -8.959 -12.614  34.641  1.00  0.00     0.009 C 
ATOM     10  C   UNL     1      -5.881 -10.439  35.637  1.00  0.00     0.042 C 
ATOM     11  C   UNL     1      -7.692 -14.611  36.529  1.00  0.00     0.042 C 
ENDROOT
TORSDOF 0
ENDMDL
MODEL 5
REMARK VINA RESULT:    -0.901      1.180      3.079
REMARK INTER + INTRA:          -0.901
REMARK INTER:                  -0.901
REMARK INTRA:                   0.000
REMARK UNBOUND:                 0.000
REMARK SMILES CC1(C)O[C@]2(C)CC[C@H]1CC2
REMARK SMILES IDX 1 1 2 2 9 3 8 4 7 5 5 6 4 7 11 8 10 9 6 10 3 11
REMARK H PARENT
REMARK Flexibility Score: inf
ROOT
ATOM      1  C   UNL     1      -5.876 -10.535  35.096  1.00  0.00     0.042 C 
ATOM      2  C   UNL     1      -7.125 -11.341  34.682  1.00  0.00     0.066 C 
ATOM      3  C   UNL     1      -7.140 -12.752  35.387  1.00  0.00     0.021 C 
ATOM      4  C   UNL     1      -5.909 -13.555  34.901  1.00  0.00     0.009 C 
ATOM      5  C   UNL     1      -5.877 -13.547  33.353  1.00  0.00     0.035 C 
ATOM      6  C   UNL     1      -7.136 -12.817  32.803  1.00  0.00     0.066 C 
ATOM      7  O   UNL     1      -7.124 -11.461  33.252  1.00  0.00    -0.369 OA
ATOM      8  C   UNL     1      -8.410 -13.525  33.350  1.00  0.00     0.035 C 
ATOM      9  C   UNL     1      -8.382 -13.533  34.897  1.00  0.00     0.009 C 
ATOM     10  C   UNL     1      -7.133 -12.832  31.272  1.00  0.00     0.042 C 
ATOM     11  C   UNL     1      -8.363 -10.514  35.092  1.00  0.00     0.042 C 
ENDROOT
TORSDOF 0
ENDMDL
MODEL 6
REMARK VINA RESULT:    -0.737      1.209      2.926
REMARK INTER + INTRA:          -0.737
REMARK INTER:                  -0.737
REMARK INTRA:                   0.000
REMARK UNBOUND:                 0.000
REMARK SMILES CC1(C)O[C@]2(C)CC[C@H]1CC2
REMARK SMILES IDX 1 1 2 2 9 3 8 4 7 5 5 6 4 7 11 8 10 9 6 10 3 11
REMARK H PARENT
REMARK Flexibility Score: inf
ROOT
ATOM      1  C   UNL     1      -8.556 -13.792  36.504  1.00  0.00     0.042 C 
ATOM      2  C   UNL     1      -8.401 -13.193  35.090  1.00  0.00     0.066 C 
ATOM      3  C   UNL     1      -7.142 -13.802  34.360  1.00  0.00     0.021 C 
ATOM      4  C   UNL     1      -5.875 -13.404  35.156  1.00  0.00     0.009 C 
ATOM      5  C   UNL     1      -5.879 -11.873  35.384  1.00  0.00     0.035 C 
ATOM      6  C   UNL     1      -7.100 -11.235  34.661  1.00  0.00     0.066 C 
ATOM      7  O   UNL     1      -8.303 -11.767  35.218  1.00  0.00    -0.369 OA
ATOM      8  C   UNL     1      -7.035 -11.593  33.148  1.00  0.00     0.035 C 
ATOM      9  C   UNL     1      -7.005 -13.129  32.973  1.00  0.00     0.009 C 
ATOM     10  C   UNL     1      -7.096  -9.715  34.851  1.00  0.00     0.042 C 
ATOM     11  C   UNL     1      -9.693 -13.516  34.308  1.00  0.00     0.042 C 
ENDROOT
TORSDOF 0
ENDMDL
MODEL 7
REMARK VINA RESULT:    -0.434      1.223      2.379
REMARK INTER + INTRA:          -0.434
REMARK INTER:                  -0.434
REMARK INTRA:                   0.000
REMARK UNBOUND:                 0.000
REMARK SMILES CC1(C)O[C@]2(C)CC[C@H]1CC2
REMARK SMILES IDX 1 1 2 2 9 3 8 4 7 5 5 6 4 7 11 8 10 9 6 10 3 11
REMARK H PARENT
REMARK Flexibility Score: inf
ROOT
ATOM      1  C   UNL     1      -5.887 -11.911  31.903  1.00  0.00     0.042 C 
ATOM      2  C   UNL     1      -6.994 -12.623  32.709  1.00  0.00     0.066 C 
ATOM      3  C   UNL     1      -7.650 -11.635  33.749  1.00  0.00     0.021 C 
ATOM      4  C   UNL     1      -6.565 -11.203  34.765  1.00  0.00     0.009 C 
ATOM      5  C   UNL     1      -5.875 -12.465  35.338  1.00  0.00     0.035 C 
ATOM      6  C   UNL     1      -6.561 -13.743  34.774  1.00  0.00     0.066 C 
ATOM      7  O   UNL     1      -6.413 -13.765  33.354  1.00  0.00    -0.369 OA
ATOM      8  C   UNL     1      -8.075 -13.702  35.130  1.00  0.00     0.035 C 
ATOM      9  C   UNL     1      -8.713 -12.412  34.562  1.00  0.00     0.009 C 
ATOM     10  C   UNL     1      -5.908 -14.999  35.360  1.00  0.00     0.042 C 
ATOM     11  C   UNL     1      -8.047 -13.127  31.698  1.00  0.00     0.042 C 
ENDROOT
TORSDOF 0
ENDMDL
MODEL 8
REMARK VINA RESULT:     0.045      3.608      4.864
REMARK INTER + INTRA:           0.045
REMARK INTER:                   0.045
REMARK INTRA:                   0.000
REMARK UNBOUND:                 0.000
REMARK SMILES CC1(C)O[C@]2(C)CC[C@H]1CC2
REMARK SMILES IDX 1 1 2 2 9 3 8 4 7 5 5 6 4 7 11 8 10 9 6 10 3 11
REMARK H PARENT
REMARK Flexibility Score: inf
ROOT
ATOM      1  C   UNL     1      -7.846 -16.753  38.458  1.00  0.00     0.042 C 
ATOM      2  C   UNL     1      -8.369 -15.843  37.325  1.00  0.00     0.066 C 
ATOM      3  C   UNL     1      -8.469 -14.346  37.813  1.00  0.00     0.021 C 
ATOM      4  C   UNL     1      -9.505 -14.273  38.959  1.00  0.00     0.009 C 
ATOM      5  C   UNL     1     -10.821 -14.948  38.499  1.00  0.00     0.035 C 
ATOM      6  C   UNL     1     -10.693 -15.391  37.013  1.00  0.00     0.066 C 
ATOM      7  O   UNL     1      -9.642 -16.350  36.898  1.00  0.00    -0.369 OA
ATOM      8  C   UNL     1     -10.349 -14.147  36.143  1.00  0.00     0.035 C 
ATOM      9  C   UNL     1      -9.046 -13.492  36.658  1.00  0.00     0.009 C 
ATOM     10  C   UNL     1     -12.001 -16.030  36.535  1.00  0.00     0.042 C 
ATOM     11  C   UNL     1      -7.383 -15.967  36.143  1.00  0.00     0.042 C 
ENDROOT
TORSDOF 0
ENDMDL
