MODEL 1
REMARK VINA RESULT:    -4.247      0.000      0.000
REMARK INTER + INTRA:          -8.017
REMARK INTER:                  -6.729
REMARK INTRA:                  -1.287
REMARK UNBOUND:                -1.287
REMARK SMILES CCCCCCCCCCCC(=O)[O-]
REMARK SMILES IDX 7 1 8 2 9 3 10 4 11 5 12 6 13 7 14 8 6 9 5 10 4 11 3 12 2 13
REMARK SMILES IDX 1 14
REMARK H PARENT
REMARK Flexibility Score: inf
ROOT
ATOM      1  C   UNL     1      85.095 316.868 205.749  1.00  0.00     0.000 C 
ENDROOT
BRANCH   1   2
ATOM      2  C   UNL     1      86.384 316.062 205.949  1.00  0.00     0.000 C 
BRANCH   2   3
ATOM      3  C   UNL     1      86.082 314.674 206.527  1.00  0.00     0.000 C 
BRANCH   3   4
ATOM      4  C   UNL     1      84.647 314.242 206.201  1.00  0.00     0.006 C 
BRANCH   4   5
ATOM      5  C   UNL     1      84.222 313.050 207.064  1.00  0.00     0.053 C 
BRANCH   5   6
ATOM      6  C   UNL     1      84.272 311.783 206.270  1.00  0.00     0.041 C 
ATOM      7  O   UNL     1      84.000 310.682 206.816  1.00  0.00    -0.550 OA
ATOM      8  O   UNL     1      84.571 311.825 204.914  1.00  0.00    -0.550 OA
ENDBRANCH   5   6
ENDBRANCH   4   5
ENDBRANCH   3   4
ENDBRANCH   2   3
ENDBRANCH   1   2
BRANCH   1   9
ATOM      9  C   UNL     1      85.362 318.134 204.922  1.00  0.00     0.000 C 
BRANCH   9  10
ATOM     10  C   UNL     1      85.744 317.820 203.467  1.00  0.00    -0.000 C 
BRANCH  10  11
ATOM     11  C   UNL     1      84.521 317.507 202.589  1.00  0.00    -0.000 C 
BRANCH  11  12
ATOM     12  C   UNL     1      84.683 316.209 201.781  1.00  0.00    -0.000 C 
BRANCH  12  13
ATOM     13  C   UNL     1      84.639 314.932 202.647  1.00  0.00    -0.003 C 
ATOM     14  C   UNL     1      85.985 314.206 202.687  1.00  0.00     0.004 C 
ENDBRANCH  12  13
ENDBRANCH  11  12
ENDBRANCH  10  11
ENDBRANCH   9  10
ENDBRANCH   1   9
TORSDOF 10
ENDMDL
MODEL 2
REMARK VINA RESULT:    -4.232      2.685      4.690
REMARK INTER + INTRA:          -7.994
REMARK INTER:                  -6.755
REMARK INTRA:                  -1.239
REMARK UNBOUND:                -1.287
REMARK SMILES CCCCCCCCCCCC(=O)[O-]
REMARK SMILES IDX 7 1 8 2 9 3 10 4 11 5 12 6 13 7 14 8 6 9 5 10 4 11 3 12 2 13
REMARK SMILES IDX 1 14
REMARK H PARENT
REMARK Flexibility Score: inf
ROOT
ATOM      1  C   UNL     1      85.681 318.282 204.611  1.00  0.00     0.000 C 
ENDROOT
BRANCH   1   2
ATOM      2  C   UNL     1      85.837 317.580 203.257  1.00  0.00     0.000 C 
BRANCH   2   3
ATOM      3  C   UNL     1      84.504 317.541 202.500  1.00  0.00     0.000 C 
BRANCH   3   4
ATOM      4  C   UNL     1      84.450 316.347 201.540  1.00  0.00     0.006 C 
BRANCH   4   5
ATOM      5  C   UNL     1      85.007 315.083 202.203  1.00  0.00     0.053 C 
BRANCH   5   6
ATOM      6  C   UNL     1      86.083 314.478 201.359  1.00  0.00     0.041 C 
ATOM      7  O   UNL     1      86.097 314.671 200.115  1.00  0.00    -0.550 OA
ATOM      8  O   UNL     1      87.100 313.741 201.953  1.00  0.00    -0.550 OA
ENDBRANCH   5   6
ENDBRANCH   4   5
ENDBRANCH   3   4
ENDBRANCH   2   3
ENDBRANCH   1   2
BRANCH   1   9
ATOM      9  C   UNL     1      84.701 317.520 205.515  1.00  0.00     0.000 C 
BRANCH   9  10
ATOM     10  C   UNL     1      85.077 316.038 205.679  1.00  0.00    -0.000 C 
BRANCH  10  11
ATOM     11  C   UNL     1      86.362 315.842 206.501  1.00  0.00    -0.000 C 
BRANCH  11  12
ATOM     12  C   UNL     1      87.473 315.130 205.711  1.00  0.00    -0.000 C 
BRANCH  12  13
ATOM     13  C   UNL     1      88.664 316.046 205.358  1.00  0.00    -0.003 C 
ATOM     14  C   UNL     1      89.031 315.980 203.875  1.00  0.00     0.004 C 
ENDBRANCH  12  13
ENDBRANCH  11  12
ENDBRANCH  10  11
ENDBRANCH   9  10
ENDBRANCH   1   9
TORSDOF 10
ENDMDL
MODEL 3
REMARK VINA RESULT:    -4.169      2.784      3.540
REMARK INTER + INTRA:          -7.894
REMARK INTER:                  -6.432
REMARK INTRA:                  -1.462
REMARK UNBOUND:                -1.287
REMARK SMILES CCCCCCCCCCCC(=O)[O-]
REMARK SMILES IDX 7 1 8 2 9 3 10 4 11 5 12 6 13 7 14 8 6 9 5 10 4 11 3 12 2 13
REMARK SMILES IDX 1 14
REMARK H PARENT
REMARK Flexibility Score: inf
ROOT
ATOM      1  C   UNL     1      84.628 317.642 205.492  1.00  0.00     0.000 C 
ENDROOT
BRANCH   1   2
ATOM      2  C   UNL     1      84.965 316.148 205.556  1.00  0.00     0.000 C 
BRANCH   2   3
ATOM      3  C   UNL     1      86.123 315.885 206.527  1.00  0.00     0.000 C 
BRANCH   3   4
ATOM      4  C   UNL     1      87.204 315.018 205.872  1.00  0.00     0.006 C 
BRANCH   4   5
ATOM      5  C   UNL     1      88.333 315.883 205.302  1.00  0.00     0.053 C 
BRANCH   5   6
ATOM      6  C   UNL     1      88.735 315.396 203.947  1.00  0.00     0.041 C 
ATOM      7  O   UNL     1      89.022 316.217 203.037  1.00  0.00    -0.550 OA
ATOM      8  O   UNL     1      88.842 314.032 203.703  1.00  0.00    -0.550 OA
ENDBRANCH   5   6
ENDBRANCH   4   5
ENDBRANCH   3   4
ENDBRANCH   2   3
ENDBRANCH   1   2
BRANCH   1   9
ATOM      9  C   UNL     1      85.608 318.387 204.574  1.00  0.00     0.000 C 
BRANCH   9  10
ATOM     10  C   UNL     1      85.810 317.677 203.225  1.00  0.00    -0.000 C 
BRANCH  10  11
ATOM     11  C   UNL     1      84.504 317.550 202.423  1.00  0.00    -0.000 C 
BRANCH  11  12
ATOM     12  C   UNL     1      84.336 316.167 201.771  1.00  0.00    -0.000 C 
BRANCH  12  13
ATOM     13  C   UNL     1      85.594 315.278 201.877  1.00  0.00    -0.003 C 
ATOM     14  C   UNL     1      85.356 314.029 202.727  1.00  0.00     0.004 C 
ENDBRANCH  12  13
ENDBRANCH  11  12
ENDBRANCH  10  11
ENDBRANCH   9  10
ENDBRANCH   1   9
TORSDOF 10
ENDMDL
MODEL 4
REMARK VINA RESULT:    -4.142      1.651      3.394
REMARK INTER + INTRA:          -7.851
REMARK INTER:                  -6.224
REMARK INTRA:                  -1.627
REMARK UNBOUND:                -1.287
REMARK SMILES CCCCCCCCCCCC(=O)[O-]
REMARK SMILES IDX 7 1 8 2 9 3 10 4 11 5 12 6 13 7 14 8 6 9 5 10 4 11 3 12 2 13
REMARK SMILES IDX 1 14
REMARK H PARENT
REMARK Flexibility Score: inf
ROOT
ATOM      1  C   UNL     1      84.408 317.444 202.592  1.00  0.00     0.000 C 
ENDROOT
BRANCH   1   2
ATOM      2  C   UNL     1      85.668 317.907 203.333  1.00  0.00     0.000 C 
BRANCH   2   3
ATOM      3  C   UNL     1      85.382 318.128 204.823  1.00  0.00     0.000 C 
BRANCH   3   4
ATOM      4  C   UNL     1      84.910 316.830 205.491  1.00  0.00     0.006 C 
BRANCH   4   5
ATOM      5  C   UNL     1      86.096 316.037 206.049  1.00  0.00     0.053 C 
BRANCH   5   6
ATOM      6  C   UNL     1      85.774 314.578 206.100  1.00  0.00     0.041 C 
ATOM      7  O   UNL     1      84.576 314.191 206.068  1.00  0.00    -0.550 OA
ATOM      8  O   UNL     1      86.799 313.641 206.132  1.00  0.00    -0.550 OA
ENDBRANCH   5   6
ENDBRANCH   4   5
ENDBRANCH   3   4
ENDBRANCH   2   3
ENDBRANCH   1   2
BRANCH   1   9
ATOM      9  C   UNL     1      84.716 316.245 201.682  1.00  0.00     0.000 C 
BRANCH   9  10
ATOM     10  C   UNL     1      84.473 314.897 202.379  1.00  0.00    -0.000 C 
BRANCH  10  11
ATOM     11  C   UNL     1      85.722 313.999 202.381  1.00  0.00    -0.000 C 
BRANCH  11  12
ATOM     12  C   UNL     1      86.996 314.748 201.953  1.00  0.00    -0.000 C 
BRANCH  12  13
ATOM     13  C   UNL     1      88.126 314.695 203.004  1.00  0.00    -0.003 C 
ATOM     14  C   UNL     1      88.659 316.084 203.357  1.00  0.00     0.004 C 
ENDBRANCH  12  13
ENDBRANCH  11  12
ENDBRANCH  10  11
ENDBRANCH   9  10
ENDBRANCH   1   9
TORSDOF 10
ENDMDL
MODEL 5
REMARK VINA RESULT:    -4.079      1.350      2.635
REMARK INTER + INTRA:          -7.750
REMARK INTER:                  -6.351
REMARK INTRA:                  -1.400
REMARK UNBOUND:                -1.287
REMARK SMILES CCCCCCCCCCCC(=O)[O-]
REMARK SMILES IDX 7 1 8 2 9 3 10 4 11 5 12 6 13 7 14 8 6 9 5 10 4 11 3 12 2 13
REMARK SMILES IDX 1 14
REMARK H PARENT
REMARK Flexibility Score: inf
ROOT
ATOM      1  C   UNL     1      85.748 317.738 203.474  1.00  0.00     0.000 C 
ENDROOT
BRANCH   1   2
ATOM      2  C   UNL     1      85.310 318.252 204.851  1.00  0.00     0.000 C 
BRANCH   2   3
ATOM      3  C   UNL     1      85.027 317.088 205.809  1.00  0.00     0.000 C 
BRANCH   3   4
ATOM      4  C   UNL     1      86.260 316.191 205.965  1.00  0.00     0.006 C 
BRANCH   4   5
ATOM      5  C   UNL     1      86.059 315.170 207.089  1.00  0.00     0.053 C 
BRANCH   5   6
ATOM      6  C   UNL     1      85.590 313.863 206.533  1.00  0.00     0.041 C 
ATOM      7  O   UNL     1      86.412 312.934 206.317  1.00  0.00    -0.550 OA
ATOM      8  O   UNL     1      84.236 313.653 206.300  1.00  0.00    -0.550 OA
ENDBRANCH   5   6
ENDBRANCH   4   5
ENDBRANCH   3   4
ENDBRANCH   2   3
ENDBRANCH   1   2
BRANCH   1   9
ATOM      9  C   UNL     1      84.536 317.523 202.557  1.00  0.00     0.000 C 
BRANCH   9  10
ATOM     10  C   UNL     1      84.600 316.189 201.796  1.00  0.00    -0.000 C 
BRANCH  10  11
ATOM     11  C   UNL     1      84.743 314.979 202.734  1.00  0.00    -0.000 C 
BRANCH  11  12
ATOM     12  C   UNL     1      85.873 314.026 202.311  1.00  0.00    -0.000 C 
BRANCH  12  13
ATOM     13  C   UNL     1      87.177 314.219 203.115  1.00  0.00    -0.003 C 
ATOM     14  C   UNL     1      88.188 315.104 202.384  1.00  0.00     0.004 C 
ENDBRANCH  12  13
ENDBRANCH  11  12
ENDBRANCH  10  11
ENDBRANCH   9  10
ENDBRANCH   1   9
TORSDOF 10
ENDMDL
MODEL 6
REMARK VINA RESULT:    -4.067      2.852      4.910
REMARK INTER + INTRA:          -7.733
REMARK INTER:                  -6.528
REMARK INTRA:                  -1.205
REMARK UNBOUND:                -1.287
REMARK SMILES CCCCCCCCCCCC(=O)[O-]
REMARK SMILES IDX 7 1 8 2 9 3 10 4 11 5 12 6 13 7 14 8 6 9 5 10 4 11 3 12 2 13
REMARK SMILES IDX 1 14
REMARK H PARENT
REMARK Flexibility Score: inf
ROOT
ATOM      1  C   UNL     1      85.822 317.357 203.275  1.00  0.00     0.000 C 
ENDROOT
BRANCH   1   2
ATOM      2  C   UNL     1      84.607 317.471 202.347  1.00  0.00     0.000 C 
BRANCH   2   3
ATOM      3  C   UNL     1      84.373 316.162 201.583  1.00  0.00     0.000 C 
BRANCH   3   4
ATOM      4  C   UNL     1      85.344 315.071 202.050  1.00  0.00     0.006 C 
BRANCH   4   5
ATOM      5  C   UNL     1      86.134 314.496 200.870  1.00  0.00     0.053 C 
BRANCH   5   6
ATOM      6  C   UNL     1      87.601 314.513 201.162  1.00  0.00     0.041 C 
ATOM      7  O   UNL     1      88.012 314.424 202.349  1.00  0.00    -0.550 OA
ATOM      8  O   UNL     1      88.516 314.576 200.119  1.00  0.00    -0.550 OA
ENDBRANCH   5   6
ENDBRANCH   4   5
ENDBRANCH   3   4
ENDBRANCH   2   3
ENDBRANCH   1   2
BRANCH   1   9
ATOM      9  C   UNL     1      85.658 318.260 204.507  1.00  0.00     0.000 C 
BRANCH   9  10
ATOM     10  C   UNL     1      84.873 317.578 205.639  1.00  0.00    -0.000 C 
BRANCH  10  11
ATOM     11  C   UNL     1      85.083 316.055 205.671  1.00  0.00    -0.000 C 
BRANCH  11  12
ATOM     12  C   UNL     1      86.225 315.630 206.609  1.00  0.00    -0.000 C 
BRANCH  12  13
ATOM     13  C   UNL     1      87.425 314.995 205.874  1.00  0.00    -0.003 C 
ATOM     14  C   UNL     1      88.504 316.022 205.525  1.00  0.00     0.004 C 
ENDBRANCH  12  13
ENDBRANCH  11  12
ENDBRANCH  10  11
ENDBRANCH   9  10
ENDBRANCH   1   9
TORSDOF 10
ENDMDL
MODEL 7
REMARK VINA RESULT:    -4.060      1.529      4.081
REMARK INTER + INTRA:          -7.721
REMARK INTER:                  -6.525
REMARK INTRA:                  -1.196
REMARK UNBOUND:                -1.287
REMARK SMILES CCCCCCCCCCCC(=O)[O-]
REMARK SMILES IDX 7 1 8 2 9 3 10 4 11 5 12 6 13 7 14 8 6 9 5 10 4 11 3 12 2 13
REMARK SMILES IDX 1 14
REMARK H PARENT
REMARK Flexibility Score: inf
ROOT
ATOM      1  C   UNL     1      85.751 317.692 203.377  1.00  0.00     0.000 C 
ENDROOT
BRANCH   1   2
ATOM      2  C   UNL     1      84.490 317.573 202.513  1.00  0.00     0.000 C 
BRANCH   2   3
ATOM      3  C   UNL     1      84.469 316.245 201.747  1.00  0.00     0.000 C 
BRANCH   3   4
ATOM      4  C   UNL     1      85.580 315.309 202.240  1.00  0.00     0.006 C 
BRANCH   4   5
ATOM      5  C   UNL     1      84.999 314.142 203.045  1.00  0.00     0.053 C 
BRANCH   5   6
ATOM      6  C   UNL     1      85.962 312.998 203.081  1.00  0.00     0.041 C 
ATOM      7  O   UNL     1      85.959 312.137 202.162  1.00  0.00    -0.550 OA
ATOM      8  O   UNL     1      86.897 312.911 204.105  1.00  0.00    -0.550 OA
ENDBRANCH   5   6
ENDBRANCH   4   5
ENDBRANCH   3   4
ENDBRANCH   2   3
ENDBRANCH   1   2
BRANCH   1   9
ATOM      9  C   UNL     1      85.389 318.025 204.832  1.00  0.00     0.000 C 
BRANCH   9  10
ATOM     10  C   UNL     1      85.001 316.779 205.645  1.00  0.00    -0.000 C 
BRANCH  10  11
ATOM     11  C   UNL     1      86.224 315.983 206.127  1.00  0.00    -0.000 C 
BRANCH  11  12
ATOM     12  C   UNL     1      85.855 314.855 207.105  1.00  0.00    -0.000 C 
BRANCH  12  13
ATOM     13  C   UNL     1      84.614 314.045 206.673  1.00  0.00    -0.003 C 
ATOM     14  C   UNL     1      84.732 312.562 207.029  1.00  0.00     0.004 C 
ENDBRANCH  12  13
ENDBRANCH  11  12
ENDBRANCH  10  11
ENDBRANCH   9  10
ENDBRANCH   1   9
TORSDOF 10
ENDMDL
MODEL 8
REMARK VINA RESULT:    -4.029      1.729      2.191
REMARK INTER + INTRA:          -7.672
REMARK INTER:                  -6.472
REMARK INTRA:                  -1.200
REMARK UNBOUND:                -1.287
REMARK SMILES CCCCCCCCCCCC(=O)[O-]
REMARK SMILES IDX 7 1 8 2 9 3 10 4 11 5 12 6 13 7 14 8 6 9 5 10 4 11 3 12 2 13
REMARK SMILES IDX 1 14
REMARK H PARENT
REMARK Flexibility Score: inf
ROOT
ATOM      1  C   UNL     1      84.710 317.600 205.490  1.00  0.00     0.000 C 
ENDROOT
BRANCH   1   2
ATOM      2  C   UNL     1      85.024 316.106 205.633  1.00  0.00     0.000 C 
BRANCH   2   3
ATOM      3  C   UNL     1      86.122 315.871 206.677  1.00  0.00     0.000 C 
BRANCH   3   4
ATOM      4  C   UNL     1      87.451 315.504 206.006  1.00  0.00     0.006 C 
BRANCH   4   5
ATOM      5  C   UNL     1      87.264 314.356 205.008  1.00  0.00     0.053 C 
BRANCH   5   6
ATOM      6  C   UNL     1      87.140 313.051 205.727  1.00  0.00     0.041 C 
ATOM      7  O   UNL     1      86.019 312.485 205.825  1.00  0.00    -0.550 OA
ATOM      8  O   UNL     1      88.271 312.434 206.246  1.00  0.00    -0.550 OA
ENDBRANCH   5   6
ENDBRANCH   4   5
ENDBRANCH   3   4
ENDBRANCH   2   3
ENDBRANCH   1   2
BRANCH   1   9
ATOM      9  C   UNL     1      85.671 318.271 204.498  1.00  0.00     0.000 C 
BRANCH   9  10
ATOM     10  C   UNL     1      85.810 317.485 203.185  1.00  0.00    -0.000 C 
BRANCH  10  11
ATOM     11  C   UNL     1      84.526 317.517 202.338  1.00  0.00    -0.000 C 
BRANCH  11  12
ATOM     12  C   UNL     1      84.308 316.225 201.535  1.00  0.00    -0.000 C 
BRANCH  12  13
ATOM     13  C   UNL     1      85.113 315.021 202.070  1.00  0.00    -0.003 C 
ATOM     14  C   UNL     1      86.150 314.519 201.064  1.00  0.00     0.004 C 
ENDBRANCH  12  13
ENDBRANCH  11  12
ENDBRANCH  10  11
ENDBRANCH   9  10
ENDBRANCH   1   9
TORSDOF 10
ENDMDL
MODEL 9
REMARK VINA RESULT:    -4.001      2.446      4.263
REMARK INTER + INTRA:          -7.628
REMARK INTER:                  -6.080
REMARK INTRA:                  -1.548
REMARK UNBOUND:                -1.287
REMARK SMILES CCCCCCCCCCCC(=O)[O-]
REMARK SMILES IDX 7 1 8 2 9 3 10 4 11 5 12 6 13 7 14 8 6 9 5 10 4 11 3 12 2 13
REMARK SMILES IDX 1 14
REMARK H PARENT
REMARK Flexibility Score: inf
ROOT
ATOM      1  C   UNL     1      84.478 317.642 202.413  1.00  0.00     0.000 C 
ENDROOT
BRANCH   1   2
ATOM      2  C   UNL     1      85.637 317.689 203.417  1.00  0.00     0.000 C 
BRANCH   2   3
ATOM      3  C   UNL     1      85.127 317.529 204.854  1.00  0.00     0.000 C 
BRANCH   3   4
ATOM      4  C   UNL     1      86.128 316.742 205.709  1.00  0.00     0.006 C 
BRANCH   4   5
ATOM      5  C   UNL     1      87.367 316.360 204.893  1.00  0.00     0.053 C 
BRANCH   5   6
ATOM      6  C   UNL     1      88.412 315.758 205.777  1.00  0.00     0.041 C 
ATOM      7  O   UNL     1      89.507 316.351 205.959  1.00  0.00    -0.550 OA
ATOM      8  O   UNL     1      88.156 314.564 206.441  1.00  0.00    -0.550 OA
ENDBRANCH   5   6
ENDBRANCH   4   5
ENDBRANCH   3   4
ENDBRANCH   2   3
ENDBRANCH   1   2
BRANCH   1   9
ATOM      9  C   UNL     1      84.286 316.222 201.861  1.00  0.00     0.000 C 
BRANCH   9  10
ATOM     10  C   UNL     1      85.602 315.430 201.796  1.00  0.00    -0.000 C 
BRANCH  10  11
ATOM     11  C   UNL     1      85.495 314.049 202.464  1.00  0.00    -0.000 C 
BRANCH  11  12
ATOM     12  C   UNL     1      84.627 314.066 203.733  1.00  0.00    -0.000 C 
BRANCH  12  13
ATOM     13  C   UNL     1      85.200 313.212 204.885  1.00  0.00    -0.003 C 
ATOM     14  C   UNL     1      84.475 313.457 206.209  1.00  0.00     0.004 C 
ENDBRANCH  12  13
ENDBRANCH  11  12
ENDBRANCH  10  11
ENDBRANCH   9  10
ENDBRANCH   1   9
TORSDOF 10
ENDMDL
