MODEL 1
REMARK VINA RESULT:    -6.017      0.000      0.000
REMARK INTER + INTRA:          -7.571
REMARK INTER:                  -7.248
REMARK INTRA:                  -0.323
REMARK UNBOUND:                -0.323
REMARK SMILES O=c1c(O)c(-c2ccc(O)c(O)c2)oc2cc(O)cc(O)c12
REMARK SMILES IDX 5 1 3 2 2 3 1 4 22 5 20 6 19 7 17 8 16 9 15 10 14 11 6 12
REMARK SMILES IDX 7 13 8 14 9 15 13 16 11 17 10 18 12 20 4 22 21 24 18 26
REMARK H PARENT 10 19 12 21 4 23 21 25 18 27
REMARK Flexibility Score: inf
ROOT
ATOM      1  C   UNL     1    -120.274-100.605   1.824  1.00  0.00     0.180 A 
ATOM      2  C   UNL     1    -119.827-101.868   1.397  1.00  0.00     0.208 A 
ATOM      3  C   UNL     1    -118.551-101.979   0.821  1.00  0.00     0.238 A 
ATOM      4  O   UNL     1    -118.179-103.101   0.390  1.00  0.00    -0.285 OA
ATOM      5  C   UNL     1    -117.734-100.830   0.694  1.00  0.00     0.111 A 
ATOM      6  C   UNL     1    -116.409-100.834   0.163  1.00  0.00     0.134 A 
ATOM      7  C   UNL     1    -115.741 -99.620  -0.035  1.00  0.00     0.093 A 
ATOM      8  C   UNL     1    -116.325 -98.407   0.340  1.00  0.00     0.123 A 
ATOM      9  C   UNL     1    -117.593 -98.399   0.914  1.00  0.00     0.094 A 
ATOM     10  C   UNL     1    -118.299 -99.591   1.091  1.00  0.00     0.146 A 
ATOM     11  O   UNL     1    -119.510 -99.537   1.633  1.00  0.00    -0.452 OA
ENDROOT
BRANCH   1  12
ATOM     12  C   UNL     1    -121.597-100.413   2.464  1.00  0.00     0.025 A 
ATOM     13  C   UNL     1    -122.739-100.114   1.704  1.00  0.00     0.016 A 
ATOM     14  C   UNL     1    -123.979 -99.962   2.327  1.00  0.00     0.051 A 
ATOM     15  C   UNL     1    -124.109-100.115   3.711  1.00  0.00     0.157 A 
ATOM     16  C   UNL     1    -121.726-100.589   3.849  1.00  0.00     0.062 A 
ATOM     17  C   UNL     1    -122.967-100.438   4.483  1.00  0.00     0.158 A 
BRANCH  15  18
ATOM     18  O   UNL     1    -125.375 -99.944   4.272  1.00  0.00    -0.504 OA
ATOM     19  H   UNL     1    -125.542 -99.810   5.258  1.00  0.00     0.293 HD
ENDBRANCH  15  18
BRANCH  17  20
ATOM     20  O   UNL     1    -123.018-100.616   5.867  1.00  0.00    -0.504 OA
ATOM     21  H   UNL     1    -123.336-101.463   6.316  1.00  0.00     0.293 HD
ENDBRANCH  17  20
ENDBRANCH   1  12
BRANCH   2  22
ATOM     22  O   UNL     1    -120.660-102.985   1.511  1.00  0.00    -0.502 OA
ATOM     23  H   UNL     1    -120.611-103.768   0.871  1.00  0.00     0.293 HD
ENDBRANCH   2  22
BRANCH   6  24
ATOM     24  O   UNL     1    -115.699-101.996  -0.157  1.00  0.00    -0.507 OA
ATOM     25  H   UNL     1    -116.005-102.933   0.056  1.00  0.00     0.293 HD
ENDBRANCH   6  24
BRANCH   8  26
ATOM     26  O   UNL     1    -115.647 -97.204   0.154  1.00  0.00    -0.508 OA
ATOM     27  H   UNL     1    -114.771 -97.162  -0.355  1.00  0.00     0.293 HD
ENDBRANCH   8  26
TORSDOF 6
ENDMDL
MODEL 2
REMARK VINA RESULT:    -5.600      3.545      6.290
REMARK INTER + INTRA:          -7.069
REMARK INTER:                  -6.910
REMARK INTRA:                  -0.159
REMARK UNBOUND:                -0.323
REMARK SMILES O=c1c(O)c(-c2ccc(O)c(O)c2)oc2cc(O)cc(O)c12
REMARK SMILES IDX 5 1 3 2 2 3 1 4 22 5 20 6 19 7 17 8 16 9 15 10 14 11 6 12
REMARK SMILES IDX 7 13 8 14 9 15 13 16 11 17 10 18 12 20 4 22 21 24 18 26
REMARK H PARENT 10 19 12 21 4 23 21 25 18 27
REMARK Flexibility Score: inf
ROOT
ATOM      1  C   UNL     1    -116.486 -98.024   1.264  1.00  0.00     0.180 A 
ATOM      2  C   UNL     1    -115.449 -98.275   0.347  1.00  0.00     0.208 A 
ATOM      3  C   UNL     1    -115.456 -99.479  -0.375  1.00  0.00     0.238 A 
ATOM      4  O   UNL     1    -114.496 -99.723  -1.152  1.00  0.00    -0.285 OA
ATOM      5  C   UNL     1    -116.507-100.409  -0.184  1.00  0.00     0.111 A 
ATOM      6  C   UNL     1    -116.635-101.642  -0.892  1.00  0.00     0.134 A 
ATOM      7  C   UNL     1    -117.643-102.544  -0.530  1.00  0.00     0.093 A 
ATOM      8  C   UNL     1    -118.567-102.229   0.470  1.00  0.00     0.123 A 
ATOM      9  C   UNL     1    -118.485-101.003   1.125  1.00  0.00     0.094 A 
ATOM     10  C   UNL     1    -117.469-100.097   0.811  1.00  0.00     0.146 A 
ATOM     11  O   UNL     1    -117.422 -98.944   1.467  1.00  0.00    -0.452 OA
ENDROOT
BRANCH   1  12
ATOM     12  C   UNL     1    -116.561 -96.767   2.043  1.00  0.00     0.025 A 
ATOM     13  C   UNL     1    -115.580 -96.436   2.993  1.00  0.00     0.016 A 
ATOM     14  C   UNL     1    -115.660 -95.234   3.697  1.00  0.00     0.051 A 
ATOM     15  C   UNL     1    -116.705 -94.335   3.464  1.00  0.00     0.157 A 
ATOM     16  C   UNL     1    -117.599 -95.858   1.791  1.00  0.00     0.062 A 
ATOM     17  C   UNL     1    -117.687 -94.649   2.494  1.00  0.00     0.158 A 
BRANCH  15  18
ATOM     18  O   UNL     1    -116.729 -93.153   4.205  1.00  0.00    -0.504 OA
ATOM     19  H   UNL     1    -116.389 -92.265   3.866  1.00  0.00     0.293 HD
ENDBRANCH  15  18
BRANCH  17  20
ATOM     20  O   UNL     1    -118.754 -93.799   2.198  1.00  0.00    -0.504 OA
ATOM     21  H   UNL     1    -119.028 -93.541   1.261  1.00  0.00     0.293 HD
ENDBRANCH  17  20
ENDBRANCH   1  12
BRANCH   2  22
ATOM     22  O   UNL     1    -114.411 -97.353   0.191  1.00  0.00    -0.502 OA
ATOM     23  H   UNL     1    -113.435 -97.613   0.277  1.00  0.00     0.293 HD
ENDBRANCH   2  22
BRANCH   6  24
ATOM     24  O   UNL     1    -115.823-102.013  -1.968  1.00  0.00    -0.507 OA
ATOM     25  H   UNL     1    -115.705-102.958  -2.299  1.00  0.00     0.293 HD
ENDBRANCH   6  24
BRANCH   8  26
ATOM     26  O   UNL     1    -119.576-103.125   0.813  1.00  0.00    -0.508 OA
ATOM     27  H   UNL     1    -120.526-103.009   0.478  1.00  0.00     0.293 HD
ENDBRANCH   8  26
TORSDOF 6
ENDMDL
MODEL 3
REMARK VINA RESULT:    -5.520     13.229     14.449
REMARK INTER + INTRA:          -6.972
REMARK INTER:                  -6.701
REMARK INTRA:                  -0.271
REMARK UNBOUND:                -0.323
REMARK SMILES O=c1c(O)c(-c2ccc(O)c(O)c2)oc2cc(O)cc(O)c12
REMARK SMILES IDX 5 1 3 2 2 3 1 4 22 5 20 6 19 7 17 8 16 9 15 10 14 11 6 12
REMARK SMILES IDX 7 13 8 14 9 15 13 16 11 17 10 18 12 20 4 22 21 24 18 26
REMARK H PARENT 10 19 12 21 4 23 21 25 18 27
REMARK Flexibility Score: inf
ROOT
ATOM      1  C   UNL     1    -114.816 -98.083  14.916  1.00  0.00     0.180 A 
ATOM      2  C   UNL     1    -114.858 -99.052  15.934  1.00  0.00     0.208 A 
ATOM      3  C   UNL     1    -114.251-100.298  15.714  1.00  0.00     0.238 A 
ATOM      4  O   UNL     1    -114.339-101.181  16.607  1.00  0.00    -0.285 OA
ATOM      5  C   UNL     1    -113.595-100.554  14.485  1.00  0.00     0.111 A 
ATOM      6  C   UNL     1    -112.912-101.767  14.169  1.00  0.00     0.134 A 
ATOM      7  C   UNL     1    -112.411-101.961  12.876  1.00  0.00     0.093 A 
ATOM      8  C   UNL     1    -112.512-100.960  11.906  1.00  0.00     0.123 A 
ATOM      9  C   UNL     1    -113.125 -99.750  12.224  1.00  0.00     0.094 A 
ATOM     10  C   UNL     1    -113.666 -99.540  13.494  1.00  0.00     0.146 A 
ATOM     11  O   UNL     1    -114.250 -98.377  13.751  1.00  0.00    -0.452 OA
ENDROOT
BRANCH   1  12
ATOM     12  C   UNL     1    -115.412 -96.737  15.084  1.00  0.00     0.025 A 
ATOM     13  C   UNL     1    -114.804 -95.765  15.895  1.00  0.00     0.016 A 
ATOM     14  C   UNL     1    -115.372 -94.496  16.018  1.00  0.00     0.051 A 
ATOM     15  C   UNL     1    -116.544 -94.166  15.330  1.00  0.00     0.157 A 
ATOM     16  C   UNL     1    -116.575 -96.404  14.375  1.00  0.00     0.062 A 
ATOM     17  C   UNL     1    -117.152 -95.132  14.493  1.00  0.00     0.158 A 
BRANCH  15  18
ATOM     18  O   UNL     1    -117.063 -92.882  15.500  1.00  0.00    -0.504 OA
ATOM     19  H   UNL     1    -118.046 -92.659  15.452  1.00  0.00     0.293 HD
ENDBRANCH  15  18
BRANCH  17  20
ATOM     20  O   UNL     1    -118.317 -94.875  13.767  1.00  0.00    -0.504 OA
ATOM     21  H   UNL     1    -118.966 -95.590  13.470  1.00  0.00     0.293 HD
ENDBRANCH  17  20
ENDBRANCH   1  12
BRANCH   2  22
ATOM     22  O   UNL     1    -115.529 -98.785  17.131  1.00  0.00    -0.502 OA
ATOM     23  H   UNL     1    -115.387 -99.336  17.969  1.00  0.00     0.293 HD
ENDBRANCH   2  22
BRANCH   6  24
ATOM     24  O   UNL     1    -112.675-102.793  15.090  1.00  0.00    -0.507 OA
ATOM     25  H   UNL     1    -113.151-103.682  15.094  1.00  0.00     0.293 HD
ENDBRANCH   6  24
BRANCH   8  26
ATOM     26  O   UNL     1    -111.997-101.154  10.627  1.00  0.00    -0.508 OA
ATOM     27  H   UNL     1    -112.239-101.971  10.076  1.00  0.00     0.293 HD
ENDBRANCH   8  26
TORSDOF 6
ENDMDL
MODEL 4
REMARK VINA RESULT:    -5.232      4.560      7.476
REMARK INTER + INTRA:          -6.626
REMARK INTER:                  -6.306
REMARK INTRA:                  -0.319
REMARK UNBOUND:                -0.323
REMARK SMILES O=c1c(O)c(-c2ccc(O)c(O)c2)oc2cc(O)cc(O)c12
REMARK SMILES IDX 5 1 3 2 2 3 1 4 22 5 20 6 19 7 17 8 16 9 15 10 14 11 6 12
REMARK SMILES IDX 7 13 8 14 9 15 13 16 11 17 10 18 12 20 4 22 21 24 18 26
REMARK H PARENT 10 19 12 21 4 23 21 25 18 27
REMARK Flexibility Score: inf
ROOT
ATOM      1  C   UNL     1    -116.139 -97.294   1.733  1.00  0.00     0.180 A 
ATOM      2  C   UNL     1    -117.191 -96.370   1.601  1.00  0.00     0.208 A 
ATOM      3  C   UNL     1    -117.170 -95.199   2.377  1.00  0.00     0.238 A 
ATOM      4  O   UNL     1    -118.141 -94.403   2.295  1.00  0.00    -0.285 OA
ATOM      5  C   UNL     1    -116.090 -94.960   3.261  1.00  0.00     0.111 A 
ATOM      6  C   UNL     1    -115.947 -93.789   4.064  1.00  0.00     0.134 A 
ATOM      7  C   UNL     1    -114.906 -93.716   4.999  1.00  0.00     0.093 A 
ATOM      8  C   UNL     1    -113.967 -94.745   5.113  1.00  0.00     0.123 A 
ATOM      9  C   UNL     1    -114.066 -95.865   4.292  1.00  0.00     0.094 A 
ATOM     10  C   UNL     1    -115.113 -95.982   3.375  1.00  0.00     0.146 A 
ATOM     11  O   UNL     1    -115.175 -97.071   2.618  1.00  0.00    -0.452 OA
ENDROOT
BRANCH   1  12
ATOM     12  C   UNL     1    -116.078 -98.538   0.932  1.00  0.00     0.025 A 
ATOM     13  C   UNL     1    -115.341 -98.604  -0.262  1.00  0.00     0.016 A 
ATOM     14  C   UNL     1    -115.280 -99.795  -0.986  1.00  0.00     0.051 A 
ATOM     15  C   UNL     1    -115.937-100.943  -0.534  1.00  0.00     0.157 A 
ATOM     16  C   UNL     1    -116.721 -99.693   1.400  1.00  0.00     0.062 A 
ATOM     17  C   UNL     1    -116.665-100.894   0.679  1.00  0.00     0.158 A 
BRANCH  15  18
ATOM     18  O   UNL     1    -115.840-102.100  -1.308  1.00  0.00    -0.504 OA
ATOM     19  H   UNL     1    -115.202-102.858  -1.114  1.00  0.00     0.293 HD
ENDBRANCH  15  18
BRANCH  17  20
ATOM     20  O   UNL     1    -117.339-101.999   1.200  1.00  0.00    -0.504 OA
ATOM     21  H   UNL     1    -118.261-102.289   0.906  1.00  0.00     0.293 HD
ENDBRANCH  17  20
ENDBRANCH   1  12
BRANCH   2  22
ATOM     22  O   UNL     1    -118.257 -96.637   0.738  1.00  0.00    -0.502 OA
ATOM     23  H   UNL     1    -118.261 -96.340  -0.230  1.00  0.00     0.293 HD
ENDBRANCH   2  22
BRANCH   6  24
ATOM     24  O   UNL     1    -116.774 -92.666   3.964  1.00  0.00    -0.507 OA
ATOM     25  H   UNL     1    -117.577 -92.491   4.549  1.00  0.00     0.293 HD
ENDBRANCH   6  24
BRANCH   8  26
ATOM     26  O   UNL     1    -112.926 -94.658   6.034  1.00  0.00    -0.508 OA
ATOM     27  H   UNL     1    -112.270 -93.885   6.023  1.00  0.00     0.293 HD
ENDBRANCH   8  26
TORSDOF 6
ENDMDL
MODEL 5
REMARK VINA RESULT:    -5.196      3.881      6.467
REMARK INTER + INTRA:          -6.582
REMARK INTER:                  -6.264
REMARK INTRA:                  -0.318
REMARK UNBOUND:                -0.323
REMARK SMILES O=c1c(O)c(-c2ccc(O)c(O)c2)oc2cc(O)cc(O)c12
REMARK SMILES IDX 5 1 3 2 2 3 1 4 22 5 20 6 19 7 17 8 16 9 15 10 14 11 6 12
REMARK SMILES IDX 7 13 8 14 9 15 13 16 11 17 10 18 12 20 4 22 21 24 18 26
REMARK H PARENT 10 19 12 21 4 23 21 25 18 27
REMARK Flexibility Score: inf
ROOT
ATOM      1  C   UNL     1    -116.125 -97.684   1.371  1.00  0.00     0.180 A 
ATOM      2  C   UNL     1    -115.115 -97.819   0.402  1.00  0.00     0.208 A 
ATOM      3  C   UNL     1    -115.059 -98.996  -0.362  1.00  0.00     0.238 A 
ATOM      4  O   UNL     1    -114.120 -99.135  -1.190  1.00  0.00    -0.285 OA
ATOM      5  C   UNL     1    -116.022-100.014  -0.159  1.00  0.00     0.111 A 
ATOM      6  C   UNL     1    -116.084-101.230  -0.904  1.00  0.00     0.134 A 
ATOM      7  C   UNL     1    -116.998-102.223  -0.531  1.00  0.00     0.093 A 
ATOM      8  C   UNL     1    -117.896-102.017   0.519  1.00  0.00     0.123 A 
ATOM      9  C   UNL     1    -117.882-100.809   1.214  1.00  0.00     0.094 A 
ATOM     10  C   UNL     1    -116.958 -99.814   0.888  1.00  0.00     0.146 A 
ATOM     11  O   UNL     1    -116.973 -98.683   1.582  1.00  0.00    -0.452 OA
ENDROOT
BRANCH   1  12
ATOM     12  C   UNL     1    -116.264 -96.462   2.198  1.00  0.00     0.025 A 
ATOM     13  C   UNL     1    -117.150 -95.434   1.839  1.00  0.00     0.016 A 
ATOM     14  C   UNL     1    -117.281 -94.304   2.648  1.00  0.00     0.051 A 
ATOM     15  C   UNL     1    -116.546 -94.180   3.831  1.00  0.00     0.157 A 
ATOM     16  C   UNL     1    -115.540 -96.353   3.395  1.00  0.00     0.062 A 
ATOM     17  C   UNL     1    -115.666 -95.221   4.213  1.00  0.00     0.158 A 
BRANCH  15  18
ATOM     18  O   UNL     1    -116.719 -93.023   4.591  1.00  0.00    -0.504 OA
ATOM     19  H   UNL     1    -116.060 -92.259   4.617  1.00  0.00     0.293 HD
ENDBRANCH  15  18
BRANCH  17  20
ATOM     20  O   UNL     1    -114.905 -95.175   5.382  1.00  0.00    -0.504 OA
ATOM     21  H   UNL     1    -115.289 -95.291   6.310  1.00  0.00     0.293 HD
ENDBRANCH  17  20
ENDBRANCH   1  12
BRANCH   2  22
ATOM     22  O   UNL     1    -114.162 -96.811   0.233  1.00  0.00    -0.502 OA
ATOM     23  H   UNL     1    -113.401 -96.887  -0.430  1.00  0.00     0.293 HD
ENDBRANCH   2  22
BRANCH   6  24
ATOM     24  O   UNL     1    -115.296-101.499  -2.028  1.00  0.00    -0.507 OA
ATOM     25  H   UNL     1    -115.657-101.696  -2.949  1.00  0.00     0.293 HD
ENDBRANCH   6  24
BRANCH   8  26
ATOM     26  O   UNL     1    -118.813-103.003   0.874  1.00  0.00    -0.508 OA
ATOM     27  H   UNL     1    -119.438-103.418   0.191  1.00  0.00     0.293 HD
ENDBRANCH   8  26
TORSDOF 6
ENDMDL
MODEL 6
REMARK VINA RESULT:    -5.123      2.694      6.180
REMARK INTER + INTRA:          -6.494
REMARK INTER:                  -6.164
REMARK INTRA:                  -0.330
REMARK UNBOUND:                -0.323
REMARK SMILES O=c1c(O)c(-c2ccc(O)c(O)c2)oc2cc(O)cc(O)c12
REMARK SMILES IDX 5 1 3 2 2 3 1 4 22 5 20 6 19 7 17 8 16 9 15 10 14 11 6 12
REMARK SMILES IDX 7 13 8 14 9 15 13 16 11 17 10 18 12 20 4 22 21 24 18 26
REMARK H PARENT 10 19 12 21 4 23 21 25 18 27
REMARK Flexibility Score: inf
ROOT
ATOM      1  C   UNL     1    -118.232 -97.880   1.166  1.00  0.00     0.180 A 
ATOM      2  C   UNL     1    -117.192 -98.820   1.057  1.00  0.00     0.208 A 
ATOM      3  C   UNL     1    -117.510-100.188   1.034  1.00  0.00     0.238 A 
ATOM      4  O   UNL     1    -116.572-101.026   0.992  1.00  0.00    -0.285 OA
ATOM      5  C   UNL     1    -118.864-100.597   1.104  1.00  0.00     0.111 A 
ATOM      6  C   UNL     1    -119.303-101.953   1.048  1.00  0.00     0.134 A 
ATOM      7  C   UNL     1    -120.656-102.250   1.256  1.00  0.00     0.093 A 
ATOM      8  C   UNL     1    -121.594-101.234   1.454  1.00  0.00     0.123 A 
ATOM      9  C   UNL     1    -121.183 -99.903   1.451  1.00  0.00     0.094 A 
ATOM     10  C   UNL     1    -119.836 -99.577   1.281  1.00  0.00     0.146 A 
ATOM     11  O   UNL     1    -119.485 -98.297   1.294  1.00  0.00    -0.452 OA
ENDROOT
BRANCH   1  12
ATOM     12  C   UNL     1    -117.976 -96.421   1.172  1.00  0.00     0.025 A 
ATOM     13  C   UNL     1    -117.978 -95.674  -0.018  1.00  0.00     0.016 A 
ATOM     14  C   UNL     1    -117.759 -94.296   0.016  1.00  0.00     0.051 A 
ATOM     15  C   UNL     1    -117.548 -93.634   1.229  1.00  0.00     0.157 A 
ATOM     16  C   UNL     1    -117.787 -95.757   2.393  1.00  0.00     0.062 A 
ATOM     17  C   UNL     1    -117.567 -94.374   2.436  1.00  0.00     0.158 A 
BRANCH  15  18
ATOM     18  O   UNL     1    -117.330 -92.256   1.194  1.00  0.00    -0.504 OA
ATOM     19  H   UNL     1    -116.530 -91.799   1.605  1.00  0.00     0.293 HD
ENDBRANCH  15  18
BRANCH  17  20
ATOM     20  O   UNL     1    -117.374 -93.784   3.686  1.00  0.00    -0.504 OA
ATOM     21  H   UNL     1    -116.477 -93.714   4.145  1.00  0.00     0.293 HD
ENDBRANCH  17  20
ENDBRANCH   1  12
BRANCH   2  22
ATOM     22  O   UNL     1    -115.861 -98.395   1.012  1.00  0.00    -0.502 OA
ATOM     23  H   UNL     1    -115.090 -98.987   1.298  1.00  0.00     0.293 HD
ENDBRANCH   2  22
BRANCH   6  24
ATOM     24  O   UNL     1    -118.464-103.035   0.765  1.00  0.00    -0.507 OA
ATOM     25  H   UNL     1    -117.470-102.966   0.609  1.00  0.00     0.293 HD
ENDBRANCH   6  24
BRANCH   8  26
ATOM     26  O   UNL     1    -122.940-101.536   1.645  1.00  0.00    -0.508 OA
ATOM     27  H   UNL     1    -123.398-101.383   2.537  1.00  0.00     0.293 HD
ENDBRANCH   8  26
TORSDOF 6
ENDMDL
MODEL 7
REMARK VINA RESULT:    -5.059      3.287      5.997
REMARK INTER + INTRA:          -6.417
REMARK INTER:                  -6.214
REMARK INTRA:                  -0.203
REMARK UNBOUND:                -0.323
REMARK SMILES O=c1c(O)c(-c2ccc(O)c(O)c2)oc2cc(O)cc(O)c12
REMARK SMILES IDX 5 1 3 2 2 3 1 4 22 5 20 6 19 7 17 8 16 9 15 10 14 11 6 12
REMARK SMILES IDX 7 13 8 14 9 15 13 16 11 17 10 18 12 20 4 22 21 24 18 26
REMARK H PARENT 10 19 12 21 4 23 21 25 18 27
REMARK Flexibility Score: inf
ROOT
ATOM      1  C   UNL     1    -118.087 -98.022   1.235  1.00  0.00     0.180 A 
ATOM      2  C   UNL     1    -118.924 -96.893   1.180  1.00  0.00     0.208 A 
ATOM      3  C   UNL     1    -118.429 -95.657   1.626  1.00  0.00     0.238 A 
ATOM      4  O   UNL     1    -119.200 -94.662   1.627  1.00  0.00    -0.285 OA
ATOM      5  C   UNL     1    -117.100 -95.563   2.106  1.00  0.00     0.111 A 
ATOM      6  C   UNL     1    -116.483 -94.353   2.546  1.00  0.00     0.134 A 
ATOM      7  C   UNL     1    -115.207 -94.399   3.122  1.00  0.00     0.093 A 
ATOM      8  C   UNL     1    -114.502 -95.602   3.215  1.00  0.00     0.123 A 
ATOM      9  C   UNL     1    -115.073 -96.777   2.734  1.00  0.00     0.094 A 
ATOM     10  C   UNL     1    -116.358 -96.770   2.187  1.00  0.00     0.146 A 
ATOM     11  O   UNL     1    -116.869 -97.914   1.750  1.00  0.00    -0.452 OA
ENDROOT
BRANCH   1  12
ATOM     12  C   UNL     1    -118.529 -99.354   0.759  1.00  0.00     0.025 A 
ATOM     13  C   UNL     1    -119.520-100.081   1.438  1.00  0.00     0.016 A 
ATOM     14  C   UNL     1    -119.937-101.322   0.957  1.00  0.00     0.051 A 
ATOM     15  C   UNL     1    -119.388-101.858  -0.212  1.00  0.00     0.157 A 
ATOM     16  C   UNL     1    -117.992 -99.877  -0.426  1.00  0.00     0.062 A 
ATOM     17  C   UNL     1    -118.405-101.123  -0.917  1.00  0.00     0.158 A 
BRANCH  15  18
ATOM     18  O   UNL     1    -119.845-103.106  -0.638  1.00  0.00    -0.504 OA
ATOM     19  H   UNL     1    -120.108-103.855  -0.013  1.00  0.00     0.293 HD
ENDBRANCH  15  18
BRANCH  17  20
ATOM     20  O   UNL     1    -117.817-101.587  -2.095  1.00  0.00    -0.504 OA
ATOM     21  H   UNL     1    -116.840-101.469  -2.323  1.00  0.00     0.293 HD
ENDBRANCH  17  20
ENDBRANCH   1  12
BRANCH   2  22
ATOM     22  O   UNL     1    -120.239 -97.014   0.723  1.00  0.00    -0.502 OA
ATOM     23  H   UNL     1    -121.030 -96.641   1.235  1.00  0.00     0.293 HD
ENDBRANCH   2  22
BRANCH   6  24
ATOM     24  O   UNL     1    -117.062 -93.088   2.414  1.00  0.00    -0.507 OA
ATOM     25  H   UNL     1    -117.388 -92.522   3.183  1.00  0.00     0.293 HD
ENDBRANCH   6  24
BRANCH   8  26
ATOM     26  O   UNL     1    -113.227 -95.636   3.775  1.00  0.00    -0.508 OA
ATOM     27  H   UNL     1    -113.087 -95.609   4.779  1.00  0.00     0.293 HD
ENDBRANCH   8  26
TORSDOF 6
ENDMDL
MODEL 8
REMARK VINA RESULT:    -4.883      4.048      7.654
REMARK INTER + INTRA:          -6.205
REMARK INTER:                  -5.917
REMARK INTRA:                  -0.288
REMARK UNBOUND:                -0.323
REMARK SMILES O=c1c(O)c(-c2ccc(O)c(O)c2)oc2cc(O)cc(O)c12
REMARK SMILES IDX 5 1 3 2 2 3 1 4 22 5 20 6 19 7 17 8 16 9 15 10 14 11 6 12
REMARK SMILES IDX 7 13 8 14 9 15 13 16 11 17 10 18 12 20 4 22 21 24 18 26
REMARK H PARENT 10 19 12 21 4 23 21 25 18 27
REMARK Flexibility Score: inf
ROOT
ATOM      1  C   UNL     1    -117.019 -95.880   2.302  1.00  0.00     0.180 A 
ATOM      2  C   UNL     1    -118.374 -95.751   1.947  1.00  0.00     0.208 A 
ATOM      3  C   UNL     1    -119.021 -96.832   1.328  1.00  0.00     0.238 A 
ATOM      4  O   UNL     1    -120.218 -96.691   0.963  1.00  0.00    -0.285 OA
ATOM      5  C   UNL     1    -118.311 -98.032   1.085  1.00  0.00     0.111 A 
ATOM      6  C   UNL     1    -118.878 -99.204   0.501  1.00  0.00     0.134 A 
ATOM      7  C   UNL     1    -118.051-100.290   0.188  1.00  0.00     0.093 A 
ATOM      8  C   UNL     1    -116.688-100.271   0.499  1.00  0.00     0.123 A 
ATOM      9  C   UNL     1    -116.138 -99.154   1.124  1.00  0.00     0.094 A 
ATOM     10  C   UNL     1    -116.931 -98.042   1.416  1.00  0.00     0.146 A 
ATOM     11  O   UNL     1    -116.364 -96.995   2.003  1.00  0.00    -0.452 OA
ENDROOT
BRANCH   1  12
ATOM     12  C   UNL     1    -116.276 -94.793   2.980  1.00  0.00     0.025 A 
ATOM     13  C   UNL     1    -116.013 -94.838   4.359  1.00  0.00     0.016 A 
ATOM     14  C   UNL     1    -115.289 -93.813   4.971  1.00  0.00     0.051 A 
ATOM     15  C   UNL     1    -114.804 -92.734   4.225  1.00  0.00     0.157 A 
ATOM     16  C   UNL     1    -115.772 -93.724   2.225  1.00  0.00     0.062 A 
ATOM     17  C   UNL     1    -115.045 -92.691   2.831  1.00  0.00     0.158 A 
BRANCH  15  18
ATOM     18  O   UNL     1    -114.092 -91.741   4.899  1.00  0.00    -0.504 OA
ATOM     19  H   UNL     1    -113.222 -91.900   5.385  1.00  0.00     0.293 HD
ENDBRANCH  15  18
BRANCH  17  20
ATOM     20  O   UNL     1    -114.585 -91.653   2.019  1.00  0.00    -0.504 OA
ATOM     21  H   UNL     1    -115.180 -90.936   1.628  1.00  0.00     0.293 HD
ENDBRANCH  17  20
ENDBRANCH   1  12
BRANCH   2  22
ATOM     22  O   UNL     1    -119.049 -94.549   2.176  1.00  0.00    -0.502 OA
ATOM     23  H   UNL     1    -119.629 -94.397   2.993  1.00  0.00     0.293 HD
ENDBRANCH   2  22
BRANCH   6  24
ATOM     24  O   UNL     1    -120.242 -99.363   0.235  1.00  0.00    -0.507 OA
ATOM     25  H   UNL     1    -120.967 -98.745   0.565  1.00  0.00     0.293 HD
ENDBRANCH   6  24
BRANCH   8  26
ATOM     26  O   UNL     1    -115.875-101.361   0.200  1.00  0.00    -0.508 OA
ATOM     27  H   UNL     1    -116.265-102.276   0.004  1.00  0.00     0.293 HD
ENDBRANCH   8  26
TORSDOF 6
ENDMDL
MODEL 9
REMARK VINA RESULT:    -4.877      4.243      6.416
REMARK INTER + INTRA:          -6.198
REMARK INTER:                  -5.883
REMARK INTRA:                  -0.314
REMARK UNBOUND:                -0.323
REMARK SMILES O=c1c(O)c(-c2ccc(O)c(O)c2)oc2cc(O)cc(O)c12
REMARK SMILES IDX 5 1 3 2 2 3 1 4 22 5 20 6 19 7 17 8 16 9 15 10 14 11 6 12
REMARK SMILES IDX 7 13 8 14 9 15 13 16 11 17 10 18 12 20 4 22 21 24 18 26
REMARK H PARENT 10 19 12 21 4 23 21 25 18 27
REMARK Flexibility Score: inf
ROOT
ATOM      1  C   UNL     1    -116.209 -98.133   0.983  1.00  0.00     0.180 A 
ATOM      2  C   UNL     1    -114.894 -97.865   0.563  1.00  0.00     0.208 A 
ATOM      3  C   UNL     1    -114.244 -96.719   1.050  1.00  0.00     0.238 A 
ATOM      4  O   UNL     1    -113.088 -96.455   0.628  1.00  0.00    -0.285 OA
ATOM      5  C   UNL     1    -114.912 -95.865   1.962  1.00  0.00     0.111 A 
ATOM      6  C   UNL     1    -114.334 -94.700   2.549  1.00  0.00     0.134 A 
ATOM      7  C   UNL     1    -115.129 -93.858   3.337  1.00  0.00     0.093 A 
ATOM      8  C   UNL     1    -116.462 -94.175   3.611  1.00  0.00     0.123 A 
ATOM      9  C   UNL     1    -117.017 -95.341   3.090  1.00  0.00     0.094 A 
ATOM     10  C   UNL     1    -116.260 -96.182   2.272  1.00  0.00     0.146 A 
ATOM     11  O   UNL     1    -116.830 -97.279   1.788  1.00  0.00    -0.452 OA
ENDROOT
BRANCH   1  12
ATOM     12  C   UNL     1    -116.950 -99.334   0.533  1.00  0.00     0.025 A 
ATOM     13  C   UNL     1    -117.650 -99.348  -0.685  1.00  0.00     0.016 A 
ATOM     14  C   UNL     1    -118.320-100.500  -1.098  1.00  0.00     0.051 A 
ATOM     15  C   UNL     1    -118.298-101.660  -0.318  1.00  0.00     0.157 A 
ATOM     16  C   UNL     1    -116.907-100.503   1.308  1.00  0.00     0.062 A 
ATOM     17  C   UNL     1    -117.578-101.664   0.900  1.00  0.00     0.158 A 
BRANCH  15  18
ATOM     18  O   UNL     1    -118.993-102.776  -0.787  1.00  0.00    -0.504 OA
ATOM     19  H   UNL     1    -119.916-103.040  -0.474  1.00  0.00     0.293 HD
ENDBRANCH  15  18
BRANCH  17  20
ATOM     20  O   UNL     1    -117.501-102.785   1.728  1.00  0.00    -0.504 OA
ATOM     21  H   UNL     1    -117.150-103.684   1.430  1.00  0.00     0.293 HD
ENDBRANCH  17  20
ENDBRANCH   1  12
BRANCH   2  22
ATOM     22  O   UNL     1    -114.263 -98.709  -0.354  1.00  0.00    -0.502 OA
ATOM     23  H   UNL     1    -114.582 -98.809  -1.310  1.00  0.00     0.293 HD
ENDBRANCH   2  22
BRANCH   6  24
ATOM     24  O   UNL     1    -112.990 -94.341   2.415  1.00  0.00    -0.507 OA
ATOM     25  H   UNL     1    -112.382 -94.094   3.181  1.00  0.00     0.293 HD
ENDBRANCH   6  24
BRANCH   8  26
ATOM     26  O   UNL     1    -117.242 -93.340   4.409  1.00  0.00    -0.508 OA
ATOM     27  H   UNL     1    -117.489 -93.593   5.359  1.00  0.00     0.293 HD
ENDBRANCH   8  26
TORSDOF 6
ENDMDL
