MODEL 1
REMARK VINA RESULT:    11.950      0.000      0.000
REMARK INTER + INTRA:          25.337
REMARK INTER:                  25.922
REMARK INTRA:                  -0.585
REMARK UNBOUND:                -0.585
REMARK SMILES CCCCCCCCCCCCCCCCCCCCCC(=O)[O-]
REMARK SMILES IDX 12 1 11 2 10 3 9 4 8 5 7 6 6 7 5 8 4 9 3 10 2 11 1 12 13 13
REMARK SMILES IDX 14 14 15 15 16 16 17 17 18 18 19 19 20 20 21 21 22 22 23 23
REMARK SMILES IDX 24 24
REMARK H PARENT
REMARK Flexibility Score: inf
ROOT
ATOM      1  C   UNL     1       7.901 -25.314 -19.652  1.00  0.00     0.000 C 
ENDROOT
BRANCH   1   2
ATOM      2  C   UNL     1       9.181 -24.478 -19.445  1.00  0.00     0.000 C 
BRANCH   2   3
ATOM      3  C   UNL     1      10.186 -24.505 -20.614  1.00  0.00     0.000 C 
BRANCH   3   4
ATOM      4  C   UNL     1       9.636 -23.853 -21.895  1.00  0.00    -0.000 C 
BRANCH   4   5
ATOM      5  C   UNL     1      10.607 -23.945 -23.085  1.00  0.00    -0.000 C 
BRANCH   5   6
ATOM      6  C   UNL     1      11.372 -22.648 -23.408  1.00  0.00    -0.000 C 
BRANCH   6   7
ATOM      7  C   UNL     1      12.824 -22.901 -23.854  1.00  0.00    -0.000 C 
BRANCH   7   8
ATOM      8  C   UNL     1      12.986 -22.874 -25.380  1.00  0.00    -0.000 C 
BRANCH   8   9
ATOM      9  C   UNL     1      12.810 -24.262 -26.017  1.00  0.00    -0.000 C 
BRANCH   9  10
ATOM     10  C   UNL     1      14.101 -24.782 -26.673  1.00  0.00    -0.000 C 
BRANCH  10  11
ATOM     11  C   UNL     1      15.363 -24.009 -26.236  1.00  0.00    -0.003 C 
ATOM     12  C   UNL     1      16.387 -23.883 -27.364  1.00  0.00     0.004 C 
ENDBRANCH  10  11
ENDBRANCH   9  10
ENDBRANCH   8   9
ENDBRANCH   7   8
ENDBRANCH   6   7
ENDBRANCH   5   6
ENDBRANCH   4   5
ENDBRANCH   3   4
ENDBRANCH   2   3
ENDBRANCH   1   2
BRANCH   1  13
ATOM     13  C   UNL     1       7.269 -25.847 -18.352  1.00  0.00     0.000 C 
BRANCH  13  14
ATOM     14  C   UNL     1       7.852 -25.172 -17.097  1.00  0.00     0.000 C 
BRANCH  14  15
ATOM     15  C   UNL     1       6.902 -25.238 -15.884  1.00  0.00     0.000 C 
BRANCH  15  16
ATOM     16  C   UNL     1       5.498 -24.655 -16.146  1.00  0.00     0.000 C 
BRANCH  16  17
ATOM     17  C   UNL     1       4.318 -25.602 -15.856  1.00  0.00     0.000 C 
BRANCH  17  18
ATOM     18  C   UNL     1       4.174 -26.029 -14.384  1.00  0.00     0.000 C 
BRANCH  18  19
ATOM     19  C   UNL     1       3.671 -24.890 -13.479  1.00  0.00     0.000 C 
BRANCH  19  20
ATOM     20  C   UNL     1       4.817 -23.992 -12.986  1.00  0.00     0.006 C 
BRANCH  20  21
ATOM     21  C   UNL     1       4.997 -22.749 -13.868  1.00  0.00     0.053 C 
BRANCH  21  22
ATOM     22  C   UNL     1       6.260 -22.031 -13.512  1.00  0.00     0.041 C 
ATOM     23  O   UNL     1       6.273 -20.774 -13.423  1.00  0.00    -0.550 OA
ATOM     24  O   UNL     1       7.416 -22.751 -13.243  1.00  0.00    -0.550 OA
ENDBRANCH  21  22
ENDBRANCH  20  21
ENDBRANCH  19  20
ENDBRANCH  18  19
ENDBRANCH  17  18
ENDBRANCH  16  17
ENDBRANCH  15  16
ENDBRANCH  14  15
ENDBRANCH  13  14
ENDBRANCH   1  13
TORSDOF 20
ENDMDL
MODEL 2
REMARK VINA RESULT:    12.099      0.703      1.342
REMARK INTER + INTRA:          25.660
REMARK INTER:                  25.363
REMARK INTRA:                   0.297
REMARK UNBOUND:                -0.585
REMARK SMILES CCCCCCCCCCCCCCCCCCCCCC(=O)[O-]
REMARK SMILES IDX 12 1 11 2 10 3 9 4 8 5 7 6 6 7 5 8 4 9 3 10 2 11 1 12 13 13
REMARK SMILES IDX 14 14 15 15 16 16 17 17 18 18 19 19 20 20 21 21 22 22 23 23
REMARK SMILES IDX 24 24
REMARK H PARENT
REMARK Flexibility Score: inf
ROOT
ATOM      1  C   UNL     1       8.344 -25.096 -17.949  1.00  0.00     0.000 C 
ENDROOT
BRANCH   1   2
ATOM      2  C   UNL     1       8.181 -25.185 -19.481  1.00  0.00     0.000 C 
BRANCH   2   3
ATOM      3  C   UNL     1       9.218 -24.395 -20.305  1.00  0.00     0.000 C 
BRANCH   3   4
ATOM      4  C   UNL     1       8.584 -23.290 -21.167  1.00  0.00    -0.000 C 
BRANCH   4   5
ATOM      5  C   UNL     1       9.372 -23.004 -22.457  1.00  0.00    -0.000 C 
BRANCH   5   6
ATOM      6  C   UNL     1      10.661 -23.827 -22.635  1.00  0.00    -0.000 C 
BRANCH   6   7
ATOM      7  C   UNL     1      11.777 -23.050 -23.358  1.00  0.00    -0.000 C 
BRANCH   7   8
ATOM      8  C   UNL     1      11.923 -23.460 -24.829  1.00  0.00    -0.000 C 
BRANCH   8   9
ATOM      9  C   UNL     1      13.274 -23.038 -25.429  1.00  0.00    -0.000 C 
BRANCH   9  10
ATOM     10  C   UNL     1      13.957 -24.173 -26.212  1.00  0.00    -0.000 C 
BRANCH  10  11
ATOM     11  C   UNL     1      15.498 -24.123 -26.143  1.00  0.00    -0.003 C 
ATOM     12  C   UNL     1      16.137 -23.984 -27.525  1.00  0.00     0.004 C 
ENDBRANCH  10  11
ENDBRANCH   9  10
ENDBRANCH   8   9
ENDBRANCH   7   8
ENDBRANCH   6   7
ENDBRANCH   5   6
ENDBRANCH   4   5
ENDBRANCH   3   4
ENDBRANCH   2   3
ENDBRANCH   1   2
BRANCH   1  13
ATOM     13  C   UNL     1       7.148 -25.643 -17.147  1.00  0.00     0.000 C 
BRANCH  13  14
ATOM     14  C   UNL     1       6.725 -24.699 -16.007  1.00  0.00     0.000 C 
BRANCH  14  15
ATOM     15  C   UNL     1       5.195 -24.559 -15.878  1.00  0.00     0.000 C 
BRANCH  15  16
ATOM     16  C   UNL     1       4.419 -25.879 -16.072  1.00  0.00     0.000 C 
BRANCH  16  17
ATOM     17  C   UNL     1       3.523 -26.304 -14.893  1.00  0.00     0.000 C 
BRANCH  17  18
ATOM     18  C   UNL     1       4.080 -25.964 -13.499  1.00  0.00     0.000 C 
BRANCH  18  19
ATOM     19  C   UNL     1       3.628 -24.581 -12.997  1.00  0.00     0.000 C 
BRANCH  19  20
ATOM     20  C   UNL     1       4.819 -23.670 -12.663  1.00  0.00     0.006 C 
BRANCH  20  21
ATOM     21  C   UNL     1       5.211 -22.773 -13.846  1.00  0.00     0.053 C 
BRANCH  21  22
ATOM     22  C   UNL     1       6.357 -21.886 -13.475  1.00  0.00     0.041 C 
ATOM     23  O   UNL     1       7.507 -22.372 -13.305  1.00  0.00    -0.550 OA
ATOM     24  O   UNL     1       6.164 -20.517 -13.353  1.00  0.00    -0.550 OA
ENDBRANCH  21  22
ENDBRANCH  20  21
ENDBRANCH  19  20
ENDBRANCH  18  19
ENDBRANCH  17  18
ENDBRANCH  16  17
ENDBRANCH  15  16
ENDBRANCH  14  15
ENDBRANCH  13  14
ENDBRANCH   1  13
TORSDOF 20
ENDMDL
MODEL 3
REMARK VINA RESULT:    12.772      1.915      2.584
REMARK INTER + INTRA:          27.121
REMARK INTER:                  27.670
REMARK INTRA:                  -0.549
REMARK UNBOUND:                -0.585
REMARK SMILES CCCCCCCCCCCCCCCCCCCCCC(=O)[O-]
REMARK SMILES IDX 12 1 11 2 10 3 9 4 8 5 7 6 6 7 5 8 4 9 3 10 2 11 1 12 13 13
REMARK SMILES IDX 14 14 15 15 16 16 17 17 18 18 19 19 20 20 21 21 22 22 23 23
REMARK SMILES IDX 24 24
REMARK H PARENT
REMARK Flexibility Score: inf
ROOT
ATOM      1  C   UNL     1       7.773 -25.357 -19.067  1.00  0.00     0.000 C 
ENDROOT
BRANCH   1   2
ATOM      2  C   UNL     1       8.543 -24.373 -19.971  1.00  0.00     0.000 C 
BRANCH   2   3
ATOM      3  C   UNL     1      10.060 -24.626 -20.086  1.00  0.00     0.000 C 
BRANCH   3   4
ATOM      4  C   UNL     1      10.534 -24.780 -21.541  1.00  0.00    -0.000 C 
BRANCH   4   5
ATOM      5  C   UNL     1      10.293 -23.520 -22.391  1.00  0.00    -0.000 C 
BRANCH   5   6
ATOM      6  C   UNL     1      11.000 -23.506 -23.759  1.00  0.00    -0.000 C 
BRANCH   6   7
ATOM      7  C   UNL     1      12.371 -22.806 -23.721  1.00  0.00    -0.000 C 
BRANCH   7   8
ATOM      8  C   UNL     1      13.089 -22.842 -25.078  1.00  0.00    -0.000 C 
BRANCH   8   9
ATOM      9  C   UNL     1      12.686 -24.057 -25.928  1.00  0.00    -0.000 C 
BRANCH   9  10
ATOM     10  C   UNL     1      13.887 -24.715 -26.630  1.00  0.00    -0.000 C 
BRANCH  10  11
ATOM     11  C   UNL     1      15.249 -24.251 -26.073  1.00  0.00    -0.003 C 
ATOM     12  C   UNL     1      16.172 -23.715 -27.169  1.00  0.00     0.004 C 
ENDBRANCH  10  11
ENDBRANCH   9  10
ENDBRANCH   8   9
ENDBRANCH   7   8
ENDBRANCH   6   7
ENDBRANCH   5   6
ENDBRANCH   4   5
ENDBRANCH   3   4
ENDBRANCH   2   3
ENDBRANCH   1   2
BRANCH   1  13
ATOM     13  C   UNL     1       7.954 -25.113 -17.557  1.00  0.00     0.000 C 
BRANCH  13  14
ATOM     14  C   UNL     1       6.754 -25.615 -16.733  1.00  0.00     0.000 C 
BRANCH  14  15
ATOM     15  C   UNL     1       6.379 -24.666 -15.577  1.00  0.00     0.000 C 
BRANCH  15  16
ATOM     16  C   UNL     1       5.278 -23.644 -15.928  1.00  0.00     0.000 C 
BRANCH  16  17
ATOM     17  C   UNL     1       5.005 -22.565 -14.862  1.00  0.00     0.000 C 
BRANCH  17  18
ATOM     18  C   UNL     1       5.949 -22.602 -13.646  1.00  0.00     0.000 C 
BRANCH  18  19
ATOM     19  C   UNL     1       5.525 -23.641 -12.592  1.00  0.00     0.000 C 
BRANCH  19  20
ATOM     20  C   UNL     1       4.106 -24.175 -12.844  1.00  0.00     0.006 C 
BRANCH  20  21
ATOM     21  C   UNL     1       4.079 -25.705 -12.969  1.00  0.00     0.053 C 
BRANCH  21  22
ATOM     22  C   UNL     1       3.182 -26.123 -14.091  1.00  0.00     0.041 C 
ATOM     23  O   UNL     1       1.951 -26.302 -13.887  1.00  0.00    -0.550 OA
ATOM     24  O   UNL     1       3.697 -26.280 -15.371  1.00  0.00    -0.550 OA
ENDBRANCH  21  22
ENDBRANCH  20  21
ENDBRANCH  19  20
ENDBRANCH  18  19
ENDBRANCH  17  18
ENDBRANCH  16  17
ENDBRANCH  15  16
ENDBRANCH  14  15
ENDBRANCH  13  14
ENDBRANCH   1  13
TORSDOF 20
ENDMDL
MODEL 4
REMARK VINA RESULT:    13.196      4.558     12.003
REMARK INTER + INTRA:          28.039
REMARK INTER:                  28.615
REMARK INTRA:                  -0.576
REMARK UNBOUND:                -0.585
REMARK SMILES CCCCCCCCCCCCCCCCCCCCCC(=O)[O-]
REMARK SMILES IDX 12 1 11 2 10 3 9 4 8 5 7 6 6 7 5 8 4 9 3 10 2 11 1 12 13 13
REMARK SMILES IDX 14 14 15 15 16 16 17 17 18 18 19 19 20 20 21 21 22 22 23 23
REMARK SMILES IDX 24 24
REMARK H PARENT
REMARK Flexibility Score: inf
ROOT
ATOM      1  C   UNL     1       8.091 -25.162 -17.456  1.00  0.00     0.000 C 
ENDROOT
BRANCH   1   2
ATOM      2  C   UNL     1       7.048 -25.552 -16.389  1.00  0.00     0.000 C 
BRANCH   2   3
ATOM      3  C   UNL     1       6.045 -24.445 -16.006  1.00  0.00     0.000 C 
BRANCH   3   4
ATOM      4  C   UNL     1       4.581 -24.912 -16.075  1.00  0.00    -0.000 C 
BRANCH   4   5
ATOM      5  C   UNL     1       4.341 -26.255 -15.365  1.00  0.00    -0.000 C 
BRANCH   5   6
ATOM      6  C   UNL     1       3.187 -26.262 -14.345  1.00  0.00    -0.000 C 
BRANCH   6   7
ATOM      7  C   UNL     1       3.542 -25.546 -13.029  1.00  0.00    -0.000 C 
BRANCH   7   8
ATOM      8  C   UNL     1       3.870 -24.060 -13.236  1.00  0.00    -0.000 C 
BRANCH   8   9
ATOM      9  C   UNL     1       5.033 -23.583 -12.350  1.00  0.00    -0.000 C 
BRANCH   9  10
ATOM     10  C   UNL     1       6.377 -23.556 -13.100  1.00  0.00    -0.000 C 
BRANCH  10  11
ATOM     11  C   UNL     1       6.846 -22.131 -13.462  1.00  0.00    -0.003 C 
ATOM     12  C   UNL     1       5.674 -21.180 -13.708  1.00  0.00     0.004 C 
ENDBRANCH  10  11
ENDBRANCH   9  10
ENDBRANCH   8   9
ENDBRANCH   7   8
ENDBRANCH   6   7
ENDBRANCH   5   6
ENDBRANCH   4   5
ENDBRANCH   3   4
ENDBRANCH   2   3
ENDBRANCH   1   2
BRANCH   1  13
ATOM     13  C   UNL     1       7.618 -25.347 -18.910  1.00  0.00     0.000 C 
BRANCH  13  14
ATOM     14  C   UNL     1       8.369 -24.431 -19.893  1.00  0.00     0.000 C 
BRANCH  14  15
ATOM     15  C   UNL     1       9.885 -24.707 -19.933  1.00  0.00     0.000 C 
BRANCH  15  16
ATOM     16  C   UNL     1      10.476 -24.793 -21.356  1.00  0.00     0.000 C 
BRANCH  16  17
ATOM     17  C   UNL     1      10.071 -23.659 -22.316  1.00  0.00     0.000 C 
BRANCH  17  18
ATOM     18  C   UNL     1      10.922 -23.556 -23.595  1.00  0.00     0.000 C 
BRANCH  18  19
ATOM     19  C   UNL     1      12.049 -22.514 -23.480  1.00  0.00     0.000 C 
BRANCH  19  20
ATOM     20  C   UNL     1      13.137 -22.718 -24.545  1.00  0.00     0.006 C 
BRANCH  20  21
ATOM     21  C   UNL     1      12.640 -23.566 -25.725  1.00  0.00     0.053 C 
BRANCH  21  22
ATOM     22  C   UNL     1      13.755 -24.389 -26.287  1.00  0.00     0.041 C 
ATOM     23  O   UNL     1      13.504 -25.425 -26.958  1.00  0.00    -0.550 OA
ATOM     24  O   UNL     1      15.073 -23.992 -26.101  1.00  0.00    -0.550 OA
ENDBRANCH  21  22
ENDBRANCH  20  21
ENDBRANCH  19  20
ENDBRANCH  18  19
ENDBRANCH  17  18
ENDBRANCH  16  17
ENDBRANCH  15  16
ENDBRANCH  14  15
ENDBRANCH  13  14
ENDBRANCH   1  13
TORSDOF 20
ENDMDL
MODEL 5
REMARK VINA RESULT:    13.214      5.009     12.695
REMARK INTER + INTRA:          28.079
REMARK INTER:                  29.404
REMARK INTRA:                  -1.325
REMARK UNBOUND:                -0.585
REMARK SMILES CCCCCCCCCCCCCCCCCCCCCC(=O)[O-]
REMARK SMILES IDX 12 1 11 2 10 3 9 4 8 5 7 6 6 7 5 8 4 9 3 10 2 11 1 12 13 13
REMARK SMILES IDX 14 14 15 15 16 16 17 17 18 18 19 19 20 20 21 21 22 22 23 23
REMARK SMILES IDX 24 24
REMARK H PARENT
REMARK Flexibility Score: inf
ROOT
ATOM      1  C   UNL     1       8.293 -24.775 -19.849  1.00  0.00     0.000 C 
ENDROOT
BRANCH   1   2
ATOM      2  C   UNL     1       7.867 -25.706 -18.695  1.00  0.00     0.000 C 
BRANCH   2   3
ATOM      3  C   UNL     1       7.962 -25.096 -17.282  1.00  0.00     0.000 C 
BRANCH   3   4
ATOM      4  C   UNL     1       6.804 -25.525 -16.364  1.00  0.00    -0.000 C 
BRANCH   4   5
ATOM      5  C   UNL     1       5.753 -24.420 -16.162  1.00  0.00    -0.000 C 
BRANCH   5   6
ATOM      6  C   UNL     1       4.303 -24.914 -16.003  1.00  0.00    -0.000 C 
BRANCH   6   7
ATOM      7  C   UNL     1       4.170 -26.075 -15.000  1.00  0.00    -0.000 C 
BRANCH   7   8
ATOM      8  C   UNL     1       4.430 -25.636 -13.552  1.00  0.00    -0.000 C 
BRANCH   8   9
ATOM      9  C   UNL     1       3.619 -24.391 -13.158  1.00  0.00    -0.000 C 
BRANCH   9  10
ATOM     10  C   UNL     1       4.480 -23.315 -12.474  1.00  0.00    -0.000 C 
BRANCH  10  11
ATOM     11  C   UNL     1       5.993 -23.499 -12.715  1.00  0.00    -0.003 C 
ATOM     12  C   UNL     1       6.571 -22.417 -13.629  1.00  0.00     0.004 C 
ENDBRANCH  10  11
ENDBRANCH   9  10
ENDBRANCH   8   9
ENDBRANCH   7   8
ENDBRANCH   6   7
ENDBRANCH   5   6
ENDBRANCH   4   5
ENDBRANCH   3   4
ENDBRANCH   2   3
ENDBRANCH   1   2
BRANCH   1  13
ATOM     13  C   UNL     1       9.810 -24.530 -19.946  1.00  0.00     0.000 C 
BRANCH  13  14
ATOM     14  C   UNL     1      10.348 -24.735 -21.374  1.00  0.00     0.000 C 
BRANCH  14  15
ATOM     15  C   UNL     1       9.958 -23.593 -22.333  1.00  0.00     0.000 C 
BRANCH  15  16
ATOM     16  C   UNL     1      10.843 -23.493 -23.593  1.00  0.00     0.000 C 
BRANCH  16  17
ATOM     17  C   UNL     1      12.206 -22.800 -23.397  1.00  0.00     0.000 C 
BRANCH  17  18
ATOM     18  C   UNL     1      13.151 -22.874 -24.610  1.00  0.00     0.000 C 
BRANCH  18  19
ATOM     19  C   UNL     1      12.578 -23.718 -25.763  1.00  0.00     0.000 C 
BRANCH  19  20
ATOM     20  C   UNL     1      13.676 -24.473 -26.528  1.00  0.00     0.006 C 
BRANCH  20  21
ATOM     21  C   UNL     1      15.084 -24.024 -26.113  1.00  0.00     0.053 C 
BRANCH  21  22
ATOM     22  C   UNL     1      15.904 -23.686 -27.317  1.00  0.00     0.041 C 
ATOM     23  O   UNL     1      15.575 -22.721 -28.058  1.00  0.00    -0.550 OA
ATOM     24  O   UNL     1      17.051 -24.413 -27.603  1.00  0.00    -0.550 OA
ENDBRANCH  21  22
ENDBRANCH  20  21
ENDBRANCH  19  20
ENDBRANCH  18  19
ENDBRANCH  17  18
ENDBRANCH  16  17
ENDBRANCH  15  16
ENDBRANCH  14  15
ENDBRANCH  13  14
ENDBRANCH   1  13
TORSDOF 20
ENDMDL
MODEL 6
REMARK VINA RESULT:    13.501      4.547     12.076
REMARK INTER + INTRA:          28.702
REMARK INTER:                  30.033
REMARK INTRA:                  -1.331
REMARK UNBOUND:                -0.585
REMARK SMILES CCCCCCCCCCCCCCCCCCCCCC(=O)[O-]
REMARK SMILES IDX 12 1 11 2 10 3 9 4 8 5 7 6 6 7 5 8 4 9 3 10 2 11 1 12 13 13
REMARK SMILES IDX 14 14 15 15 16 16 17 17 18 18 19 19 20 20 21 21 22 22 23 23
REMARK SMILES IDX 24 24
REMARK H PARENT
REMARK Flexibility Score: inf
ROOT
ATOM      1  C   UNL     1       7.689 -25.895 -17.938  1.00  0.00     0.000 C 
ENDROOT
BRANCH   1   2
ATOM      2  C   UNL     1       7.654 -24.922 -16.741  1.00  0.00     0.000 C 
BRANCH   2   3
ATOM      3  C   UNL     1       6.382 -24.985 -15.872  1.00  0.00     0.000 C 
BRANCH   3   4
ATOM      4  C   UNL     1       5.366 -23.882 -16.215  1.00  0.00    -0.000 C 
BRANCH   4   5
ATOM      5  C   UNL     1       5.043 -22.966 -15.021  1.00  0.00    -0.000 C 
BRANCH   5   6
ATOM      6  C   UNL     1       6.191 -22.772 -14.014  1.00  0.00    -0.000 C 
BRANCH   6   7
ATOM      7  C   UNL     1       5.879 -23.359 -12.625  1.00  0.00    -0.000 C 
BRANCH   7   8
ATOM      8  C   UNL     1       4.389 -23.681 -12.442  1.00  0.00    -0.000 C 
BRANCH   8   9
ATOM      9  C   UNL     1       4.111 -25.192 -12.409  1.00  0.00    -0.000 C 
BRANCH   9  10
ATOM     10  C   UNL     1       3.126 -25.638 -13.504  1.00  0.00    -0.000 C 
BRANCH  10  11
ATOM     11  C   UNL     1       3.741 -26.633 -14.510  1.00  0.00    -0.003 C 
ATOM     12  C   UNL     1       3.236 -26.406 -15.935  1.00  0.00     0.004 C 
ENDBRANCH  10  11
ENDBRANCH   9  10
ENDBRANCH   8   9
ENDBRANCH   7   8
ENDBRANCH   6   7
ENDBRANCH   5   6
ENDBRANCH   4   5
ENDBRANCH   3   4
ENDBRANCH   2   3
ENDBRANCH   1   2
BRANCH   1  13
ATOM     13  C   UNL     1       7.925 -25.221 -19.303  1.00  0.00     0.000 C 
BRANCH  13  14
ATOM     14  C   UNL     1       9.291 -24.517 -19.382  1.00  0.00     0.000 C 
BRANCH  14  15
ATOM     15  C   UNL     1       9.893 -24.529 -20.802  1.00  0.00     0.000 C 
BRANCH  15  16
ATOM     16  C   UNL     1       9.129 -23.658 -21.821  1.00  0.00     0.000 C 
BRANCH  16  17
ATOM     17  C   UNL     1      10.003 -22.766 -22.723  1.00  0.00     0.000 C 
BRANCH  17  18
ATOM     18  C   UNL     1      11.045 -23.520 -23.569  1.00  0.00     0.000 C 
BRANCH  18  19
ATOM     19  C   UNL     1      12.455 -22.913 -23.460  1.00  0.00     0.000 C 
BRANCH  19  20
ATOM     20  C   UNL     1      13.097 -22.689 -24.838  1.00  0.00     0.006 C 
BRANCH  20  21
ATOM     21  C   UNL     1      12.672 -23.759 -25.854  1.00  0.00     0.053 C 
BRANCH  21  22
ATOM     22  C   UNL     1      13.858 -24.549 -26.310  1.00  0.00     0.041 C 
ATOM     23  O   UNL     1      13.698 -25.622 -26.951  1.00  0.00    -0.550 OA
ATOM     24  O   UNL     1      15.141 -24.084 -26.058  1.00  0.00    -0.550 OA
ENDBRANCH  21  22
ENDBRANCH  20  21
ENDBRANCH  19  20
ENDBRANCH  18  19
ENDBRANCH  17  18
ENDBRANCH  16  17
ENDBRANCH  15  16
ENDBRANCH  14  15
ENDBRANCH  13  14
ENDBRANCH   1  13
TORSDOF 20
ENDMDL
MODEL 7
REMARK VINA RESULT:    13.656      5.724     11.000
REMARK INTER + INTRA:          29.038
REMARK INTER:                  30.063
REMARK INTRA:                  -1.025
REMARK UNBOUND:                -0.585
REMARK SMILES CCCCCCCCCCCCCCCCCCCCCC(=O)[O-]
REMARK SMILES IDX 12 1 11 2 10 3 9 4 8 5 7 6 6 7 5 8 4 9 3 10 2 11 1 12 13 13
REMARK SMILES IDX 14 14 15 15 16 16 17 17 18 18 19 19 20 20 21 21 22 22 23 23
REMARK SMILES IDX 24 24
REMARK H PARENT
REMARK Flexibility Score: inf
ROOT
ATOM      1  C   UNL     1       5.836 -21.799 -14.002  1.00  0.00     0.000 C 
ENDROOT
BRANCH   1   2
ATOM      2  C   UNL     1       5.743 -20.462 -13.238  1.00  0.00     0.000 C 
BRANCH   2   3
ATOM      3  C   UNL     1       5.018 -19.322 -13.981  1.00  0.00     0.000 C 
BRANCH   3   4
ATOM      4  C   UNL     1       4.032 -18.553 -13.086  1.00  0.00    -0.000 C 
BRANCH   4   5
ATOM      5  C   UNL     1       3.759 -17.121 -13.579  1.00  0.00    -0.000 C 
BRANCH   5   6
ATOM      6  C   UNL     1       2.681 -16.998 -14.673  1.00  0.00    -0.000 C 
BRANCH   6   7
ATOM      7  C   UNL     1       2.300 -15.539 -14.981  1.00  0.00    -0.000 C 
BRANCH   7   8
ATOM      8  C   UNL     1       1.445 -15.408 -16.250  1.00  0.00    -0.000 C 
BRANCH   8   9
ATOM      9  C   UNL     1       1.932 -14.282 -17.177  1.00  0.00    -0.000 C 
BRANCH   9  10
ATOM     10  C   UNL     1       3.087 -14.725 -18.092  1.00  0.00    -0.000 C 
BRANCH  10  11
ATOM     11  C   UNL     1       3.317 -13.776 -19.288  1.00  0.00    -0.003 C 
ATOM     12  C   UNL     1       3.726 -12.371 -18.844  1.00  0.00     0.004 C 
ENDBRANCH  10  11
ENDBRANCH   9  10
ENDBRANCH   8   9
ENDBRANCH   7   8
ENDBRANCH   6   7
ENDBRANCH   5   6
ENDBRANCH   4   5
ENDBRANCH   3   4
ENDBRANCH   2   3
ENDBRANCH   1   2
BRANCH   1  13
ATOM     13  C   UNL     1       6.288 -22.996 -13.143  1.00  0.00     0.000 C 
BRANCH  13  14
ATOM     14  C   UNL     1       5.119 -23.924 -12.769  1.00  0.00     0.000 C 
BRANCH  14  15
ATOM     15  C   UNL     1       4.238 -24.299 -13.978  1.00  0.00     0.000 C 
BRANCH  15  16
ATOM     16  C   UNL     1       4.701 -25.564 -14.732  1.00  0.00     0.000 C 
BRANCH  16  17
ATOM     17  C   UNL     1       5.031 -25.367 -16.224  1.00  0.00     0.000 C 
BRANCH  17  18
ATOM     18  C   UNL     1       6.420 -24.767 -16.507  1.00  0.00     0.000 C 
BRANCH  18  19
ATOM     19  C   UNL     1       7.381 -25.771 -17.168  1.00  0.00     0.000 C 
BRANCH  19  20
ATOM     20  C   UNL     1       7.607 -25.464 -18.656  1.00  0.00     0.006 C 
BRANCH  20  21
ATOM     21  C   UNL     1       8.755 -24.467 -18.872  1.00  0.00     0.053 C 
BRANCH  21  22
ATOM     22  C   UNL     1       9.116 -24.389 -20.322  1.00  0.00     0.041 C 
ATOM     23  O   UNL     1      10.071 -25.073 -20.777  1.00  0.00    -0.550 OA
ATOM     24  O   UNL     1       8.374 -23.588 -21.180  1.00  0.00    -0.550 OA
ENDBRANCH  21  22
ENDBRANCH  20  21
ENDBRANCH  19  20
ENDBRANCH  18  19
ENDBRANCH  17  18
ENDBRANCH  16  17
ENDBRANCH  15  16
ENDBRANCH  14  15
ENDBRANCH  13  14
ENDBRANCH   1  13
TORSDOF 20
ENDMDL
MODEL 8
REMARK VINA RESULT:    14.057      5.568     10.041
REMARK INTER + INTRA:          29.908
REMARK INTER:                  30.500
REMARK INTRA:                  -0.591
REMARK UNBOUND:                -0.585
REMARK SMILES CCCCCCCCCCCCCCCCCCCCCC(=O)[O-]
REMARK SMILES IDX 12 1 11 2 10 3 9 4 8 5 7 6 6 7 5 8 4 9 3 10 2 11 1 12 13 13
REMARK SMILES IDX 14 14 15 15 16 16 17 17 18 18 19 19 20 20 21 21 22 22 23 23
REMARK SMILES IDX 24 24
REMARK H PARENT
REMARK Flexibility Score: inf
ROOT
ATOM      1  C   UNL     1       5.333 -21.615 -13.986  1.00  0.00     0.000 C 
ENDROOT
BRANCH   1   2
ATOM      2  C   UNL     1       6.189 -22.784 -13.456  1.00  0.00     0.000 C 
BRANCH   2   3
ATOM      3  C   UNL     1       5.404 -23.935 -12.797  1.00  0.00     0.000 C 
BRANCH   3   4
ATOM      4  C   UNL     1       3.965 -24.062 -13.327  1.00  0.00    -0.000 C 
BRANCH   4   5
ATOM      5  C   UNL     1       3.567 -25.512 -13.654  1.00  0.00    -0.000 C 
BRANCH   5   6
ATOM      6  C   UNL     1       4.276 -26.127 -14.876  1.00  0.00    -0.000 C 
BRANCH   6   7
ATOM      7  C   UNL     1       4.564 -25.099 -15.985  1.00  0.00    -0.000 C 
BRANCH   7   8
ATOM      8  C   UNL     1       6.051 -24.725 -16.071  1.00  0.00    -0.000 C 
BRANCH   8   9
ATOM      9  C   UNL     1       6.878 -25.767 -16.842  1.00  0.00    -0.000 C 
BRANCH   9  10
ATOM     10  C   UNL     1       8.082 -25.146 -17.572  1.00  0.00    -0.000 C 
BRANCH  10  11
ATOM     11  C   UNL     1       7.967 -25.214 -19.109  1.00  0.00    -0.003 C 
ATOM     12  C   UNL     1       9.047 -24.390 -19.810  1.00  0.00     0.004 C 
ENDBRANCH  10  11
ENDBRANCH   9  10
ENDBRANCH   8   9
ENDBRANCH   7   8
ENDBRANCH   6   7
ENDBRANCH   5   6
ENDBRANCH   4   5
ENDBRANCH   3   4
ENDBRANCH   2   3
ENDBRANCH   1   2
BRANCH   1  13
ATOM     13  C   UNL     1       5.819 -20.219 -13.552  1.00  0.00     0.000 C 
BRANCH  13  14
ATOM     14  C   UNL     1       4.657 -19.287 -13.167  1.00  0.00     0.000 C 
BRANCH  14  15
ATOM     15  C   UNL     1       4.639 -17.978 -13.983  1.00  0.00     0.000 C 
BRANCH  15  16
ATOM     16  C   UNL     1       3.362 -17.132 -13.797  1.00  0.00     0.000 C 
BRANCH  16  17
ATOM     17  C   UNL     1       3.059 -16.125 -14.923  1.00  0.00     0.000 C 
BRANCH  17  18
ATOM     18  C   UNL     1       1.578 -15.727 -15.057  1.00  0.00     0.000 C 
BRANCH  18  19
ATOM     19  C   UNL     1       1.193 -15.335 -16.495  1.00  0.00     0.000 C 
BRANCH  19  20
ATOM     20  C   UNL     1       2.074 -14.201 -17.041  1.00  0.00     0.006 C 
BRANCH  20  21
ATOM     21  C   UNL     1       3.192 -14.726 -17.952  1.00  0.00     0.053 C 
BRANCH  21  22
ATOM     22  C   UNL     1       3.317 -13.875 -19.175  1.00  0.00     0.041 C 
ATOM     23  O   UNL     1       3.465 -14.407 -20.308  1.00  0.00    -0.550 OA
ATOM     24  O   UNL     1       3.233 -12.493 -19.071  1.00  0.00    -0.550 OA
ENDBRANCH  21  22
ENDBRANCH  20  21
ENDBRANCH  19  20
ENDBRANCH  18  19
ENDBRANCH  17  18
ENDBRANCH  16  17
ENDBRANCH  15  16
ENDBRANCH  14  15
ENDBRANCH  13  14
ENDBRANCH   1  13
TORSDOF 20
ENDMDL
MODEL 9
REMARK VINA RESULT:    14.116      5.430      9.525
REMARK INTER + INTRA:          30.035
REMARK INTER:                  30.913
REMARK INTRA:                  -0.878
REMARK UNBOUND:                -0.585
REMARK SMILES CCCCCCCCCCCCCCCCCCCCCC(=O)[O-]
REMARK SMILES IDX 12 1 11 2 10 3 9 4 8 5 7 6 6 7 5 8 4 9 3 10 2 11 1 12 13 13
REMARK SMILES IDX 14 14 15 15 16 16 17 17 18 18 19 19 20 20 21 21 22 22 23 23
REMARK SMILES IDX 24 24
REMARK H PARENT
REMARK Flexibility Score: inf
ROOT
ATOM      1  C   UNL     1       6.587 -21.886 -13.511  1.00  0.00     0.000 C 
ENDROOT
BRANCH   1   2
ATOM      2  C   UNL     1       6.236 -23.364 -13.239  1.00  0.00     0.000 C 
BRANCH   2   3
ATOM      3  C   UNL     1       4.774 -23.635 -12.833  1.00  0.00     0.000 C 
BRANCH   3   4
ATOM      4  C   UNL     1       3.928 -24.207 -13.984  1.00  0.00    -0.000 C 
BRANCH   4   5
ATOM      5  C   UNL     1       4.174 -25.706 -14.228  1.00  0.00    -0.000 C 
BRANCH   5   6
ATOM      6  C   UNL     1       4.753 -26.059 -15.611  1.00  0.00    -0.000 C 
BRANCH   6   7
ATOM      7  C   UNL     1       5.688 -24.970 -16.169  1.00  0.00    -0.000 C 
BRANCH   7   8
ATOM      8  C   UNL     1       7.050 -25.528 -16.603  1.00  0.00    -0.000 C 
BRANCH   8   9
ATOM      9  C   UNL     1       7.284 -25.405 -18.117  1.00  0.00    -0.000 C 
BRANCH   9  10
ATOM     10  C   UNL     1       8.592 -24.670 -18.458  1.00  0.00    -0.000 C 
BRANCH  10  11
ATOM     11  C   UNL     1       8.746 -24.362 -19.962  1.00  0.00    -0.003 C 
ATOM     12  C   UNL     1      10.046 -24.923 -20.540  1.00  0.00     0.004 C 
ENDBRANCH  10  11
ENDBRANCH   9  10
ENDBRANCH   8   9
ENDBRANCH   7   8
ENDBRANCH   6   7
ENDBRANCH   5   6
ENDBRANCH   4   5
ENDBRANCH   3   4
ENDBRANCH   2   3
ENDBRANCH   1   2
BRANCH   1  13
ATOM     13  C   UNL     1       5.384 -21.006 -13.901  1.00  0.00     0.000 C 
BRANCH  13  14
ATOM     14  C   UNL     1       5.420 -19.627 -13.218  1.00  0.00     0.000 C 
BRANCH  14  15
ATOM     15  C   UNL     1       4.930 -18.489 -14.135  1.00  0.00     0.000 C 
BRANCH  15  16
ATOM     16  C   UNL     1       3.601 -17.842 -13.688  1.00  0.00     0.000 C 
BRANCH  16  17
ATOM     17  C   UNL     1       3.319 -16.438 -14.256  1.00  0.00     0.000 C 
BRANCH  17  18
ATOM     18  C   UNL     1       2.179 -16.374 -15.290  1.00  0.00     0.000 C 
BRANCH  18  19
ATOM     19  C   UNL     1       1.828 -14.933 -15.703  1.00  0.00     0.000 C 
BRANCH  19  20
ATOM     20  C   UNL     1       1.837 -14.749 -17.228  1.00  0.00     0.006 C 
BRANCH  20  21
ATOM     21  C   UNL     1       3.191 -14.239 -17.741  1.00  0.00     0.053 C 
BRANCH  21  22
ATOM     22  C   UNL     1       3.091 -13.839 -19.179  1.00  0.00     0.041 C 
ATOM     23  O   UNL     1       3.114 -12.621 -19.502  1.00  0.00    -0.550 OA
ATOM     24  O   UNL     1       3.007 -14.811 -20.166  1.00  0.00    -0.550 OA
ENDBRANCH  21  22
ENDBRANCH  20  21
ENDBRANCH  19  20
ENDBRANCH  18  19
ENDBRANCH  17  18
ENDBRANCH  16  17
ENDBRANCH  15  16
ENDBRANCH  14  15
ENDBRANCH  13  14
ENDBRANCH   1  13
TORSDOF 20
ENDMDL
