MODEL 1
REMARK VINA RESULT:    -3.649      0.000      0.000
REMARK INTER + INTRA:         -14.264
REMARK INTER:                  -9.623
REMARK INTRA:                  -4.642
REMARK UNBOUND:                -4.642
REMARK SMILES CCCCCCCCCCCCCCCCCCCCCCCCCCCCCC(=O)[O-]
REMARK SMILES IDX 16 1 17 2 18 3 19 4 20 5 21 6 22 7 23 8 24 9 25 10 26 11
REMARK SMILES IDX 27 12 28 13 29 14 30 15 31 16 32 17 15 18 14 19 13 20 12 21
REMARK SMILES IDX 11 22 10 23 9 24 8 25 7 26 6 27 5 28 4 29 3 30 2 31 1 32
REMARK H PARENT
REMARK Flexibility Score: inf
ROOT
ATOM      1  C   UNL     1     -24.636  -7.118  18.990  1.00  0.00     0.000 C 
ENDROOT
BRANCH   1   2
ATOM      2  C   UNL     1     -23.236  -7.301  18.368  1.00  0.00     0.000 C 
BRANCH   2   3
ATOM      3  C   UNL     1     -22.424  -6.003  18.220  1.00  0.00     0.000 C 
BRANCH   3   4
ATOM      4  C   UNL     1     -21.417  -6.061  17.061  1.00  0.00     0.000 C 
BRANCH   4   5
ATOM      5  C   UNL     1     -21.065  -4.652  16.568  1.00  0.00     0.000 C 
BRANCH   5   6
ATOM      6  C   UNL     1     -21.175  -4.517  15.039  1.00  0.00     0.000 C 
BRANCH   6   7
ATOM      7  C   UNL     1     -19.913  -4.929  14.255  1.00  0.00     0.000 C 
BRANCH   7   8
ATOM      8  C   UNL     1     -18.627  -5.065  15.090  1.00  0.00     0.000 C 
BRANCH   8   9
ATOM      9  C   UNL     1     -17.695  -6.167  14.558  1.00  0.00     0.000 C 
BRANCH   9  10
ATOM     10  C   UNL     1     -18.452  -7.285  13.820  1.00  0.00     0.000 C 
BRANCH  10  11
ATOM     11  C   UNL     1     -19.175  -8.295  14.731  1.00  0.00     0.000 C 
BRANCH  11  12
ATOM     12  C   UNL     1     -18.698  -8.236  16.188  1.00  0.00     0.000 C 
BRANCH  12  13
ATOM     13  C   UNL     1     -19.611  -9.056  17.106  1.00  0.00     0.006 C 
BRANCH  13  14
ATOM     14  C   UNL     1     -19.047  -9.164  18.528  1.00  0.00     0.053 C 
BRANCH  14  15
ATOM     15  C   UNL     1     -17.841 -10.052  18.583  1.00  0.00     0.041 C 
ATOM     16  O   UNL     1     -17.965 -11.298  18.454  1.00  0.00    -0.550 OA
ATOM     17  O   UNL     1     -16.583  -9.501  18.810  1.00  0.00    -0.550 OA
ENDBRANCH  14  15
ENDBRANCH  13  14
ENDBRANCH  12  13
ENDBRANCH  11  12
ENDBRANCH  10  11
ENDBRANCH   9  10
ENDBRANCH   8   9
ENDBRANCH   7   8
ENDBRANCH   6   7
ENDBRANCH   5   6
ENDBRANCH   4   5
ENDBRANCH   3   4
ENDBRANCH   2   3
ENDBRANCH   1   2
BRANCH   1  18
ATOM     18  C   UNL     1     -24.919  -5.714  19.564  1.00  0.00     0.000 C 
BRANCH  18  19
ATOM     19  C   UNL     1     -25.863  -5.674  20.783  1.00  0.00     0.000 C 
BRANCH  19  20
ATOM     20  C   UNL     1     -27.076  -4.740  20.634  1.00  0.00     0.000 C 
BRANCH  20  21
ATOM     21  C   UNL     1     -28.027  -5.164  19.507  1.00  0.00     0.000 C 
BRANCH  21  22
ATOM     22  C   UNL     1     -27.773  -4.318  18.253  1.00  0.00     0.000 C 
BRANCH  22  23
ATOM     23  C   UNL     1     -27.509  -5.159  16.992  1.00  0.00     0.000 C 
BRANCH  23  24
ATOM     24  C   UNL     1     -27.838  -6.656  17.159  1.00  0.00    -0.000 C 
BRANCH  24  25
ATOM     25  C   UNL     1     -26.995  -7.545  16.221  1.00  0.00    -0.000 C 
BRANCH  25  26
ATOM     26  C   UNL     1     -25.954  -6.744  15.418  1.00  0.00    -0.000 C 
BRANCH  26  27
ATOM     27  C   UNL     1     -24.983  -7.637  14.627  1.00  0.00    -0.000 C 
BRANCH  27  28
ATOM     28  C   UNL     1     -23.527  -7.174  14.812  1.00  0.00    -0.000 C 
BRANCH  28  29
ATOM     29  C   UNL     1     -22.544  -8.356  14.924  1.00  0.00    -0.000 C 
BRANCH  29  30
ATOM     30  C   UNL     1     -23.264  -9.722  15.065  1.00  0.00    -0.000 C 
BRANCH  30  31
ATOM     31  C   UNL     1     -23.165 -10.334  16.471  1.00  0.00    -0.003 C 
ATOM     32  C   UNL     1     -24.525 -10.486  17.155  1.00  0.00     0.004 C 
ENDBRANCH  30  31
ENDBRANCH  29  30
ENDBRANCH  28  29
ENDBRANCH  27  28
ENDBRANCH  26  27
ENDBRANCH  25  26
ENDBRANCH  24  25
ENDBRANCH  23  24
ENDBRANCH  22  23
ENDBRANCH  21  22
ENDBRANCH  20  21
ENDBRANCH  19  20
ENDBRANCH  18  19
ENDBRANCH   1  18
TORSDOF 28
ENDMDL
MODEL 2
REMARK VINA RESULT:    -3.275      3.286      6.854
REMARK INTER + INTRA:         -13.278
REMARK INTER:                 -10.367
REMARK INTRA:                  -2.911
REMARK UNBOUND:                -4.642
REMARK SMILES CCCCCCCCCCCCCCCCCCCCCCCCCCCCCC(=O)[O-]
REMARK SMILES IDX 16 1 17 2 18 3 19 4 20 5 21 6 22 7 23 8 24 9 25 10 26 11
REMARK SMILES IDX 27 12 28 13 29 14 30 15 31 16 32 17 15 18 14 19 13 20 12 21
REMARK SMILES IDX 11 22 10 23 9 24 8 25 7 26 6 27 5 28 4 29 3 30 2 31 1 32
REMARK H PARENT
REMARK Flexibility Score: inf
ROOT
ATOM      1  C   UNL     1     -21.723  -7.233  14.269  1.00  0.00     0.000 C 
ENDROOT
BRANCH   1   2
ATOM      2  C   UNL     1     -21.715  -5.810  14.866  1.00  0.00     0.000 C 
BRANCH   2   3
ATOM      3  C   UNL     1     -21.077  -5.703  16.261  1.00  0.00     0.000 C 
BRANCH   3   4
ATOM      4  C   UNL     1     -22.119  -5.574  17.382  1.00  0.00     0.000 C 
BRANCH   4   5
ATOM      5  C   UNL     1     -22.009  -6.741  18.371  1.00  0.00     0.000 C 
BRANCH   5   6
ATOM      6  C   UNL     1     -21.562  -8.049  17.694  1.00  0.00     0.000 C 
BRANCH   6   7
ATOM      7  C   UNL     1     -20.145  -8.527  18.069  1.00  0.00     0.000 C 
BRANCH   7   8
ATOM      8  C   UNL     1     -19.320  -9.125  16.915  1.00  0.00     0.000 C 
BRANCH   8   9
ATOM      9  C   UNL     1     -18.451  -8.072  16.207  1.00  0.00     0.000 C 
BRANCH   9  10
ATOM     10  C   UNL     1     -18.512  -8.180  14.673  1.00  0.00     0.000 C 
BRANCH  10  11
ATOM     11  C   UNL     1     -18.175  -6.883  13.913  1.00  0.00     0.000 C 
BRANCH  11  12
ATOM     12  C   UNL     1     -17.919  -5.692  14.844  1.00  0.00     0.000 C 
BRANCH  12  13
ATOM     13  C   UNL     1     -16.776  -4.814  14.323  1.00  0.00     0.006 C 
BRANCH  13  14
ATOM     14  C   UNL     1     -16.921  -4.513  12.825  1.00  0.00     0.053 C 
BRANCH  14  15
ATOM     15  C   UNL     1     -17.290  -3.080  12.580  1.00  0.00     0.041 C 
ATOM     16  O   UNL     1     -18.494  -2.718  12.632  1.00  0.00    -0.550 OA
ATOM     17  O   UNL     1     -16.301  -2.155  12.259  1.00  0.00    -0.550 OA
ENDBRANCH  14  15
ENDBRANCH  13  14
ENDBRANCH  12  13
ENDBRANCH  11  12
ENDBRANCH  10  11
ENDBRANCH   9  10
ENDBRANCH   8   9
ENDBRANCH   7   8
ENDBRANCH   6   7
ENDBRANCH   5   6
ENDBRANCH   4   5
ENDBRANCH   3   4
ENDBRANCH   2   3
ENDBRANCH   1   2
BRANCH   1  18
ATOM     18  C   UNL     1     -22.892  -8.130  14.728  1.00  0.00     0.000 C 
BRANCH  18  19
ATOM     19  C   UNL     1     -24.298  -7.515  14.580  1.00  0.00     0.000 C 
BRANCH  19  20
ATOM     20  C   UNL     1     -25.046  -7.280  15.903  1.00  0.00     0.000 C 
BRANCH  20  21
ATOM     21  C   UNL     1     -26.475  -6.757  15.702  1.00  0.00     0.000 C 
BRANCH  21  22
ATOM     22  C   UNL     1     -27.224  -6.731  17.040  1.00  0.00     0.000 C 
BRANCH  22  23
ATOM     23  C   UNL     1     -27.050  -5.412  17.812  1.00  0.00     0.000 C 
BRANCH  23  24
ATOM     24  C   UNL     1     -27.407  -5.512  19.309  1.00  0.00    -0.000 C 
BRANCH  24  25
ATOM     25  C   UNL     1     -26.182  -5.275  20.217  1.00  0.00    -0.000 C 
BRANCH  25  26
ATOM     26  C   UNL     1     -26.561  -4.664  21.578  1.00  0.00    -0.000 C 
BRANCH  26  27
ATOM     27  C   UNL     1     -27.330  -3.337  21.454  1.00  0.00    -0.000 C 
BRANCH  27  28
ATOM     28  C   UNL     1     -27.444  -2.632  22.817  1.00  0.00    -0.000 C 
BRANCH  28  29
ATOM     29  C   UNL     1     -26.824  -3.460  23.960  1.00  0.00    -0.000 C 
BRANCH  29  30
ATOM     30  C   UNL     1     -27.147  -2.881  25.361  1.00  0.00    -0.000 C 
BRANCH  30  31
ATOM     31  C   UNL     1     -25.957  -2.178  26.033  1.00  0.00    -0.003 C 
ATOM     32  C   UNL     1     -24.675  -2.245  25.200  1.00  0.00     0.004 C 
ENDBRANCH  30  31
ENDBRANCH  29  30
ENDBRANCH  28  29
ENDBRANCH  27  28
ENDBRANCH  26  27
ENDBRANCH  25  26
ENDBRANCH  24  25
ENDBRANCH  23  24
ENDBRANCH  22  23
ENDBRANCH  21  22
ENDBRANCH  20  21
ENDBRANCH  19  20
ENDBRANCH  18  19
ENDBRANCH   1  18
TORSDOF 28
ENDMDL
MODEL 3
REMARK VINA RESULT:    -3.088      3.378      7.601
REMARK INTER + INTRA:         -12.784
REMARK INTER:                 -10.323
REMARK INTRA:                  -2.462
REMARK UNBOUND:                -4.642
REMARK SMILES CCCCCCCCCCCCCCCCCCCCCCCCCCCCCC(=O)[O-]
REMARK SMILES IDX 16 1 17 2 18 3 19 4 20 5 21 6 22 7 23 8 24 9 25 10 26 11
REMARK SMILES IDX 27 12 28 13 29 14 30 15 31 16 32 17 15 18 14 19 13 20 12 21
REMARK SMILES IDX 11 22 10 23 9 24 8 25 7 26 6 27 5 28 4 29 3 30 2 31 1 32
REMARK H PARENT
REMARK Flexibility Score: inf
ROOT
ATOM      1  C   UNL     1     -19.172  -5.272  15.208  1.00  0.00     0.000 C 
ENDROOT
BRANCH   1   2
ATOM      2  C   UNL     1     -18.132  -5.887  14.249  1.00  0.00     0.000 C 
BRANCH   2   3
ATOM      3  C   UNL     1     -18.056  -7.423  14.284  1.00  0.00     0.000 C 
BRANCH   3   4
ATOM      4  C   UNL     1     -19.062  -8.044  15.264  1.00  0.00     0.000 C 
BRANCH   4   5
ATOM      5  C   UNL     1     -18.348  -8.621  16.493  1.00  0.00     0.000 C 
BRANCH   5   6
ATOM      6  C   UNL     1     -19.327  -9.027  17.608  1.00  0.00     0.000 C 
BRANCH   6   7
ATOM      7  C   UNL     1     -20.782  -8.556  17.403  1.00  0.00     0.000 C 
BRANCH   7   8
ATOM      8  C   UNL     1     -21.600  -9.358  16.375  1.00  0.00     0.000 C 
BRANCH   8   9
ATOM      9  C   UNL     1     -23.011  -8.780  16.169  1.00  0.00     0.000 C 
BRANCH   9  10
ATOM     10  C   UNL     1     -24.122  -9.739  16.631  1.00  0.00     0.000 C 
BRANCH  10  11
ATOM     11  C   UNL     1     -25.167  -9.119  17.578  1.00  0.00     0.000 C 
BRANCH  11  12
ATOM     12  C   UNL     1     -26.428  -8.641  16.849  1.00  0.00     0.000 C 
BRANCH  12  13
ATOM     13  C   UNL     1     -26.264  -7.205  16.339  1.00  0.00     0.006 C 
BRANCH  13  14
ATOM     14  C   UNL     1     -27.540  -6.688  15.661  1.00  0.00     0.053 C 
BRANCH  14  15
ATOM     15  C   UNL     1     -27.278  -6.231  14.257  1.00  0.00     0.041 C 
ATOM     16  O   UNL     1     -27.694  -5.109  13.867  1.00  0.00    -0.550 OA
ATOM     17  O   UNL     1     -26.600  -7.065  13.371  1.00  0.00    -0.550 OA
ENDBRANCH  14  15
ENDBRANCH  13  14
ENDBRANCH  12  13
ENDBRANCH  11  12
ENDBRANCH  10  11
ENDBRANCH   9  10
ENDBRANCH   8   9
ENDBRANCH   7   8
ENDBRANCH   6   7
ENDBRANCH   5   6
ENDBRANCH   4   5
ENDBRANCH   3   4
ENDBRANCH   2   3
ENDBRANCH   1   2
BRANCH   1  18
ATOM     18  C   UNL     1     -20.595  -5.131  14.629  1.00  0.00     0.000 C 
BRANCH  18  19
ATOM     19  C   UNL     1     -21.742  -5.496  15.593  1.00  0.00     0.000 C 
BRANCH  19  20
ATOM     20  C   UNL     1     -21.543  -5.026  17.044  1.00  0.00     0.000 C 
BRANCH  20  21
ATOM     21  C   UNL     1     -22.130  -5.998  18.077  1.00  0.00     0.000 C 
BRANCH  21  22
ATOM     22  C   UNL     1     -23.640  -5.773  18.219  1.00  0.00     0.000 C 
BRANCH  22  23
ATOM     23  C   UNL     1     -24.302  -6.706  19.248  1.00  0.00     0.000 C 
BRANCH  23  24
ATOM     24  C   UNL     1     -25.331  -6.004  20.157  1.00  0.00    -0.000 C 
BRANCH  24  25
ATOM     25  C   UNL     1     -26.387  -5.223  19.347  1.00  0.00    -0.000 C 
BRANCH  25  26
ATOM     26  C   UNL     1     -27.802  -5.346  19.941  1.00  0.00    -0.000 C 
BRANCH  26  27
ATOM     27  C   UNL     1     -28.082  -4.320  21.054  1.00  0.00    -0.000 C 
BRANCH  27  28
ATOM     28  C   UNL     1     -27.882  -2.882  20.545  1.00  0.00    -0.000 C 
BRANCH  28  29
ATOM     29  C   UNL     1     -27.374  -1.934  21.649  1.00  0.00    -0.000 C 
BRANCH  29  30
ATOM     30  C   UNL     1     -26.883  -2.691  22.909  1.00  0.00    -0.000 C 
BRANCH  30  31
ATOM     31  C   UNL     1     -25.433  -2.369  23.303  1.00  0.00    -0.003 C 
ATOM     32  C   UNL     1     -25.153  -2.593  24.791  1.00  0.00     0.004 C 
ENDBRANCH  30  31
ENDBRANCH  29  30
ENDBRANCH  28  29
ENDBRANCH  27  28
ENDBRANCH  26  27
ENDBRANCH  25  26
ENDBRANCH  24  25
ENDBRANCH  23  24
ENDBRANCH  22  23
ENDBRANCH  21  22
ENDBRANCH  20  21
ENDBRANCH  19  20
ENDBRANCH  18  19
ENDBRANCH   1  18
TORSDOF 28
ENDMDL
MODEL 4
REMARK VINA RESULT:    -3.076      3.694      8.828
REMARK INTER + INTRA:         -12.752
REMARK INTER:                  -9.777
REMARK INTRA:                  -2.975
REMARK UNBOUND:                -4.642
REMARK SMILES CCCCCCCCCCCCCCCCCCCCCCCCCCCCCC(=O)[O-]
REMARK SMILES IDX 16 1 17 2 18 3 19 4 20 5 21 6 22 7 23 8 24 9 25 10 26 11
REMARK SMILES IDX 27 12 28 13 29 14 30 15 31 16 32 17 15 18 14 19 13 20 12 21
REMARK SMILES IDX 11 22 10 23 9 24 8 25 7 26 6 27 5 28 4 29 3 30 2 31 1 32
REMARK H PARENT
REMARK Flexibility Score: inf
ROOT
ATOM      1  C   UNL     1     -22.091  -5.727  15.637  1.00  0.00     0.000 C 
ENDROOT
BRANCH   1   2
ATOM      2  C   UNL     1     -21.658  -5.679  17.117  1.00  0.00     0.000 C 
BRANCH   2   3
ATOM      3  C   UNL     1     -22.440  -6.623  18.046  1.00  0.00     0.000 C 
BRANCH   3   4
ATOM      4  C   UNL     1     -23.820  -6.068  18.430  1.00  0.00     0.000 C 
BRANCH   4   5
ATOM      5  C   UNL     1     -24.764  -7.195  18.867  1.00  0.00     0.000 C 
BRANCH   5   6
ATOM      6  C   UNL     1     -25.020  -8.218  17.746  1.00  0.00     0.000 C 
BRANCH   6   7
ATOM      7  C   UNL     1     -26.383  -8.081  17.037  1.00  0.00     0.000 C 
BRANCH   7   8
ATOM      8  C   UNL     1     -26.535  -6.852  16.123  1.00  0.00     0.000 C 
BRANCH   8   9
ATOM      9  C   UNL     1     -27.727  -5.966  16.524  1.00  0.00     0.000 C 
BRANCH   9  10
ATOM     10  C   UNL     1     -27.339  -4.856  17.516  1.00  0.00     0.000 C 
BRANCH  10  11
ATOM     11  C   UNL     1     -27.868  -5.047  18.950  1.00  0.00     0.000 C 
BRANCH  11  12
ATOM     12  C   UNL     1     -26.831  -4.694  20.024  1.00  0.00     0.000 C 
BRANCH  12  13
ATOM     13  C   UNL     1     -27.493  -4.497  21.392  1.00  0.00     0.006 C 
BRANCH  13  14
ATOM     14  C   UNL     1     -27.001  -3.222  22.088  1.00  0.00     0.053 C 
BRANCH  14  15
ATOM     15  C   UNL     1     -26.649  -3.472  23.524  1.00  0.00     0.041 C 
ATOM     16  O   UNL     1     -25.538  -3.094  23.980  1.00  0.00    -0.550 OA
ATOM     17  O   UNL     1     -27.539  -4.155  24.348  1.00  0.00    -0.550 OA
ENDBRANCH  14  15
ENDBRANCH  13  14
ENDBRANCH  12  13
ENDBRANCH  11  12
ENDBRANCH  10  11
ENDBRANCH   9  10
ENDBRANCH   8   9
ENDBRANCH   7   8
ENDBRANCH   6   7
ENDBRANCH   5   6
ENDBRANCH   4   5
ENDBRANCH   3   4
ENDBRANCH   2   3
ENDBRANCH   1   2
BRANCH   1  18
ATOM     18  C   UNL     1     -22.981  -6.928  15.253  1.00  0.00     0.000 C 
BRANCH  18  19
ATOM     19  C   UNL     1     -22.226  -8.221  14.883  1.00  0.00     0.000 C 
BRANCH  19  20
ATOM     20  C   UNL     1     -22.759  -9.498  15.552  1.00  0.00     0.000 C 
BRANCH  20  21
ATOM     21  C   UNL     1     -21.838 -10.027  16.660  1.00  0.00     0.000 C 
BRANCH  21  22
ATOM     22  C   UNL     1     -20.785  -8.972  17.022  1.00  0.00     0.000 C 
BRANCH  22  23
ATOM     23  C   UNL     1     -19.354  -9.534  17.083  1.00  0.00     0.000 C 
BRANCH  23  24
ATOM     24  C   UNL     1     -18.281  -8.567  16.544  1.00  0.00    -0.000 C 
BRANCH  24  25
ATOM     25  C   UNL     1     -18.882  -7.481  15.627  1.00  0.00    -0.000 C 
BRANCH  25  26
ATOM     26  C   UNL     1     -17.911  -7.032  14.520  1.00  0.00    -0.000 C 
BRANCH  26  27
ATOM     27  C   UNL     1     -18.012  -5.531  14.199  1.00  0.00    -0.000 C 
BRANCH  27  28
ATOM     28  C   UNL     1     -16.774  -5.045  13.425  1.00  0.00    -0.000 C 
BRANCH  28  29
ATOM     29  C   UNL     1     -16.958  -3.624  12.855  1.00  0.00    -0.000 C 
BRANCH  29  30
ATOM     30  C   UNL     1     -15.798  -2.671  13.239  1.00  0.00    -0.000 C 
BRANCH  30  31
ATOM     31  C   UNL     1     -14.806  -3.274  14.247  1.00  0.00    -0.003 C 
ATOM     32  C   UNL     1     -14.066  -2.213  15.065  1.00  0.00     0.004 C 
ENDBRANCH  30  31
ENDBRANCH  29  30
ENDBRANCH  28  29
ENDBRANCH  27  28
ENDBRANCH  26  27
ENDBRANCH  25  26
ENDBRANCH  24  25
ENDBRANCH  23  24
ENDBRANCH  22  23
ENDBRANCH  21  22
ENDBRANCH  20  21
ENDBRANCH  19  20
ENDBRANCH  18  19
ENDBRANCH   1  18
TORSDOF 28
ENDMDL
MODEL 5
REMARK VINA RESULT:    -2.926      2.841      7.048
REMARK INTER + INTRA:         -12.356
REMARK INTER:                  -9.298
REMARK INTRA:                  -3.058
REMARK UNBOUND:                -4.642
REMARK SMILES CCCCCCCCCCCCCCCCCCCCCCCCCCCCCC(=O)[O-]
REMARK SMILES IDX 16 1 17 2 18 3 19 4 20 5 21 6 22 7 23 8 24 9 25 10 26 11
REMARK SMILES IDX 27 12 28 13 29 14 30 15 31 16 32 17 15 18 14 19 13 20 12 21
REMARK SMILES IDX 11 22 10 23 9 24 8 25 7 26 6 27 5 28 4 29 3 30 2 31 1 32
REMARK H PARENT
REMARK Flexibility Score: inf
ROOT
ATOM      1  C   UNL     1     -19.163  -5.843  15.253  1.00  0.00     0.000 C 
ENDROOT
BRANCH   1   2
ATOM      2  C   UNL     1     -19.245  -7.327  14.840  1.00  0.00     0.000 C 
BRANCH   2   3
ATOM      3  C   UNL     1     -20.334  -7.646  13.802  1.00  0.00     0.000 C 
BRANCH   3   4
ATOM      4  C   UNL     1     -21.620  -8.192  14.441  1.00  0.00     0.000 C 
BRANCH   4   5
ATOM      5  C   UNL     1     -22.725  -7.128  14.448  1.00  0.00     0.000 C 
BRANCH   5   6
ATOM      6  C   UNL     1     -24.136  -7.742  14.444  1.00  0.00     0.000 C 
BRANCH   6   7
ATOM      7  C   UNL     1     -25.250  -6.820  14.979  1.00  0.00     0.000 C 
BRANCH   7   8
ATOM      8  C   UNL     1     -26.614  -6.952  14.278  1.00  0.00     0.000 C 
BRANCH   8   9
ATOM      9  C   UNL     1     -27.793  -6.832  15.259  1.00  0.00     0.000 C 
BRANCH   9  10
ATOM     10  C   UNL     1     -27.396  -6.169  16.590  1.00  0.00     0.000 C 
BRANCH  10  11
ATOM     11  C   UNL     1     -27.748  -4.674  16.706  1.00  0.00     0.000 C 
BRANCH  11  12
ATOM     12  C   UNL     1     -27.859  -4.195  18.159  1.00  0.00     0.000 C 
BRANCH  12  13
ATOM     13  C   UNL     1     -27.434  -5.293  19.140  1.00  0.00     0.006 C 
BRANCH  13  14
ATOM     14  C   UNL     1     -27.649  -4.872  20.600  1.00  0.00     0.053 C 
BRANCH  14  15
ATOM     15  C   UNL     1     -26.364  -4.870  21.373  1.00  0.00     0.041 C 
ATOM     16  O   UNL     1     -26.173  -4.021  22.282  1.00  0.00    -0.550 OA
ATOM     17  O   UNL     1     -25.366  -5.789  21.063  1.00  0.00    -0.550 OA
ENDBRANCH  14  15
ENDBRANCH  13  14
ENDBRANCH  12  13
ENDBRANCH  11  12
ENDBRANCH  10  11
ENDBRANCH   9  10
ENDBRANCH   8   9
ENDBRANCH   7   8
ENDBRANCH   6   7
ENDBRANCH   5   6
ENDBRANCH   4   5
ENDBRANCH   3   4
ENDBRANCH   2   3
ENDBRANCH   1   2
BRANCH   1  18
ATOM     18  C   UNL     1     -20.489  -5.061  15.155  1.00  0.00     0.000 C 
BRANCH  18  19
ATOM     19  C   UNL     1     -21.094  -4.609  16.500  1.00  0.00     0.000 C 
BRANCH  19  20
ATOM     20  C   UNL     1     -21.438  -5.750  17.472  1.00  0.00     0.000 C 
BRANCH  20  21
ATOM     21  C   UNL     1     -22.944  -5.887  17.730  1.00  0.00     0.000 C 
BRANCH  21  22
ATOM     22  C   UNL     1     -23.236  -7.186  18.492  1.00  0.00     0.000 C 
BRANCH  22  23
ATOM     23  C   UNL     1     -24.706  -7.630  18.401  1.00  0.00     0.000 C 
BRANCH  23  24
ATOM     24  C   UNL     1     -24.890  -9.086  17.925  1.00  0.00    -0.000 C 
BRANCH  24  25
ATOM     25  C   UNL     1     -23.890  -9.466  16.813  1.00  0.00    -0.000 C 
BRANCH  25  26
ATOM     26  C   UNL     1     -23.251 -10.849  17.035  1.00  0.00    -0.000 C 
BRANCH  26  27
ATOM     27  C   UNL     1     -21.713 -10.809  17.055  1.00  0.00    -0.000 C 
BRANCH  27  28
ATOM     28  C   UNL     1     -21.195  -9.363  16.976  1.00  0.00    -0.000 C 
BRANCH  28  29
ATOM     29  C   UNL     1     -20.093  -9.076  18.015  1.00  0.00    -0.000 C 
BRANCH  29  30
ATOM     30  C   UNL     1     -18.688  -9.522  17.534  1.00  0.00    -0.000 C 
BRANCH  30  31
ATOM     31  C   UNL     1     -17.723  -9.876  18.677  1.00  0.00    -0.003 C 
ATOM     32  C   UNL     1     -16.477  -8.988  18.704  1.00  0.00     0.004 C 
ENDBRANCH  30  31
ENDBRANCH  29  30
ENDBRANCH  28  29
ENDBRANCH  27  28
ENDBRANCH  26  27
ENDBRANCH  25  26
ENDBRANCH  24  25
ENDBRANCH  23  24
ENDBRANCH  22  23
ENDBRANCH  21  22
ENDBRANCH  20  21
ENDBRANCH  19  20
ENDBRANCH  18  19
ENDBRANCH   1  18
TORSDOF 28
ENDMDL
MODEL 6
REMARK VINA RESULT:    -2.847      1.630      6.448
REMARK INTER + INTRA:         -12.150
REMARK INTER:                  -8.856
REMARK INTRA:                  -3.294
REMARK UNBOUND:                -4.642
REMARK SMILES CCCCCCCCCCCCCCCCCCCCCCCCCCCCCC(=O)[O-]
REMARK SMILES IDX 16 1 17 2 18 3 19 4 20 5 21 6 22 7 23 8 24 9 25 10 26 11
REMARK SMILES IDX 27 12 28 13 29 14 30 15 31 16 32 17 15 18 14 19 13 20 12 21
REMARK SMILES IDX 11 22 10 23 9 24 8 25 7 26 6 27 5 28 4 29 3 30 2 31 1 32
REMARK H PARENT
REMARK Flexibility Score: inf
ROOT
ATOM      1  C   UNL     1     -26.611  -8.314  16.908  1.00  0.00     0.000 C 
ENDROOT
BRANCH   1   2
ATOM      2  C   UNL     1     -26.299  -6.956  16.247  1.00  0.00     0.000 C 
BRANCH   2   3
ATOM      3  C   UNL     1     -27.256  -5.817  16.638  1.00  0.00     0.000 C 
BRANCH   3   4
ATOM      4  C   UNL     1     -27.871  -6.010  18.032  1.00  0.00     0.000 C 
BRANCH   4   5
ATOM      5  C   UNL     1     -27.443  -4.884  18.982  1.00  0.00     0.000 C 
BRANCH   5   6
ATOM      6  C   UNL     1     -26.690  -5.409  20.217  1.00  0.00     0.000 C 
BRANCH   6   7
ATOM      7  C   UNL     1     -25.505  -6.347  19.910  1.00  0.00     0.000 C 
BRANCH   7   8
ATOM      8  C   UNL     1     -24.275  -5.675  19.272  1.00  0.00     0.000 C 
BRANCH   8   9
ATOM      9  C   UNL     1     -23.440  -6.657  18.431  1.00  0.00     0.000 C 
BRANCH   9  10
ATOM     10  C   UNL     1     -21.984  -6.196  18.247  1.00  0.00     0.000 C 
BRANCH  10  11
ATOM     11  C   UNL     1     -21.081  -7.176  17.475  1.00  0.00     0.000 C 
BRANCH  11  12
ATOM     12  C   UNL     1     -20.578  -8.337  18.341  1.00  0.00     0.000 C 
BRANCH  12  13
ATOM     13  C   UNL     1     -19.739  -9.322  17.519  1.00  0.00     0.006 C 
BRANCH  13  14
ATOM     14  C   UNL     1     -18.253  -8.943  17.512  1.00  0.00     0.053 C 
BRANCH  14  15
ATOM     15  C   UNL     1     -17.463  -9.769  18.481  1.00  0.00     0.041 C 
ATOM     16  O   UNL     1     -17.797 -10.959  18.720  1.00  0.00    -0.550 OA
ATOM     17  O   UNL     1     -16.375  -9.210  19.145  1.00  0.00    -0.550 OA
ENDBRANCH  14  15
ENDBRANCH  13  14
ENDBRANCH  12  13
ENDBRANCH  11  12
ENDBRANCH  10  11
ENDBRANCH   9  10
ENDBRANCH   8   9
ENDBRANCH   7   8
ENDBRANCH   6   7
ENDBRANCH   5   6
ENDBRANCH   4   5
ENDBRANCH   3   4
ENDBRANCH   2   3
ENDBRANCH   1   2
BRANCH   1  18
ATOM     18  C   UNL     1     -25.404  -9.014  17.569  1.00  0.00     0.000 C 
BRANCH  18  19
ATOM     19  C   UNL     1     -24.692 -10.070  16.700  1.00  0.00     0.000 C 
BRANCH  19  20
ATOM     20  C   UNL     1     -23.167  -9.903  16.595  1.00  0.00     0.000 C 
BRANCH  20  21
ATOM     21  C   UNL     1     -22.709  -9.405  15.218  1.00  0.00     0.000 C 
BRANCH  21  22
ATOM     22  C   UNL     1     -23.516  -8.168  14.806  1.00  0.00     0.000 C 
BRANCH  22  23
ATOM     23  C   UNL     1     -22.685  -6.873  14.794  1.00  0.00     0.000 C 
BRANCH  23  24
ATOM     24  C   UNL     1     -21.202  -7.086  14.429  1.00  0.00    -0.000 C 
BRANCH  24  25
ATOM     25  C   UNL     1     -20.445  -5.752  14.265  1.00  0.00    -0.000 C 
BRANCH  25  26
ATOM     26  C   UNL     1     -19.175  -5.677  15.132  1.00  0.00    -0.000 C 
BRANCH  26  27
ATOM     27  C   UNL     1     -18.079  -6.659  14.685  1.00  0.00    -0.000 C 
BRANCH  27  28
ATOM     28  C   UNL     1     -17.204  -6.047  13.578  1.00  0.00    -0.000 C 
BRANCH  28  29
ATOM     29  C   UNL     1     -16.970  -4.537  13.781  1.00  0.00    -0.000 C 
BRANCH  29  30
ATOM     30  C   UNL     1     -17.236  -3.712  12.496  1.00  0.00    -0.000 C 
BRANCH  30  31
ATOM     31  C   UNL     1     -16.917  -2.216  12.641  1.00  0.00    -0.003 C 
ATOM     32  C   UNL     1     -15.416  -1.920  12.622  1.00  0.00     0.004 C 
ENDBRANCH  30  31
ENDBRANCH  29  30
ENDBRANCH  28  29
ENDBRANCH  27  28
ENDBRANCH  26  27
ENDBRANCH  25  26
ENDBRANCH  24  25
ENDBRANCH  23  24
ENDBRANCH  22  23
ENDBRANCH  21  22
ENDBRANCH  20  21
ENDBRANCH  19  20
ENDBRANCH  18  19
ENDBRANCH   1  18
TORSDOF 28
ENDMDL
MODEL 7
REMARK VINA RESULT:    -2.785      1.822      7.234
REMARK INTER + INTRA:         -11.986
REMARK INTER:                  -8.822
REMARK INTRA:                  -3.165
REMARK UNBOUND:                -4.642
REMARK SMILES CCCCCCCCCCCCCCCCCCCCCCCCCCCCCC(=O)[O-]
REMARK SMILES IDX 16 1 17 2 18 3 19 4 20 5 21 6 22 7 23 8 24 9 25 10 26 11
REMARK SMILES IDX 27 12 28 13 29 14 30 15 31 16 32 17 15 18 14 19 13 20 12 21
REMARK SMILES IDX 11 22 10 23 9 24 8 25 7 26 6 27 5 28 4 29 3 30 2 31 1 32
REMARK H PARENT
REMARK Flexibility Score: inf
ROOT
ATOM      1  C   UNL     1     -24.636  -7.815  14.107  1.00  0.00     0.000 C 
ENDROOT
BRANCH   1   2
ATOM      2  C   UNL     1     -25.413  -6.851  15.028  1.00  0.00     0.000 C 
BRANCH   2   3
ATOM      3  C   UNL     1     -26.911  -6.723  14.704  1.00  0.00     0.000 C 
BRANCH   3   4
ATOM      4  C   UNL     1     -27.556  -5.491  15.357  1.00  0.00     0.000 C 
BRANCH   4   5
ATOM      5  C   UNL     1     -27.133  -5.362  16.825  1.00  0.00     0.000 C 
BRANCH   5   6
ATOM      6  C   UNL     1     -28.045  -6.158  17.774  1.00  0.00     0.000 C 
BRANCH   6   7
ATOM      7  C   UNL     1     -28.124  -5.613  19.215  1.00  0.00     0.000 C 
BRANCH   7   8
ATOM      8  C   UNL     1     -26.905  -4.797  19.683  1.00  0.00     0.000 C 
BRANCH   8   9
ATOM      9  C   UNL     1     -26.143  -5.484  20.829  1.00  0.00     0.000 C 
BRANCH   9  10
ATOM     10  C   UNL     1     -25.045  -6.438  20.328  1.00  0.00     0.000 C 
BRANCH  10  11
ATOM     11  C   UNL     1     -24.410  -6.052  18.979  1.00  0.00     0.000 C 
BRANCH  11  12
ATOM     12  C   UNL     1     -24.182  -7.257  18.058  1.00  0.00     0.000 C 
BRANCH  12  13
ATOM     13  C   UNL     1     -24.955  -8.486  18.548  1.00  0.00     0.006 C 
BRANCH  13  14
ATOM     14  C   UNL     1     -25.435  -9.363  17.384  1.00  0.00     0.053 C 
BRANCH  14  15
ATOM     15  C   UNL     1     -24.434 -10.424  17.037  1.00  0.00     0.041 C 
ATOM     16  O   UNL     1     -24.813 -11.603  16.810  1.00  0.00    -0.550 OA
ATOM     17  O   UNL     1     -23.078 -10.113  16.999  1.00  0.00    -0.550 OA
ENDBRANCH  14  15
ENDBRANCH  13  14
ENDBRANCH  12  13
ENDBRANCH  11  12
ENDBRANCH  10  11
ENDBRANCH   9  10
ENDBRANCH   8   9
ENDBRANCH   7   8
ENDBRANCH   6   7
ENDBRANCH   5   6
ENDBRANCH   4   5
ENDBRANCH   3   4
ENDBRANCH   2   3
ENDBRANCH   1   2
BRANCH   1  18
ATOM     18  C   UNL     1     -23.200  -8.145  14.567  1.00  0.00     0.000 C 
BRANCH  18  19
ATOM     19  C   UNL     1     -22.238  -6.943  14.652  1.00  0.00     0.000 C 
BRANCH  19  20
ATOM     20  C   UNL     1     -21.737  -6.612  16.068  1.00  0.00     0.000 C 
BRANCH  20  21
ATOM     21  C   UNL     1     -21.720  -5.107  16.364  1.00  0.00     0.000 C 
BRANCH  21  22
ATOM     22  C   UNL     1     -20.370  -4.502  15.961  1.00  0.00     0.000 C 
BRANCH  22  23
ATOM     23  C   UNL     1     -19.795  -5.099  14.665  1.00  0.00     0.000 C 
BRANCH  23  24
ATOM     24  C   UNL     1     -18.284  -5.396  14.730  1.00  0.00    -0.000 C 
BRANCH  24  25
ATOM     25  C   UNL     1     -17.927  -6.747  14.076  1.00  0.00    -0.000 C 
BRANCH  25  26
ATOM     26  C   UNL     1     -18.902  -7.873  14.466  1.00  0.00    -0.000 C 
BRANCH  26  27
ATOM     27  C   UNL     1     -18.506  -8.592  15.767  1.00  0.00    -0.000 C 
BRANCH  27  28
ATOM     28  C   UNL     1     -19.672  -8.604  16.771  1.00  0.00    -0.000 C 
BRANCH  28  29
ATOM     29  C   UNL     1     -19.241  -9.100  18.166  1.00  0.00    -0.000 C 
BRANCH  29  30
ATOM     30  C   UNL     1     -18.400 -10.401  18.105  1.00  0.00    -0.000 C 
BRANCH  30  31
ATOM     31  C   UNL     1     -17.057 -10.309  18.847  1.00  0.00    -0.003 C 
ATOM     32  C   UNL     1     -16.410  -8.926  18.743  1.00  0.00     0.004 C 
ENDBRANCH  30  31
ENDBRANCH  29  30
ENDBRANCH  28  29
ENDBRANCH  27  28
ENDBRANCH  26  27
ENDBRANCH  25  26
ENDBRANCH  24  25
ENDBRANCH  23  24
ENDBRANCH  22  23
ENDBRANCH  21  22
ENDBRANCH  20  21
ENDBRANCH  19  20
ENDBRANCH  18  19
ENDBRANCH   1  18
TORSDOF 28
ENDMDL
MODEL 8
REMARK VINA RESULT:    -2.706      3.824      7.611
REMARK INTER + INTRA:         -11.776
REMARK INTER:                  -9.130
REMARK INTRA:                  -2.646
REMARK UNBOUND:                -4.642
REMARK SMILES CCCCCCCCCCCCCCCCCCCCCCCCCCCCCC(=O)[O-]
REMARK SMILES IDX 16 1 17 2 18 3 19 4 20 5 21 6 22 7 23 8 24 9 25 10 26 11
REMARK SMILES IDX 27 12 28 13 29 14 30 15 31 16 32 17 15 18 14 19 13 20 12 21
REMARK SMILES IDX 11 22 10 23 9 24 8 25 7 26 6 27 5 28 4 29 3 30 2 31 1 32
REMARK H PARENT
REMARK Flexibility Score: inf
ROOT
ATOM      1  C   UNL     1     -21.068  -4.929  15.279  1.00  0.00     0.000 C 
ENDROOT
BRANCH   1   2
ATOM      2  C   UNL     1     -19.667  -4.500  14.798  1.00  0.00     0.000 C 
BRANCH   2   3
ATOM      3  C   UNL     1     -18.775  -5.652  14.306  1.00  0.00     0.000 C 
BRANCH   3   4
ATOM      4  C   UNL     1     -18.438  -6.658  15.417  1.00  0.00     0.000 C 
BRANCH   4   5
ATOM      5  C   UNL     1     -18.791  -8.088  14.990  1.00  0.00     0.000 C 
BRANCH   5   6
ATOM      6  C   UNL     1     -19.911  -8.130  13.935  1.00  0.00     0.000 C 
BRANCH   6   7
ATOM      7  C   UNL     1     -21.338  -8.261  14.503  1.00  0.00     0.000 C 
BRANCH   7   8
ATOM      8  C   UNL     1     -21.438  -8.323  16.038  1.00  0.00     0.000 C 
BRANCH   8   9
ATOM      9  C   UNL     1     -22.359  -9.457  16.521  1.00  0.00     0.000 C 
BRANCH   9  10
ATOM     10  C   UNL     1     -23.801  -9.317  16.004  1.00  0.00     0.000 C 
BRANCH  10  11
ATOM     11  C   UNL     1     -24.216  -7.887  15.608  1.00  0.00     0.000 C 
BRANCH  11  12
ATOM     12  C   UNL     1     -25.671  -7.563  15.970  1.00  0.00     0.000 C 
BRANCH  12  13
ATOM     13  C   UNL     1     -26.264  -6.523  15.013  1.00  0.00     0.006 C 
BRANCH  13  14
ATOM     14  C   UNL     1     -27.551  -7.026  14.346  1.00  0.00     0.053 C 
BRANCH  14  15
ATOM     15  C   UNL     1     -27.705  -6.485  12.956  1.00  0.00     0.041 C 
ATOM     16  O   UNL     1     -27.749  -5.242  12.760  1.00  0.00    -0.550 OA
ATOM     17  O   UNL     1     -27.831  -7.360  11.881  1.00  0.00    -0.550 OA
ENDBRANCH  14  15
ENDBRANCH  13  14
ENDBRANCH  12  13
ENDBRANCH  11  12
ENDBRANCH  10  11
ENDBRANCH   9  10
ENDBRANCH   8   9
ENDBRANCH   7   8
ENDBRANCH   6   7
ENDBRANCH   5   6
ENDBRANCH   4   5
ENDBRANCH   3   4
ENDBRANCH   2   3
ENDBRANCH   1   2
BRANCH   1  18
ATOM     18  C   UNL     1     -21.374  -4.630  16.761  1.00  0.00     0.000 C 
BRANCH  18  19
ATOM     19  C   UNL     1     -21.930  -5.815  17.576  1.00  0.00     0.000 C 
BRANCH  19  20
ATOM     20  C   UNL     1     -23.364  -5.626  18.100  1.00  0.00     0.000 C 
BRANCH  20  21
ATOM     21  C   UNL     1     -23.870  -6.825  18.913  1.00  0.00     0.000 C 
BRANCH  21  22
ATOM     22  C   UNL     1     -25.120  -6.434  19.712  1.00  0.00     0.000 C 
BRANCH  22  23
ATOM     23  C   UNL     1     -26.005  -5.401  18.994  1.00  0.00     0.000 C 
BRANCH  23  24
ATOM     24  C   UNL     1     -27.517  -5.625  19.198  1.00  0.00    -0.000 C 
BRANCH  24  25
ATOM     25  C   UNL     1     -28.054  -4.881  20.438  1.00  0.00    -0.000 C 
BRANCH  25  26
ATOM     26  C   UNL     1     -27.816  -3.361  20.370  1.00  0.00    -0.000 C 
BRANCH  26  27
ATOM     27  C   UNL     1     -27.978  -2.662  21.732  1.00  0.00    -0.000 C 
BRANCH  27  28
ATOM     28  C   UNL     1     -26.625  -2.151  22.257  1.00  0.00    -0.000 C 
BRANCH  28  29
ATOM     29  C   UNL     1     -25.923  -3.177  23.168  1.00  0.00    -0.000 C 
BRANCH  29  30
ATOM     30  C   UNL     1     -26.656  -3.378  24.519  1.00  0.00    -0.000 C 
BRANCH  30  31
ATOM     31  C   UNL     1     -26.157  -2.452  25.640  1.00  0.00    -0.003 C 
ATOM     32  C   UNL     1     -24.640  -2.251  25.618  1.00  0.00     0.004 C 
ENDBRANCH  30  31
ENDBRANCH  29  30
ENDBRANCH  28  29
ENDBRANCH  27  28
ENDBRANCH  26  27
ENDBRANCH  25  26
ENDBRANCH  24  25
ENDBRANCH  23  24
ENDBRANCH  22  23
ENDBRANCH  21  22
ENDBRANCH  20  21
ENDBRANCH  19  20
ENDBRANCH  18  19
ENDBRANCH   1  18
TORSDOF 28
ENDMDL
MODEL 9
REMARK VINA RESULT:    -2.626      3.736      8.450
REMARK INTER + INTRA:         -11.567
REMARK INTER:                  -8.186
REMARK INTRA:                  -3.380
REMARK UNBOUND:                -4.642
REMARK SMILES CCCCCCCCCCCCCCCCCCCCCCCCCCCCCC(=O)[O-]
REMARK SMILES IDX 16 1 17 2 18 3 19 4 20 5 21 6 22 7 23 8 24 9 25 10 26 11
REMARK SMILES IDX 27 12 28 13 29 14 30 15 31 16 32 17 15 18 14 19 13 20 12 21
REMARK SMILES IDX 11 22 10 23 9 24 8 25 7 26 6 27 5 28 4 29 3 30 2 31 1 32
REMARK H PARENT
REMARK Flexibility Score: inf
ROOT
ATOM      1  C   UNL     1     -19.774 -10.101  17.475  1.00  0.00     0.000 C 
ENDROOT
BRANCH   1   2
ATOM      2  C   UNL     1     -21.132 -10.748  17.134  1.00  0.00     0.000 C 
BRANCH   2   3
ATOM      3  C   UNL     1     -22.249  -9.751  16.784  1.00  0.00     0.000 C 
BRANCH   3   4
ATOM      4  C   UNL     1     -23.640 -10.403  16.756  1.00  0.00     0.000 C 
BRANCH   4   5
ATOM      5  C   UNL     1     -24.640  -9.601  17.599  1.00  0.00     0.000 C 
BRANCH   5   6
ATOM      6  C   UNL     1     -24.063  -8.259  18.081  1.00  0.00     0.000 C 
BRANCH   6   7
ATOM      7  C   UNL     1     -24.930  -7.510  19.114  1.00  0.00     0.000 C 
BRANCH   7   8
ATOM      8  C   UNL     1     -25.146  -6.011  18.836  1.00  0.00     0.000 C 
BRANCH   8   9
ATOM      9  C   UNL     1     -26.634  -5.622  18.839  1.00  0.00     0.000 C 
BRANCH   9  10
ATOM     10  C   UNL     1     -27.031  -4.786  20.068  1.00  0.00     0.000 C 
BRANCH  10  11
ATOM     11  C   UNL     1     -27.724  -3.448  19.752  1.00  0.00     0.000 C 
BRANCH  11  12
ATOM     12  C   UNL     1     -27.761  -2.493  20.952  1.00  0.00     0.000 C 
BRANCH  12  13
ATOM     13  C   UNL     1     -27.009  -3.080  22.152  1.00  0.00     0.006 C 
BRANCH  13  14
ATOM     14  C   UNL     1     -27.591  -2.595  23.486  1.00  0.00     0.053 C 
BRANCH  14  15
ATOM     15  C   UNL     1     -27.258  -3.530  24.611  1.00  0.00     0.041 C 
ATOM     16  O   UNL     1     -27.923  -4.585  24.775  1.00  0.00    -0.550 OA
ATOM     17  O   UNL     1     -26.231  -3.213  25.495  1.00  0.00    -0.550 OA
ENDBRANCH  14  15
ENDBRANCH  13  14
ENDBRANCH  12  13
ENDBRANCH  11  12
ENDBRANCH  10  11
ENDBRANCH   9  10
ENDBRANCH   8   9
ENDBRANCH   7   8
ENDBRANCH   6   7
ENDBRANCH   5   6
ENDBRANCH   4   5
ENDBRANCH   3   4
ENDBRANCH   2   3
ENDBRANCH   1   2
BRANCH   1  18
ATOM     18  C   UNL     1     -19.649  -8.607  17.107  1.00  0.00     0.000 C 
BRANCH  18  19
ATOM     19  C   UNL     1     -18.448  -8.243  16.212  1.00  0.00     0.000 C 
BRANCH  19  20
ATOM     20  C   UNL     1     -18.786  -8.032  14.727  1.00  0.00     0.000 C 
BRANCH  20  21
ATOM     21  C   UNL     1     -18.172  -6.751  14.146  1.00  0.00     0.000 C 
BRANCH  21  22
ATOM     22  C   UNL     1     -18.634  -5.530  14.951  1.00  0.00     0.000 C 
BRANCH  22  23
ATOM     23  C   UNL     1     -20.134  -5.225  14.792  1.00  0.00     0.000 C 
BRANCH  23  24
ATOM     24  C   UNL     1     -20.920  -5.250  16.119  1.00  0.00    -0.000 C 
BRANCH  24  25
ATOM     25  C   UNL     1     -22.151  -6.178  16.048  1.00  0.00    -0.000 C 
BRANCH  25  26
ATOM     26  C   UNL     1     -22.333  -6.821  14.661  1.00  0.00    -0.000 C 
BRANCH  26  27
ATOM     27  C   UNL     1     -23.479  -7.847  14.616  1.00  0.00    -0.000 C 
BRANCH  27  28
ATOM     28  C   UNL     1     -24.796  -7.188  14.169  1.00  0.00    -0.000 C 
BRANCH  28  29
ATOM     29  C   UNL     1     -25.753  -6.929  15.349  1.00  0.00    -0.000 C 
BRANCH  29  30
ATOM     30  C   UNL     1     -27.214  -6.688  14.892  1.00  0.00    -0.000 C 
BRANCH  30  31
ATOM     31  C   UNL     1     -27.474  -7.054  13.423  1.00  0.00    -0.003 C 
ATOM     32  C   UNL     1     -27.831  -5.842  12.559  1.00  0.00     0.004 C 
ENDBRANCH  30  31
ENDBRANCH  29  30
ENDBRANCH  28  29
ENDBRANCH  27  28
ENDBRANCH  26  27
ENDBRANCH  25  26
ENDBRANCH  24  25
ENDBRANCH  23  24
ENDBRANCH  22  23
ENDBRANCH  21  22
ENDBRANCH  20  21
ENDBRANCH  19  20
ENDBRANCH  18  19
ENDBRANCH   1  18
TORSDOF 28
ENDMDL
