MODEL 1
REMARK VINA RESULT:     6.018      0.000      0.000
REMARK INTER + INTRA:          10.237
REMARK INTER:                  10.239
REMARK INTRA:                  -0.002
REMARK UNBOUND:                -0.002
REMARK SMILES CCCCCCCCCCCCCC(=O)[O-]
REMARK SMILES IDX 8 1 9 2 10 3 11 4 12 5 13 6 14 7 15 8 16 9 7 10 6 11 5 12
REMARK SMILES IDX 4 13 3 14 2 15 1 16
REMARK H PARENT
REMARK Flexibility Score: inf
ROOT
ATOM      1  C   UNL     1      16.093 -14.837   7.114  1.00  0.00     0.000 C 
ENDROOT
BRANCH   1   2
ATOM      2  C   UNL     1      14.626 -14.904   6.660  1.00  0.00     0.000 C 
BRANCH   2   3
ATOM      3  C   UNL     1      13.861 -13.594   6.919  1.00  0.00     0.000 C 
BRANCH   3   4
ATOM      4  C   UNL     1      12.444 -13.618   6.308  1.00  0.00     0.000 C 
BRANCH   4   5
ATOM      5  C   UNL     1      12.061 -12.314   5.586  1.00  0.00     0.006 C 
BRANCH   5   6
ATOM      6  C   UNL     1      10.663 -11.811   5.965  1.00  0.00     0.053 C 
BRANCH   6   7
ATOM      7  C   UNL     1       9.612 -12.668   5.333  1.00  0.00     0.041 C 
ATOM      8  O   UNL     1       9.811 -13.901   5.171  1.00  0.00    -0.550 OA
ATOM      9  O   UNL     1       8.393 -12.114   4.963  1.00  0.00    -0.550 OA
ENDBRANCH   6   7
ENDBRANCH   5   6
ENDBRANCH   4   5
ENDBRANCH   3   4
ENDBRANCH   2   3
ENDBRANCH   1   2
BRANCH   1  10
ATOM     10  C   UNL     1      16.804 -16.199   7.022  1.00  0.00     0.000 C 
BRANCH  10  11
ATOM     11  C   UNL     1      18.042 -16.156   6.112  1.00  0.00    -0.000 C 
BRANCH  11  12
ATOM     12  C   UNL     1      18.742 -17.522   6.004  1.00  0.00    -0.000 C 
BRANCH  12  13
ATOM     13  C   UNL     1      19.125 -17.875   4.557  1.00  0.00    -0.000 C 
BRANCH  13  14
ATOM     14  C   UNL     1      18.885 -16.712   3.579  1.00  0.00    -0.000 C 
BRANCH  14  15
ATOM     15  C   UNL     1      18.485 -17.196   2.177  1.00  0.00    -0.003 C 
ATOM     16  C   UNL     1      17.004 -16.972   1.875  1.00  0.00     0.004 C 
ENDBRANCH  14  15
ENDBRANCH  13  14
ENDBRANCH  12  13
ENDBRANCH  11  12
ENDBRANCH  10  11
ENDBRANCH   1  10
TORSDOF 12
ENDMDL
MODEL 2
REMARK VINA RESULT:     6.325      1.575      1.832
REMARK INTER + INTRA:          10.759
REMARK INTER:                  10.564
REMARK INTRA:                   0.195
REMARK UNBOUND:                -0.002
REMARK SMILES CCCCCCCCCCCCCC(=O)[O-]
REMARK SMILES IDX 8 1 9 2 10 3 11 4 12 5 13 6 14 7 15 8 16 9 7 10 6 11 5 12
REMARK SMILES IDX 4 13 3 14 2 15 1 16
REMARK H PARENT
REMARK Flexibility Score: inf
ROOT
ATOM      1  C   UNL     1      15.516 -15.999   6.941  1.00  0.00     0.000 C 
ENDROOT
BRANCH   1   2
ATOM      2  C   UNL     1      14.621 -14.761   7.107  1.00  0.00     0.000 C 
BRANCH   2   3
ATOM      3  C   UNL     1      13.529 -14.665   6.027  1.00  0.00     0.000 C 
BRANCH   3   4
ATOM      4  C   UNL     1      12.840 -13.284   6.018  1.00  0.00     0.000 C 
BRANCH   4   5
ATOM      5  C   UNL     1      11.344 -13.343   5.660  1.00  0.00     0.006 C 
BRANCH   5   6
ATOM      6  C   UNL     1      10.583 -12.077   6.071  1.00  0.00     0.053 C 
BRANCH   6   7
ATOM      7  C   UNL     1      11.223 -10.866   5.471  1.00  0.00     0.041 C 
ATOM      8  O   UNL     1      10.786  -9.716   5.745  1.00  0.00    -0.550 OA
ATOM      9  O   UNL     1      12.332 -11.001   4.646  1.00  0.00    -0.550 OA
ENDBRANCH   6   7
ENDBRANCH   5   6
ENDBRANCH   4   5
ENDBRANCH   3   4
ENDBRANCH   2   3
ENDBRANCH   1   2
BRANCH   1  10
ATOM     10  C   UNL     1      16.933 -15.645   6.456  1.00  0.00     0.000 C 
BRANCH  10  11
ATOM     11  C   UNL     1      18.025 -16.411   7.220  1.00  0.00    -0.000 C 
BRANCH  11  12
ATOM     12  C   UNL     1      19.107 -16.981   6.287  1.00  0.00    -0.000 C 
BRANCH  12  13
ATOM     13  C   UNL     1      18.953 -16.492   4.837  1.00  0.00    -0.000 C 
BRANCH  13  14
ATOM     14  C   UNL     1      19.125 -17.623   3.808  1.00  0.00    -0.000 C 
BRANCH  14  15
ATOM     15  C   UNL     1      19.053 -17.116   2.359  1.00  0.00    -0.003 C 
ATOM     16  C   UNL     1      17.628 -16.779   1.921  1.00  0.00     0.004 C 
ENDBRANCH  14  15
ENDBRANCH  13  14
ENDBRANCH  12  13
ENDBRANCH  11  12
ENDBRANCH  10  11
ENDBRANCH   1  10
TORSDOF 12
ENDMDL
MODEL 3
REMARK VINA RESULT:     6.474      0.841      1.641
REMARK INTER + INTRA:          11.013
REMARK INTER:                  11.129
REMARK INTRA:                  -0.116
REMARK UNBOUND:                -0.002
REMARK SMILES CCCCCCCCCCCCCC(=O)[O-]
REMARK SMILES IDX 8 1 9 2 10 3 11 4 12 5 13 6 14 7 15 8 16 9 7 10 6 11 5 12
REMARK SMILES IDX 4 13 3 14 2 15 1 16
REMARK H PARENT
REMARK Flexibility Score: inf
ROOT
ATOM      1  C   UNL     1      14.567 -14.547   7.116  1.00  0.00     0.000 C 
ENDROOT
BRANCH   1   2
ATOM      2  C   UNL     1      13.446 -14.386   6.076  1.00  0.00     0.000 C 
BRANCH   2   3
ATOM      3  C   UNL     1      12.509 -13.205   6.388  1.00  0.00     0.000 C 
BRANCH   3   4
ATOM      4  C   UNL     1      12.538 -12.131   5.280  1.00  0.00     0.000 C 
BRANCH   4   5
ATOM      5  C   UNL     1      11.352 -11.153   5.338  1.00  0.00     0.006 C 
BRANCH   5   6
ATOM      6  C   UNL     1      10.178 -11.688   6.167  1.00  0.00     0.053 C 
BRANCH   6   7
ATOM      7  C   UNL     1       9.341 -12.617   5.346  1.00  0.00     0.041 C 
ATOM      8  O   UNL     1       8.284 -12.204   4.799  1.00  0.00    -0.550 OA
ATOM      9  O   UNL     1       9.752 -13.929   5.144  1.00  0.00    -0.550 OA
ENDBRANCH   6   7
ENDBRANCH   5   6
ENDBRANCH   4   5
ENDBRANCH   3   4
ENDBRANCH   2   3
ENDBRANCH   1   2
BRANCH   1  10
ATOM     10  C   UNL     1      15.420 -15.804   6.875  1.00  0.00     0.000 C 
BRANCH  10  11
ATOM     11  C   UNL     1      16.893 -15.470   6.588  1.00  0.00    -0.000 C 
BRANCH  11  12
ATOM     12  C   UNL     1      17.864 -16.446   7.275  1.00  0.00    -0.000 C 
BRANCH  12  13
ATOM     13  C   UNL     1      19.057 -16.819   6.380  1.00  0.00    -0.000 C 
BRANCH  13  14
ATOM     14  C   UNL     1      18.891 -16.323   4.933  1.00  0.00    -0.000 C 
BRANCH  14  15
ATOM     15  C   UNL     1      19.068 -17.449   3.902  1.00  0.00    -0.003 C 
ATOM     16  C   UNL     1      18.578 -17.056   2.509  1.00  0.00     0.004 C 
ENDBRANCH  14  15
ENDBRANCH  13  14
ENDBRANCH  12  13
ENDBRANCH  11  12
ENDBRANCH  10  11
ENDBRANCH   1  10
TORSDOF 12
ENDMDL
MODEL 4
REMARK VINA RESULT:     6.511      1.023      1.493
REMARK INTER + INTRA:          11.077
REMARK INTER:                  11.645
REMARK INTRA:                  -0.568
REMARK UNBOUND:                -0.002
REMARK SMILES CCCCCCCCCCCCCC(=O)[O-]
REMARK SMILES IDX 8 1 9 2 10 3 11 4 12 5 13 6 14 7 15 8 16 9 7 10 6 11 5 12
REMARK SMILES IDX 4 13 3 14 2 15 1 16
REMARK H PARENT
REMARK Flexibility Score: inf
ROOT
ATOM      1  C   UNL     1      16.579 -16.228   6.634  1.00  0.00     0.000 C 
ENDROOT
BRANCH   1   2
ATOM      2  C   UNL     1      15.657 -15.103   7.129  1.00  0.00     0.000 C 
BRANCH   2   3
ATOM      3  C   UNL     1      14.332 -15.031   6.348  1.00  0.00     0.000 C 
BRANCH   3   4
ATOM      4  C   UNL     1      13.496 -13.792   6.735  1.00  0.00     0.000 C 
BRANCH   4   5
ATOM      5  C   UNL     1      12.288 -13.551   5.813  1.00  0.00     0.006 C 
BRANCH   5   6
ATOM      6  C   UNL     1      12.181 -12.097   5.339  1.00  0.00     0.053 C 
BRANCH   6   7
ATOM      7  C   UNL     1      10.853 -11.522   5.717  1.00  0.00     0.041 C 
ATOM      8  O   UNL     1      10.742 -10.293   5.970  1.00  0.00    -0.550 OA
ATOM      9  O   UNL     1       9.725 -12.333   5.743  1.00  0.00    -0.550 OA
ENDBRANCH   6   7
ENDBRANCH   5   6
ENDBRANCH   4   5
ENDBRANCH   3   4
ENDBRANCH   2   3
ENDBRANCH   1   2
BRANCH   1  10
ATOM     10  C   UNL     1      18.038 -16.039   7.085  1.00  0.00     0.000 C 
BRANCH  10  11
ATOM     11  C   UNL     1      19.047 -16.518   6.030  1.00  0.00    -0.000 C 
BRANCH  11  12
ATOM     12  C   UNL     1      18.803 -17.974   5.598  1.00  0.00    -0.000 C 
BRANCH  12  13
ATOM     13  C   UNL     1      19.124 -18.211   4.113  1.00  0.00    -0.000 C 
BRANCH  13  14
ATOM     14  C   UNL     1      19.099 -16.913   3.286  1.00  0.00    -0.000 C 
BRANCH  14  15
ATOM     15  C   UNL     1      18.477 -17.114   1.895  1.00  0.00    -0.003 C 
ATOM     16  C   UNL     1      16.958 -16.951   1.899  1.00  0.00     0.004 C 
ENDBRANCH  14  15
ENDBRANCH  13  14
ENDBRANCH  12  13
ENDBRANCH  11  12
ENDBRANCH  10  11
ENDBRANCH   1  10
TORSDOF 12
ENDMDL
MODEL 5
REMARK VINA RESULT:     7.163      4.174      8.092
REMARK INTER + INTRA:          12.186
REMARK INTER:                  13.000
REMARK INTRA:                  -0.814
REMARK UNBOUND:                -0.002
REMARK SMILES CCCCCCCCCCCCCC(=O)[O-]
REMARK SMILES IDX 8 1 9 2 10 3 11 4 12 5 13 6 14 7 15 8 16 9 7 10 6 11 5 12
REMARK SMILES IDX 4 13 3 14 2 15 1 16
REMARK H PARENT
REMARK Flexibility Score: inf
ROOT
ATOM      1  C   UNL     1      14.311 -14.445   7.344  1.00  0.00     0.000 C 
ENDROOT
BRANCH   1   2
ATOM      2  C   UNL     1      14.952 -15.480   6.406  1.00  0.00     0.000 C 
BRANCH   2   3
ATOM      3  C   UNL     1      15.973 -16.382   7.122  1.00  0.00     0.000 C 
BRANCH   3   4
ATOM      4  C   UNL     1      17.312 -15.657   7.375  1.00  0.00     0.000 C 
BRANCH   4   5
ATOM      5  C   UNL     1      18.526 -16.368   6.751  1.00  0.00     0.006 C 
BRANCH   5   6
ATOM      6  C   UNL     1      18.682 -16.077   5.254  1.00  0.00     0.053 C 
BRANCH   6   7
ATOM      7  C   UNL     1      19.003 -17.334   4.509  1.00  0.00     0.041 C 
ATOM      8  O   UNL     1      19.122 -18.425   5.128  1.00  0.00    -0.550 OA
ATOM      9  O   UNL     1      19.124 -17.311   3.126  1.00  0.00    -0.550 OA
ENDBRANCH   6   7
ENDBRANCH   5   6
ENDBRANCH   4   5
ENDBRANCH   3   4
ENDBRANCH   2   3
ENDBRANCH   1   2
BRANCH   1  10
ATOM     10  C   UNL     1      13.381 -13.469   6.602  1.00  0.00     0.000 C 
BRANCH  10  11
ATOM     11  C   UNL     1      12.405 -14.189   5.657  1.00  0.00    -0.000 C 
BRANCH  11  12
ATOM     12  C   UNL     1      11.017 -13.526   5.627  1.00  0.00    -0.000 C 
BRANCH  12  13
ATOM     13  C   UNL     1      10.976 -12.209   6.419  1.00  0.00    -0.000 C 
BRANCH  13  14
ATOM     14  C   UNL     1      10.697 -10.987   5.526  1.00  0.00    -0.000 C 
BRANCH  14  15
ATOM     15  C   UNL     1      11.975 -10.207   5.182  1.00  0.00    -0.003 C 
ATOM     16  C   UNL     1      12.792 -10.871   4.075  1.00  0.00     0.004 C 
ENDBRANCH  14  15
ENDBRANCH  13  14
ENDBRANCH  12  13
ENDBRANCH  11  12
ENDBRANCH  10  11
ENDBRANCH   1  10
TORSDOF 12
ENDMDL
MODEL 6
REMARK VINA RESULT:     7.617      1.833      2.704
REMARK INTER + INTRA:          12.958
REMARK INTER:                  13.173
REMARK INTRA:                  -0.215
REMARK UNBOUND:                -0.002
REMARK SMILES CCCCCCCCCCCCCC(=O)[O-]
REMARK SMILES IDX 8 1 9 2 10 3 11 4 12 5 13 6 14 7 15 8 16 9 7 10 6 11 5 12
REMARK SMILES IDX 4 13 3 14 2 15 1 16
REMARK H PARENT
REMARK Flexibility Score: inf
ROOT
ATOM      1  C   UNL     1      14.301 -14.314   6.994  1.00  0.00     0.000 C 
ENDROOT
BRANCH   1   2
ATOM      2  C   UNL     1      13.139 -13.512   6.388  1.00  0.00     0.000 C 
BRANCH   2   3
ATOM      3  C   UNL     1      12.295 -14.338   5.400  1.00  0.00     0.000 C 
BRANCH   3   4
ATOM      4  C   UNL     1      10.781 -14.132   5.615  1.00  0.00     0.000 C 
BRANCH   4   5
ATOM      5  C   UNL     1      10.274 -12.755   5.152  1.00  0.00     0.006 C 
BRANCH   5   6
ATOM      6  C   UNL     1      10.815 -11.602   6.007  1.00  0.00     0.053 C 
BRANCH   6   7
ATOM      7  C   UNL     1      11.533 -10.609   5.150  1.00  0.00     0.041 C 
ATOM      8  O   UNL     1      12.435 -10.991   4.357  1.00  0.00    -0.550 OA
ATOM      9  O   UNL     1      11.176  -9.267   5.190  1.00  0.00    -0.550 OA
ENDBRANCH   6   7
ENDBRANCH   5   6
ENDBRANCH   4   5
ENDBRANCH   3   4
ENDBRANCH   2   3
ENDBRANCH   1   2
BRANCH   1  10
ATOM     10  C   UNL     1      14.424 -15.725   6.391  1.00  0.00     0.000 C 
BRANCH  10  11
ATOM     11  C   UNL     1      15.755 -16.405   6.750  1.00  0.00    -0.000 C 
BRANCH  11  12
ATOM     12  C   UNL     1      16.956 -15.451   6.627  1.00  0.00    -0.000 C 
BRANCH  12  13
ATOM     13  C   UNL     1      18.218 -16.000   7.313  1.00  0.00    -0.000 C 
BRANCH  13  14
ATOM     14  C   UNL     1      19.043 -16.918   6.393  1.00  0.00    -0.000 C 
BRANCH  14  15
ATOM     15  C   UNL     1      19.121 -16.389   4.953  1.00  0.00    -0.003 C 
ATOM     16  C   UNL     1      18.995 -17.497   3.909  1.00  0.00     0.004 C 
ENDBRANCH  14  15
ENDBRANCH  13  14
ENDBRANCH  12  13
ENDBRANCH  11  12
ENDBRANCH  10  11
ENDBRANCH   1  10
TORSDOF 12
ENDMDL
MODEL 7
REMARK VINA RESULT:     8.595      4.249      7.945
REMARK INTER + INTRA:          14.623
REMARK INTER:                  14.526
REMARK INTRA:                   0.096
REMARK UNBOUND:                -0.002
REMARK SMILES CCCCCCCCCCCCCC(=O)[O-]
REMARK SMILES IDX 8 1 9 2 10 3 11 4 12 5 13 6 14 7 15 8 16 9 7 10 6 11 5 12
REMARK SMILES IDX 4 13 3 14 2 15 1 16
REMARK H PARENT
REMARK Flexibility Score: inf
ROOT
ATOM      1  C   UNL     1      12.518 -13.544   6.725  1.00  0.00     0.000 C 
ENDROOT
BRANCH   1   2
ATOM      2  C   UNL     1      13.970 -14.035   6.834  1.00  0.00     0.000 C 
BRANCH   2   3
ATOM      3  C   UNL     1      14.211 -15.358   6.083  1.00  0.00     0.000 C 
BRANCH   3   4
ATOM      4  C   UNL     1      15.255 -16.247   6.792  1.00  0.00     0.000 C 
BRANCH   4   5
ATOM      5  C   UNL     1      16.491 -15.474   7.284  1.00  0.00     0.006 C 
BRANCH   5   6
ATOM      6  C   UNL     1      17.535 -15.256   6.182  1.00  0.00     0.053 C 
BRANCH   6   7
ATOM      7  C   UNL     1      18.550 -16.354   6.201  1.00  0.00     0.041 C 
ATOM      8  O   UNL     1      19.125 -16.705   5.137  1.00  0.00    -0.550 OA
ATOM      9  O   UNL     1      18.896 -16.961   7.402  1.00  0.00    -0.550 OA
ENDBRANCH   6   7
ENDBRANCH   5   6
ENDBRANCH   4   5
ENDBRANCH   3   4
ENDBRANCH   2   3
ENDBRANCH   1   2
BRANCH   1  10
ATOM     10  C   UNL     1      11.830 -14.015   5.432  1.00  0.00     0.000 C 
BRANCH  10  11
ATOM     11  C   UNL     1      10.305 -13.822   5.471  1.00  0.00    -0.000 C 
BRANCH  11  12
ATOM     12  C   UNL     1       9.896 -12.342   5.389  1.00  0.00    -0.000 C 
BRANCH  12  13
ATOM     13  C   UNL     1      10.849 -11.422   6.170  1.00  0.00    -0.000 C 
BRANCH  13  14
ATOM     14  C   UNL     1      11.511 -10.356   5.278  1.00  0.00    -0.000 C 
BRANCH  14  15
ATOM     15  C   UNL     1      12.415 -10.972   4.199  1.00  0.00    -0.003 C 
ATOM     16  C   UNL     1      13.695 -10.170   3.973  1.00  0.00     0.004 C 
ENDBRANCH  14  15
ENDBRANCH  13  14
ENDBRANCH  12  13
ENDBRANCH  11  12
ENDBRANCH  10  11
ENDBRANCH   1  10
TORSDOF 12
ENDMDL
