MODEL 1
REMARK VINA RESULT:    -5.175      0.000      0.000
REMARK INTER + INTRA:         -12.398
REMARK INTER:                  -9.714
REMARK INTRA:                  -2.685
REMARK UNBOUND:                -2.685
REMARK SMILES CCCCCCCCC=CCCCCCCCC(=O)[O-]
REMARK SMILES IDX 10 1 9 2 11 3 12 4 13 5 14 6 15 7 16 8 17 9 18 10 19 11
REMARK SMILES IDX 20 12 8 13 7 14 6 15 5 16 4 17 3 18 2 19 1 20
REMARK H PARENT
REMARK Flexibility Score: inf
ROOT
ATOM      1  C   UNL     1      21.270  21.255   4.648  1.00  0.00    -0.031 C 
ATOM      2  C   UNL     1      22.110  20.352   5.195  1.00  0.00    -0.031 C 
ENDROOT
BRANCH   1   3
ATOM      3  C   UNL     1      20.140  21.964   5.358  1.00  0.00     0.027 C 
BRANCH   3   4
ATOM      4  C   UNL     1      18.772  21.348   5.029  1.00  0.00     0.004 C 
BRANCH   4   5
ATOM      5  C   UNL     1      17.631  21.997   5.822  1.00  0.00     0.000 C 
BRANCH   5   6
ATOM      6  C   UNL     1      18.059  23.336   6.439  1.00  0.00     0.000 C 
BRANCH   6   7
ATOM      7  C   UNL     1      16.884  24.074   7.100  1.00  0.00     0.000 C 
BRANCH   7   8
ATOM      8  C   UNL     1      17.245  24.649   8.481  1.00  0.00     0.006 C 
BRANCH   8   9
ATOM      9  C   UNL     1      18.564  25.431   8.455  1.00  0.00     0.053 C 
BRANCH   9  10
ATOM     10  C   UNL     1      18.368  26.861   8.857  1.00  0.00     0.041 C 
ATOM     11  O   UNL     1      17.209  27.307   9.064  1.00  0.00    -0.550 OA
ATOM     12  O   UNL     1      19.467  27.692   9.036  1.00  0.00    -0.550 OA
ENDBRANCH   9  10
ENDBRANCH   8   9
ENDBRANCH   7   8
ENDBRANCH   6   7
ENDBRANCH   5   6
ENDBRANCH   4   5
ENDBRANCH   3   4
ENDBRANCH   1   3
BRANCH   2  13
ATOM     13  C   UNL     1      22.053  19.824   6.612  1.00  0.00     0.027 C 
BRANCH  13  14
ATOM     14  C   UNL     1      23.156  20.417   7.508  1.00  0.00     0.004 C 
BRANCH  14  15
ATOM     15  C   UNL     1      22.659  21.161   8.764  1.00  0.00     0.000 C 
BRANCH  15  16
ATOM     16  C   UNL     1      21.816  22.418   8.485  1.00  0.00     0.000 C 
BRANCH  16  17
ATOM     17  C   UNL     1      20.515  22.455   9.305  1.00  0.00    -0.000 C 
BRANCH  17  18
ATOM     18  C   UNL     1      19.574  21.286   8.973  1.00  0.00    -0.000 C 
BRANCH  18  19
ATOM     19  C   UNL     1      18.335  21.253   9.880  1.00  0.00    -0.003 C 
ATOM     20  C   UNL     1      18.507  22.180  11.079  1.00  0.00     0.004 C 
ENDBRANCH  18  19
ENDBRANCH  17  18
ENDBRANCH  16  17
ENDBRANCH  15  16
ENDBRANCH  14  15
ENDBRANCH  13  14
ENDBRANCH   2  13
TORSDOF 15
ENDMDL
MODEL 2
REMARK VINA RESULT:    -5.157      3.179      5.834
REMARK INTER + INTRA:         -12.365
REMARK INTER:                  -9.979
REMARK INTRA:                  -2.386
REMARK UNBOUND:                -2.685
REMARK SMILES CCCCCCCCC=CCCCCCCCC(=O)[O-]
REMARK SMILES IDX 10 1 9 2 11 3 12 4 13 5 14 6 15 7 16 8 17 9 18 10 19 11
REMARK SMILES IDX 20 12 8 13 7 14 6 15 5 16 4 17 3 18 2 19 1 20
REMARK H PARENT
REMARK Flexibility Score: inf
ROOT
ATOM      1  C   UNL     1      21.141  22.925   8.125  1.00  0.00    -0.031 C 
ATOM      2  C   UNL     1      21.339  22.775   9.451  1.00  0.00    -0.031 C 
ENDROOT
BRANCH   1   3
ATOM      3  C   UNL     1      19.919  23.528   7.469  1.00  0.00     0.027 C 
BRANCH   3   4
ATOM      4  C   UNL     1      18.921  22.457   7.008  1.00  0.00     0.004 C 
BRANCH   4   5
ATOM      5  C   UNL     1      18.863  22.329   5.481  1.00  0.00     0.000 C 
BRANCH   5   6
ATOM      6  C   UNL     1      19.452  20.996   5.000  1.00  0.00     0.000 C 
BRANCH   6   7
ATOM      7  C   UNL     1      20.731  21.191   4.170  1.00  0.00     0.000 C 
BRANCH   7   8
ATOM      8  C   UNL     1      21.896  20.312   4.659  1.00  0.00     0.006 C 
BRANCH   8   9
ATOM      9  C   UNL     1      21.703  19.850   6.109  1.00  0.00     0.053 C 
BRANCH   9  10
ATOM     10  C   UNL     1      23.015  19.600   6.789  1.00  0.00     0.041 C 
ATOM     11  O   UNL     1      23.914  18.939   6.206  1.00  0.00    -0.550 OA
ATOM     12  O   UNL     1      23.257  20.127   8.051  1.00  0.00    -0.550 OA
ENDBRANCH   9  10
ENDBRANCH   8   9
ENDBRANCH   7   8
ENDBRANCH   6   7
ENDBRANCH   5   6
ENDBRANCH   4   5
ENDBRANCH   3   4
ENDBRANCH   1   3
BRANCH   2  13
ATOM     13  C   UNL     1      20.354  23.125  10.545  1.00  0.00     0.027 C 
BRANCH  13  14
ATOM     14  C   UNL     1      19.174  22.138  10.614  1.00  0.00     0.004 C 
BRANCH  14  15
ATOM     15  C   UNL     1      17.907  22.669  11.316  1.00  0.00     0.000 C 
BRANCH  15  16
ATOM     16  C   UNL     1      16.875  23.328  10.384  1.00  0.00     0.000 C 
BRANCH  16  17
ATOM     17  C   UNL     1      17.083  24.846  10.247  1.00  0.00    -0.000 C 
BRANCH  17  18
ATOM     18  C   UNL     1      17.017  25.322   8.787  1.00  0.00    -0.000 C 
BRANCH  18  19
ATOM     19  C   UNL     1      17.972  26.491   8.506  1.00  0.00    -0.003 C 
ATOM     20  C   UNL     1      19.089  26.548   9.543  1.00  0.00     0.004 C 
ENDBRANCH  18  19
ENDBRANCH  17  18
ENDBRANCH  16  17
ENDBRANCH  15  16
ENDBRANCH  14  15
ENDBRANCH  13  14
ENDBRANCH   2  13
TORSDOF 15
ENDMDL
MODEL 3
REMARK VINA RESULT:    -5.134      3.723      6.666
REMARK INTER + INTRA:         -12.321
REMARK INTER:                 -10.118
REMARK INTRA:                  -2.203
REMARK UNBOUND:                -2.685
REMARK SMILES CCCCCCCCC=CCCCCCCCC(=O)[O-]
REMARK SMILES IDX 10 1 9 2 11 3 12 4 13 5 14 6 15 7 16 8 17 9 18 10 19 11
REMARK SMILES IDX 20 12 8 13 7 14 6 15 5 16 4 17 3 18 2 19 1 20
REMARK H PARENT
REMARK Flexibility Score: inf
ROOT
ATOM      1  C   UNL     1      20.603  23.126  10.381  1.00  0.00    -0.031 C 
ATOM      2  C   UNL     1      19.339  22.719  10.623  1.00  0.00    -0.031 C 
ENDROOT
BRANCH   1   3
ATOM      3  C   UNL     1      21.505  22.623   9.277  1.00  0.00     0.027 C 
BRANCH   3   4
ATOM      4  C   UNL     1      21.378  23.463   7.998  1.00  0.00     0.004 C 
BRANCH   4   5
ATOM      5  C   UNL     1      20.614  22.729   6.889  1.00  0.00     0.000 C 
BRANCH   5   6
ATOM      6  C   UNL     1      21.323  21.434   6.473  1.00  0.00     0.000 C 
BRANCH   6   7
ATOM      7  C   UNL     1      21.010  21.039   5.021  1.00  0.00     0.000 C 
BRANCH   7   8
ATOM      8  C   UNL     1      22.248  20.526   4.264  1.00  0.00     0.006 C 
BRANCH   8   9
ATOM      9  C   UNL     1      22.263  18.996   4.152  1.00  0.00     0.053 C 
BRANCH   9  10
ATOM     10  C   UNL     1      23.020  18.367   5.283  1.00  0.00     0.041 C 
ATOM     11  O   UNL     1      22.543  17.370   5.886  1.00  0.00    -0.550 OA
ATOM     12  O   UNL     1      24.267  18.860   5.647  1.00  0.00    -0.550 OA
ENDBRANCH   9  10
ENDBRANCH   8   9
ENDBRANCH   7   8
ENDBRANCH   6   7
ENDBRANCH   5   6
ENDBRANCH   4   5
ENDBRANCH   3   4
ENDBRANCH   1   3
BRANCH   2  13
ATOM     13  C   UNL     1      18.593  21.634   9.875  1.00  0.00     0.027 C 
BRANCH  13  14
ATOM     14  C   UNL     1      17.254  22.130   9.300  1.00  0.00     0.004 C 
BRANCH  14  15
ATOM     15  C   UNL     1      17.182  22.204   7.761  1.00  0.00     0.000 C 
BRANCH  15  16
ATOM     16  C   UNL     1      16.976  23.616   7.186  1.00  0.00     0.000 C 
BRANCH  16  17
ATOM     17  C   UNL     1      17.075  24.714   8.258  1.00  0.00    -0.000 C 
BRANCH  17  18
ATOM     18  C   UNL     1      18.439  25.422   8.254  1.00  0.00    -0.000 C 
BRANCH  18  19
ATOM     19  C   UNL     1      18.505  26.578   9.264  1.00  0.00    -0.003 C 
ATOM     20  C   UNL     1      17.417  27.612   8.985  1.00  0.00     0.004 C 
ENDBRANCH  18  19
ENDBRANCH  17  18
ENDBRANCH  16  17
ENDBRANCH  15  16
ENDBRANCH  14  15
ENDBRANCH  13  14
ENDBRANCH   2  13
TORSDOF 15
ENDMDL
MODEL 4
REMARK VINA RESULT:    -5.069      4.505      7.265
REMARK INTER + INTRA:         -12.198
REMARK INTER:                 -10.531
REMARK INTRA:                  -1.668
REMARK UNBOUND:                -2.685
REMARK SMILES CCCCCCCCC=CCCCCCCCC(=O)[O-]
REMARK SMILES IDX 10 1 9 2 11 3 12 4 13 5 14 6 15 7 16 8 17 9 18 10 19 11
REMARK SMILES IDX 20 12 8 13 7 14 6 15 5 16 4 17 3 18 2 19 1 20
REMARK H PARENT
REMARK Flexibility Score: inf
ROOT
ATOM      1  C   UNL     1      20.695  23.147   8.737  1.00  0.00    -0.031 C 
ATOM      2  C   UNL     1      20.312  22.404   9.796  1.00  0.00    -0.031 C 
ENDROOT
BRANCH   1   3
ATOM      3  C   UNL     1      19.848  23.480   7.530  1.00  0.00     0.027 C 
BRANCH   3   4
ATOM      4  C   UNL     1      19.974  22.422   6.424  1.00  0.00     0.004 C 
BRANCH   4   5
ATOM      5  C   UNL     1      21.416  21.933   6.242  1.00  0.00     0.000 C 
BRANCH   5   6
ATOM      6  C   UNL     1      21.613  21.241   4.887  1.00  0.00     0.000 C 
BRANCH   6   7
ATOM      7  C   UNL     1      21.896  19.738   5.037  1.00  0.00     0.000 C 
BRANCH   7   8
ATOM      8  C   UNL     1      23.285  19.338   4.509  1.00  0.00     0.006 C 
BRANCH   8   9
ATOM      9  C   UNL     1      24.138  18.655   5.585  1.00  0.00     0.053 C 
BRANCH   9  10
ATOM     10  C   UNL     1      24.825  17.435   5.053  1.00  0.00     0.041 C 
ATOM     11  O   UNL     1      26.073  17.434   4.882  1.00  0.00    -0.550 OA
ATOM     12  O   UNL     1      24.093  16.286   4.779  1.00  0.00    -0.550 OA
ENDBRANCH   9  10
ENDBRANCH   8   9
ENDBRANCH   7   8
ENDBRANCH   6   7
ENDBRANCH   5   6
ENDBRANCH   4   5
ENDBRANCH   3   4
ENDBRANCH   1   3
BRANCH   2  13
ATOM     13  C   UNL     1      18.979  21.705   9.961  1.00  0.00     0.027 C 
BRANCH  13  14
ATOM     14  C   UNL     1      18.319  22.008  11.319  1.00  0.00     0.004 C 
BRANCH  14  15
ATOM     15  C   UNL     1      17.178  23.046  11.283  1.00  0.00     0.000 C 
BRANCH  15  16
ATOM     16  C   UNL     1      16.908  23.668   9.901  1.00  0.00     0.000 C 
BRANCH  16  17
ATOM     17  C   UNL     1      17.099  25.195   9.890  1.00  0.00    -0.000 C 
BRANCH  17  18
ATOM     18  C   UNL     1      18.547  25.612  10.192  1.00  0.00    -0.000 C 
BRANCH  18  19
ATOM     19  C   UNL     1      18.979  26.852   9.395  1.00  0.00    -0.003 C 
ATOM     20  C   UNL     1      17.866  27.321   8.464  1.00  0.00     0.004 C 
ENDBRANCH  18  19
ENDBRANCH  17  18
ENDBRANCH  16  17
ENDBRANCH  15  16
ENDBRANCH  14  15
ENDBRANCH  13  14
ENDBRANCH   2  13
TORSDOF 15
ENDMDL
MODEL 5
REMARK VINA RESULT:    -4.975      3.247      5.856
REMARK INTER + INTRA:         -12.022
REMARK INTER:                  -9.389
REMARK INTRA:                  -2.633
REMARK UNBOUND:                -2.685
REMARK SMILES CCCCCCCCC=CCCCCCCCC(=O)[O-]
REMARK SMILES IDX 10 1 9 2 11 3 12 4 13 5 14 6 15 7 16 8 17 9 18 10 19 11
REMARK SMILES IDX 20 12 8 13 7 14 6 15 5 16 4 17 3 18 2 19 1 20
REMARK H PARENT
REMARK Flexibility Score: inf
ROOT
ATOM      1  C   UNL     1      20.912  23.506   9.850  1.00  0.00    -0.031 C 
ATOM      2  C   UNL     1      20.055  22.706  10.516  1.00  0.00    -0.031 C 
ENDROOT
BRANCH   1   3
ATOM      3  C   UNL     1      21.031  23.630   8.348  1.00  0.00     0.027 C 
BRANCH   3   4
ATOM      4  C   UNL     1      21.683  22.393   7.714  1.00  0.00     0.004 C 
BRANCH   4   5
ATOM      5  C   UNL     1      21.067  22.037   6.356  1.00  0.00     0.000 C 
BRANCH   5   6
ATOM      6  C   UNL     1      19.635  22.571   6.225  1.00  0.00     0.000 C 
BRANCH   6   7
ATOM      7  C   UNL     1      18.914  22.007   4.990  1.00  0.00     0.000 C 
BRANCH   7   8
ATOM      8  C   UNL     1      17.946  20.862   5.338  1.00  0.00     0.006 C 
BRANCH   8   9
ATOM      9  C   UNL     1      18.519  19.488   4.968  1.00  0.00     0.053 C 
BRANCH   9  10
ATOM     10  C   UNL     1      19.105  18.795   6.160  1.00  0.00     0.041 C 
ATOM     11  O   UNL     1      20.321  18.467   6.169  1.00  0.00    -0.550 OA
ATOM     12  O   UNL     1      18.317  18.543   7.277  1.00  0.00    -0.550 OA
ENDBRANCH   9  10
ENDBRANCH   8   9
ENDBRANCH   7   8
ENDBRANCH   6   7
ENDBRANCH   5   6
ENDBRANCH   4   5
ENDBRANCH   3   4
ENDBRANCH   1   3
BRANCH   2  13
ATOM     13  C   UNL     1      19.081  21.728   9.895  1.00  0.00     0.027 C 
BRANCH  13  14
ATOM     14  C   UNL     1      17.665  21.849  10.489  1.00  0.00     0.004 C 
BRANCH  14  15
ATOM     15  C   UNL     1      16.876  23.105  10.066  1.00  0.00     0.000 C 
BRANCH  15  16
ATOM     16  C   UNL     1      16.978  23.467   8.574  1.00  0.00     0.000 C 
BRANCH  16  17
ATOM     17  C   UNL     1      17.538  24.881   8.343  1.00  0.00    -0.000 C 
BRANCH  17  18
ATOM     18  C   UNL     1      17.636  25.697   9.641  1.00  0.00    -0.000 C 
BRANCH  18  19
ATOM     19  C   UNL     1      18.929  26.523   9.720  1.00  0.00    -0.003 C 
ATOM     20  C   UNL     1      19.173  27.285   8.421  1.00  0.00     0.004 C 
ENDBRANCH  18  19
ENDBRANCH  17  18
ENDBRANCH  16  17
ENDBRANCH  15  16
ENDBRANCH  14  15
ENDBRANCH  13  14
ENDBRANCH   2  13
TORSDOF 15
ENDMDL
MODEL 6
REMARK VINA RESULT:    -4.927      1.204      4.336
REMARK INTER + INTRA:         -11.932
REMARK INTER:                  -9.672
REMARK INTRA:                  -2.260
REMARK UNBOUND:                -2.685
REMARK SMILES CCCCCCCCC=CCCCCCCCC(=O)[O-]
REMARK SMILES IDX 10 1 9 2 11 3 12 4 13 5 14 6 15 7 16 8 17 9 18 10 19 11
REMARK SMILES IDX 20 12 8 13 7 14 6 15 5 16 4 17 3 18 2 19 1 20
REMARK H PARENT
REMARK Flexibility Score: inf
ROOT
ATOM      1  C   UNL     1      21.028  23.121   8.345  1.00  0.00    -0.031 C 
ATOM      2  C   UNL     1      20.418  23.094   7.142  1.00  0.00    -0.031 C 
ENDROOT
BRANCH   1   3
ATOM      3  C   UNL     1      20.762  22.181   9.499  1.00  0.00     0.027 C 
BRANCH   3   4
ATOM      4  C   UNL     1      19.924  22.843  10.603  1.00  0.00     0.004 C 
BRANCH   4   5
ATOM      5  C   UNL     1      18.720  21.988  11.015  1.00  0.00     0.000 C 
BRANCH   5   6
ATOM      6  C   UNL     1      17.411  22.787  10.954  1.00  0.00     0.000 C 
BRANCH   6   7
ATOM      7  C   UNL     1      17.168  23.400   9.565  1.00  0.00     0.000 C 
BRANCH   7   8
ATOM      8  C   UNL     1      17.056  24.934   9.605  1.00  0.00     0.006 C 
BRANCH   8   9
ATOM      9  C   UNL     1      18.125  25.615   8.741  1.00  0.00     0.053 C 
BRANCH   9  10
ATOM     10  C   UNL     1      18.198  27.087   9.010  1.00  0.00     0.041 C 
ATOM     11  O   UNL     1      19.315  27.653   9.141  1.00  0.00    -0.550 OA
ATOM     12  O   UNL     1      17.032  27.841   9.081  1.00  0.00    -0.550 OA
ENDBRANCH   9  10
ENDBRANCH   8   9
ENDBRANCH   7   8
ENDBRANCH   6   7
ENDBRANCH   5   6
ENDBRANCH   4   5
ENDBRANCH   3   4
ENDBRANCH   1   3
BRANCH   2  13
ATOM     13  C   UNL     1      19.305  22.157   6.726  1.00  0.00     0.027 C 
BRANCH  13  14
ATOM     14  C   UNL     1      18.901  22.338   5.251  1.00  0.00     0.004 C 
BRANCH  14  15
ATOM     15  C   UNL     1      19.526  21.329   4.266  1.00  0.00     0.000 C 
BRANCH  15  16
ATOM     16  C   UNL     1      19.676  19.897   4.809  1.00  0.00     0.000 C 
BRANCH  16  17
ATOM     17  C   UNL     1      21.091  19.330   4.605  1.00  0.00    -0.000 C 
BRANCH  17  18
ATOM     18  C   UNL     1      22.173  20.180   5.288  1.00  0.00    -0.000 C 
BRANCH  18  19
ATOM     19  C   UNL     1      23.029  19.365   6.270  1.00  0.00    -0.003 C 
ATOM     20  C   UNL     1      23.089  20.040   7.637  1.00  0.00     0.004 C 
ENDBRANCH  18  19
ENDBRANCH  17  18
ENDBRANCH  16  17
ENDBRANCH  15  16
ENDBRANCH  14  15
ENDBRANCH  13  14
ENDBRANCH   2  13
TORSDOF 15
ENDMDL
MODEL 7
REMARK VINA RESULT:    -4.853      3.591      6.153
REMARK INTER + INTRA:         -11.794
REMARK INTER:                  -9.177
REMARK INTRA:                  -2.617
REMARK UNBOUND:                -2.685
REMARK SMILES CCCCCCCCC=CCCCCCCCC(=O)[O-]
REMARK SMILES IDX 10 1 9 2 11 3 12 4 13 5 14 6 15 7 16 8 17 9 18 10 19 11
REMARK SMILES IDX 20 12 8 13 7 14 6 15 5 16 4 17 3 18 2 19 1 20
REMARK H PARENT
REMARK Flexibility Score: inf
ROOT
ATOM      1  C   UNL     1      17.975  20.656   7.210  1.00  0.00    -0.031 C 
ATOM      2  C   UNL     1      17.975  20.178   8.472  1.00  0.00    -0.031 C 
ENDROOT
BRANCH   1   3
ATOM      3  C   UNL     1      17.658  22.074   6.795  1.00  0.00     0.027 C 
BRANCH   3   4
ATOM      4  C   UNL     1      18.857  22.764   6.127  1.00  0.00     0.004 C 
BRANCH   4   5
ATOM      5  C   UNL     1      20.136  22.657   6.967  1.00  0.00     0.000 C 
BRANCH   5   6
ATOM      6  C   UNL     1      21.271  21.980   6.187  1.00  0.00     0.000 C 
BRANCH   6   7
ATOM      7  C   UNL     1      20.789  21.391   4.851  1.00  0.00     0.000 C 
BRANCH   7   8
ATOM      8  C   UNL     1      20.899  19.857   4.803  1.00  0.00     0.006 C 
BRANCH   8   9
ATOM      9  C   UNL     1      21.509  19.281   6.087  1.00  0.00     0.053 C 
BRANCH   9  10
ATOM     10  C   UNL     1      22.888  18.746   5.852  1.00  0.00     0.041 C 
ATOM     11  O   UNL     1      23.867  19.212   6.493  1.00  0.00    -0.550 OA
ATOM     12  O   UNL     1      23.089  17.708   4.950  1.00  0.00    -0.550 OA
ENDBRANCH   9  10
ENDBRANCH   8   9
ENDBRANCH   7   8
ENDBRANCH   6   7
ENDBRANCH   5   6
ENDBRANCH   4   5
ENDBRANCH   3   4
ENDBRANCH   1   3
BRANCH   2  13
ATOM     13  C   UNL     1      17.600  20.950   9.719  1.00  0.00     0.027 C 
BRANCH  13  14
ATOM     14  C   UNL     1      18.808  21.657  10.360  1.00  0.00     0.004 C 
BRANCH  14  15
ATOM     15  C   UNL     1      18.682  23.188  10.498  1.00  0.00     0.000 C 
BRANCH  15  16
ATOM     16  C   UNL     1      17.294  23.760  10.158  1.00  0.00     0.000 C 
BRANCH  16  17
ATOM     17  C   UNL     1      17.349  24.847   9.071  1.00  0.00    -0.000 C 
BRANCH  17  18
ATOM     18  C   UNL     1      18.772  25.382   8.842  1.00  0.00    -0.000 C 
BRANCH  18  19
ATOM     19  C   UNL     1      18.892  26.883   9.145  1.00  0.00    -0.003 C 
ATOM     20  C   UNL     1      17.628  27.630   8.727  1.00  0.00     0.004 C 
ENDBRANCH  18  19
ENDBRANCH  17  18
ENDBRANCH  16  17
ENDBRANCH  15  16
ENDBRANCH  14  15
ENDBRANCH  13  14
ENDBRANCH   2  13
TORSDOF 15
ENDMDL
MODEL 8
REMARK VINA RESULT:    -3.996      3.254      5.548
REMARK INTER + INTRA:         -10.185
REMARK INTER:                  -7.546
REMARK INTRA:                  -2.638
REMARK UNBOUND:                -2.685
REMARK SMILES CCCCCCCCC=CCCCCCCCC(=O)[O-]
REMARK SMILES IDX 10 1 9 2 11 3 12 4 13 5 14 6 15 7 16 8 17 9 18 10 19 11
REMARK SMILES IDX 20 12 8 13 7 14 6 15 5 16 4 17 3 18 2 19 1 20
REMARK H PARENT
REMARK Flexibility Score: inf
ROOT
ATOM      1  C   UNL     1      21.851  21.654   8.142  1.00  0.00    -0.031 C 
ATOM      2  C   UNL     1      21.346  21.296   6.943  1.00  0.00    -0.031 C 
ENDROOT
BRANCH   1   3
ATOM      3  C   UNL     1      21.655  22.986   8.830  1.00  0.00     0.027 C 
BRANCH   3   4
ATOM      4  C   UNL     1      20.727  22.878  10.049  1.00  0.00     0.004 C 
BRANCH   4   5
ATOM      5  C   UNL     1      19.550  21.925   9.806  1.00  0.00     0.000 C 
BRANCH   5   6
ATOM      6  C   UNL     1      18.313  22.335  10.616  1.00  0.00     0.000 C 
BRANCH   6   7
ATOM      7  C   UNL     1      17.121  21.395  10.373  1.00  0.00     0.000 C 
BRANCH   7   8
ATOM      8  C   UNL     1      17.543  20.042   9.772  1.00  0.00     0.006 C 
BRANCH   8   9
ATOM      9  C   UNL     1      16.875  19.778   8.417  1.00  0.00     0.053 C 
BRANCH   9  10
ATOM     10  C   UNL     1      17.480  18.595   7.724  1.00  0.00     0.041 C 
ATOM     11  O   UNL     1      16.875  17.491   7.711  1.00  0.00    -0.550 OA
ATOM     12  O   UNL     1      18.696  18.721   7.062  1.00  0.00    -0.550 OA
ENDBRANCH   9  10
ENDBRANCH   8   9
ENDBRANCH   7   8
ENDBRANCH   6   7
ENDBRANCH   5   6
ENDBRANCH   4   5
ENDBRANCH   3   4
ENDBRANCH   1   3
BRANCH   2  13
ATOM     13  C   UNL     1      20.532  22.177   6.019  1.00  0.00     0.027 C 
BRANCH  13  14
ATOM     14  C   UNL     1      19.019  22.073   6.287  1.00  0.00     0.004 C 
BRANCH  14  15
ATOM     15  C   UNL     1      18.244  23.405   6.223  1.00  0.00     0.000 C 
BRANCH  15  16
ATOM     16  C   UNL     1      17.102  23.542   7.246  1.00  0.00     0.000 C 
BRANCH  16  17
ATOM     17  C   UNL     1      17.233  24.804   8.116  1.00  0.00    -0.000 C 
BRANCH  17  18
ATOM     18  C   UNL     1      18.692  25.254   8.290  1.00  0.00    -0.000 C 
BRANCH  18  19
ATOM     19  C   UNL     1      18.808  26.733   8.688  1.00  0.00    -0.003 C 
ATOM     20  C   UNL     1      17.435  27.334   8.971  1.00  0.00     0.004 C 
ENDBRANCH  18  19
ENDBRANCH  17  18
ENDBRANCH  16  17
ENDBRANCH  15  16
ENDBRANCH  14  15
ENDBRANCH  13  14
ENDBRANCH   2  13
TORSDOF 15
ENDMDL
