MODEL 1
REMARK VINA RESULT:     0.000      0.000      0.000
REMARK INTER + INTRA:          -3.737
REMARK INTER:                   0.000
REMARK INTRA:                  -3.737
REMARK UNBOUND:                -3.737
REMARK SMILES CCCCCCCCCCCCCCCCCC(=O)[O-]
REMARK SMILES IDX 10 1 11 2 12 3 13 4 14 5 15 6 16 7 17 8 18 9 19 10 20 11
REMARK SMILES IDX 9 12 8 13 7 14 6 15 5 16 4 17 3 18 2 19 1 20
REMARK H PARENT
REMARK Flexibility Score: inf
ROOT
ATOM      1  C   UNL     1     175.449 186.424 193.459  1.00  0.00     0.000 C 
ENDROOT
BRANCH   1   2
ATOM      2  C   UNL     1     175.759 186.578 194.962  1.00  0.00     0.000 C 
BRANCH   2   3
ATOM      3  C   UNL     1     174.563 186.355 195.906  1.00  0.00     0.000 C 
BRANCH   3   4
ATOM      4  C   UNL     1     173.379 185.660 195.213  1.00  0.00     0.000 C 
BRANCH   4   5
ATOM      5  C   UNL     1     172.022 186.074 195.803  1.00  0.00     0.000 C 
BRANCH   5   6
ATOM      6  C   UNL     1     172.159 186.907 197.087  1.00  0.00     0.000 C 
BRANCH   6   7
ATOM      7  C   UNL     1     170.968 187.857 197.254  1.00  0.00     0.006 C 
BRANCH   7   8
ATOM      8  C   UNL     1     170.154 187.955 195.959  1.00  0.00     0.053 C 
BRANCH   8   9
ATOM      9  C   UNL     1     169.774 189.377 195.689  1.00  0.00     0.041 C 
ATOM     10  O   UNL     1     169.268 189.697 194.580  1.00  0.00    -0.550 OA
ATOM     11  O   UNL     1     170.026 190.358 196.641  1.00  0.00    -0.550 OA
ENDBRANCH   8   9
ENDBRANCH   7   8
ENDBRANCH   6   7
ENDBRANCH   5   6
ENDBRANCH   4   5
ENDBRANCH   3   4
ENDBRANCH   2   3
ENDBRANCH   1   2
BRANCH   1  12
ATOM     12  C   UNL     1     175.974 187.559 192.561  1.00  0.00     0.000 C 
BRANCH  12  13
ATOM     13  C   UNL     1     174.876 188.555 192.155  1.00  0.00    -0.000 C 
BRANCH  13  14
ATOM     14  C   UNL     1     173.461 187.984 192.350  1.00  0.00    -0.000 C 
BRANCH  14  15
ATOM     15  C   UNL     1     172.609 188.826 193.313  1.00  0.00    -0.000 C 
BRANCH  15  16
ATOM     16  C   UNL     1     173.437 189.973 193.912  1.00  0.00    -0.000 C 
BRANCH  16  17
ATOM     17  C   UNL     1     173.458 189.948 195.448  1.00  0.00    -0.000 C 
BRANCH  17  18
ATOM     18  C   UNL     1     174.879 190.044 196.023  1.00  0.00    -0.000 C 
BRANCH  18  19
ATOM     19  C   UNL     1     175.843 190.662 195.002  1.00  0.00    -0.003 C 
ATOM     20  C   UNL     1     177.218 190.003 195.072  1.00  0.00     0.004 C 
ENDBRANCH  18  19
ENDBRANCH  17  18
ENDBRANCH  16  17
ENDBRANCH  15  16
ENDBRANCH  14  15
ENDBRANCH  13  14
ENDBRANCH  12  13
ENDBRANCH   1  12
TORSDOF 16
ENDMDL
MODEL 2
REMARK VINA RESULT:     0.014      4.728      6.882
REMARK INTER + INTRA:          -3.710
REMARK INTER:                   0.000
REMARK INTRA:                  -3.710
REMARK UNBOUND:                -3.737
REMARK SMILES CCCCCCCCCCCCCCCCCC(=O)[O-]
REMARK SMILES IDX 10 1 11 2 12 3 13 4 14 5 15 6 16 7 17 8 18 9 19 10 20 11
REMARK SMILES IDX 9 12 8 13 7 14 6 15 5 16 4 17 3 18 2 19 1 20
REMARK H PARENT
REMARK Flexibility Score: inf
ROOT
ATOM      1  C   UNL     1     172.951 192.948 196.881  1.00  0.00     0.000 C 
ENDROOT
BRANCH   1   2
ATOM      2  C   UNL     1     172.065 192.415 198.026  1.00  0.00     0.000 C 
BRANCH   2   3
ATOM      3  C   UNL     1     171.591 190.958 197.864  1.00  0.00     0.000 C 
BRANCH   3   4
ATOM      4  C   UNL     1     170.244 190.692 198.557  1.00  0.00     0.000 C 
BRANCH   4   5
ATOM      5  C   UNL     1     169.736 191.906 199.350  1.00  0.00     0.000 C 
BRANCH   5   6
ATOM      6  C   UNL     1     168.204 192.028 199.339  1.00  0.00     0.000 C 
BRANCH   6   7
ATOM      7  C   UNL     1     167.766 193.462 199.656  1.00  0.00     0.006 C 
BRANCH   7   8
ATOM      8  C   UNL     1     168.977 194.390 199.803  1.00  0.00     0.053 C 
BRANCH   8   9
ATOM      9  C   UNL     1     168.646 195.761 199.303  1.00  0.00     0.041 C 
ATOM     10  O   UNL     1     167.574 195.964 198.672  1.00  0.00    -0.550 OA
ATOM     11  O   UNL     1     169.545 196.805 199.488  1.00  0.00    -0.550 OA
ENDBRANCH   8   9
ENDBRANCH   7   8
ENDBRANCH   6   7
ENDBRANCH   5   6
ENDBRANCH   4   5
ENDBRANCH   3   4
ENDBRANCH   2   3
ENDBRANCH   1   2
BRANCH   1  12
ATOM     12  C   UNL     1     172.502 194.290 196.273  1.00  0.00     0.000 C 
BRANCH  12  13
ATOM     13  C   UNL     1     171.090 194.703 196.721  1.00  0.00    -0.000 C 
BRANCH  13  14
ATOM     14  C   UNL     1     170.043 194.526 195.608  1.00  0.00    -0.000 C 
BRANCH  14  15
ATOM     15  C   UNL     1     168.786 193.785 196.091  1.00  0.00    -0.000 C 
BRANCH  15  16
ATOM     16  C   UNL     1     168.796 192.325 195.611  1.00  0.00    -0.000 C 
BRANCH  16  17
ATOM     17  C   UNL     1     169.672 192.117 194.366  1.00  0.00    -0.000 C 
BRANCH  17  18
ATOM     18  C   UNL     1     170.490 190.819 194.427  1.00  0.00    -0.000 C 
BRANCH  18  19
ATOM     19  C   UNL     1     171.917 191.045 193.909  1.00  0.00    -0.003 C 
ATOM     20  C   UNL     1     172.026 192.366 193.153  1.00  0.00     0.004 C 
ENDBRANCH  18  19
ENDBRANCH  17  18
ENDBRANCH  16  17
ENDBRANCH  15  16
ENDBRANCH  14  15
ENDBRANCH  13  14
ENDBRANCH  12  13
ENDBRANCH   1  12
TORSDOF 16
ENDMDL
MODEL 3
REMARK VINA RESULT:     0.023      4.365      6.383
REMARK INTER + INTRA:          -3.692
REMARK INTER:                   0.000
REMARK INTRA:                  -3.692
REMARK UNBOUND:                -3.737
REMARK SMILES CCCCCCCCCCCCCCCCCC(=O)[O-]
REMARK SMILES IDX 10 1 11 2 12 3 13 4 14 5 15 6 16 7 17 8 18 9 19 10 20 11
REMARK SMILES IDX 9 12 8 13 7 14 6 15 5 16 4 17 3 18 2 19 1 20
REMARK H PARENT
REMARK Flexibility Score: inf
ROOT
ATOM      1  C   UNL     1     174.167 188.020 196.144  1.00  0.00     0.000 C 
ENDROOT
BRANCH   1   2
ATOM      2  C   UNL     1     174.081 189.522 195.804  1.00  0.00     0.000 C 
BRANCH   2   3
ATOM      3  C   UNL     1     174.097 190.472 197.016  1.00  0.00     0.000 C 
BRANCH   3   4
ATOM      4  C   UNL     1     174.405 189.747 198.336  1.00  0.00     0.000 C 
BRANCH   4   5
ATOM      5  C   UNL     1     175.854 189.960 198.803  1.00  0.00     0.000 C 
BRANCH   5   6
ATOM      6  C   UNL     1     176.569 188.644 199.147  1.00  0.00     0.000 C 
BRANCH   6   7
ATOM      7  C   UNL     1     178.068 188.875 199.368  1.00  0.00     0.006 C 
BRANCH   7   8
ATOM      8  C   UNL     1     178.365 190.355 199.632  1.00  0.00     0.053 C 
BRANCH   8   9
ATOM      9  C   UNL     1     179.689 190.734 199.046  1.00  0.00     0.041 C 
ATOM     10  O   UNL     1     180.477 189.841 198.633  1.00  0.00    -0.550 OA
ATOM     11  O   UNL     1     180.075 192.068 199.003  1.00  0.00    -0.550 OA
ENDBRANCH   8   9
ENDBRANCH   7   8
ENDBRANCH   6   7
ENDBRANCH   5   6
ENDBRANCH   4   5
ENDBRANCH   3   4
ENDBRANCH   2   3
ENDBRANCH   1   2
BRANCH   1  12
ATOM     12  C   UNL     1     175.475 187.326 195.723  1.00  0.00     0.000 C 
BRANCH  12  13
ATOM     13  C   UNL     1     176.421 188.257 194.947  1.00  0.00    -0.000 C 
BRANCH  13  14
ATOM     14  C   UNL     1     177.748 188.499 195.688  1.00  0.00    -0.000 C 
BRANCH  14  15
ATOM     15  C   UNL     1     178.116 189.988 195.771  1.00  0.00    -0.000 C 
BRANCH  15  16
ATOM     16  C   UNL     1     177.378 190.794 194.691  1.00  0.00    -0.000 C 
BRANCH  16  17
ATOM     17  C   UNL     1     176.866 192.148 195.209  1.00  0.00    -0.000 C 
BRANCH  17  18
ATOM     18  C   UNL     1     177.371 192.470 196.623  1.00  0.00    -0.000 C 
BRANCH  18  19
ATOM     19  C   UNL     1     176.406 193.417 197.348  1.00  0.00    -0.003 C 
ATOM     20  C   UNL     1     176.814 193.610 198.805  1.00  0.00     0.004 C 
ENDBRANCH  18  19
ENDBRANCH  17  18
ENDBRANCH  16  17
ENDBRANCH  15  16
ENDBRANCH  14  15
ENDBRANCH  13  14
ENDBRANCH  12  13
ENDBRANCH   1  12
TORSDOF 16
ENDMDL
MODEL 4
REMARK VINA RESULT:     0.030      4.223      6.994
REMARK INTER + INTRA:          -3.678
REMARK INTER:                   0.000
REMARK INTRA:                  -3.678
REMARK UNBOUND:                -3.737
REMARK SMILES CCCCCCCCCCCCCCCCCC(=O)[O-]
REMARK SMILES IDX 10 1 11 2 12 3 13 4 14 5 15 6 16 7 17 8 18 9 19 10 20 11
REMARK SMILES IDX 9 12 8 13 7 14 6 15 5 16 4 17 3 18 2 19 1 20
REMARK H PARENT
REMARK Flexibility Score: inf
ROOT
ATOM      1  C   UNL     1     171.949 189.865 195.623  1.00  0.00     0.000 C 
ENDROOT
BRANCH   1   2
ATOM      2  C   UNL     1     171.554 191.041 194.706  1.00  0.00     0.000 C 
BRANCH   2   3
ATOM      3  C   UNL     1     170.081 191.482 194.801  1.00  0.00     0.000 C 
BRANCH   3   4
ATOM      4  C   UNL     1     169.897 192.993 194.582  1.00  0.00     0.000 C 
BRANCH   4   5
ATOM      5  C   UNL     1     171.217 193.706 194.246  1.00  0.00     0.000 C 
BRANCH   5   6
ATOM      6  C   UNL     1     171.278 195.138 194.802  1.00  0.00     0.000 C 
BRANCH   6   7
ATOM      7  C   UNL     1     172.707 195.689 194.739  1.00  0.00     0.006 C 
BRANCH   7   8
ATOM      8  C   UNL     1     173.718 194.573 194.452  1.00  0.00     0.053 C 
BRANCH   8   9
ATOM      9  C   UNL     1     174.962 194.778 195.257  1.00  0.00     0.041 C 
ATOM     10  O   UNL     1     176.015 194.150 194.966  1.00  0.00    -0.550 OA
ATOM     11  O   UNL     1     174.947 195.625 196.359  1.00  0.00    -0.550 OA
ENDBRANCH   8   9
ENDBRANCH   7   8
ENDBRANCH   6   7
ENDBRANCH   5   6
ENDBRANCH   4   5
ENDBRANCH   3   4
ENDBRANCH   2   3
ENDBRANCH   1   2
BRANCH   1  12
ATOM     12  C   UNL     1     173.237 190.074 196.440  1.00  0.00     0.000 C 
BRANCH  12  13
ATOM     13  C   UNL     1     173.608 191.558 196.599  1.00  0.00    -0.000 C 
BRANCH  13  14
ATOM     14  C   UNL     1     173.189 192.127 197.966  1.00  0.00    -0.000 C 
BRANCH  14  15
ATOM     15  C   UNL     1     172.494 193.493 197.850  1.00  0.00    -0.000 C 
BRANCH  15  16
ATOM     16  C   UNL     1     170.981 193.356 198.079  1.00  0.00    -0.000 C 
BRANCH  16  17
ATOM     17  C   UNL     1     170.614 192.088 198.866  1.00  0.00    -0.000 C 
BRANCH  17  18
ATOM     18  C   UNL     1     169.319 191.432 198.363  1.00  0.00    -0.000 C 
BRANCH  18  19
ATOM     19  C   UNL     1     169.452 189.904 198.339  1.00  0.00    -0.003 C 
ATOM     20  C   UNL     1     170.687 189.446 199.109  1.00  0.00     0.004 C 
ENDBRANCH  18  19
ENDBRANCH  17  18
ENDBRANCH  16  17
ENDBRANCH  15  16
ENDBRANCH  14  15
ENDBRANCH  13  14
ENDBRANCH  12  13
ENDBRANCH   1  12
TORSDOF 16
ENDMDL
MODEL 5
REMARK VINA RESULT:     0.039      6.987      9.308
REMARK INTER + INTRA:          -3.661
REMARK INTER:                   0.000
REMARK INTRA:                  -3.661
REMARK UNBOUND:                -3.737
REMARK SMILES CCCCCCCCCCCCCCCCCC(=O)[O-]
REMARK SMILES IDX 10 1 11 2 12 3 13 4 14 5 15 6 16 7 17 8 18 9 19 10 20 11
REMARK SMILES IDX 9 12 8 13 7 14 6 15 5 16 4 17 3 18 2 19 1 20
REMARK H PARENT
REMARK Flexibility Score: inf
ROOT
ATOM      1  C   UNL     1     169.126 181.502 196.049  1.00  0.00     0.000 C 
ENDROOT
BRANCH   1   2
ATOM      2  C   UNL     1     168.265 182.741 196.373  1.00  0.00     0.000 C 
BRANCH   2   3
ATOM      3  C   UNL     1     167.006 182.464 197.216  1.00  0.00     0.000 C 
BRANCH   3   4
ATOM      4  C   UNL     1     166.780 183.518 198.312  1.00  0.00     0.000 C 
BRANCH   4   5
ATOM      5  C   UNL     1     167.946 184.514 198.423  1.00  0.00     0.000 C 
BRANCH   5   6
ATOM      6  C   UNL     1     168.132 185.057 199.849  1.00  0.00     0.000 C 
BRANCH   6   7
ATOM      7  C   UNL     1     169.614 185.311 200.149  1.00  0.00     0.006 C 
BRANCH   7   8
ATOM      8  C   UNL     1     169.977 184.854 201.566  1.00  0.00     0.053 C 
BRANCH   8   9
ATOM      9  C   UNL     1     171.430 184.509 201.646  1.00  0.00     0.041 C 
ATOM     10  O   UNL     1     171.811 183.525 202.335  1.00  0.00    -0.550 OA
ATOM     11  O   UNL     1     172.371 185.304 201.000  1.00  0.00    -0.550 OA
ENDBRANCH   8   9
ENDBRANCH   7   8
ENDBRANCH   6   7
ENDBRANCH   5   6
ENDBRANCH   4   5
ENDBRANCH   3   4
ENDBRANCH   2   3
ENDBRANCH   1   2
BRANCH   1  12
ATOM     12  C   UNL     1     170.625 181.641 196.371  1.00  0.00     0.000 C 
BRANCH  12  13
ATOM     13  C   UNL     1     170.950 182.926 197.151  1.00  0.00    -0.000 C 
BRANCH  13  14
ATOM     14  C   UNL     1     171.656 182.642 198.488  1.00  0.00    -0.000 C 
BRANCH  14  15
ATOM     15  C   UNL     1     171.176 181.338 199.145  1.00  0.00    -0.000 C 
BRANCH  15  16
ATOM     16  C   UNL     1     169.877 181.569 199.932  1.00  0.00    -0.000 C 
BRANCH  16  17
ATOM     17  C   UNL     1     168.834 180.467 199.689  1.00  0.00    -0.000 C 
BRANCH  17  18
ATOM     18  C   UNL     1     167.555 180.669 200.515  1.00  0.00    -0.000 C 
BRANCH  18  19
ATOM     19  C   UNL     1     167.751 181.767 201.569  1.00  0.00    -0.003 C 
ATOM     20  C   UNL     1     166.432 182.463 201.892  1.00  0.00     0.004 C 
ENDBRANCH  18  19
ENDBRANCH  17  18
ENDBRANCH  16  17
ENDBRANCH  15  16
ENDBRANCH  14  15
ENDBRANCH  13  14
ENDBRANCH  12  13
ENDBRANCH   1  12
TORSDOF 16
ENDMDL
MODEL 6
REMARK VINA RESULT:     0.045      3.588      6.489
REMARK INTER + INTRA:          -3.649
REMARK INTER:                   0.000
REMARK INTRA:                  -3.649
REMARK UNBOUND:                -3.737
REMARK SMILES CCCCCCCCCCCCCCCCCC(=O)[O-]
REMARK SMILES IDX 10 1 11 2 12 3 13 4 14 5 15 6 16 7 17 8 18 9 19 10 20 11
REMARK SMILES IDX 9 12 8 13 7 14 6 15 5 16 4 17 3 18 2 19 1 20
REMARK H PARENT
REMARK Flexibility Score: inf
ROOT
ATOM      1  C   UNL     1     175.953 193.648 195.042  1.00  0.00     0.000 C 
ENDROOT
BRANCH   1   2
ATOM      2  C   UNL     1     177.149 192.919 194.397  1.00  0.00     0.000 C 
BRANCH   2   3
ATOM      3  C   UNL     1     176.876 192.308 193.010  1.00  0.00     0.000 C 
BRANCH   3   4
ATOM      4  C   UNL     1     177.146 190.795 192.963  1.00  0.00     0.000 C 
BRANCH   4   5
ATOM      5  C   UNL     1     177.827 190.275 194.239  1.00  0.00     0.000 C 
BRANCH   5   6
ATOM      6  C   UNL     1     176.981 189.230 194.983  1.00  0.00     0.000 C 
BRANCH   6   7
ATOM      7  C   UNL     1     175.574 189.135 194.381  1.00  0.00     0.006 C 
BRANCH   7   8
ATOM      8  C   UNL     1     174.511 189.580 195.390  1.00  0.00     0.053 C 
BRANCH   8   9
ATOM      9  C   UNL     1     173.703 190.709 194.831  1.00  0.00     0.041 C 
ATOM     10  O   UNL     1     173.659 190.901 193.587  1.00  0.00    -0.550 OA
ATOM     11  O   UNL     1     173.041 191.581 195.688  1.00  0.00    -0.550 OA
ENDBRANCH   8   9
ENDBRANCH   7   8
ENDBRANCH   6   7
ENDBRANCH   5   6
ENDBRANCH   4   5
ENDBRANCH   3   4
ENDBRANCH   2   3
ENDBRANCH   1   2
BRANCH   1  12
ATOM     12  C   UNL     1     175.887 193.570 196.579  1.00  0.00     0.000 C 
BRANCH  12  13
ATOM     13  C   UNL     1     176.322 192.200 197.125  1.00  0.00    -0.000 C 
BRANCH  13  14
ATOM     14  C   UNL     1     177.525 192.300 198.078  1.00  0.00    -0.000 C 
BRANCH  14  15
ATOM     15  C   UNL     1     178.662 191.339 197.698  1.00  0.00    -0.000 C 
BRANCH  15  16
ATOM     16  C   UNL     1     179.762 192.075 196.918  1.00  0.00    -0.000 C 
BRANCH  16  17
ATOM     17  C   UNL     1     179.877 193.556 197.312  1.00  0.00    -0.000 C 
BRANCH  17  18
ATOM     18  C   UNL     1     179.998 194.486 196.095  1.00  0.00    -0.000 C 
BRANCH  18  19
ATOM     19  C   UNL     1     179.003 195.650 196.194  1.00  0.00    -0.003 C 
ATOM     20  C   UNL     1     178.574 195.888 197.639  1.00  0.00     0.004 C 
ENDBRANCH  18  19
ENDBRANCH  17  18
ENDBRANCH  16  17
ENDBRANCH  15  16
ENDBRANCH  14  15
ENDBRANCH  13  14
ENDBRANCH  12  13
ENDBRANCH   1  12
TORSDOF 16
ENDMDL
MODEL 7
REMARK VINA RESULT:     0.046      9.520     12.180
REMARK INTER + INTRA:          -3.647
REMARK INTER:                   0.000
REMARK INTRA:                  -3.647
REMARK UNBOUND:                -3.737
REMARK SMILES CCCCCCCCCCCCCCCCCC(=O)[O-]
REMARK SMILES IDX 10 1 11 2 12 3 13 4 14 5 15 6 16 7 17 8 18 9 19 10 20 11
REMARK SMILES IDX 9 12 8 13 7 14 6 15 5 16 4 17 3 18 2 19 1 20
REMARK H PARENT
REMARK Flexibility Score: inf
ROOT
ATOM      1  C   UNL     1     179.969 198.122 190.774  1.00  0.00     0.000 C 
ENDROOT
BRANCH   1   2
ATOM      2  C   UNL     1     179.508 198.881 189.513  1.00  0.00     0.000 C 
BRANCH   2   3
ATOM      3  C   UNL     1     178.038 198.656 189.112  1.00  0.00     0.000 C 
BRANCH   3   4
ATOM      4  C   UNL     1     177.342 197.592 189.977  1.00  0.00     0.000 C 
BRANCH   4   5
ATOM      5  C   UNL     1     176.836 196.398 189.153  1.00  0.00     0.000 C 
BRANCH   5   6
ATOM      6  C   UNL     1     177.234 195.043 189.759  1.00  0.00     0.000 C 
BRANCH   6   7
ATOM      7  C   UNL     1     177.716 195.211 191.205  1.00  0.00     0.006 C 
BRANCH   7   8
ATOM      8  C   UNL     1     178.810 194.193 191.544  1.00  0.00     0.053 C 
BRANCH   8   9
ATOM      9  C   UNL     1     179.378 194.471 192.900  1.00  0.00     0.041 C 
ATOM     10  O   UNL     1     179.887 193.538 193.577  1.00  0.00    -0.550 OA
ATOM     11  O   UNL     1     179.301 195.751 193.438  1.00  0.00    -0.550 OA
ENDBRANCH   8   9
ENDBRANCH   7   8
ENDBRANCH   6   7
ENDBRANCH   5   6
ENDBRANCH   4   5
ENDBRANCH   3   4
ENDBRANCH   2   3
ENDBRANCH   1   2
BRANCH   1  12
ATOM     12  C   UNL     1     181.011 197.015 190.531  1.00  0.00     0.000 C 
BRANCH  12  13
ATOM     13  C   UNL     1     181.257 196.746 189.037  1.00  0.00    -0.000 C 
BRANCH  13  14
ATOM     14  C   UNL     1     180.768 195.355 188.600  1.00  0.00    -0.000 C 
BRANCH  14  15
ATOM     15  C   UNL     1     179.966 195.394 187.290  1.00  0.00    -0.000 C 
BRANCH  15  16
ATOM     16  C   UNL     1     180.156 196.740 186.573  1.00  0.00    -0.000 C 
BRANCH  16  17
ATOM     17  C   UNL     1     178.891 197.199 185.831  1.00  0.00    -0.000 C 
BRANCH  17  18
ATOM     18  C   UNL     1     177.877 196.063 185.629  1.00  0.00    -0.000 C 
BRANCH  18  19
ATOM     19  C   UNL     1     176.457 196.618 185.463  1.00  0.00    -0.003 C 
ATOM     20  C   UNL     1     176.403 198.104 185.804  1.00  0.00     0.004 C 
ENDBRANCH  18  19
ENDBRANCH  17  18
ENDBRANCH  16  17
ENDBRANCH  15  16
ENDBRANCH  14  15
ENDBRANCH  13  14
ENDBRANCH  12  13
ENDBRANCH   1  12
TORSDOF 16
ENDMDL
MODEL 8
REMARK VINA RESULT:     0.047      2.789      5.152
REMARK INTER + INTRA:          -3.646
REMARK INTER:                   0.000
REMARK INTRA:                  -3.646
REMARK UNBOUND:                -3.737
REMARK SMILES CCCCCCCCCCCCCCCCCC(=O)[O-]
REMARK SMILES IDX 10 1 11 2 12 3 13 4 14 5 15 6 16 7 17 8 18 9 19 10 20 11
REMARK SMILES IDX 9 12 8 13 7 14 6 15 5 16 4 17 3 18 2 19 1 20
REMARK H PARENT
REMARK Flexibility Score: inf
ROOT
ATOM      1  C   UNL     1     173.420 189.968 196.194  1.00  0.00     0.000 C 
ENDROOT
BRANCH   1   2
ATOM      2  C   UNL     1     174.837 189.810 196.782  1.00  0.00     0.000 C 
BRANCH   2   3
ATOM      3  C   UNL     1     175.835 189.046 195.893  1.00  0.00     0.000 C 
BRANCH   3   4
ATOM      4  C   UNL     1     176.330 187.741 196.539  1.00  0.00     0.000 C 
BRANCH   4   5
ATOM      5  C   UNL     1     176.034 186.505 195.675  1.00  0.00     0.000 C 
BRANCH   5   6
ATOM      6  C   UNL     1     175.629 186.865 194.237  1.00  0.00     0.000 C 
BRANCH   6   7
ATOM      7  C   UNL     1     175.138 185.626 193.479  1.00  0.00     0.006 C 
BRANCH   7   8
ATOM      8  C   UNL     1     174.145 186.011 192.377  1.00  0.00     0.053 C 
BRANCH   8   9
ATOM      9  C   UNL     1     174.762 187.002 191.442  1.00  0.00     0.041 C 
ATOM     10  O   UNL     1     174.229 188.132 191.274  1.00  0.00    -0.550 OA
ATOM     11  O   UNL     1     175.898 186.661 190.716  1.00  0.00    -0.550 OA
ENDBRANCH   8   9
ENDBRANCH   7   8
ENDBRANCH   6   7
ENDBRANCH   5   6
ENDBRANCH   4   5
ENDBRANCH   3   4
ENDBRANCH   2   3
ENDBRANCH   1   2
BRANCH   1  12
ATOM     12  C   UNL     1     173.312 189.756 194.673  1.00  0.00     0.000 C 
BRANCH  12  13
ATOM     13  C   UNL     1     172.346 188.621 194.297  1.00  0.00    -0.000 C 
BRANCH  13  14
ATOM     14  C   UNL     1     171.842 187.844 195.526  1.00  0.00    -0.000 C 
BRANCH  14  15
ATOM     15  C   UNL     1     171.959 186.322 195.352  1.00  0.00    -0.000 C 
BRANCH  15  16
ATOM     16  C   UNL     1     172.600 185.678 196.591  1.00  0.00    -0.000 C 
BRANCH  16  17
ATOM     17  C   UNL     1     172.710 186.654 197.774  1.00  0.00    -0.000 C 
BRANCH  17  18
ATOM     18  C   UNL     1     173.823 186.267 198.759  1.00  0.00    -0.000 C 
BRANCH  18  19
ATOM     19  C   UNL     1     174.205 187.456 199.650  1.00  0.00    -0.003 C 
ATOM     20  C   UNL     1     173.065 188.466 199.739  1.00  0.00     0.004 C 
ENDBRANCH  18  19
ENDBRANCH  17  18
ENDBRANCH  16  17
ENDBRANCH  15  16
ENDBRANCH  14  15
ENDBRANCH  13  14
ENDBRANCH  12  13
ENDBRANCH   1  12
TORSDOF 16
ENDMDL
MODEL 9
REMARK VINA RESULT:     0.047      3.865      5.987
REMARK INTER + INTRA:          -3.646
REMARK INTER:                   0.000
REMARK INTRA:                  -3.646
REMARK UNBOUND:                -3.737
REMARK SMILES CCCCCCCCCCCCCCCCCC(=O)[O-]
REMARK SMILES IDX 10 1 11 2 12 3 13 4 14 5 15 6 16 7 17 8 18 9 19 10 20 11
REMARK SMILES IDX 9 12 8 13 7 14 6 15 5 16 4 17 3 18 2 19 1 20
REMARK H PARENT
REMARK Flexibility Score: inf
ROOT
ATOM      1  C   UNL     1     173.536 185.005 193.848  1.00  0.00     0.000 C 
ENDROOT
BRANCH   1   2
ATOM      2  C   UNL     1     173.193 184.359 192.491  1.00  0.00     0.000 C 
BRANCH   2   3
ATOM      3  C   UNL     1     174.242 183.368 191.951  1.00  0.00     0.000 C 
BRANCH   3   4
ATOM      4  C   UNL     1     175.601 183.498 192.657  1.00  0.00     0.000 C 
BRANCH   4   5
ATOM      5  C   UNL     1     176.030 182.198 193.358  1.00  0.00     0.000 C 
BRANCH   5   6
ATOM      6  C   UNL     1     176.300 182.392 194.859  1.00  0.00     0.000 C 
BRANCH   6   7
ATOM      7  C   UNL     1     175.021 182.182 195.677  1.00  0.00     0.006 C 
BRANCH   7   8
ATOM      8  C   UNL     1     174.168 181.054 195.089  1.00  0.00     0.053 C 
BRANCH   8   9
ATOM      9  C   UNL     1     172.755 181.511 194.903  1.00  0.00     0.041 C 
ATOM     10  O   UNL     1     172.111 181.174 193.874  1.00  0.00    -0.550 OA
ATOM     11  O   UNL     1     172.166 182.351 195.842  1.00  0.00    -0.550 OA
ENDBRANCH   8   9
ENDBRANCH   7   8
ENDBRANCH   6   7
ENDBRANCH   5   6
ENDBRANCH   4   5
ENDBRANCH   3   4
ENDBRANCH   2   3
ENDBRANCH   1   2
BRANCH   1  12
ATOM     12  C   UNL     1     173.548 186.545 193.859  1.00  0.00     0.000 C 
BRANCH  12  13
ATOM     13  C   UNL     1     174.713 187.126 194.676  1.00  0.00    -0.000 C 
BRANCH  13  14
ATOM     14  C   UNL     1     175.522 186.039 195.405  1.00  0.00    -0.000 C 
BRANCH  14  15
ATOM     15  C   UNL     1     177.009 186.050 195.019  1.00  0.00    -0.000 C 
BRANCH  15  16
ATOM     16  C   UNL     1     177.248 186.940 193.790  1.00  0.00    -0.000 C 
BRANCH  16  17
ATOM     17  C   UNL     1     178.091 186.243 192.710  1.00  0.00    -0.000 C 
BRANCH  17  18
ATOM     18  C   UNL     1     177.442 186.308 191.319  1.00  0.00    -0.000 C 
BRANCH  18  19
ATOM     19  C   UNL     1     176.231 187.249 191.322  1.00  0.00    -0.003 C 
ATOM     20  C   UNL     1     175.119 186.719 190.421  1.00  0.00     0.004 C 
ENDBRANCH  18  19
ENDBRANCH  17  18
ENDBRANCH  16  17
ENDBRANCH  15  16
ENDBRANCH  14  15
ENDBRANCH  13  14
ENDBRANCH  12  13
ENDBRANCH   1  12
TORSDOF 16
ENDMDL
