MODEL 1
REMARK VINA RESULT:    -6.552      0.000      0.000
REMARK INTER + INTRA:          -8.169
REMARK INTER:                  -7.892
REMARK INTRA:                  -0.277
REMARK UNBOUND:                -0.277
REMARK SMILES Oc1cc(O)c2cc(O)c(-c3ccc(O)c(O)c3)[o+]c2c1
REMARK SMILES IDX 10 1 19 2 20 3 21 4 2 5 3 6 4 7 6 8 7 9 8 10 11 11 12 12
REMARK SMILES IDX 13 13 14 14 18 15 16 16 15 17 17 19 9 21 1 23 5 25
REMARK H PARENT 15 18 17 20 9 22 1 24 5 26
REMARK Flexibility Score: inf
ROOT
ATOM      1  C   UNL     1       9.268  52.756  20.261  1.00  0.00     0.402 A 
ATOM      2  O   UNL     1       9.765  52.092  21.302  1.00  0.00    -0.202 OA
ATOM      3  C   UNL     1      11.067  51.963  21.532  1.00  0.00     0.368 A 
ATOM      4  C   UNL     1      11.491  51.250  22.656  1.00  0.00     0.162 A 
ATOM      5  C   UNL     1      12.852  51.101  22.925  1.00  0.00     0.128 A 
ATOM      6  C   UNL     1      13.799  51.670  22.065  1.00  0.00     0.093 A 
ATOM      7  C   UNL     1      13.399  52.390  20.932  1.00  0.00     0.136 A 
ATOM      8  C   UNL     1      12.015  52.542  20.654  1.00  0.00     0.125 A 
ATOM      9  C   UNL     1      11.523  53.234  19.536  1.00  0.00     0.078 A 
ATOM     10  C   UNL     1      10.145  53.337  19.325  1.00  0.00     0.223 A 
ENDROOT
BRANCH   1  11
ATOM     11  C   UNL     1       7.798  52.838  20.118  1.00  0.00     0.087 A 
ATOM     12  C   UNL     1       7.024  53.658  20.958  1.00  0.00     0.022 A 
ATOM     13  C   UNL     1       5.634  53.699  20.820  1.00  0.00     0.051 A 
ATOM     14  C   UNL     1       4.996  52.915  19.850  1.00  0.00     0.157 A 
ATOM     15  C   UNL     1       7.150  52.037  19.162  1.00  0.00     0.068 A 
ATOM     16  C   UNL     1       5.759  52.078  19.020  1.00  0.00     0.158 A 
BRANCH  14  17
ATOM     17  O   UNL     1       3.609  52.961  19.713  1.00  0.00    -0.504 OA
ATOM     18  H   UNL     1       3.081  52.162  19.380  1.00  0.00     0.293 HD
ENDBRANCH  14  17
BRANCH  16  19
ATOM     19  O   UNL     1       5.153  51.279  18.050  1.00  0.00    -0.504 OA
ATOM     20  H   UNL     1       5.504  50.358  17.814  1.00  0.00     0.293 HD
ENDBRANCH  16  19
ENDBRANCH   1  11
BRANCH  10  21
ATOM     21  O   UNL     1       9.657  53.982  18.189  1.00  0.00    -0.500 OA
ATOM     22  H   UNL     1       8.667  54.007  17.974  1.00  0.00     0.294 HD
ENDBRANCH  10  21
BRANCH   5  23
ATOM     23  O   UNL     1      13.255  50.385  24.050  1.00  0.00    -0.507 OA
ATOM     24  H   UNL     1      12.595  50.113  24.769  1.00  0.00     0.293 HD
ENDBRANCH   5  23
BRANCH   7  25
ATOM     25  O   UNL     1      14.404  52.930  20.124  1.00  0.00    -0.507 OA
ATOM     26  H   UNL     1      15.373  52.649  20.154  1.00  0.00     0.293 HD
ENDBRANCH   7  25
TORSDOF 6
ENDMDL
MODEL 2
REMARK VINA RESULT:    -6.410      1.457      2.802
REMARK INTER + INTRA:          -7.999
REMARK INTER:                  -7.813
REMARK INTRA:                  -0.186
REMARK UNBOUND:                -0.277
REMARK SMILES Oc1cc(O)c2cc(O)c(-c3ccc(O)c(O)c3)[o+]c2c1
REMARK SMILES IDX 10 1 19 2 20 3 21 4 2 5 3 6 4 7 6 8 7 9 8 10 11 11 12 12
REMARK SMILES IDX 13 13 14 14 18 15 16 16 15 17 17 19 9 21 1 23 5 25
REMARK H PARENT 15 18 17 20 9 22 1 24 5 26
REMARK Flexibility Score: inf
ROOT
ATOM      1  C   UNL     1       8.351  52.360  21.621  1.00  0.00     0.402 A 
ATOM      2  O   UNL     1       9.553  52.379  21.050  1.00  0.00    -0.202 OA
ATOM      3  C   UNL     1      10.679  52.130  21.709  1.00  0.00     0.368 A 
ATOM      4  C   UNL     1      11.894  52.171  21.020  1.00  0.00     0.162 A 
ATOM      5  C   UNL     1      13.091  51.909  21.685  1.00  0.00     0.128 A 
ATOM      6  C   UNL     1      13.078  51.604  23.051  1.00  0.00     0.093 A 
ATOM      7  C   UNL     1      11.873  51.556  23.764  1.00  0.00     0.136 A 
ATOM      8  C   UNL     1      10.652  51.823  23.091  1.00  0.00     0.125 A 
ATOM      9  C   UNL     1       9.401  51.812  23.727  1.00  0.00     0.078 A 
ATOM     10  C   UNL     1       8.241  52.091  22.999  1.00  0.00     0.223 A 
ENDROOT
BRANCH   1  11
ATOM     11  C   UNL     1       7.169  52.646  20.778  1.00  0.00     0.087 A 
ATOM     12  C   UNL     1       6.364  53.777  21.002  1.00  0.00     0.022 A 
ATOM     13  C   UNL     1       5.239  54.012  20.207  1.00  0.00     0.051 A 
ATOM     14  C   UNL     1       4.894  53.116  19.187  1.00  0.00     0.157 A 
ATOM     15  C   UNL     1       6.806  51.740  19.767  1.00  0.00     0.068 A 
ATOM     16  C   UNL     1       5.681  51.973  18.968  1.00  0.00     0.158 A 
BRANCH  14  17
ATOM     17  O   UNL     1       3.772  53.356  18.394  1.00  0.00    -0.504 OA
ATOM     18  H   UNL     1       2.974  52.731  18.401  1.00  0.00     0.293 HD
ENDBRANCH  14  17
BRANCH  16  19
ATOM     19  O   UNL     1       5.360  51.059  17.966  1.00  0.00    -0.504 OA
ATOM     20  H   UNL     1       4.416  50.716  17.831  1.00  0.00     0.293 HD
ENDBRANCH  16  19
ENDBRANCH   1  11
BRANCH  10  21
ATOM     21  O   UNL     1       7.003  52.127  23.640  1.00  0.00    -0.500 OA
ATOM     22  H   UNL     1       6.513  52.999  23.803  1.00  0.00     0.294 HD
ENDBRANCH  10  21
BRANCH   5  23
ATOM     23  O   UNL     1      14.292  51.956  20.981  1.00  0.00    -0.507 OA
ATOM     24  H   UNL     1      14.328  52.255  20.013  1.00  0.00     0.293 HD
ENDBRANCH   5  23
BRANCH   7  25
ATOM     25  O   UNL     1      11.942  51.240  25.125  1.00  0.00    -0.507 OA
ATOM     26  H   UNL     1      12.555  50.542  25.518  1.00  0.00     0.293 HD
ENDBRANCH   7  25
TORSDOF 6
ENDMDL
MODEL 3
REMARK VINA RESULT:    -6.405      2.346      7.551
REMARK INTER + INTRA:          -7.993
REMARK INTER:                  -7.676
REMARK INTRA:                  -0.316
REMARK UNBOUND:                -0.277
REMARK SMILES Oc1cc(O)c2cc(O)c(-c3ccc(O)c(O)c3)[o+]c2c1
REMARK SMILES IDX 10 1 19 2 20 3 21 4 2 5 3 6 4 7 6 8 7 9 8 10 11 11 12 12
REMARK SMILES IDX 13 13 14 14 18 15 16 16 15 17 17 19 9 21 1 23 5 25
REMARK H PARENT 15 18 17 20 9 22 1 24 5 26
REMARK Flexibility Score: inf
ROOT
ATOM      1  C   UNL     1       6.755  52.828  21.087  1.00  0.00     0.402 A 
ATOM      2  O   UNL     1       6.146  53.962  21.423  1.00  0.00    -0.202 OA
ATOM      3  C   UNL     1       5.113  54.463  20.753  1.00  0.00     0.368 A 
ATOM      4  C   UNL     1       4.538  55.660  21.186  1.00  0.00     0.162 A 
ATOM      5  C   UNL     1       3.451  56.208  20.504  1.00  0.00     0.128 A 
ATOM      6  C   UNL     1       2.932  55.554  19.381  1.00  0.00     0.093 A 
ATOM      7  C   UNL     1       3.490  54.353  18.927  1.00  0.00     0.136 A 
ATOM      8  C   UNL     1       4.598  53.794  19.617  1.00  0.00     0.125 A 
ATOM      9  C   UNL     1       5.230  52.602  19.226  1.00  0.00     0.078 A 
ATOM     10  C   UNL     1       6.320  52.115  19.953  1.00  0.00     0.223 A 
ENDROOT
BRANCH   1  11
ATOM     11  C   UNL     1       7.889  52.368  21.919  1.00  0.00     0.087 A 
ATOM     12  C   UNL     1       7.681  51.729  23.154  1.00  0.00     0.022 A 
ATOM     13  C   UNL     1       8.769  51.326  23.932  1.00  0.00     0.051 A 
ATOM     14  C   UNL     1      10.079  51.566  23.496  1.00  0.00     0.157 A 
ATOM     15  C   UNL     1       9.204  52.626  21.496  1.00  0.00     0.068 A 
ATOM     16  C   UNL     1      10.296  52.222  22.273  1.00  0.00     0.158 A 
BRANCH  14  17
ATOM     17  O   UNL     1      11.162  51.160  24.275  1.00  0.00    -0.504 OA
ATOM     18  H   UNL     1      11.618  50.267  24.125  1.00  0.00     0.293 HD
ENDBRANCH  14  17
BRANCH  16  19
ATOM     19  O   UNL     1      11.587  52.482  21.815  1.00  0.00    -0.504 OA
ATOM     20  H   UNL     1      11.762  52.944  20.930  1.00  0.00     0.293 HD
ENDBRANCH  16  19
ENDBRANCH   1  11
BRANCH  10  21
ATOM     21  O   UNL     1       6.979  50.959  19.537  1.00  0.00    -0.500 OA
ATOM     22  H   UNL     1       7.681  50.509  20.112  1.00  0.00     0.294 HD
ENDBRANCH  10  21
BRANCH   5  23
ATOM     23  O   UNL     1       2.892  57.403  20.951  1.00  0.00    -0.507 OA
ATOM     24  H   UNL     1       3.006  57.717  21.908  1.00  0.00     0.293 HD
ENDBRANCH   5  23
BRANCH   7  25
ATOM     25  O   UNL     1       2.913  53.759  17.800  1.00  0.00    -0.507 OA
ATOM     26  H   UNL     1       2.605  54.266  16.984  1.00  0.00     0.293 HD
ENDBRANCH   7  25
TORSDOF 6
ENDMDL
MODEL 4
REMARK VINA RESULT:    -6.212      2.212      7.536
REMARK INTER + INTRA:          -7.760
REMARK INTER:                  -7.455
REMARK INTRA:                  -0.305
REMARK UNBOUND:                -0.277
REMARK SMILES Oc1cc(O)c2cc(O)c(-c3ccc(O)c(O)c3)[o+]c2c1
REMARK SMILES IDX 10 1 19 2 20 3 21 4 2 5 3 6 4 7 6 8 7 9 8 10 11 11 12 12
REMARK SMILES IDX 13 13 14 14 18 15 16 16 15 17 17 19 9 21 1 23 5 25
REMARK H PARENT 15 18 17 20 9 22 1 24 5 26
REMARK Flexibility Score: inf
ROOT
ATOM      1  C   UNL     1       8.653  52.547  19.394  1.00  0.00     0.402 A 
ATOM      2  O   UNL     1       7.987  52.848  18.282  1.00  0.00    -0.202 OA
ATOM      3  C   UNL     1       6.670  53.025  18.246  1.00  0.00     0.368 A 
ATOM      4  C   UNL     1       6.060  53.343  17.030  1.00  0.00     0.162 A 
ATOM      5  C   UNL     1       4.680  53.537  16.962  1.00  0.00     0.128 A 
ATOM      6  C   UNL     1       3.901  53.414  18.119  1.00  0.00     0.093 A 
ATOM      7  C   UNL     1       4.489  53.096  19.350  1.00  0.00     0.136 A 
ATOM      8  C   UNL     1       5.892  52.896  19.422  1.00  0.00     0.125 A 
ATOM      9  C   UNL     1       6.565  52.561  20.608  1.00  0.00     0.078 A 
ATOM     10  C   UNL     1       7.950  52.374  20.601  1.00  0.00     0.223 A 
ENDROOT
BRANCH   1  11
ATOM     11  C   UNL     1      10.122  52.385  19.308  1.00  0.00     0.087 A 
ATOM     12  C   UNL     1      10.702  51.209  18.798  1.00  0.00     0.022 A 
ATOM     13  C   UNL     1      12.091  51.071  18.750  1.00  0.00     0.051 A 
ATOM     14  C   UNL     1      12.921  52.096  19.221  1.00  0.00     0.157 A 
ATOM     15  C   UNL     1      10.959  53.401  19.798  1.00  0.00     0.068 A 
ATOM     16  C   UNL     1      12.351  53.266  19.750  1.00  0.00     0.158 A 
BRANCH  14  17
ATOM     17  O   UNL     1      14.308  51.956  19.168  1.00  0.00    -0.504 OA
ATOM     18  H   UNL     1      14.912  52.734  18.929  1.00  0.00     0.293 HD
ENDBRANCH  14  17
BRANCH  16  19
ATOM     19  O   UNL     1      13.150  54.302  20.233  1.00  0.00    -0.504 OA
ATOM     20  H   UNL     1      13.226  54.508  21.222  1.00  0.00     0.293 HD
ENDBRANCH  16  19
ENDBRANCH   1  11
BRANCH  10  21
ATOM     21  O   UNL     1       8.611  51.994  21.768  1.00  0.00    -0.500 OA
ATOM     22  H   UNL     1       8.136  51.957  22.662  1.00  0.00     0.294 HD
ENDBRANCH  10  21
BRANCH   5  23
ATOM     23  O   UNL     1       4.091  53.853  15.740  1.00  0.00    -0.507 OA
ATOM     24  H   UNL     1       3.797  54.798  15.522  1.00  0.00     0.293 HD
ENDBRANCH   5  23
BRANCH   7  25
ATOM     25  O   UNL     1       3.644  52.994  20.459  1.00  0.00    -0.507 OA
ATOM     26  H   UNL     1       3.958  53.014  21.418  1.00  0.00     0.293 HD
ENDBRANCH   7  25
TORSDOF 6
ENDMDL
MODEL 5
REMARK VINA RESULT:    -5.954      1.296      3.017
REMARK INTER + INTRA:          -7.449
REMARK INTER:                  -7.156
REMARK INTRA:                  -0.294
REMARK UNBOUND:                -0.277
REMARK SMILES Oc1cc(O)c2cc(O)c(-c3ccc(O)c(O)c3)[o+]c2c1
REMARK SMILES IDX 10 1 19 2 20 3 21 4 2 5 3 6 4 7 6 8 7 9 8 10 11 11 12 12
REMARK SMILES IDX 13 13 14 14 18 15 16 16 15 17 17 19 9 21 1 23 5 25
REMARK H PARENT 15 18 17 20 9 22 1 24 5 26
REMARK Flexibility Score: inf
ROOT
ATOM      1  C   UNL     1       9.399  52.842  20.222  1.00  0.00     0.402 A 
ATOM      2  O   UNL     1      10.100  53.507  19.306  1.00  0.00    -0.202 OA
ATOM      3  C   UNL     1      11.429  53.545  19.290  1.00  0.00     0.368 A 
ATOM      4  C   UNL     1      12.075  54.268  18.284  1.00  0.00     0.162 A 
ATOM      5  C   UNL     1      13.469  54.324  18.240  1.00  0.00     0.128 A 
ATOM      6  C   UNL     1      14.224  53.651  19.208  1.00  0.00     0.093 A 
ATOM      7  C   UNL     1      13.600  52.920  20.225  1.00  0.00     0.136 A 
ATOM      8  C   UNL     1      12.182  52.862  20.275  1.00  0.00     0.125 A 
ATOM      9  C   UNL     1      11.471  52.166  21.265  1.00  0.00     0.078 A 
ATOM     10  C   UNL     1      10.073  52.159  21.252  1.00  0.00     0.223 A 
ENDROOT
BRANCH   1  11
ATOM     11  C   UNL     1       7.923  52.867  20.128  1.00  0.00     0.087 A 
ATOM     12  C   UNL     1       7.146  53.664  20.986  1.00  0.00     0.022 A 
ATOM     13  C   UNL     1       5.752  53.651  20.894  1.00  0.00     0.051 A 
ATOM     14  C   UNL     1       5.113  52.834  19.953  1.00  0.00     0.157 A 
ATOM     15  C   UNL     1       7.276  52.033  19.200  1.00  0.00     0.068 A 
ATOM     16  C   UNL     1       5.880  52.019  19.104  1.00  0.00     0.158 A 
BRANCH  14  17
ATOM     17  O   UNL     1       3.721  52.826  19.861  1.00  0.00    -0.504 OA
ATOM     18  H   UNL     1       3.175  53.668  20.007  1.00  0.00     0.293 HD
ENDBRANCH  14  17
BRANCH  16  19
ATOM     19  O   UNL     1       5.273  51.189  18.161  1.00  0.00    -0.504 OA
ATOM     20  H   UNL     1       5.391  50.183  18.174  1.00  0.00     0.293 HD
ENDBRANCH  16  19
ENDBRANCH   1  11
BRANCH  10  21
ATOM     21  O   UNL     1       9.367  51.509  22.263  1.00  0.00    -0.500 OA
ATOM     22  H   UNL     1       8.365  51.367  22.207  1.00  0.00     0.294 HD
ENDBRANCH  10  21
BRANCH   5  23
ATOM     23  O   UNL     1      14.095  55.050  17.230  1.00  0.00    -0.507 OA
ATOM     24  H   UNL     1      14.667  54.596  16.527  1.00  0.00     0.293 HD
ENDBRANCH   5  23
BRANCH   7  25
ATOM     25  O   UNL     1      14.423  52.273  21.152  1.00  0.00    -0.507 OA
ATOM     26  H   UNL     1      15.361  51.956  20.958  1.00  0.00     0.293 HD
ENDBRANCH   7  25
TORSDOF 6
ENDMDL
MODEL 6
REMARK VINA RESULT:    -5.871      3.055      4.272
REMARK INTER + INTRA:          -7.348
REMARK INTER:                  -7.431
REMARK INTRA:                   0.083
REMARK UNBOUND:                -0.277
REMARK SMILES Oc1cc(O)c2cc(O)c(-c3ccc(O)c(O)c3)[o+]c2c1
REMARK SMILES IDX 10 1 19 2 20 3 21 4 2 5 3 6 4 7 6 8 7 9 8 10 11 11 12 12
REMARK SMILES IDX 13 13 14 14 18 15 16 16 15 17 17 19 9 21 1 23 5 25
REMARK H PARENT 15 18 17 20 9 22 1 24 5 26
REMARK Flexibility Score: inf
ROOT
ATOM      1  C   UNL     1      11.821  51.635  22.970  1.00  0.00     0.402 A 
ATOM      2  O   UNL     1      12.782  52.050  23.793  1.00  0.00    -0.202 OA
ATOM      3  C   UNL     1      14.073  52.022  23.480  1.00  0.00     0.368 A 
ATOM      4  C   UNL     1      15.007  52.483  24.412  1.00  0.00     0.162 A 
ATOM      5  C   UNL     1      16.369  52.468  24.110  1.00  0.00     0.128 A 
ATOM      6  C   UNL     1      16.804  51.991  22.868  1.00  0.00     0.093 A 
ATOM      7  C   UNL     1      15.887  51.524  21.918  1.00  0.00     0.136 A 
ATOM      8  C   UNL     1      14.500  51.535  22.222  1.00  0.00     0.125 A 
ATOM      9  C   UNL     1      13.512  51.074  21.337  1.00  0.00     0.078 A 
ATOM     10  C   UNL     1      12.165  51.111  21.709  1.00  0.00     0.223 A 
ENDROOT
BRANCH   1  11
ATOM     11  C   UNL     1      10.417  51.726  23.429  1.00  0.00     0.087 A 
ATOM     12  C   UNL     1      10.041  51.323  24.723  1.00  0.00     0.022 A 
ATOM     13  C   UNL     1       8.705  51.395  25.124  1.00  0.00     0.051 A 
ATOM     14  C   UNL     1       7.724  51.859  24.238  1.00  0.00     0.157 A 
ATOM     15  C   UNL     1       9.426  52.170  22.537  1.00  0.00     0.068 A 
ATOM     16  C   UNL     1       8.087  52.245  22.937  1.00  0.00     0.158 A 
BRANCH  14  17
ATOM     17  O   UNL     1       6.392  51.932  24.643  1.00  0.00    -0.504 OA
ATOM     18  H   UNL     1       5.672  52.308  24.036  1.00  0.00     0.293 HD
ENDBRANCH  14  17
BRANCH  16  19
ATOM     19  O   UNL     1       7.133  52.703  22.029  1.00  0.00    -0.504 OA
ATOM     20  H   UNL     1       6.549  52.070  21.496  1.00  0.00     0.293 HD
ENDBRANCH  16  19
ENDBRANCH   1  11
BRANCH  10  21
ATOM     21  O   UNL     1      11.188  50.609  20.851  1.00  0.00    -0.500 OA
ATOM     22  H   UNL     1      10.737  51.193  20.156  1.00  0.00     0.294 HD
ENDBRANCH  10  21
BRANCH   5  23
ATOM     23  O   UNL     1      17.286  52.931  25.052  1.00  0.00    -0.507 OA
ATOM     24  H   UNL     1      17.657  53.873  25.011  1.00  0.00     0.293 HD
ENDBRANCH   5  23
BRANCH   7  25
ATOM     25  O   UNL     1      16.398  51.067  20.700  1.00  0.00    -0.507 OA
ATOM     26  H   UNL     1      17.313  51.299  20.342  1.00  0.00     0.293 HD
ENDBRANCH   7  25
TORSDOF 6
ENDMDL
MODEL 7
REMARK VINA RESULT:    -5.870      1.726      6.742
REMARK INTER + INTRA:          -7.348
REMARK INTER:                  -7.690
REMARK INTRA:                   0.342
REMARK UNBOUND:                -0.277
REMARK SMILES Oc1cc(O)c2cc(O)c(-c3ccc(O)c(O)c3)[o+]c2c1
REMARK SMILES IDX 10 1 19 2 20 3 21 4 2 5 3 6 4 7 6 8 7 9 8 10 11 11 12 12
REMARK SMILES IDX 13 13 14 14 18 15 16 16 15 17 17 19 9 21 1 23 5 25
REMARK H PARENT 15 18 17 20 9 22 1 24 5 26
REMARK Flexibility Score: inf
ROOT
ATOM      1  C   UNL     1       9.007  52.393  20.672  1.00  0.00     0.402 A 
ATOM      2  O   UNL     1       7.698  52.528  20.870  1.00  0.00    -0.202 OA
ATOM      3  C   UNL     1       6.832  52.763  19.890  1.00  0.00     0.368 A 
ATOM      4  C   UNL     1       5.474  52.885  20.198  1.00  0.00     0.162 A 
ATOM      5  C   UNL     1       4.541  53.129  19.189  1.00  0.00     0.128 A 
ATOM      6  C   UNL     1       4.967  53.250  17.861  1.00  0.00     0.093 A 
ATOM      7  C   UNL     1       6.321  53.131  17.527  1.00  0.00     0.136 A 
ATOM      8  C   UNL     1       7.274  52.885  18.551  1.00  0.00     0.125 A 
ATOM      9  C   UNL     1       8.652  52.765  18.311  1.00  0.00     0.078 A 
ATOM     10  C   UNL     1       9.531  52.528  19.372  1.00  0.00     0.223 A 
ENDROOT
BRANCH   1  11
ATOM     11  C   UNL     1       9.869  52.124  21.845  1.00  0.00     0.087 A 
ATOM     12  C   UNL     1       9.492  52.522  23.139  1.00  0.00     0.022 A 
ATOM     13  C   UNL     1      10.335  52.278  24.226  1.00  0.00     0.051 A 
ATOM     14  C   UNL     1      11.569  51.644  24.037  1.00  0.00     0.157 A 
ATOM     15  C   UNL     1      11.118  51.507  21.657  1.00  0.00     0.068 A 
ATOM     16  C   UNL     1      11.963  51.260  22.744  1.00  0.00     0.158 A 
BRANCH  14  17
ATOM     17  O   UNL     1      12.406  51.399  25.125  1.00  0.00    -0.504 OA
ATOM     18  H   UNL     1      13.302  51.863  25.221  1.00  0.00     0.293 HD
ENDBRANCH  14  17
BRANCH  16  19
ATOM     19  O   UNL     1      13.189  50.633  22.521  1.00  0.00    -0.504 OA
ATOM     20  H   UNL     1      13.255  49.657  22.259  1.00  0.00     0.293 HD
ENDBRANCH  16  19
ENDBRANCH   1  11
BRANCH  10  21
ATOM     21  O   UNL     1      10.904  52.458  19.142  1.00  0.00    -0.500 OA
ATOM     22  H   UNL     1      11.578  52.640  19.876  1.00  0.00     0.294 HD
ENDBRANCH  10  21
BRANCH   5  23
ATOM     23  O   UNL     1       3.193  53.248  19.515  1.00  0.00    -0.507 OA
ATOM     24  H   UNL     1       2.792  54.136  19.797  1.00  0.00     0.293 HD
ENDBRANCH   5  23
BRANCH   7  25
ATOM     25  O   UNL     1       6.666  53.261  16.178  1.00  0.00    -0.507 OA
ATOM     26  H   UNL     1       7.112  52.540  15.631  1.00  0.00     0.293 HD
ENDBRANCH   7  25
TORSDOF 6
ENDMDL
MODEL 8
REMARK VINA RESULT:    -5.843      1.480      7.300
REMARK INTER + INTRA:          -7.315
REMARK INTER:                  -7.326
REMARK INTRA:                   0.011
REMARK UNBOUND:                -0.277
REMARK SMILES Oc1cc(O)c2cc(O)c(-c3ccc(O)c(O)c3)[o+]c2c1
REMARK SMILES IDX 10 1 19 2 20 3 21 4 2 5 3 6 4 7 6 8 7 9 8 10 11 11 12 12
REMARK SMILES IDX 13 13 14 14 18 15 16 16 15 17 17 19 9 21 1 23 5 25
REMARK H PARENT 15 18 17 20 9 22 1 24 5 26
REMARK Flexibility Score: inf
ROOT
ATOM      1  C   UNL     1       8.866  52.620  20.324  1.00  0.00     0.402 A 
ATOM      2  O   UNL     1       8.428  52.724  19.072  1.00  0.00    -0.202 OA
ATOM      3  C   UNL     1       7.146  52.880  18.758  1.00  0.00     0.368 A 
ATOM      4  C   UNL     1       6.784  52.982  17.413  1.00  0.00     0.162 A 
ATOM      5  C   UNL     1       5.446  53.151  17.053  1.00  0.00     0.128 A 
ATOM      6  C   UNL     1       4.461  53.219  18.046  1.00  0.00     0.093 A 
ATOM      7  C   UNL     1       4.799  53.120  19.401  1.00  0.00     0.136 A 
ATOM      8  C   UNL     1       6.159  52.946  19.771  1.00  0.00     0.125 A 
ATOM      9  C   UNL     1       6.588  52.823  21.102  1.00  0.00     0.078 A 
ATOM     10  C   UNL     1       7.945  52.649  21.388  1.00  0.00     0.223 A 
ENDROOT
BRANCH   1  11
ATOM     11  C   UNL     1      10.321  52.458  20.546  1.00  0.00     0.087 A 
ATOM     12  C   UNL     1      11.257  53.296  19.914  1.00  0.00     0.022 A 
ATOM     13  C   UNL     1      12.626  53.107  20.121  1.00  0.00     0.051 A 
ATOM     14  C   UNL     1      13.080  52.074  20.950  1.00  0.00     0.157 A 
ATOM     15  C   UNL     1      10.783  51.410  21.360  1.00  0.00     0.068 A 
ATOM     16  C   UNL     1      12.153  51.220  21.570  1.00  0.00     0.158 A 
BRANCH  14  17
ATOM     17  O   UNL     1      14.447  51.890  21.157  1.00  0.00    -0.504 OA
ATOM     18  H   UNL     1      15.019  51.375  20.498  1.00  0.00     0.293 HD
ENDBRANCH  14  17
BRANCH  16  19
ATOM     19  O   UNL     1      12.574  50.177  22.396  1.00  0.00    -0.504 OA
ATOM     20  H   UNL     1      12.191  49.242  22.320  1.00  0.00     0.293 HD
ENDBRANCH  16  19
ENDBRANCH   1  11
BRANCH  10  21
ATOM     21  O   UNL     1       8.366  52.478  22.706  1.00  0.00    -0.500 OA
ATOM     22  H   UNL     1       9.162  51.896  22.941  1.00  0.00     0.294 HD
ENDBRANCH  10  21
BRANCH   5  23
ATOM     23  O   UNL     1       5.104  53.249  15.707  1.00  0.00    -0.507 OA
ATOM     24  H   UNL     1       5.773  53.561  15.012  1.00  0.00     0.293 HD
ENDBRANCH   5  23
BRANCH   7  25
ATOM     25  O   UNL     1       3.759  53.200  20.332  1.00  0.00    -0.507 OA
ATOM     26  H   UNL     1       2.801  52.947  20.140  1.00  0.00     0.293 HD
ENDBRANCH   7  25
TORSDOF 6
ENDMDL
MODEL 9
REMARK VINA RESULT:    -5.804      2.992      5.519
REMARK INTER + INTRA:          -7.268
REMARK INTER:                  -6.927
REMARK INTRA:                  -0.341
REMARK UNBOUND:                -0.277
REMARK SMILES Oc1cc(O)c2cc(O)c(-c3ccc(O)c(O)c3)[o+]c2c1
REMARK SMILES IDX 10 1 19 2 20 3 21 4 2 5 3 6 4 7 6 8 7 9 8 10 11 11 12 12
REMARK SMILES IDX 13 13 14 14 18 15 16 16 15 17 17 19 9 21 1 23 5 25
REMARK H PARENT 15 18 17 20 9 22 1 24 5 26
REMARK Flexibility Score: inf
ROOT
ATOM      1  C   UNL     1      10.973  52.490  20.527  1.00  0.00     0.402 A 
ATOM      2  O   UNL     1      11.596  51.595  21.290  1.00  0.00    -0.202 OA
ATOM      3  C   UNL     1      11.121  51.174  22.458  1.00  0.00     0.368 A 
ATOM      4  C   UNL     1      11.847  50.228  23.185  1.00  0.00     0.162 A 
ATOM      5  C   UNL     1      11.372  49.765  24.412  1.00  0.00     0.128 A 
ATOM      6  C   UNL     1      10.160  50.250  24.918  1.00  0.00     0.093 A 
ATOM      7  C   UNL     1       9.414  51.198  24.208  1.00  0.00     0.136 A 
ATOM      8  C   UNL     1       9.895  51.673  22.959  1.00  0.00     0.125 A 
ATOM      9  C   UNL     1       9.222  52.632  22.186  1.00  0.00     0.078 A 
ATOM     10  C   UNL     1       9.762  53.055  20.968  1.00  0.00     0.223 A 
ENDROOT
BRANCH   1  11
ATOM     11  C   UNL     1      11.599  52.872  19.241  1.00  0.00     0.087 A 
ATOM     12  C   UNL     1      11.403  52.110  18.076  1.00  0.00     0.022 A 
ATOM     13  C   UNL     1      12.024  52.478  16.880  1.00  0.00     0.051 A 
ATOM     14  C   UNL     1      12.859  53.601  16.832  1.00  0.00     0.157 A 
ATOM     15  C   UNL     1      12.455  53.985  19.193  1.00  0.00     0.068 A 
ATOM     16  C   UNL     1      13.077  54.356  17.996  1.00  0.00     0.158 A 
BRANCH  14  17
ATOM     17  O   UNL     1      13.475  53.967  15.635  1.00  0.00    -0.504 OA
ATOM     18  H   UNL     1      12.945  54.083  14.779  1.00  0.00     0.293 HD
ENDBRANCH  14  17
BRANCH  16  19
ATOM     19  O   UNL     1      13.909  55.476  17.983  1.00  0.00    -0.504 OA
ATOM     20  H   UNL     1      13.721  56.294  18.551  1.00  0.00     0.293 HD
ENDBRANCH  16  19
ENDBRANCH   1  11
BRANCH  10  21
ATOM     21  O   UNL     1       9.118  54.043  20.223  1.00  0.00    -0.500 OA
ATOM     22  H   UNL     1       9.637  54.733  19.692  1.00  0.00     0.294 HD
ENDBRANCH  10  21
BRANCH   5  23
ATOM     23  O   UNL     1      12.110  48.822  25.123  1.00  0.00    -0.507 OA
ATOM     24  H   UNL     1      11.937  47.828  25.024  1.00  0.00     0.293 HD
ENDBRANCH   5  23
BRANCH   7  25
ATOM     25  O   UNL     1       8.212  51.631  24.777  1.00  0.00    -0.507 OA
ATOM     26  H   UNL     1       8.137  52.079  25.678  1.00  0.00     0.293 HD
ENDBRANCH   7  25
TORSDOF 6
ENDMDL
