MODEL 1
REMARK VINA RESULT:    -2.122      0.000      0.000
REMARK INTER + INTRA:          -3.373
REMARK INTER:                  -3.362
REMARK INTRA:                  -0.010
REMARK UNBOUND:                -0.010
REMARK SMILES CCCCCCCCCCCC(=O)[O-]
REMARK SMILES IDX 7 1 8 2 9 3 10 4 11 5 12 6 13 7 14 8 6 9 5 10 4 11 3 12 2 13
REMARK SMILES IDX 1 14
REMARK H PARENT
REMARK Flexibility Score: inf
ROOT
ATOM      1  C   UNL     1      59.125  -4.643  -3.749  1.00  0.00     0.000 C 
ENDROOT
BRANCH   1   2
ATOM      2  C   UNL     1      58.577  -4.059  -5.060  1.00  0.00     0.000 C 
BRANCH   2   3
ATOM      3  C   UNL     1      58.941  -2.577  -5.252  1.00  0.00     0.000 C 
BRANCH   3   4
ATOM      4  C   UNL     1      58.983  -2.102  -6.719  1.00  0.00     0.006 C 
BRANCH   4   5
ATOM      5  C   UNL     1      58.989  -0.575  -6.897  1.00  0.00     0.053 C 
BRANCH   5   6
ATOM      6  C   UNL     1      57.654   0.032  -6.593  1.00  0.00     0.041 C 
ATOM      7  O   UNL     1      57.444   1.250  -6.836  1.00  0.00    -0.550 OA
ATOM      8  O   UNL     1      56.633  -0.752  -6.075  1.00  0.00    -0.550 OA
ENDBRANCH   5   6
ENDBRANCH   4   5
ENDBRANCH   3   4
ENDBRANCH   2   3
ENDBRANCH   1   2
BRANCH   1   9
ATOM      9  C   UNL     1      58.453  -5.971  -3.360  1.00  0.00     0.000 C 
BRANCH   9  10
ATOM     10  C   UNL     1      59.087  -6.644  -2.123  1.00  0.00    -0.000 C 
BRANCH  10  11
ATOM     11  C   UNL     1      59.125  -5.706  -0.904  1.00  0.00    -0.000 C 
BRANCH  11  12
ATOM     12  C   UNL     1      59.125  -6.482   0.431  1.00  0.00    -0.000 C 
BRANCH  12  13
ATOM     13  C   UNL     1      58.306  -5.800   1.539  1.00  0.00    -0.003 C 
ATOM     14  C   UNL     1      57.677  -6.794   2.515  1.00  0.00     0.004 C 
ENDBRANCH  12  13
ENDBRANCH  11  12
ENDBRANCH  10  11
ENDBRANCH   9  10
ENDBRANCH   1   9
TORSDOF 10
ENDMDL
MODEL 2
REMARK VINA RESULT:    -1.889      1.229      1.895
REMARK INTER + INTRA:          -3.004
REMARK INTER:                  -2.665
REMARK INTRA:                  -0.340
REMARK UNBOUND:                -0.010
REMARK SMILES CCCCCCCCCCCC(=O)[O-]
REMARK SMILES IDX 7 1 8 2 9 3 10 4 11 5 12 6 13 7 14 8 6 9 5 10 4 11 3 12 2 13
REMARK SMILES IDX 1 14
REMARK H PARENT
REMARK Flexibility Score: inf
ROOT
ATOM      1  C   UNL     1      58.955  -5.050  -1.916  1.00  0.00     0.000 C 
ENDROOT
BRANCH   1   2
ATOM      2  C   UNL     1      59.125  -4.765  -3.416  1.00  0.00     0.000 C 
BRANCH   2   3
ATOM      3  C   UNL     1      58.982  -3.272  -3.760  1.00  0.00     0.000 C 
BRANCH   3   4
ATOM      4  C   UNL     1      58.761  -2.968  -5.256  1.00  0.00     0.006 C 
BRANCH   4   5
ATOM      5  C   UNL     1      57.541  -2.082  -5.555  1.00  0.00     0.053 C 
BRANCH   5   6
ATOM      6  C   UNL     1      57.917  -0.848  -6.318  1.00  0.00     0.041 C 
ATOM      7  O   UNL     1      59.060  -0.748  -6.836  1.00  0.00    -0.550 OA
ATOM      8  O   UNL     1      56.994   0.176  -6.485  1.00  0.00    -0.550 OA
ENDBRANCH   5   6
ENDBRANCH   4   5
ENDBRANCH   3   4
ENDBRANCH   2   3
ENDBRANCH   1   2
BRANCH   1   9
ATOM      9  C   UNL     1      59.118  -6.539  -1.569  1.00  0.00     0.000 C 
BRANCH   9  10
ATOM     10  C   UNL     1      59.054  -6.831  -0.054  1.00  0.00    -0.000 C 
BRANCH  10  11
ATOM     11  C   UNL     1      58.737  -5.571   0.770  1.00  0.00    -0.000 C 
BRANCH  11  12
ATOM     12  C   UNL     1      57.997  -5.901   2.083  1.00  0.00    -0.000 C 
BRANCH  12  13
ATOM     13  C   UNL     1      58.584  -7.107   2.836  1.00  0.00    -0.003 C 
ATOM     14  C   UNL     1      58.227  -7.118   4.321  1.00  0.00     0.004 C 
ENDBRANCH  12  13
ENDBRANCH  11  12
ENDBRANCH  10  11
ENDBRANCH   9  10
ENDBRANCH   1   9
TORSDOF 10
ENDMDL
