MODEL 1
REMARK VINA RESULT:    -4.390      0.000      0.000
REMARK INTER + INTRA:         -15.473
REMARK INTER:                 -11.062
REMARK INTRA:                  -4.411
REMARK UNBOUND:                -4.411
REMARK SMILES CCCCCCCCCCCCCCCCCCCCCCCCCCCC(=O)[O-]
REMARK SMILES IDX 15 1 16 2 17 3 18 4 19 5 20 6 21 7 22 8 23 9 24 10 25 11
REMARK SMILES IDX 26 12 27 13 28 14 29 15 30 16 14 17 13 18 12 19 11 20 10 21
REMARK SMILES IDX 9 22 8 23 7 24 6 25 5 26 4 27 3 28 2 29 1 30
REMARK H PARENT
REMARK Flexibility Score: inf
ROOT
ATOM      1  C   UNL     1       5.246  31.900 -13.714  1.00  0.00     0.000 C 
ENDROOT
BRANCH   1   2
ATOM      2  C   UNL     1       5.425  31.070 -14.996  1.00  0.00     0.000 C 
BRANCH   2   3
ATOM      3  C   UNL     1       6.670  30.169 -14.949  1.00  0.00     0.000 C 
BRANCH   3   4
ATOM      4  C   UNL     1       6.323  28.670 -14.944  1.00  0.00     0.000 C 
BRANCH   4   5
ATOM      5  C   UNL     1       7.028  27.910 -13.808  1.00  0.00     0.000 C 
BRANCH   5   6
ATOM      6  C   UNL     1       7.906  28.828 -12.940  1.00  0.00     0.000 C 
BRANCH   6   7
ATOM      7  C   UNL     1       9.394  28.446 -12.994  1.00  0.00     0.000 C 
BRANCH   7   8
ATOM      8  C   UNL     1       9.998  28.596 -14.398  1.00  0.00     0.000 C 
BRANCH   8   9
ATOM      9  C   UNL     1      10.568  27.259 -14.895  1.00  0.00     0.000 C 
BRANCH   9  10
ATOM     10  C   UNL     1      10.638  26.190 -13.789  1.00  0.00     0.000 C 
BRANCH  10  11
ATOM     11  C   UNL     1       9.939  24.858 -14.122  1.00  0.00     0.000 C 
BRANCH  11  12
ATOM     12  C   UNL     1       8.591  24.626 -13.412  1.00  0.00     0.006 C 
BRANCH  12  13
ATOM     13  C   UNL     1       8.696  24.562 -11.876  1.00  0.00     0.053 C 
BRANCH  13  14
ATOM     14  C   UNL     1       7.695  23.628 -11.268  1.00  0.00     0.041 C 
ATOM     15  O   UNL     1       6.475  23.938 -11.237  1.00  0.00    -0.550 OA
ATOM     16  O   UNL     1       8.103  22.399 -10.763  1.00  0.00    -0.550 OA
ENDBRANCH  13  14
ENDBRANCH  12  13
ENDBRANCH  11  12
ENDBRANCH  10  11
ENDBRANCH   9  10
ENDBRANCH   8   9
ENDBRANCH   7   8
ENDBRANCH   6   7
ENDBRANCH   5   6
ENDBRANCH   4   5
ENDBRANCH   3   4
ENDBRANCH   2   3
ENDBRANCH   1   2
BRANCH   1  17
ATOM     17  C   UNL     1       6.582  32.239 -13.026  1.00  0.00     0.000 C 
BRANCH  17  18
ATOM     18  C   UNL     1       6.458  32.818 -11.601  1.00  0.00     0.000 C 
BRANCH  18  19
ATOM     19  C   UNL     1       5.161  32.451 -10.856  1.00  0.00     0.000 C 
BRANCH  19  20
ATOM     20  C   UNL     1       4.669  33.508  -9.847  1.00  0.00     0.000 C 
BRANCH  20  21
ATOM     21  C   UNL     1       3.809  34.632 -10.455  1.00  0.00     0.000 C 
BRANCH  21  22
ATOM     22  C   UNL     1       3.064  34.190 -11.723  1.00  0.00    -0.000 C 
BRANCH  22  23
ATOM     23  C   UNL     1       3.391  35.118 -12.902  1.00  0.00    -0.000 C 
BRANCH  23  24
ATOM     24  C   UNL     1       4.697  35.909 -12.698  1.00  0.00    -0.000 C 
BRANCH  24  25
ATOM     25  C   UNL     1       5.679  35.861 -13.887  1.00  0.00    -0.000 C 
BRANCH  25  26
ATOM     26  C   UNL     1       5.069  35.375 -15.217  1.00  0.00    -0.000 C 
BRANCH  26  27
ATOM     27  C   UNL     1       5.988  34.471 -16.063  1.00  0.00    -0.000 C 
BRANCH  27  28
ATOM     28  C   UNL     1       7.143  35.201 -16.772  1.00  0.00    -0.000 C 
BRANCH  28  29
ATOM     29  C   UNL     1       8.388  34.319 -16.948  1.00  0.00    -0.003 C 
ATOM     30  C   UNL     1       8.666  33.502 -15.688  1.00  0.00     0.004 C 
ENDBRANCH  28  29
ENDBRANCH  27  28
ENDBRANCH  26  27
ENDBRANCH  25  26
ENDBRANCH  24  25
ENDBRANCH  23  24
ENDBRANCH  22  23
ENDBRANCH  21  22
ENDBRANCH  20  21
ENDBRANCH  19  20
ENDBRANCH  18  19
ENDBRANCH  17  18
ENDBRANCH   1  17
TORSDOF 26
ENDMDL
MODEL 2
REMARK VINA RESULT:    -4.386      1.634      4.542
REMARK INTER + INTRA:         -15.463
REMARK INTER:                 -11.543
REMARK INTRA:                  -3.920
REMARK UNBOUND:                -4.411
REMARK SMILES CCCCCCCCCCCCCCCCCCCCCCCCCCCC(=O)[O-]
REMARK SMILES IDX 15 1 16 2 17 3 18 4 19 5 20 6 21 7 22 8 23 9 24 10 25 11
REMARK SMILES IDX 26 12 27 13 28 14 29 15 30 16 14 17 13 18 12 19 11 20 10 21
REMARK SMILES IDX 9 22 8 23 7 24 6 25 5 26 4 27 3 28 2 29 1 30
REMARK H PARENT
REMARK Flexibility Score: inf
ROOT
ATOM      1  C   UNL     1       8.982  32.576 -13.046  1.00  0.00     0.000 C 
ENDROOT
BRANCH   1   2
ATOM      2  C   UNL     1       8.719  32.755 -14.551  1.00  0.00     0.000 C 
BRANCH   2   3
ATOM      3  C   UNL     1       7.303  33.277 -14.846  1.00  0.00     0.000 C 
BRANCH   3   4
ATOM      4  C   UNL     1       6.796  32.870 -16.240  1.00  0.00     0.000 C 
BRANCH   4   5
ATOM      5  C   UNL     1       5.518  32.015 -16.172  1.00  0.00     0.000 C 
BRANCH   5   6
ATOM      6  C   UNL     1       5.501  31.078 -14.951  1.00  0.00     0.000 C 
BRANCH   6   7
ATOM      7  C   UNL     1       5.862  29.629 -15.314  1.00  0.00     0.000 C 
BRANCH   7   8
ATOM      8  C   UNL     1       7.314  29.270 -14.964  1.00  0.00     0.000 C 
BRANCH   8   9
ATOM      9  C   UNL     1       7.420  28.763 -13.518  1.00  0.00     0.000 C 
BRANCH   9  10
ATOM     10  C   UNL     1       8.858  28.806 -12.970  1.00  0.00     0.000 C 
BRANCH  10  11
ATOM     11  C   UNL     1       9.575  27.444 -12.907  1.00  0.00     0.000 C 
BRANCH  11  12
ATOM     12  C   UNL     1       8.651  26.211 -12.918  1.00  0.00     0.006 C 
BRANCH  12  13
ATOM     13  C   UNL     1       9.129  25.064 -12.007  1.00  0.00     0.053 C 
BRANCH  13  14
ATOM     14  C   UNL     1       8.055  24.054 -11.741  1.00  0.00     0.041 C 
ATOM     15  O   UNL     1       6.852  24.325 -11.996  1.00  0.00    -0.550 OA
ATOM     16  O   UNL     1       8.385  22.800 -11.241  1.00  0.00    -0.550 OA
ENDBRANCH  13  14
ENDBRANCH  12  13
ENDBRANCH  11  12
ENDBRANCH  10  11
ENDBRANCH   9  10
ENDBRANCH   8   9
ENDBRANCH   7   8
ENDBRANCH   6   7
ENDBRANCH   5   6
ENDBRANCH   4   5
ENDBRANCH   3   4
ENDBRANCH   2   3
ENDBRANCH   1   2
BRANCH   1  17
ATOM     17  C   UNL     1       7.703  32.271 -12.244  1.00  0.00     0.000 C 
BRANCH  17  18
ATOM     18  C   UNL     1       7.267  33.375 -11.258  1.00  0.00     0.000 C 
BRANCH  18  19
ATOM     19  C   UNL     1       5.907  34.030 -11.569  1.00  0.00     0.000 C 
BRANCH  19  20
ATOM     20  C   UNL     1       4.748  33.042 -11.806  1.00  0.00     0.000 C 
BRANCH  20  21
ATOM     21  C   UNL     1       3.680  33.525 -12.805  1.00  0.00     0.000 C 
BRANCH  21  22
ATOM     22  C   UNL     1       2.841  34.691 -12.262  1.00  0.00    -0.000 C 
BRANCH  22  23
ATOM     23  C   UNL     1       2.250  34.347 -10.887  1.00  0.00    -0.000 C 
BRANCH  23  24
ATOM     24  C   UNL     1       1.442  35.506 -10.274  1.00  0.00    -0.000 C 
BRANCH  24  25
ATOM     25  C   UNL     1       2.198  36.341  -9.221  1.00  0.00    -0.000 C 
BRANCH  25  26
ATOM     26  C   UNL     1       3.647  35.891  -8.949  1.00  0.00    -0.000 C 
BRANCH  26  27
ATOM     27  C   UNL     1       3.936  35.466  -7.495  1.00  0.00    -0.000 C 
BRANCH  27  28
ATOM     28  C   UNL     1       3.945  33.946  -7.252  1.00  0.00    -0.000 C 
BRANCH  28  29
ATOM     29  C   UNL     1       4.992  33.213  -8.103  1.00  0.00    -0.003 C 
ATOM     30  C   UNL     1       6.399  33.723  -7.805  1.00  0.00     0.004 C 
ENDBRANCH  28  29
ENDBRANCH  27  28
ENDBRANCH  26  27
ENDBRANCH  25  26
ENDBRANCH  24  25
ENDBRANCH  23  24
ENDBRANCH  22  23
ENDBRANCH  21  22
ENDBRANCH  20  21
ENDBRANCH  19  20
ENDBRANCH  18  19
ENDBRANCH  17  18
ENDBRANCH   1  17
TORSDOF 26
ENDMDL
MODEL 3
REMARK VINA RESULT:    -4.304      3.492      8.479
REMARK INTER + INTRA:         -15.256
REMARK INTER:                 -10.301
REMARK INTRA:                  -4.955
REMARK UNBOUND:                -4.411
REMARK SMILES CCCCCCCCCCCCCCCCCCCCCCCCCCCC(=O)[O-]
REMARK SMILES IDX 15 1 16 2 17 3 18 4 19 5 20 6 21 7 22 8 23 9 24 10 25 11
REMARK SMILES IDX 26 12 27 13 28 14 29 15 30 16 14 17 13 18 12 19 11 20 10 21
REMARK SMILES IDX 9 22 8 23 7 24 6 25 5 26 4 27 3 28 2 29 1 30
REMARK H PARENT
REMARK Flexibility Score: inf
ROOT
ATOM      1  C   UNL     1       4.380  33.163 -12.105  1.00  0.00     0.000 C 
ENDROOT
BRANCH   1   2
ATOM      2  C   UNL     1       5.492  32.690 -11.153  1.00  0.00     0.000 C 
BRANCH   2   3
ATOM      3  C   UNL     1       6.898  32.868 -11.751  1.00  0.00     0.000 C 
BRANCH   3   4
ATOM      4  C   UNL     1       7.829  33.699 -10.849  1.00  0.00     0.000 C 
BRANCH   4   5
ATOM      5  C   UNL     1       9.315  33.411 -11.120  1.00  0.00     0.000 C 
BRANCH   5   6
ATOM      6  C   UNL     1       9.523  32.199 -12.046  1.00  0.00     0.000 C 
BRANCH   6   7
ATOM      7  C   UNL     1      10.187  32.581 -13.378  1.00  0.00     0.000 C 
BRANCH   7   8
ATOM      8  C   UNL     1       9.309  32.263 -14.597  1.00  0.00     0.000 C 
BRANCH   8   9
ATOM      9  C   UNL     1       9.046  33.528 -15.428  1.00  0.00     0.000 C 
BRANCH   9  10
ATOM     10  C   UNL     1       8.433  34.672 -14.601  1.00  0.00     0.000 C 
BRANCH  10  11
ATOM     11  C   UNL     1       7.204  35.352 -15.234  1.00  0.00     0.000 C 
BRANCH  11  12
ATOM     12  C   UNL     1       6.668  34.683 -16.515  1.00  0.00     0.006 C 
BRANCH  12  13
ATOM     13  C   UNL     1       5.239  35.117 -16.895  1.00  0.00     0.053 C 
BRANCH  13  14
ATOM     14  C   UNL     1       4.558  34.132 -17.795  1.00  0.00     0.041 C 
ATOM     15  O   UNL     1       3.531  34.469 -18.442  1.00  0.00    -0.550 OA
ATOM     16  O   UNL     1       5.073  32.850 -17.945  1.00  0.00    -0.550 OA
ENDBRANCH  13  14
ENDBRANCH  12  13
ENDBRANCH  11  12
ENDBRANCH  10  11
ENDBRANCH   9  10
ENDBRANCH   8   9
ENDBRANCH   7   8
ENDBRANCH   6   7
ENDBRANCH   5   6
ENDBRANCH   4   5
ENDBRANCH   3   4
ENDBRANCH   2   3
ENDBRANCH   1   2
BRANCH   1  17
ATOM     17  C   UNL     1       4.814  33.162 -13.583  1.00  0.00     0.000 C 
BRANCH  17  18
ATOM     18  C   UNL     1       4.580  31.835 -14.335  1.00  0.00     0.000 C 
BRANCH  18  19
ATOM     19  C   UNL     1       5.794  31.305 -15.121  1.00  0.00     0.000 C 
BRANCH  19  20
ATOM     20  C   UNL     1       5.845  29.772 -15.284  1.00  0.00     0.000 C 
BRANCH  20  21
ATOM     21  C   UNL     1       7.123  29.106 -14.744  1.00  0.00     0.000 C 
BRANCH  21  22
ATOM     22  C   UNL     1       7.398  29.451 -13.273  1.00  0.00    -0.000 C 
BRANCH  22  23
ATOM     23  C   UNL     1       8.686  28.774 -12.782  1.00  0.00    -0.000 C 
BRANCH  23  24
ATOM     24  C   UNL     1       9.680  28.480 -13.921  1.00  0.00    -0.000 C 
BRANCH  24  25
ATOM     25  C   UNL     1      10.486  27.174 -13.761  1.00  0.00    -0.000 C 
BRANCH  25  26
ATOM     26  C   UNL     1      10.621  26.665 -12.312  1.00  0.00    -0.000 C 
BRANCH  26  27
ATOM     27  C   UNL     1      10.144  25.216 -12.084  1.00  0.00    -0.000 C 
BRANCH  27  28
ATOM     28  C   UNL     1       8.670  25.076 -11.662  1.00  0.00    -0.000 C 
BRANCH  28  29
ATOM     29  C   UNL     1       7.741  24.746 -12.839  1.00  0.00    -0.003 C 
ATOM     30  C   UNL     1       6.647  25.800 -12.989  1.00  0.00     0.004 C 
ENDBRANCH  28  29
ENDBRANCH  27  28
ENDBRANCH  26  27
ENDBRANCH  25  26
ENDBRANCH  24  25
ENDBRANCH  23  24
ENDBRANCH  22  23
ENDBRANCH  21  22
ENDBRANCH  20  21
ENDBRANCH  19  20
ENDBRANCH  18  19
ENDBRANCH  17  18
ENDBRANCH   1  17
TORSDOF 26
ENDMDL
MODEL 4
REMARK VINA RESULT:    -4.243      2.109      5.013
REMARK INTER + INTRA:         -15.103
REMARK INTER:                 -11.164
REMARK INTRA:                  -3.939
REMARK UNBOUND:                -4.411
REMARK SMILES CCCCCCCCCCCCCCCCCCCCCCCCCCCC(=O)[O-]
REMARK SMILES IDX 15 1 16 2 17 3 18 4 19 5 20 6 21 7 22 8 23 9 24 10 25 11
REMARK SMILES IDX 26 12 27 13 28 14 29 15 30 16 14 17 13 18 12 19 11 20 10 21
REMARK SMILES IDX 9 22 8 23 7 24 6 25 5 26 4 27 3 28 2 29 1 30
REMARK H PARENT
REMARK Flexibility Score: inf
ROOT
ATOM      1  C   UNL     1       5.049  33.520 -11.467  1.00  0.00     0.000 C 
ENDROOT
BRANCH   1   2
ATOM      2  C   UNL     1       4.236  32.666 -12.455  1.00  0.00     0.000 C 
BRANCH   2   3
ATOM      3  C   UNL     1       3.947  33.402 -13.774  1.00  0.00     0.000 C 
BRANCH   3   4
ATOM      4  C   UNL     1       4.616  32.734 -14.988  1.00  0.00     0.000 C 
BRANCH   4   5
ATOM      5  C   UNL     1       5.113  31.312 -14.674  1.00  0.00     0.000 C 
BRANCH   5   6
ATOM      6  C   UNL     1       6.554  31.072 -15.158  1.00  0.00     0.000 C 
BRANCH   6   7
ATOM      7  C   UNL     1       7.602  31.428 -14.091  1.00  0.00     0.000 C 
BRANCH   7   8
ATOM      8  C   UNL     1       7.394  30.667 -12.773  1.00  0.00     0.000 C 
BRANCH   8   9
ATOM      9  C   UNL     1       8.231  29.379 -12.746  1.00  0.00     0.000 C 
BRANCH   9  10
ATOM     10  C   UNL     1       7.415  28.126 -13.112  1.00  0.00     0.000 C 
BRANCH  10  11
ATOM     11  C   UNL     1       8.246  26.852 -13.353  1.00  0.00     0.000 C 
BRANCH  11  12
ATOM     12  C   UNL     1       7.681  25.566 -12.718  1.00  0.00     0.006 C 
BRANCH  12  13
ATOM     13  C   UNL     1       8.733  24.460 -12.506  1.00  0.00     0.053 C 
BRANCH  13  14
ATOM     14  C   UNL     1       8.562  23.744 -11.201  1.00  0.00     0.041 C 
ATOM     15  O   UNL     1       8.212  22.535 -11.182  1.00  0.00    -0.550 OA
ATOM     16  O   UNL     1       8.819  24.402 -10.005  1.00  0.00    -0.550 OA
ENDBRANCH  13  14
ENDBRANCH  12  13
ENDBRANCH  11  12
ENDBRANCH  10  11
ENDBRANCH   9  10
ENDBRANCH   8   9
ENDBRANCH   7   8
ENDBRANCH   6   7
ENDBRANCH   5   6
ENDBRANCH   4   5
ENDBRANCH   3   4
ENDBRANCH   2   3
ENDBRANCH   1   2
BRANCH   1  17
ATOM     17  C   UNL     1       5.768  34.702 -12.144  1.00  0.00     0.000 C 
BRANCH  17  18
ATOM     18  C   UNL     1       7.151  35.053 -11.556  1.00  0.00     0.000 C 
BRANCH  18  19
ATOM     19  C   UNL     1       8.040  33.845 -11.206  1.00  0.00     0.000 C 
BRANCH  19  20
ATOM     20  C   UNL     1       8.439  33.739  -9.721  1.00  0.00     0.000 C 
BRANCH  20  21
ATOM     21  C   UNL     1       8.092  34.972  -8.867  1.00  0.00     0.000 C 
BRANCH  21  22
ATOM     22  C   UNL     1       7.119  34.649  -7.724  1.00  0.00    -0.000 C 
BRANCH  22  23
ATOM     23  C   UNL     1       6.294  33.394  -8.044  1.00  0.00    -0.000 C 
BRANCH  23  24
ATOM     24  C   UNL     1       4.789  33.582  -7.777  1.00  0.00    -0.000 C 
BRANCH  24  25
ATOM     25  C   UNL     1       4.449  34.495  -6.582  1.00  0.00    -0.000 C 
BRANCH  25  26
ATOM     26  C   UNL     1       3.807  35.846  -6.956  1.00  0.00    -0.000 C 
BRANCH  26  27
ATOM     27  C   UNL     1       3.816  36.177  -8.462  1.00  0.00    -0.000 C 
BRANCH  27  28
ATOM     28  C   UNL     1       2.427  36.231  -9.123  1.00  0.00    -0.000 C 
BRANCH  28  29
ATOM     29  C   UNL     1       2.096  34.962  -9.921  1.00  0.00    -0.003 C 
ATOM     30  C   UNL     1       1.558  35.308 -11.307  1.00  0.00     0.004 C 
ENDBRANCH  28  29
ENDBRANCH  27  28
ENDBRANCH  26  27
ENDBRANCH  25  26
ENDBRANCH  24  25
ENDBRANCH  23  24
ENDBRANCH  22  23
ENDBRANCH  21  22
ENDBRANCH  20  21
ENDBRANCH  19  20
ENDBRANCH  18  19
ENDBRANCH  17  18
ENDBRANCH   1  17
TORSDOF 26
ENDMDL
MODEL 5
REMARK VINA RESULT:    -4.237      3.652      8.026
REMARK INTER + INTRA:         -15.087
REMARK INTER:                 -10.696
REMARK INTRA:                  -4.392
REMARK UNBOUND:                -4.411
REMARK SMILES CCCCCCCCCCCCCCCCCCCCCCCCCCCC(=O)[O-]
REMARK SMILES IDX 15 1 16 2 17 3 18 4 19 5 20 6 21 7 22 8 23 9 24 10 25 11
REMARK SMILES IDX 26 12 27 13 28 14 29 15 30 16 14 17 13 18 12 19 11 20 10 21
REMARK SMILES IDX 9 22 8 23 7 24 6 25 5 26 4 27 3 28 2 29 1 30
REMARK H PARENT
REMARK Flexibility Score: inf
ROOT
ATOM      1  C   UNL     1       6.792  26.273 -13.108  1.00  0.00     0.000 C 
ENDROOT
BRANCH   1   2
ATOM      2  C   UNL     1       7.174  27.741 -13.360  1.00  0.00     0.000 C 
BRANCH   2   3
ATOM      3  C   UNL     1       6.609  28.281 -14.685  1.00  0.00     0.000 C 
BRANCH   3   4
ATOM      4  C   UNL     1       6.804  29.799 -14.842  1.00  0.00     0.000 C 
BRANCH   4   5
ATOM      5  C   UNL     1       5.467  30.553 -14.944  1.00  0.00     0.000 C 
BRANCH   5   6
ATOM      6  C   UNL     1       5.617  31.931 -15.613  1.00  0.00     0.000 C 
BRANCH   6   7
ATOM      7  C   UNL     1       4.763  33.014 -14.933  1.00  0.00     0.000 C 
BRANCH   7   8
ATOM      8  C   UNL     1       3.977  32.483 -13.726  1.00  0.00     0.000 C 
BRANCH   8   9
ATOM      9  C   UNL     1       4.084  33.448 -12.535  1.00  0.00     0.000 C 
BRANCH   9  10
ATOM     10  C   UNL     1       4.793  32.824 -11.320  1.00  0.00     0.000 C 
BRANCH  10  11
ATOM     11  C   UNL     1       5.020  33.779 -10.133  1.00  0.00     0.000 C 
BRANCH  11  12
ATOM     12  C   UNL     1       5.321  33.097  -8.784  1.00  0.00     0.006 C 
BRANCH  12  13
ATOM     13  C   UNL     1       6.676  33.495  -8.171  1.00  0.00     0.053 C 
BRANCH  13  14
ATOM     14  C   UNL     1       6.618  34.805  -7.445  1.00  0.00     0.041 C 
ATOM     15  O   UNL     1       7.507  35.676  -7.636  1.00  0.00    -0.550 OA
ATOM     16  O   UNL     1       5.564  35.079  -6.582  1.00  0.00    -0.550 OA
ENDBRANCH  13  14
ENDBRANCH  12  13
ENDBRANCH  11  12
ENDBRANCH  10  11
ENDBRANCH   9  10
ENDBRANCH   8   9
ENDBRANCH   7   8
ENDBRANCH   6   7
ENDBRANCH   5   6
ENDBRANCH   4   5
ENDBRANCH   3   4
ENDBRANCH   2   3
ENDBRANCH   1   2
BRANCH   1  17
ATOM     17  C   UNL     1       8.002  25.390 -12.750  1.00  0.00     0.000 C 
BRANCH  17  18
ATOM     18  C   UNL     1       9.380  26.059 -12.933  1.00  0.00     0.000 C 
BRANCH  18  19
ATOM     19  C   UNL     1      10.197  25.558 -14.140  1.00  0.00     0.000 C 
BRANCH  19  20
ATOM     20  C   UNL     1      11.026  26.641 -14.860  1.00  0.00     0.000 C 
BRANCH  20  21
ATOM     21  C   UNL     1      10.201  27.793 -15.463  1.00  0.00     0.000 C 
BRANCH  21  22
ATOM     22  C   UNL     1      10.717  29.177 -15.042  1.00  0.00    -0.000 C 
BRANCH  22  23
ATOM     23  C   UNL     1      10.934  29.242 -13.523  1.00  0.00    -0.000 C 
BRANCH  23  24
ATOM     24  C   UNL     1       9.834  30.035 -12.794  1.00  0.00    -0.000 C 
BRANCH  24  25
ATOM     25  C   UNL     1      10.241  31.455 -12.350  1.00  0.00    -0.000 C 
BRANCH  25  26
ATOM     26  C   UNL     1       9.081  32.338 -11.847  1.00  0.00    -0.000 C 
BRANCH  26  27
ATOM     27  C   UNL     1       8.027  32.697 -12.914  1.00  0.00    -0.000 C 
BRANCH  27  28
ATOM     28  C   UNL     1       7.974  34.186 -13.299  1.00  0.00    -0.000 C 
BRANCH  28  29
ATOM     29  C   UNL     1       8.224  34.424 -14.795  1.00  0.00    -0.003 C 
ATOM     30  C   UNL     1       9.123  33.340 -15.382  1.00  0.00     0.004 C 
ENDBRANCH  28  29
ENDBRANCH  27  28
ENDBRANCH  26  27
ENDBRANCH  25  26
ENDBRANCH  24  25
ENDBRANCH  23  24
ENDBRANCH  22  23
ENDBRANCH  21  22
ENDBRANCH  20  21
ENDBRANCH  19  20
ENDBRANCH  18  19
ENDBRANCH  17  18
ENDBRANCH   1  17
TORSDOF 26
ENDMDL
MODEL 6
REMARK VINA RESULT:    -4.215      1.620      4.404
REMARK INTER + INTRA:         -15.034
REMARK INTER:                 -11.097
REMARK INTRA:                  -3.936
REMARK UNBOUND:                -4.411
REMARK SMILES CCCCCCCCCCCCCCCCCCCCCCCCCCCC(=O)[O-]
REMARK SMILES IDX 15 1 16 2 17 3 18 4 19 5 20 6 21 7 22 8 23 9 24 10 25 11
REMARK SMILES IDX 26 12 27 13 28 14 29 15 30 16 14 17 13 18 12 19 11 20 10 21
REMARK SMILES IDX 9 22 8 23 7 24 6 25 5 26 4 27 3 28 2 29 1 30
REMARK H PARENT
REMARK Flexibility Score: inf
ROOT
ATOM      1  C   UNL     1       6.132  32.209 -15.987  1.00  0.00     0.000 C 
ENDROOT
BRANCH   1   2
ATOM      2  C   UNL     1       7.011  33.373 -16.478  1.00  0.00     0.000 C 
BRANCH   2   3
ATOM      3  C   UNL     1       8.385  33.408 -15.790  1.00  0.00     0.000 C 
BRANCH   3   4
ATOM      4  C   UNL     1       8.318  33.945 -14.350  1.00  0.00     0.000 C 
BRANCH   4   5
ATOM      5  C   UNL     1       8.789  32.908 -13.315  1.00  0.00     0.000 C 
BRANCH   5   6
ATOM      6  C   UNL     1       7.679  32.519 -12.323  1.00  0.00     0.000 C 
BRANCH   6   7
ATOM      7  C   UNL     1       7.362  31.015 -12.352  1.00  0.00     0.000 C 
BRANCH   7   8
ATOM      8  C   UNL     1       8.125  30.265 -13.454  1.00  0.00     0.000 C 
BRANCH   8   9
ATOM      9  C   UNL     1       8.311  28.786 -13.082  1.00  0.00     0.000 C 
BRANCH   9  10
ATOM     10  C   UNL     1       7.061  27.934 -13.369  1.00  0.00     0.000 C 
BRANCH  10  11
ATOM     11  C   UNL     1       7.216  26.429 -13.083  1.00  0.00     0.000 C 
BRANCH  11  12
ATOM     12  C   UNL     1       8.640  25.971 -12.710  1.00  0.00     0.006 C 
BRANCH  12  13
ATOM     13  C   UNL     1       8.757  24.460 -12.432  1.00  0.00     0.053 C 
BRANCH  13  14
ATOM     14  C   UNL     1       8.206  24.076 -11.093  1.00  0.00     0.041 C 
ATOM     15  O   UNL     1       8.887  24.259 -10.050  1.00  0.00    -0.550 OA
ATOM     16  O   UNL     1       6.926  23.545 -10.991  1.00  0.00    -0.550 OA
ENDBRANCH  13  14
ENDBRANCH  12  13
ENDBRANCH  11  12
ENDBRANCH  10  11
ENDBRANCH   9  10
ENDBRANCH   8   9
ENDBRANCH   7   8
ENDBRANCH   6   7
ENDBRANCH   5   6
ENDBRANCH   4   5
ENDBRANCH   3   4
ENDBRANCH   2   3
ENDBRANCH   1   2
BRANCH   1  17
ATOM     17  C   UNL     1       4.761  32.673 -15.460  1.00  0.00     0.000 C 
BRANCH  17  18
ATOM     18  C   UNL     1       4.308  32.013 -14.141  1.00  0.00     0.000 C 
BRANCH  18  19
ATOM     19  C   UNL     1       4.201  32.967 -12.935  1.00  0.00     0.000 C 
BRANCH  19  20
ATOM     20  C   UNL     1       4.137  34.465 -13.294  1.00  0.00     0.000 C 
BRANCH  20  21
ATOM     21  C   UNL     1       2.999  35.246 -12.611  1.00  0.00     0.000 C 
BRANCH  21  22
ATOM     22  C   UNL     1       2.285  34.429 -11.526  1.00  0.00    -0.000 C 
BRANCH  22  23
ATOM     23  C   UNL     1       1.527  35.348 -10.557  1.00  0.00    -0.000 C 
BRANCH  23  24
ATOM     24  C   UNL     1       1.992  35.195  -9.097  1.00  0.00    -0.000 C 
BRANCH  24  25
ATOM     25  C   UNL     1       2.836  36.368  -8.556  1.00  0.00    -0.000 C 
BRANCH  25  26
ATOM     26  C   UNL     1       4.093  36.702  -9.383  1.00  0.00    -0.000 C 
BRANCH  26  27
ATOM     27  C   UNL     1       5.344  35.871  -9.030  1.00  0.00    -0.000 C 
BRANCH  27  28
ATOM     28  C   UNL     1       5.461  34.527  -9.770  1.00  0.00    -0.000 C 
BRANCH  28  29
ATOM     29  C   UNL     1       5.733  33.348  -8.824  1.00  0.00    -0.003 C 
ATOM     30  C   UNL     1       4.855  33.427  -7.578  1.00  0.00     0.004 C 
ENDBRANCH  28  29
ENDBRANCH  27  28
ENDBRANCH  26  27
ENDBRANCH  25  26
ENDBRANCH  24  25
ENDBRANCH  23  24
ENDBRANCH  22  23
ENDBRANCH  21  22
ENDBRANCH  20  21
ENDBRANCH  19  20
ENDBRANCH  18  19
ENDBRANCH  17  18
ENDBRANCH   1  17
TORSDOF 26
ENDMDL
MODEL 7
REMARK VINA RESULT:    -4.215      3.513      9.082
REMARK INTER + INTRA:         -15.033
REMARK INTER:                 -11.320
REMARK INTRA:                  -3.713
REMARK UNBOUND:                -4.411
REMARK SMILES CCCCCCCCCCCCCCCCCCCCCCCCCCCC(=O)[O-]
REMARK SMILES IDX 15 1 16 2 17 3 18 4 19 5 20 6 21 7 22 8 23 9 24 10 25 11
REMARK SMILES IDX 26 12 27 13 28 14 29 15 30 16 14 17 13 18 12 19 11 20 10 21
REMARK SMILES IDX 9 22 8 23 7 24 6 25 5 26 4 27 3 28 2 29 1 30
REMARK H PARENT
REMARK Flexibility Score: inf
ROOT
ATOM      1  C   UNL     1       5.282  33.004  -8.313  1.00  0.00     0.000 C 
ENDROOT
BRANCH   1   2
ATOM      2  C   UNL     1       4.177  33.522  -7.376  1.00  0.00     0.000 C 
BRANCH   2   3
ATOM      3  C   UNL     1       4.705  34.521  -6.333  1.00  0.00     0.000 C 
BRANCH   3   4
ATOM      4  C   UNL     1       4.186  35.952  -6.560  1.00  0.00     0.000 C 
BRANCH   4   5
ATOM      5  C   UNL     1       3.243  36.047  -7.772  1.00  0.00     0.000 C 
BRANCH   5   6
ATOM      6  C   UNL     1       3.916  36.699  -8.993  1.00  0.00     0.000 C 
BRANCH   6   7
ATOM      7  C   UNL     1       3.134  36.462 -10.295  1.00  0.00     0.000 C 
BRANCH   7   8
ATOM      8  C   UNL     1       2.234  35.220 -10.232  1.00  0.00     0.000 C 
BRANCH   8   9
ATOM      9  C   UNL     1       2.837  34.065 -11.046  1.00  0.00     0.000 C 
BRANCH   9  10
ATOM     10  C   UNL     1       3.177  34.465 -12.493  1.00  0.00     0.000 C 
BRANCH  10  11
ATOM     11  C   UNL     1       3.708  33.323 -13.380  1.00  0.00     0.000 C 
BRANCH  11  12
ATOM     12  C   UNL     1       4.354  33.765 -14.708  1.00  0.00     0.006 C 
BRANCH  12  13
ATOM     13  C   UNL     1       4.859  32.597 -15.576  1.00  0.00     0.053 C 
BRANCH  13  14
ATOM     14  C   UNL     1       5.325  33.043 -16.928  1.00  0.00     0.041 C 
ATOM     15  O   UNL     1       5.356  34.268 -17.216  1.00  0.00    -0.550 OA
ATOM     16  O   UNL     1       5.756  32.108 -17.862  1.00  0.00    -0.550 OA
ENDBRANCH  13  14
ENDBRANCH  12  13
ENDBRANCH  11  12
ENDBRANCH  10  11
ENDBRANCH   9  10
ENDBRANCH   8   9
ENDBRANCH   7   8
ENDBRANCH   6   7
ENDBRANCH   5   6
ENDBRANCH   4   5
ENDBRANCH   3   4
ENDBRANCH   2   3
ENDBRANCH   1   2
BRANCH   1  17
ATOM     17  C   UNL     1       6.618  33.748  -8.134  1.00  0.00     0.000 C 
BRANCH  17  18
ATOM     18  C   UNL     1       7.123  34.500  -9.383  1.00  0.00     0.000 C 
BRANCH  18  19
ATOM     19  C   UNL     1       6.344  34.211 -10.681  1.00  0.00     0.000 C 
BRANCH  19  20
ATOM     20  C   UNL     1       7.217  34.046 -11.941  1.00  0.00     0.000 C 
BRANCH  20  21
ATOM     21  C   UNL     1       7.938  32.690 -12.057  1.00  0.00     0.000 C 
BRANCH  21  22
ATOM     22  C   UNL     1       6.965  31.509 -12.182  1.00  0.00    -0.000 C 
BRANCH  22  23
ATOM     23  C   UNL     1       7.123  30.811 -13.541  1.00  0.00    -0.000 C 
BRANCH  23  24
ATOM     24  C   UNL     1       8.266  29.779 -13.556  1.00  0.00    -0.000 C 
BRANCH  24  25
ATOM     25  C   UNL     1       7.993  28.494 -12.749  1.00  0.00    -0.000 C 
BRANCH  25  26
ATOM     26  C   UNL     1       7.022  27.499 -13.416  1.00  0.00    -0.000 C 
BRANCH  26  27
ATOM     27  C   UNL     1       7.282  26.015 -13.086  1.00  0.00    -0.000 C 
BRANCH  27  28
ATOM     28  C   UNL     1       8.733  25.680 -12.699  1.00  0.00    -0.000 C 
BRANCH  28  29
ATOM     29  C   UNL     1       8.877  24.283 -12.077  1.00  0.00    -0.003 C 
ATOM     30  C   UNL     1       8.712  24.336 -10.561  1.00  0.00     0.004 C 
ENDBRANCH  28  29
ENDBRANCH  27  28
ENDBRANCH  26  27
ENDBRANCH  25  26
ENDBRANCH  24  25
ENDBRANCH  23  24
ENDBRANCH  22  23
ENDBRANCH  21  22
ENDBRANCH  20  21
ENDBRANCH  19  20
ENDBRANCH  18  19
ENDBRANCH  17  18
ENDBRANCH   1  17
TORSDOF 26
ENDMDL
MODEL 8
REMARK VINA RESULT:    -4.194      1.726      4.316
REMARK INTER + INTRA:         -14.980
REMARK INTER:                 -10.722
REMARK INTRA:                  -4.258
REMARK UNBOUND:                -4.411
REMARK SMILES CCCCCCCCCCCCCCCCCCCCCCCCCCCC(=O)[O-]
REMARK SMILES IDX 15 1 16 2 17 3 18 4 19 5 20 6 21 7 22 8 23 9 24 10 25 11
REMARK SMILES IDX 26 12 27 13 28 14 29 15 30 16 14 17 13 18 12 19 11 20 10 21
REMARK SMILES IDX 9 22 8 23 7 24 6 25 5 26 4 27 3 28 2 29 1 30
REMARK H PARENT
REMARK Flexibility Score: inf
ROOT
ATOM      1  C   UNL     1       5.017  32.506 -11.633  1.00  0.00     0.000 C 
ENDROOT
BRANCH   1   2
ATOM      2  C   UNL     1       4.158  32.794 -12.876  1.00  0.00     0.000 C 
BRANCH   2   3
ATOM      3  C   UNL     1       4.419  31.799 -14.019  1.00  0.00     0.000 C 
BRANCH   3   4
ATOM      4  C   UNL     1       4.990  32.473 -15.278  1.00  0.00     0.000 C 
BRANCH   4   5
ATOM      5  C   UNL     1       5.984  31.569 -16.028  1.00  0.00     0.000 C 
BRANCH   5   6
ATOM      6  C   UNL     1       6.863  30.741 -15.073  1.00  0.00     0.000 C 
BRANCH   6   7
ATOM      7  C   UNL     1       6.842  29.240 -15.404  1.00  0.00     0.000 C 
BRANCH   7   8
ATOM      8  C   UNL     1       6.813  28.353 -14.151  1.00  0.00     0.000 C 
BRANCH   8   9
ATOM      9  C   UNL     1       7.614  28.994 -13.007  1.00  0.00     0.000 C 
BRANCH   9  10
ATOM     10  C   UNL     1       9.067  28.492 -12.939  1.00  0.00     0.000 C 
BRANCH  10  11
ATOM     11  C   UNL     1       9.377  27.264 -13.815  1.00  0.00     0.000 C 
BRANCH  11  12
ATOM     12  C   UNL     1       9.593  25.944 -13.049  1.00  0.00     0.006 C 
BRANCH  12  13
ATOM     13  C   UNL     1       8.356  25.469 -12.262  1.00  0.00     0.053 C 
BRANCH  13  14
ATOM     14  C   UNL     1       8.613  24.212 -11.488  1.00  0.00     0.041 C 
ATOM     15  O   UNL     1       8.778  23.119 -12.091  1.00  0.00    -0.550 OA
ATOM     16  O   UNL     1       8.702  24.252 -10.102  1.00  0.00    -0.550 OA
ENDBRANCH  13  14
ENDBRANCH  12  13
ENDBRANCH  11  12
ENDBRANCH  10  11
ENDBRANCH   9  10
ENDBRANCH   8   9
ENDBRANCH   7   8
ENDBRANCH   6   7
ENDBRANCH   5   6
ENDBRANCH   4   5
ENDBRANCH   3   4
ENDBRANCH   2   3
ENDBRANCH   1   2
BRANCH   1  17
ATOM     17  C   UNL     1       6.526  32.681 -11.891  1.00  0.00     0.000 C 
BRANCH  17  18
ATOM     18  C   UNL     1       6.950  34.084 -12.373  1.00  0.00     0.000 C 
BRANCH  18  19
ATOM     19  C   UNL     1       6.697  35.226 -11.370  1.00  0.00     0.000 C 
BRANCH  19  20
ATOM     20  C   UNL     1       5.606  36.231 -11.790  1.00  0.00     0.000 C 
BRANCH  20  21
ATOM     21  C   UNL     1       5.334  36.296 -13.305  1.00  0.00     0.000 C 
BRANCH  21  22
ATOM     22  C   UNL     1       3.836  36.328 -13.638  1.00  0.00    -0.000 C 
BRANCH  22  23
ATOM     23  C   UNL     1       3.011  36.766 -12.419  1.00  0.00    -0.000 C 
BRANCH  23  24
ATOM     24  C   UNL     1       1.904  35.761 -12.051  1.00  0.00    -0.000 C 
BRANCH  24  25
ATOM     25  C   UNL     1       2.239  34.826 -10.872  1.00  0.00    -0.000 C 
BRANCH  25  26
ATOM     26  C   UNL     1       1.797  35.339  -9.487  1.00  0.00    -0.000 C 
BRANCH  26  27
ATOM     27  C   UNL     1       2.743  34.973  -8.325  1.00  0.00    -0.000 C 
BRANCH  27  28
ATOM     28  C   UNL     1       4.218  34.790  -8.722  1.00  0.00    -0.000 C 
BRANCH  28  29
ATOM     29  C   UNL     1       4.872  33.578  -8.042  1.00  0.00    -0.003 C 
ATOM     30  C   UNL     1       6.382  33.570  -8.263  1.00  0.00     0.004 C 
ENDBRANCH  28  29
ENDBRANCH  27  28
ENDBRANCH  26  27
ENDBRANCH  25  26
ENDBRANCH  24  25
ENDBRANCH  23  24
ENDBRANCH  22  23
ENDBRANCH  21  22
ENDBRANCH  20  21
ENDBRANCH  19  20
ENDBRANCH  18  19
ENDBRANCH  17  18
ENDBRANCH   1  17
TORSDOF 26
ENDMDL
MODEL 9
REMARK VINA RESULT:    -4.194      1.639      3.729
REMARK INTER + INTRA:         -14.979
REMARK INTER:                 -10.613
REMARK INTRA:                  -4.365
REMARK UNBOUND:                -4.411
REMARK SMILES CCCCCCCCCCCCCCCCCCCCCCCCCCCC(=O)[O-]
REMARK SMILES IDX 15 1 16 2 17 3 18 4 19 5 20 6 21 7 22 8 23 9 24 10 25 11
REMARK SMILES IDX 26 12 27 13 28 14 29 15 30 16 14 17 13 18 12 19 11 20 10 21
REMARK SMILES IDX 9 22 8 23 7 24 6 25 5 26 4 27 3 28 2 29 1 30
REMARK H PARENT
REMARK Flexibility Score: inf
ROOT
ATOM      1  C   UNL     1       4.802  33.151 -11.945  1.00  0.00     0.000 C 
ENDROOT
BRANCH   1   2
ATOM      2  C   UNL     1       4.203  33.298 -13.354  1.00  0.00     0.000 C 
BRANCH   2   3
ATOM      3  C   UNL     1       4.412  32.044 -14.219  1.00  0.00     0.000 C 
BRANCH   3   4
ATOM      4  C   UNL     1       5.269  32.317 -15.468  1.00  0.00     0.000 C 
BRANCH   4   5
ATOM      5  C   UNL     1       5.931  31.040 -16.014  1.00  0.00     0.000 C 
BRANCH   5   6
ATOM      6  C   UNL     1       6.759  30.302 -14.947  1.00  0.00     0.000 C 
BRANCH   6   7
ATOM      7  C   UNL     1       6.704  28.774 -15.110  1.00  0.00     0.000 C 
BRANCH   7   8
ATOM      8  C   UNL     1       6.897  28.025 -13.784  1.00  0.00     0.000 C 
BRANCH   8   9
ATOM      9  C   UNL     1       7.865  28.783 -12.862  1.00  0.00     0.000 C 
BRANCH   9  10
ATOM     10  C   UNL     1       9.326  28.324 -13.021  1.00  0.00     0.000 C 
BRANCH  10  11
ATOM     11  C   UNL     1       9.507  26.866 -13.483  1.00  0.00     0.000 C 
BRANCH  11  12
ATOM     12  C   UNL     1       9.797  25.850 -12.361  1.00  0.00     0.006 C 
BRANCH  12  13
ATOM     13  C   UNL     1       9.095  24.491 -12.551  1.00  0.00     0.053 C 
BRANCH  13  14
ATOM     14  C   UNL     1       8.048  24.232 -11.512  1.00  0.00     0.041 C 
ATOM     15  O   UNL     1       6.828  24.247 -11.823  1.00  0.00    -0.550 OA
ATOM     16  O   UNL     1       8.419  23.943 -10.204  1.00  0.00    -0.550 OA
ENDBRANCH  13  14
ENDBRANCH  12  13
ENDBRANCH  11  12
ENDBRANCH  10  11
ENDBRANCH   9  10
ENDBRANCH   8   9
ENDBRANCH   7   8
ENDBRANCH   6   7
ENDBRANCH   5   6
ENDBRANCH   4   5
ENDBRANCH   3   4
ENDBRANCH   2   3
ENDBRANCH   1   2
BRANCH   1  17
ATOM     17  C   UNL     1       5.828  32.006 -11.844  1.00  0.00     0.000 C 
BRANCH  17  18
ATOM     18  C   UNL     1       7.306  32.438 -11.940  1.00  0.00     0.000 C 
BRANCH  18  19
ATOM     19  C   UNL     1       7.534  33.949 -12.139  1.00  0.00     0.000 C 
BRANCH  19  20
ATOM     20  C   UNL     1       8.324  34.326 -13.409  1.00  0.00     0.000 C 
BRANCH  20  21
ATOM     21  C   UNL     1       9.005  33.144 -14.123  1.00  0.00     0.000 C 
BRANCH  21  22
ATOM     22  C   UNL     1       8.896  33.231 -15.652  1.00  0.00    -0.000 C 
BRANCH  22  23
ATOM     23  C   UNL     1       8.707  34.686 -16.107  1.00  0.00    -0.000 C 
BRANCH  23  24
ATOM     24  C   UNL     1       7.349  34.928 -16.791  1.00  0.00    -0.000 C 
BRANCH  24  25
ATOM     25  C   UNL     1       6.463  35.997 -16.119  1.00  0.00    -0.000 C 
BRANCH  25  26
ATOM     26  C   UNL     1       5.192  36.377 -16.904  1.00  0.00    -0.000 C 
BRANCH  26  27
ATOM     27  C   UNL     1       3.870  35.885 -16.281  1.00  0.00    -0.000 C 
BRANCH  27  28
ATOM     28  C   UNL     1       3.120  34.823 -17.104  1.00  0.00    -0.000 C 
BRANCH  28  29
ATOM     29  C   UNL     1       3.846  34.456 -18.407  1.00  0.00    -0.003 C 
ATOM     30  C   UNL     1       3.071  34.946 -19.626  1.00  0.00     0.004 C 
ENDBRANCH  28  29
ENDBRANCH  27  28
ENDBRANCH  26  27
ENDBRANCH  25  26
ENDBRANCH  24  25
ENDBRANCH  23  24
ENDBRANCH  22  23
ENDBRANCH  21  22
ENDBRANCH  20  21
ENDBRANCH  19  20
ENDBRANCH  18  19
ENDBRANCH  17  18
ENDBRANCH   1  17
TORSDOF 26
ENDMDL
