MODEL 1
REMARK VINA RESULT:    -4.202      0.000      0.000
REMARK INTER + INTRA:          -4.964
REMARK INTER:                  -4.816
REMARK INTRA:                  -0.148
REMARK UNBOUND:                -0.148
REMARK SMILES O=C([O-])C=Cc1ccc(O)cc1
REMARK SMILES IDX 6 1 7 2 12 3 8 4 11 5 9 6 5 7 4 8 2 9 1 10 3 11 10 12
REMARK H PARENT 10 13
REMARK Flexibility Score: inf
ROOT
ATOM      1  C   UNL     1      13.244   3.561  -2.069  1.00  0.00    -0.025 A 
ATOM      2  C   UNL     1      12.308   3.038  -2.978  1.00  0.00     0.012 A 
ATOM      3  C   UNL     1      12.831   4.564  -1.169  1.00  0.00     0.012 A 
ATOM      4  C   UNL     1      10.984   3.486  -2.972  1.00  0.00     0.047 A 
ATOM      5  C   UNL     1      11.505   5.011  -1.168  1.00  0.00     0.047 A 
ATOM      6  C   UNL     1      10.578   4.470  -2.067  1.00  0.00     0.115 A 
ENDROOT
BRANCH   1   7
ATOM      7  C   UNL     1      14.641   3.060  -2.122  1.00  0.00     0.010 C 
ATOM      8  C   UNL     1      14.965   1.789  -2.398  1.00  0.00     0.025 C 
BRANCH   8   9
ATOM      9  C   UNL     1      16.364   1.331  -2.454  1.00  0.00     0.064 C 
ATOM     10  O   UNL     1      17.298   2.025  -1.971  1.00  0.00    -0.545 OA
ATOM     11  O   UNL     1      16.658   0.110  -3.046  1.00  0.00    -0.545 OA
ENDBRANCH   8   9
ENDBRANCH   1   7
BRANCH   6  12
ATOM     12  O   UNL     1       9.255   4.907  -2.072  1.00  0.00    -0.508 OA
ATOM     13  H   UNL     1       9.008   5.851  -1.800  1.00  0.00     0.293 HD
ENDBRANCH   6  12
TORSDOF 3
ENDMDL
MODEL 2
REMARK VINA RESULT:    -3.976      1.409      5.695
REMARK INTER + INTRA:          -4.705
REMARK INTER:                  -4.554
REMARK INTRA:                  -0.151
REMARK UNBOUND:                -0.148
REMARK SMILES O=C([O-])C=Cc1ccc(O)cc1
REMARK SMILES IDX 6 1 7 2 12 3 8 4 11 5 9 6 5 7 4 8 2 9 1 10 3 11 10 12
REMARK H PARENT 10 13
REMARK Flexibility Score: inf
ROOT
ATOM      1  C   UNL     1      14.766   2.954  -1.768  1.00  0.00    -0.025 A 
ATOM      2  C   UNL     1      14.278   2.017  -2.695  1.00  0.00     0.012 A 
ATOM      3  C   UNL     1      16.070   2.790  -1.259  1.00  0.00     0.012 A 
ATOM      4  C   UNL     1      15.079   0.956  -3.125  1.00  0.00     0.047 A 
ATOM      5  C   UNL     1      16.870   1.726  -1.691  1.00  0.00     0.047 A 
ATOM      6  C   UNL     1      16.377   0.809  -2.627  1.00  0.00     0.115 A 
ENDROOT
BRANCH   1   7
ATOM      7  C   UNL     1      13.872   4.057  -1.335  1.00  0.00     0.010 C 
ATOM      8  C   UNL     1      12.646   4.262  -1.838  1.00  0.00     0.025 C 
BRANCH   8   9
ATOM      9  C   UNL     1      11.781   5.360  -1.374  1.00  0.00     0.064 C 
ATOM     10  O   UNL     1      12.061   6.562  -1.627  1.00  0.00    -0.545 OA
ATOM     11  O   UNL     1      10.635   5.066  -0.647  1.00  0.00    -0.545 OA
ENDBRANCH   8   9
ENDBRANCH   1   7
BRANCH   6  12
ATOM     12  O   UNL     1      17.166  -0.253  -3.065  1.00  0.00    -0.508 OA
ATOM     13  H   UNL     1      17.035  -1.192  -2.708  1.00  0.00     0.293 HD
ENDBRANCH   6  12
TORSDOF 3
ENDMDL
MODEL 3
REMARK VINA RESULT:    -3.975      1.698      2.237
REMARK INTER + INTRA:          -4.704
REMARK INTER:                  -4.560
REMARK INTRA:                  -0.144
REMARK UNBOUND:                -0.148
REMARK SMILES O=C([O-])C=Cc1ccc(O)cc1
REMARK SMILES IDX 6 1 7 2 12 3 8 4 11 5 9 6 5 7 4 8 2 9 1 10 3 11 10 12
REMARK H PARENT 10 13
REMARK Flexibility Score: inf
ROOT
ATOM      1  C   UNL     1      12.834   4.913  -1.352  1.00  0.00    -0.025 A 
ATOM      2  C   UNL     1      12.786   5.779  -2.458  1.00  0.00     0.012 A 
ATOM      3  C   UNL     1      11.858   5.044  -0.343  1.00  0.00     0.012 A 
ATOM      4  C   UNL     1      11.775   6.737  -2.569  1.00  0.00     0.047 A 
ATOM      5  C   UNL     1      10.848   6.005  -0.457  1.00  0.00     0.047 A 
ATOM      6  C   UNL     1      10.803   6.852  -1.572  1.00  0.00     0.115 A 
ENDROOT
BRANCH   1   7
ATOM      7  C   UNL     1      13.934   3.919  -1.276  1.00  0.00     0.010 C 
ATOM      8  C   UNL     1      14.328   3.163  -2.310  1.00  0.00     0.025 C 
BRANCH   8   9
ATOM      9  C   UNL     1      15.432   2.195  -2.200  1.00  0.00     0.064 C 
ATOM     10  O   UNL     1      15.390   1.085  -2.794  1.00  0.00    -0.545 OA
ATOM     11  O   UNL     1      16.543   2.514  -1.429  1.00  0.00    -0.545 OA
ENDBRANCH   8   9
ENDBRANCH   1   7
BRANCH   6  12
ATOM     12  O   UNL     1       9.799   7.810  -1.695  1.00  0.00    -0.508 OA
ATOM     13  H   UNL     1       9.717   8.387  -2.524  1.00  0.00     0.293 HD
ENDBRANCH   6  12
TORSDOF 3
ENDMDL
MODEL 4
REMARK VINA RESULT:    -3.969      1.664      2.334
REMARK INTER + INTRA:          -4.697
REMARK INTER:                  -4.558
REMARK INTRA:                  -0.139
REMARK UNBOUND:                -0.148
REMARK SMILES O=C([O-])C=Cc1ccc(O)cc1
REMARK SMILES IDX 6 1 7 2 12 3 8 4 11 5 9 6 5 7 4 8 2 9 1 10 3 11 10 12
REMARK H PARENT 10 13
REMARK Flexibility Score: inf
ROOT
ATOM      1  C   UNL     1      12.886   4.885  -1.417  1.00  0.00    -0.025 A 
ATOM      2  C   UNL     1      11.936   4.975  -0.385  1.00  0.00     0.012 A 
ATOM      3  C   UNL     1      12.751   5.727  -2.539  1.00  0.00     0.012 A 
ATOM      4  C   UNL     1      10.891   5.900  -0.458  1.00  0.00     0.047 A 
ATOM      5  C   UNL     1      11.704   6.652  -2.609  1.00  0.00     0.047 A 
ATOM      6  C   UNL     1      10.773   6.742  -1.566  1.00  0.00     0.115 A 
ENDROOT
BRANCH   1   7
ATOM      7  C   UNL     1      13.970   3.878  -1.298  1.00  0.00     0.010 C 
ATOM      8  C   UNL     1      14.394   3.117  -2.317  1.00  0.00     0.025 C 
BRANCH   8   9
ATOM      9  C   UNL     1      15.482   2.136  -2.164  1.00  0.00     0.064 C 
ATOM     10  O   UNL     1      15.433   1.013  -2.733  1.00  0.00    -0.545 OA
ATOM     11  O   UNL     1      16.583   2.455  -1.379  1.00  0.00    -0.545 OA
ENDBRANCH   8   9
ENDBRANCH   1   7
BRANCH   6  12
ATOM     12  O   UNL     1       9.728   7.662  -1.625  1.00  0.00    -0.508 OA
ATOM     13  H   UNL     1       9.812   8.586  -1.221  1.00  0.00     0.293 HD
ENDBRANCH   6  12
TORSDOF 3
ENDMDL
MODEL 5
REMARK VINA RESULT:    -3.837      1.237      5.865
REMARK INTER + INTRA:          -4.545
REMARK INTER:                  -4.394
REMARK INTRA:                  -0.151
REMARK UNBOUND:                -0.148
REMARK SMILES O=C([O-])C=Cc1ccc(O)cc1
REMARK SMILES IDX 6 1 7 2 12 3 8 4 11 5 9 6 5 7 4 8 2 9 1 10 3 11 10 12
REMARK H PARENT 10 13
REMARK Flexibility Score: inf
ROOT
ATOM      1  C   UNL     1      14.022   3.134  -2.152  1.00  0.00    -0.025 A 
ATOM      2  C   UNL     1      15.037   3.441  -1.230  1.00  0.00     0.012 A 
ATOM      3  C   UNL     1      14.258   2.128  -3.111  1.00  0.00     0.012 A 
ATOM      4  C   UNL     1      16.249   2.745  -1.246  1.00  0.00     0.047 A 
ATOM      5  C   UNL     1      15.472   1.434  -3.125  1.00  0.00     0.047 A 
ATOM      6  C   UNL     1      16.469   1.739  -2.190  1.00  0.00     0.115 A 
ENDROOT
BRANCH   1   7
ATOM      7  C   UNL     1      12.757   3.909  -2.101  1.00  0.00     0.010 C 
ATOM      8  C   UNL     1      12.367   4.627  -1.038  1.00  0.00     0.025 C 
BRANCH   8   9
ATOM      9  C   UNL     1      11.110   5.395  -1.028  1.00  0.00     0.064 C 
ATOM     10  O   UNL     1      11.020   6.491  -0.414  1.00  0.00    -0.545 OA
ATOM     11  O   UNL     1      10.005   4.902  -1.709  1.00  0.00    -0.545 OA
ENDBRANCH   8   9
ENDBRANCH   1   7
BRANCH   6  12
ATOM     12  O   UNL     1      17.681   1.052  -2.195  1.00  0.00    -0.508 OA
ATOM     13  H   UNL     1      17.824   0.234  -2.776  1.00  0.00     0.293 HD
ENDBRANCH   6  12
TORSDOF 3
ENDMDL
MODEL 6
REMARK VINA RESULT:    -3.773      1.208      5.720
REMARK INTER + INTRA:          -4.473
REMARK INTER:                  -4.321
REMARK INTRA:                  -0.152
REMARK UNBOUND:                -0.148
REMARK SMILES O=C([O-])C=Cc1ccc(O)cc1
REMARK SMILES IDX 6 1 7 2 12 3 8 4 11 5 9 6 5 7 4 8 2 9 1 10 3 11 10 12
REMARK H PARENT 10 13
REMARK Flexibility Score: inf
ROOT
ATOM      1  C   UNL     1      13.951   3.492  -1.723  1.00  0.00    -0.025 A 
ATOM      2  C   UNL     1      13.688   2.602  -2.779  1.00  0.00     0.012 A 
ATOM      3  C   UNL     1      15.155   3.355  -1.002  1.00  0.00     0.012 A 
ATOM      4  C   UNL     1      14.615   1.614  -3.124  1.00  0.00     0.047 A 
ATOM      5  C   UNL     1      16.080   2.365  -1.351  1.00  0.00     0.047 A 
ATOM      6  C   UNL     1      15.813   1.495  -2.415  1.00  0.00     0.115 A 
ENDROOT
BRANCH   1   7
ATOM      7  C   UNL     1      12.930   4.516  -1.387  1.00  0.00     0.010 C 
ATOM      8  C   UNL     1      11.643   4.432  -1.752  1.00  0.00     0.025 C 
BRANCH   8   9
ATOM      9  C   UNL     1      10.655   5.462  -1.390  1.00  0.00     0.064 C 
ATOM     10  O   UNL     1       9.490   5.446  -1.867  1.00  0.00    -0.545 OA
ATOM     11  O   UNL     1      11.015   6.470  -0.505  1.00  0.00    -0.545 OA
ENDBRANCH   8   9
ENDBRANCH   1   7
BRANCH   6  12
ATOM     12  O   UNL     1      16.728   0.507  -2.772  1.00  0.00    -0.508 OA
ATOM     13  H   UNL     1      16.439  -0.452  -2.925  1.00  0.00     0.293 HD
ENDBRANCH   6  12
TORSDOF 3
ENDMDL
MODEL 7
REMARK VINA RESULT:    -3.758      3.782      8.028
REMARK INTER + INTRA:          -4.455
REMARK INTER:                  -4.320
REMARK INTRA:                  -0.135
REMARK UNBOUND:                -0.148
REMARK SMILES O=C([O-])C=Cc1ccc(O)cc1
REMARK SMILES IDX 6 1 7 2 12 3 8 4 11 5 9 6 5 7 4 8 2 9 1 10 3 11 10 12
REMARK H PARENT 10 13
REMARK Flexibility Score: inf
ROOT
ATOM      1  C   UNL     1      19.126   1.422  -2.927  1.00  0.00    -0.025 A 
ATOM      2  C   UNL     1      19.465   0.066  -3.078  1.00  0.00     0.012 A 
ATOM      3  C   UNL     1      20.159   2.364  -2.744  1.00  0.00     0.012 A 
ATOM      4  C   UNL     1      20.802  -0.339  -3.071  1.00  0.00     0.047 A 
ATOM      5  C   UNL     1      21.497   1.955  -2.737  1.00  0.00     0.047 A 
ATOM      6  C   UNL     1      21.821   0.603  -2.904  1.00  0.00     0.115 A 
ENDROOT
BRANCH   1   7
ATOM      7  C   UNL     1      17.691   1.800  -2.930  1.00  0.00     0.010 C 
ATOM      8  C   UNL     1      16.960   1.955  -1.817  1.00  0.00     0.025 C 
BRANCH   8   9
ATOM      9  C   UNL     1      15.540   2.343  -1.858  1.00  0.00     0.064 C 
ATOM     10  O   UNL     1      15.093   3.264  -1.125  1.00  0.00    -0.545 OA
ATOM     11  O   UNL     1      14.677   1.682  -2.724  1.00  0.00    -0.545 OA
ENDBRANCH   8   9
ENDBRANCH   1   7
BRANCH   6  12
ATOM     12  O   UNL     1      23.151   0.186  -2.901  1.00  0.00    -0.508 OA
ATOM     13  H   UNL     1      23.397  -0.797  -2.913  1.00  0.00     0.293 HD
ENDBRANCH   6  12
TORSDOF 3
ENDMDL
MODEL 8
REMARK VINA RESULT:    -3.747      1.934      2.810
REMARK INTER + INTRA:          -4.443
REMARK INTER:                  -4.298
REMARK INTRA:                  -0.145
REMARK UNBOUND:                -0.148
REMARK SMILES O=C([O-])C=Cc1ccc(O)cc1
REMARK SMILES IDX 6 1 7 2 12 3 8 4 11 5 9 6 5 7 4 8 2 9 1 10 3 11 10 12
REMARK H PARENT 10 13
REMARK Flexibility Score: inf
ROOT
ATOM      1  C   UNL     1      15.567   2.488  -1.943  1.00  0.00    -0.025 A 
ATOM      2  C   UNL     1      14.755   1.961  -2.962  1.00  0.00     0.012 A 
ATOM      3  C   UNL     1      15.039   3.490  -1.103  1.00  0.00     0.012 A 
ATOM      4  C   UNL     1      13.439   2.404  -3.125  1.00  0.00     0.047 A 
ATOM      5  C   UNL     1      13.722   3.931  -1.270  1.00  0.00     0.047 A 
ATOM      6  C   UNL     1      12.918   3.387  -2.279  1.00  0.00     0.115 A 
ENDROOT
BRANCH   1   7
ATOM      7  C   UNL     1      16.961   1.993  -1.818  1.00  0.00     0.010 C 
ATOM      8  C   UNL     1      17.747   1.712  -2.867  1.00  0.00     0.025 C 
BRANCH   8   9
ATOM      9  C   UNL     1      19.130   1.234  -2.705  1.00  0.00     0.064 C 
ATOM     10  O   UNL     1      19.409   0.007  -2.771  1.00  0.00    -0.545 OA
ATOM     11  O   UNL     1      20.147   2.152  -2.477  1.00  0.00    -0.545 OA
ENDBRANCH   8   9
ENDBRANCH   1   7
BRANCH   6  12
ATOM     12  O   UNL     1      11.605   3.818  -2.451  1.00  0.00    -0.508 OA
ATOM     13  H   UNL     1      11.082   4.240  -1.693  1.00  0.00     0.293 HD
ENDBRANCH   6  12
TORSDOF 3
ENDMDL
MODEL 9
REMARK VINA RESULT:    -3.594      1.952      5.782
REMARK INTER + INTRA:          -4.267
REMARK INTER:                  -4.129
REMARK INTRA:                  -0.138
REMARK UNBOUND:                -0.148
REMARK SMILES O=C([O-])C=Cc1ccc(O)cc1
REMARK SMILES IDX 6 1 7 2 12 3 8 4 11 5 9 6 5 7 4 8 2 9 1 10 3 11 10 12
REMARK H PARENT 10 13
REMARK Flexibility Score: inf
ROOT
ATOM      1  C   UNL     1      12.976   4.234  -1.703  1.00  0.00    -0.025 A 
ATOM      2  C   UNL     1      12.468   3.376  -2.694  1.00  0.00     0.012 A 
ATOM      3  C   UNL     1      14.233   3.945  -1.133  1.00  0.00     0.012 A 
ATOM      4  C   UNL     1      13.207   2.270  -3.125  1.00  0.00     0.047 A 
ATOM      5  C   UNL     1      14.968   2.836  -1.566  1.00  0.00     0.047 A 
ATOM      6  C   UNL     1      14.458   1.999  -2.566  1.00  0.00     0.115 A 
ENDROOT
BRANCH   1   7
ATOM      7  C   UNL     1      12.149   5.388  -1.272  1.00  0.00     0.010 C 
ATOM      8  C   UNL     1      11.835   6.419  -2.070  1.00  0.00     0.025 C 
BRANCH   8   9
ATOM      9  C   UNL     1      11.001   7.542  -1.611  1.00  0.00     0.064 C 
ATOM     10  O   UNL     1       9.819   7.359  -1.216  1.00  0.00    -0.545 OA
ATOM     11  O   UNL     1      11.528   8.827  -1.610  1.00  0.00    -0.545 OA
ENDBRANCH   8   9
ENDBRANCH   1   7
BRANCH   6  12
ATOM     12  O   UNL     1      15.184   0.894  -3.005  1.00  0.00    -0.508 OA
ATOM     13  H   UNL     1      15.822   0.958  -3.790  1.00  0.00     0.293 HD
ENDBRANCH   6  12
TORSDOF 3
ENDMDL
