MODEL 1
REMARK VINA RESULT:    -5.795      0.000      0.000
REMARK INTER + INTRA:          -6.133
REMARK INTER:                  -6.133
REMARK INTRA:                   0.000
REMARK UNBOUND:                 0.000
REMARK SMILES O=c1ccc2cc(O)c(O)cc2o1
REMARK SMILES IDX 4 1 3 2 2 3 1 4 13 5 12 6 11 7 9 8 7 9 6 10 5 11 8 12 10 14
REMARK H PARENT 8 13 10 15
REMARK Flexibility Score: inf
ROOT
ATOM      1  C   UNL     1     -35.677  -5.106 -13.364  1.00  0.00     0.019 A 
ATOM      2  C   UNL     1     -36.241  -4.069 -12.622  1.00  0.00     0.094 A 
ATOM      3  C   UNL     1     -37.632  -4.021 -12.475  1.00  0.00     0.336 A 
ATOM      4  O   UNL     1     -38.161  -3.093 -11.808  1.00  0.00    -0.246 OA
ATOM      5  O   UNL     1     -38.402  -4.950 -13.035  1.00  0.00    -0.423 OA
ATOM      6  C   UNL     1     -37.904  -5.955 -13.751  1.00  0.00     0.142 A 
ATOM      7  C   UNL     1     -38.762  -6.903 -14.317  1.00  0.00     0.098 A 
ATOM      8  C   UNL     1     -38.244  -7.965 -15.072  1.00  0.00     0.161 A 
ATOM      9  C   UNL     1     -36.854  -8.078 -15.262  1.00  0.00     0.158 A 
ATOM     10  C   UNL     1     -35.992  -7.130 -14.697  1.00  0.00     0.062 A 
ATOM     11  C   UNL     1     -36.510  -6.070 -13.942  1.00  0.00     0.022 A 
ENDROOT
BRANCH   9  12
ATOM     12  O   UNL     1     -36.312  -9.123 -16.009  1.00  0.00    -0.504 OA
ATOM     13  H   UNL     1     -36.395  -9.163 -17.018  1.00  0.00     0.293 HD
ENDBRANCH   9  12
BRANCH   8  14
ATOM     14  O   UNL     1     -39.103  -8.907 -15.635  1.00  0.00    -0.504 OA
ATOM     15  H   UNL     1     -39.972  -8.635 -16.080  1.00  0.00     0.293 HD
ENDBRANCH   8  14
TORSDOF 2
ENDMDL
MODEL 2
REMARK VINA RESULT:    -5.548      3.335      5.104
REMARK INTER + INTRA:          -5.872
REMARK INTER:                  -5.872
REMARK INTRA:                   0.000
REMARK UNBOUND:                 0.000
REMARK SMILES O=c1ccc2cc(O)c(O)cc2o1
REMARK SMILES IDX 4 1 3 2 2 3 1 4 13 5 12 6 11 7 9 8 7 9 6 10 5 11 8 12 10 14
REMARK H PARENT 8 13 10 15
REMARK Flexibility Score: inf
ROOT
ATOM      1  C   UNL     1     -36.139  -5.820 -14.121  1.00  0.00     0.019 A 
ATOM      2  C   UNL     1     -36.247  -7.209 -14.165  1.00  0.00     0.094 A 
ATOM      3  C   UNL     1     -36.212  -7.852 -15.407  1.00  0.00     0.336 A 
ATOM      4  O   UNL     1     -36.307  -9.106 -15.469  1.00  0.00    -0.246 OA
ATOM      5  O   UNL     1     -36.079  -7.147 -16.527  1.00  0.00    -0.423 OA
ATOM      6  C   UNL     1     -35.973  -5.821 -16.530  1.00  0.00     0.142 A 
ATOM      7  C   UNL     1     -35.836  -5.132 -17.739  1.00  0.00     0.098 A 
ATOM      8  C   UNL     1     -35.724  -3.734 -17.748  1.00  0.00     0.161 A 
ATOM      9  C   UNL     1     -35.750  -3.020 -16.536  1.00  0.00     0.158 A 
ATOM     10  C   UNL     1     -35.888  -3.707 -15.323  1.00  0.00     0.062 A 
ATOM     11  C   UNL     1     -36.000  -5.103 -15.315  1.00  0.00     0.022 A 
ENDROOT
BRANCH   9  12
ATOM     12  O   UNL     1     -35.642  -1.630 -16.516  1.00  0.00    -0.504 OA
ATOM     13  H   UNL     1     -36.055  -1.069 -15.780  1.00  0.00     0.293 HD
ENDBRANCH   9  12
BRANCH   8  14
ATOM     14  O   UNL     1     -35.587  -3.051 -18.956  1.00  0.00    -0.504 OA
ATOM     15  H   UNL     1     -36.240  -3.187 -19.720  1.00  0.00     0.293 HD
ENDBRANCH   8  14
TORSDOF 2
ENDMDL
MODEL 3
REMARK VINA RESULT:    -5.470      1.016      2.258
REMARK INTER + INTRA:          -5.790
REMARK INTER:                  -5.790
REMARK INTRA:                   0.000
REMARK UNBOUND:                 0.000
REMARK SMILES O=c1ccc2cc(O)c(O)cc2o1
REMARK SMILES IDX 4 1 3 2 2 3 1 4 13 5 12 6 11 7 9 8 7 9 6 10 5 11 8 12 10 14
REMARK H PARENT 8 13 10 15
REMARK Flexibility Score: inf
ROOT
ATOM      1  C   UNL     1     -39.195  -5.030 -12.990  1.00  0.00     0.019 A 
ATOM      2  C   UNL     1     -38.433  -4.002 -12.436  1.00  0.00     0.094 A 
ATOM      3  C   UNL     1     -37.048  -4.006 -12.629  1.00  0.00     0.336 A 
ATOM      4  O   UNL     1     -36.342  -3.086 -12.138  1.00  0.00    -0.246 OA
ATOM      5  O   UNL     1     -36.468  -4.977 -13.329  1.00  0.00    -0.423 OA
ATOM      6  C   UNL     1     -37.158  -5.976 -13.874  1.00  0.00     0.142 A 
ATOM      7  C   UNL     1     -36.495  -6.970 -14.600  1.00  0.00     0.098 A 
ATOM      8  C   UNL     1     -37.216  -8.026 -15.176  1.00  0.00     0.161 A 
ATOM      9  C   UNL     1     -38.613  -8.087 -15.024  1.00  0.00     0.158 A 
ATOM     10  C   UNL     1     -39.281  -7.092 -14.297  1.00  0.00     0.062 A 
ATOM     11  C   UNL     1     -38.560  -6.038 -13.721  1.00  0.00     0.022 A 
ENDROOT
BRANCH   9  12
ATOM     12  O   UNL     1     -39.355  -9.125 -15.585  1.00  0.00    -0.504 OA
ATOM     13  H   UNL     1     -38.968 -10.053 -15.716  1.00  0.00     0.293 HD
ENDBRANCH   9  12
BRANCH   8  14
ATOM     14  O   UNL     1     -36.551  -9.015 -15.899  1.00  0.00    -0.504 OA
ATOM     15  H   UNL     1     -35.554  -9.168 -15.796  1.00  0.00     0.293 HD
ENDBRANCH   8  14
TORSDOF 2
ENDMDL
MODEL 4
REMARK VINA RESULT:    -5.463      6.289      7.592
REMARK INTER + INTRA:          -5.782
REMARK INTER:                  -5.782
REMARK INTRA:                   0.000
REMARK UNBOUND:                 0.000
REMARK SMILES O=c1ccc2cc(O)c(O)cc2o1
REMARK SMILES IDX 4 1 3 2 2 3 1 4 13 5 12 6 11 7 9 8 7 9 6 10 5 11 8 12 10 14
REMARK H PARENT 8 13 10 15
REMARK Flexibility Score: inf
ROOT
ATOM      1  C   UNL     1     -35.293  -5.750 -21.270  1.00  0.00     0.019 A 
ATOM      2  C   UNL     1     -36.456  -5.837 -22.034  1.00  0.00     0.094 A 
ATOM      3  C   UNL     1     -37.557  -5.047 -21.684  1.00  0.00     0.336 A 
ATOM      4  O   UNL     1     -38.617  -5.110 -22.361  1.00  0.00    -0.246 OA
ATOM      5  O   UNL     1     -37.493  -4.228 -20.637  1.00  0.00    -0.423 OA
ATOM      6  C   UNL     1     -36.403  -4.116 -19.882  1.00  0.00     0.142 A 
ATOM      7  C   UNL     1     -36.393  -3.238 -18.794  1.00  0.00     0.098 A 
ATOM      8  C   UNL     1     -35.248  -3.115 -17.994  1.00  0.00     0.161 A 
ATOM      9  C   UNL     1     -34.102  -3.878 -18.287  1.00  0.00     0.158 A 
ATOM     10  C   UNL     1     -34.109  -4.758 -19.377  1.00  0.00     0.062 A 
ATOM     11  C   UNL     1     -35.253  -4.880 -20.175  1.00  0.00     0.022 A 
ENDROOT
BRANCH   9  12
ATOM     12  O   UNL     1     -32.950  -3.775 -17.509  1.00  0.00    -0.504 OA
ATOM     13  H   UNL     1     -32.983  -3.500 -16.534  1.00  0.00     0.293 HD
ENDBRANCH   9  12
BRANCH   8  14
ATOM     14  O   UNL     1     -35.243  -2.239 -16.910  1.00  0.00    -0.504 OA
ATOM     15  H   UNL     1     -35.710  -1.340 -16.951  1.00  0.00     0.293 HD
ENDBRANCH   8  14
TORSDOF 2
ENDMDL
MODEL 5
REMARK VINA RESULT:    -5.447      2.560      4.147
REMARK INTER + INTRA:          -5.766
REMARK INTER:                  -5.766
REMARK INTRA:                   0.000
REMARK UNBOUND:                 0.000
REMARK SMILES O=c1ccc2cc(O)c(O)cc2o1
REMARK SMILES IDX 4 1 3 2 2 3 1 4 13 5 12 6 11 7 9 8 7 9 6 10 5 11 8 12 10 14
REMARK H PARENT 8 13 10 15
REMARK Flexibility Score: inf
ROOT
ATOM      1  C   UNL     1     -36.692  -8.528 -15.446  1.00  0.00     0.019 A 
ATOM      2  C   UNL     1     -35.833  -8.902 -14.413  1.00  0.00     0.094 A 
ATOM      3  C   UNL     1     -35.370  -7.922 -13.529  1.00  0.00     0.336 A 
ATOM      4  O   UNL     1     -34.594  -8.239 -12.589  1.00  0.00    -0.246 OA
ATOM      5  O   UNL     1     -35.744  -6.654 -13.673  1.00  0.00    -0.423 OA
ATOM      6  C   UNL     1     -36.562  -6.255 -14.645  1.00  0.00     0.142 A 
ATOM      7  C   UNL     1     -36.921  -4.907 -14.747  1.00  0.00     0.098 A 
ATOM      8  C   UNL     1     -37.782  -4.480 -15.769  1.00  0.00     0.161 A 
ATOM      9  C   UNL     1     -38.287  -5.411 -16.695  1.00  0.00     0.158 A 
ATOM     10  C   UNL     1     -37.929  -6.762 -16.595  1.00  0.00     0.062 A 
ATOM     11  C   UNL     1     -37.069  -7.187 -15.574  1.00  0.00     0.022 A 
ENDROOT
BRANCH   9  12
ATOM     12  O   UNL     1     -39.144  -5.014 -17.721  1.00  0.00    -0.504 OA
ATOM     13  H   UNL     1     -39.090  -5.413 -18.651  1.00  0.00     0.293 HD
ENDBRANCH   9  12
BRANCH   8  14
ATOM     14  O   UNL     1     -38.137  -3.136 -15.868  1.00  0.00    -0.504 OA
ATOM     15  H   UNL     1     -37.748  -2.437 -15.245  1.00  0.00     0.293 HD
ENDBRANCH   8  14
TORSDOF 2
ENDMDL
MODEL 6
REMARK VINA RESULT:    -5.446      5.482      6.368
REMARK INTER + INTRA:          -5.765
REMARK INTER:                  -5.765
REMARK INTRA:                   0.000
REMARK UNBOUND:                 0.000
REMARK SMILES O=c1ccc2cc(O)c(O)cc2o1
REMARK SMILES IDX 4 1 3 2 2 3 1 4 13 5 12 6 11 7 9 8 7 9 6 10 5 11 8 12 10 14
REMARK H PARENT 8 13 10 15
REMARK Flexibility Score: inf
ROOT
ATOM      1  C   UNL     1     -35.243  -3.909 -16.434  1.00  0.00     0.019 A 
ATOM      2  C   UNL     1     -36.456  -4.535 -16.150  1.00  0.00     0.094 A 
ATOM      3  C   UNL     1     -37.092  -5.268 -17.157  1.00  0.00     0.336 A 
ATOM      4  O   UNL     1     -38.188  -5.841 -16.921  1.00  0.00    -0.246 OA
ATOM      5  O   UNL     1     -36.547  -5.363 -18.368  1.00  0.00    -0.423 OA
ATOM      6  C   UNL     1     -35.392  -4.781 -18.680  1.00  0.00     0.142 A 
ATOM      7  C   UNL     1     -34.868  -4.916 -19.969  1.00  0.00     0.098 A 
ATOM      8  C   UNL     1     -33.651  -4.305 -20.305  1.00  0.00     0.161 A 
ATOM      9  C   UNL     1     -32.954  -3.553 -19.342  1.00  0.00     0.158 A 
ATOM     10  C   UNL     1     -33.477  -3.416 -18.050  1.00  0.00     0.062 A 
ATOM     11  C   UNL     1     -34.693  -4.026 -17.715  1.00  0.00     0.022 A 
ENDROOT
BRANCH   9  12
ATOM     12  O   UNL     1     -31.743  -2.934 -19.649  1.00  0.00    -0.504 OA
ATOM     13  H   UNL     1     -31.028  -2.772 -18.948  1.00  0.00     0.293 HD
ENDBRANCH   9  12
BRANCH   8  14
ATOM     14  O   UNL     1     -33.131  -4.442 -21.592  1.00  0.00    -0.504 OA
ATOM     15  H   UNL     1     -33.735  -4.525 -22.402  1.00  0.00     0.293 HD
ENDBRANCH   8  14
TORSDOF 2
ENDMDL
MODEL 7
REMARK VINA RESULT:    -5.332      2.390      3.351
REMARK INTER + INTRA:          -5.644
REMARK INTER:                  -5.644
REMARK INTRA:                   0.000
REMARK UNBOUND:                 0.000
REMARK SMILES O=c1ccc2cc(O)c(O)cc2o1
REMARK SMILES IDX 4 1 3 2 2 3 1 4 13 5 12 6 11 7 9 8 7 9 6 10 5 11 8 12 10 14
REMARK H PARENT 8 13 10 15
REMARK Flexibility Score: inf
ROOT
ATOM      1  C   UNL     1     -36.459  -4.411 -14.465  1.00  0.00     0.019 A 
ATOM      2  C   UNL     1     -35.583  -3.942 -15.443  1.00  0.00     0.094 A 
ATOM      3  C   UNL     1     -35.458  -4.656 -16.640  1.00  0.00     0.336 A 
ATOM      4  O   UNL     1     -34.672  -4.249 -17.536  1.00  0.00    -0.246 OA
ATOM      5  O   UNL     1     -36.164  -5.766 -16.839  1.00  0.00    -0.423 OA
ATOM      6  C   UNL     1     -37.010  -6.248 -15.932  1.00  0.00     0.142 A 
ATOM      7  C   UNL     1     -37.726  -7.419 -16.196  1.00  0.00     0.098 A 
ATOM      8  C   UNL     1     -38.620  -7.933 -15.245  1.00  0.00     0.161 A 
ATOM      9  C   UNL     1     -38.797  -7.266 -14.018  1.00  0.00     0.158 A 
ATOM     10  C   UNL     1     -38.081  -6.092 -13.751  1.00  0.00     0.062 A 
ATOM     11  C   UNL     1     -37.189  -5.581 -14.701  1.00  0.00     0.022 A 
ENDROOT
BRANCH   9  12
ATOM     12  O   UNL     1     -39.679  -7.754 -13.055  1.00  0.00    -0.504 OA
ATOM     13  H   UNL     1     -40.205  -7.138 -12.446  1.00  0.00     0.293 HD
ENDBRANCH   9  12
BRANCH   8  14
ATOM     14  O   UNL     1     -39.331  -9.101 -15.513  1.00  0.00    -0.504 OA
ATOM     15  H   UNL     1     -39.963  -9.169 -16.302  1.00  0.00     0.293 HD
ENDBRANCH   8  14
TORSDOF 2
ENDMDL
MODEL 8
REMARK VINA RESULT:    -5.327      2.423      3.409
REMARK INTER + INTRA:          -5.639
REMARK INTER:                  -5.639
REMARK INTRA:                   0.000
REMARK UNBOUND:                 0.000
REMARK SMILES O=c1ccc2cc(O)c(O)cc2o1
REMARK SMILES IDX 4 1 3 2 2 3 1 4 13 5 12 6 11 7 9 8 7 9 6 10 5 11 8 12 10 14
REMARK H PARENT 8 13 10 15
REMARK Flexibility Score: inf
ROOT
ATOM      1  C   UNL     1     -36.547  -6.998 -16.470  1.00  0.00     0.019 A 
ATOM      2  C   UNL     1     -35.951  -5.828 -16.939  1.00  0.00     0.094 A 
ATOM      3  C   UNL     1     -36.288  -4.610 -16.341  1.00  0.00     0.336 A 
ATOM      4  O   UNL     1     -35.761  -3.541 -16.749  1.00  0.00    -0.246 OA
ATOM      5  O   UNL     1     -37.165  -4.570 -15.341  1.00  0.00    -0.423 OA
ATOM      6  C   UNL     1     -37.757  -5.662 -14.864  1.00  0.00     0.142 A 
ATOM      7  C   UNL     1     -38.671  -5.560 -13.810  1.00  0.00     0.098 A 
ATOM      8  C   UNL     1     -39.297  -6.707 -13.303  1.00  0.00     0.161 A 
ATOM      9  C   UNL     1     -39.006  -7.968 -13.856  1.00  0.00     0.158 A 
ATOM     10  C   UNL     1     -38.091  -8.074 -14.911  1.00  0.00     0.062 A 
ATOM     11  C   UNL     1     -37.466  -6.927 -15.417  1.00  0.00     0.022 A 
ENDROOT
BRANCH   9  12
ATOM     12  O   UNL     1     -39.615  -9.125 -13.372  1.00  0.00    -0.504 OA
ATOM     13  H   UNL     1     -39.711  -9.307 -12.379  1.00  0.00     0.293 HD
ENDBRANCH   9  12
BRANCH   8  14
ATOM     14  O   UNL     1     -40.208  -6.600 -12.253  1.00  0.00    -0.504 OA
ATOM     15  H   UNL     1     -40.169  -5.833 -11.593  1.00  0.00     0.293 HD
ENDBRANCH   8  14
TORSDOF 2
ENDMDL
MODEL 9
REMARK VINA RESULT:    -5.293      2.455      4.169
REMARK INTER + INTRA:          -5.603
REMARK INTER:                  -5.603
REMARK INTRA:                   0.000
REMARK UNBOUND:                 0.000
REMARK SMILES O=c1ccc2cc(O)c(O)cc2o1
REMARK SMILES IDX 4 1 3 2 2 3 1 4 13 5 12 6 11 7 9 8 7 9 6 10 5 11 8 12 10 14
REMARK H PARENT 8 13 10 15
REMARK Flexibility Score: inf
ROOT
ATOM      1  C   UNL     1     -37.565  -8.213 -15.973  1.00  0.00     0.019 A 
ATOM      2  C   UNL     1     -38.553  -8.654 -15.094  1.00  0.00     0.094 A 
ATOM      3  C   UNL     1     -39.030  -7.776 -14.115  1.00  0.00     0.336 A 
ATOM      4  O   UNL     1     -39.923  -8.155 -13.311  1.00  0.00    -0.246 OA
ATOM      5  O   UNL     1     -38.546  -6.540 -14.024  1.00  0.00    -0.423 OA
ATOM      6  C   UNL     1     -37.603  -6.080 -14.843  1.00  0.00     0.142 A 
ATOM      7  C   UNL     1     -37.132  -4.771 -14.700  1.00  0.00     0.098 A 
ATOM      8  C   UNL     1     -36.138  -4.280 -15.559  1.00  0.00     0.161 A 
ATOM      9  C   UNL     1     -35.611  -5.107 -16.569  1.00  0.00     0.158 A 
ATOM     10  C   UNL     1     -36.081  -6.418 -16.713  1.00  0.00     0.062 A 
ATOM     11  C   UNL     1     -37.074  -6.908 -15.855  1.00  0.00     0.022 A 
ENDROOT
BRANCH   9  12
ATOM     12  O   UNL     1     -34.622  -4.644 -17.436  1.00  0.00    -0.504 OA
ATOM     13  H   UNL     1     -34.781  -3.868 -18.068  1.00  0.00     0.293 HD
ENDBRANCH   9  12
BRANCH   8  14
ATOM     14  O   UNL     1     -35.671  -2.974 -15.414  1.00  0.00    -0.504 OA
ATOM     15  H   UNL     1     -34.821  -2.660 -15.868  1.00  0.00     0.293 HD
ENDBRANCH   8  14
TORSDOF 2
ENDMDL
