MODEL 1
REMARK VINA RESULT:    -3.813      0.000      0.000
REMARK INTER + INTRA:          -6.534
REMARK INTER:                  -6.041
REMARK INTRA:                  -0.493
REMARK UNBOUND:                -0.493
REMARK SMILES CCCCCCCCCCCC(=O)[O-]
REMARK SMILES IDX 7 1 8 2 9 3 10 4 11 5 12 6 13 7 14 8 6 9 5 10 4 11 3 12 2 13
REMARK SMILES IDX 1 14
REMARK H PARENT
REMARK Flexibility Score: inf
ROOT
ATOM      1  C   UNL     1      33.346  24.762  64.671  1.00  0.00     0.000 C 
ENDROOT
BRANCH   1   2
ATOM      2  C   UNL     1      34.466  25.140  65.656  1.00  0.00     0.000 C 
BRANCH   2   3
ATOM      3  C   UNL     1      35.632  25.872  64.971  1.00  0.00     0.000 C 
BRANCH   3   4
ATOM      4  C   UNL     1      36.518  26.639  65.968  1.00  0.00     0.006 C 
BRANCH   4   5
ATOM      5  C   UNL     1      36.960  28.002  65.418  1.00  0.00     0.053 C 
BRANCH   5   6
ATOM      6  C   UNL     1      38.301  28.406  65.952  1.00  0.00     0.041 C 
ATOM      7  O   UNL     1      38.602  29.624  66.055  1.00  0.00    -0.550 OA
ATOM      8  O   UNL     1      39.230  27.435  66.304  1.00  0.00    -0.550 OA
ENDBRANCH   5   6
ENDBRANCH   4   5
ENDBRANCH   3   4
ENDBRANCH   2   3
ENDBRANCH   1   2
BRANCH   1   9
ATOM      9  C   UNL     1      32.348  23.757  65.272  1.00  0.00     0.000 C 
BRANCH   9  10
ATOM     10  C   UNL     1      31.459  24.388  66.357  1.00  0.00    -0.000 C 
BRANCH  10  11
ATOM     11  C   UNL     1      29.986  24.514  65.926  1.00  0.00    -0.000 C 
BRANCH  11  12
ATOM     12  C   UNL     1      29.429  23.310  65.144  1.00  0.00    -0.000 C 
BRANCH  12  13
ATOM     13  C   UNL     1      28.898  23.692  63.755  1.00  0.00    -0.003 C 
ATOM     14  C   UNL     1      29.874  23.274  62.660  1.00  0.00     0.004 C 
ENDBRANCH  12  13
ENDBRANCH  11  12
ENDBRANCH  10  11
ENDBRANCH   9  10
ENDBRANCH   1   9
TORSDOF 10
ENDMDL
MODEL 2
REMARK VINA RESULT:    -3.727     12.623     13.916
REMARK INTER + INTRA:          -6.398
REMARK INTER:                  -5.584
REMARK INTRA:                  -0.814
REMARK UNBOUND:                -0.493
REMARK SMILES CCCCCCCCCCCC(=O)[O-]
REMARK SMILES IDX 7 1 8 2 9 3 10 4 11 5 12 6 13 7 14 8 6 9 5 10 4 11 3 12 2 13
REMARK SMILES IDX 1 14
REMARK H PARENT
REMARK Flexibility Score: inf
ROOT
ATOM      1  C   UNL     1      39.093  23.056  53.764  1.00  0.00     0.000 C 
ENDROOT
BRANCH   1   2
ATOM      2  C   UNL     1      38.311  23.202  52.447  1.00  0.00     0.000 C 
BRANCH   2   3
ATOM      3  C   UNL     1      36.950  23.892  52.642  1.00  0.00     0.000 C 
BRANCH   3   4
ATOM      4  C   UNL     1      35.939  23.532  51.540  1.00  0.00     0.006 C 
BRANCH   4   5
ATOM      5  C   UNL     1      36.617  22.895  50.319  1.00  0.00     0.053 C 
BRANCH   5   6
ATOM      6  C   UNL     1      35.815  23.101  49.070  1.00  0.00     0.041 C 
ATOM      7  O   UNL     1      34.571  23.287  49.139  1.00  0.00    -0.550 OA
ATOM      8  O   UNL     1      36.436  23.053  47.829  1.00  0.00    -0.550 OA
ENDBRANCH   5   6
ENDBRANCH   4   5
ENDBRANCH   3   4
ENDBRANCH   2   3
ENDBRANCH   1   2
BRANCH   1   9
ATOM      9  C   UNL     1      38.169  22.888  54.982  1.00  0.00     0.000 C 
BRANCH   9  10
ATOM     10  C   UNL     1      38.331  24.026  56.004  1.00  0.00    -0.000 C 
BRANCH  10  11
ATOM     11  C   UNL     1      37.050  24.286  56.819  1.00  0.00    -0.000 C 
BRANCH  11  12
ATOM     12  C   UNL     1      35.810  23.498  56.356  1.00  0.00    -0.000 C 
BRANCH  12  13
ATOM     13  C   UNL     1      34.813  24.359  55.568  1.00  0.00    -0.003 C 
ATOM     14  C   UNL     1      33.477  24.457  56.298  1.00  0.00     0.004 C 
ENDBRANCH  12  13
ENDBRANCH  11  12
ENDBRANCH  10  11
ENDBRANCH   9  10
ENDBRANCH   1   9
TORSDOF 10
ENDMDL
MODEL 3
REMARK VINA RESULT:    -3.344     10.708     12.579
REMARK INTER + INTRA:          -5.793
REMARK INTER:                  -5.470
REMARK INTRA:                  -0.323
REMARK UNBOUND:                -0.493
REMARK SMILES CCCCCCCCCCCC(=O)[O-]
REMARK SMILES IDX 7 1 8 2 9 3 10 4 11 5 12 6 13 7 14 8 6 9 5 10 4 11 3 12 2 13
REMARK SMILES IDX 1 14
REMARK H PARENT
REMARK Flexibility Score: inf
ROOT
ATOM      1  C   UNL     1      36.678  23.490  51.926  1.00  0.00     0.000 C 
ENDROOT
BRANCH   1   2
ATOM      2  C   UNL     1      35.865  24.426  52.836  1.00  0.00     0.000 C 
BRANCH   2   3
ATOM      3  C   UNL     1      35.280  23.699  54.058  1.00  0.00     0.000 C 
BRANCH   3   4
ATOM      4  C   UNL     1      35.646  24.384  55.386  1.00  0.00     0.006 C 
BRANCH   4   5
ATOM      5  C   UNL     1      34.915  23.755  56.581  1.00  0.00     0.053 C 
BRANCH   5   6
ATOM      6  C   UNL     1      33.525  24.295  56.727  1.00  0.00     0.041 C 
ATOM      7  O   UNL     1      33.116  25.207  55.960  1.00  0.00    -0.550 OA
ATOM      8  O   UNL     1      32.694  23.816  57.731  1.00  0.00    -0.550 OA
ENDBRANCH   5   6
ENDBRANCH   4   5
ENDBRANCH   3   4
ENDBRANCH   2   3
ENDBRANCH   1   2
BRANCH   1   9
ATOM      9  C   UNL     1      38.194  23.617  52.155  1.00  0.00     0.000 C 
BRANCH   9  10
ATOM     10  C   UNL     1      38.663  22.875  53.418  1.00  0.00    -0.000 C 
BRANCH  10  11
ATOM     11  C   UNL     1      38.785  23.798  54.644  1.00  0.00    -0.000 C 
BRANCH  11  12
ATOM     12  C   UNL     1      38.821  23.077  56.004  1.00  0.00    -0.000 C 
BRANCH  12  13
ATOM     13  C   UNL     1      40.215  23.081  56.647  1.00  0.00    -0.003 C 
ATOM     14  C   UNL     1      40.480  24.396  57.375  1.00  0.00     0.004 C 
ENDBRANCH  12  13
ENDBRANCH  11  12
ENDBRANCH  10  11
ENDBRANCH   9  10
ENDBRANCH   1   9
TORSDOF 10
ENDMDL
MODEL 4
REMARK VINA RESULT:    -3.167     11.545     12.932
REMARK INTER + INTRA:          -5.512
REMARK INTER:                  -4.679
REMARK INTRA:                  -0.833
REMARK UNBOUND:                -0.493
REMARK SMILES CCCCCCCCCCCC(=O)[O-]
REMARK SMILES IDX 7 1 8 2 9 3 10 4 11 5 12 6 13 7 14 8 6 9 5 10 4 11 3 12 2 13
REMARK SMILES IDX 1 14
REMARK H PARENT
REMARK Flexibility Score: inf
ROOT
ATOM      1  C   UNL     1      38.385  24.238  54.474  1.00  0.00     0.000 C 
ENDROOT
BRANCH   1   2
ATOM      2  C   UNL     1      38.038  23.996  55.953  1.00  0.00     0.000 C 
BRANCH   2   3
ATOM      3  C   UNL     1      36.905  22.972  56.134  1.00  0.00     0.000 C 
BRANCH   3   4
ATOM      4  C   UNL     1      35.705  23.247  55.212  1.00  0.00     0.006 C 
BRANCH   4   5
ATOM      5  C   UNL     1      35.030  24.589  55.526  1.00  0.00     0.053 C 
BRANCH   5   6
ATOM      6  C   UNL     1      33.768  24.404  56.314  1.00  0.00     0.041 C 
ATOM      7  O   UNL     1      33.798  23.820  57.429  1.00  0.00    -0.550 OA
ATOM      8  O   UNL     1      32.556  24.845  55.799  1.00  0.00    -0.550 OA
ENDBRANCH   5   6
ENDBRANCH   4   5
ENDBRANCH   3   4
ENDBRANCH   2   3
ENDBRANCH   1   2
BRANCH   1   9
ATOM      9  C   UNL     1      39.033  23.010  53.813  1.00  0.00     0.000 C 
BRANCH   9  10
ATOM     10  C   UNL     1      38.659  22.875  52.327  1.00  0.00    -0.000 C 
BRANCH  10  11
ATOM     11  C   UNL     1      37.756  24.020  51.831  1.00  0.00    -0.000 C 
BRANCH  11  12
ATOM     12  C   UNL     1      36.292  23.627  51.557  1.00  0.00    -0.000 C 
BRANCH  12  13
ATOM     13  C   UNL     1      36.098  22.956  50.191  1.00  0.00    -0.003 C 
ATOM     14  C   UNL     1      34.817  23.439  49.519  1.00  0.00     0.004 C 
ENDBRANCH  12  13
ENDBRANCH  11  12
ENDBRANCH  10  11
ENDBRANCH   9  10
ENDBRANCH   1   9
TORSDOF 10
ENDMDL
MODEL 5
REMARK VINA RESULT:    -3.004     15.034     17.305
REMARK INTER + INTRA:          -5.253
REMARK INTER:                  -4.316
REMARK INTRA:                  -0.937
REMARK UNBOUND:                -0.493
REMARK SMILES CCCCCCCCCCCC(=O)[O-]
REMARK SMILES IDX 7 1 8 2 9 3 10 4 11 5 12 6 13 7 14 8 6 9 5 10 4 11 3 12 2 13
REMARK SMILES IDX 1 14
REMARK H PARENT
REMARK Flexibility Score: inf
ROOT
ATOM      1  C   UNL     1      42.515  41.149  66.049  1.00  0.00     0.000 C 
ENDROOT
BRANCH   1   2
ATOM      2  C   UNL     1      42.554  42.592  66.581  1.00  0.00     0.000 C 
BRANCH   2   3
ATOM      3  C   UNL     1      41.174  43.087  67.046  1.00  0.00     0.000 C 
BRANCH   3   4
ATOM      4  C   UNL     1      40.016  42.416  66.286  1.00  0.00     0.006 C 
BRANCH   4   5
ATOM      5  C   UNL     1      38.646  42.910  66.768  1.00  0.00     0.053 C 
BRANCH   5   6
ATOM      6  C   UNL     1      37.553  42.528  65.816  1.00  0.00     0.041 C 
ATOM      7  O   UNL     1      37.806  42.365  64.593  1.00  0.00    -0.550 OA
ATOM      8  O   UNL     1      36.250  42.385  66.274  1.00  0.00    -0.550 OA
ENDBRANCH   5   6
ENDBRANCH   4   5
ENDBRANCH   3   4
ENDBRANCH   2   3
ENDBRANCH   1   2
BRANCH   1   9
ATOM      9  C   UNL     1      42.888  40.115  67.125  1.00  0.00     0.000 C 
BRANCH   9  10
ATOM     10  C   UNL     1      42.876  38.674  66.586  1.00  0.00    -0.000 C 
BRANCH  10  11
ATOM     11  C   UNL     1      41.617  37.891  67.002  1.00  0.00    -0.000 C 
BRANCH  11  12
ATOM     12  C   UNL     1      40.339  38.243  66.217  1.00  0.00    -0.000 C 
BRANCH  12  13
ATOM     13  C   UNL     1      39.206  38.756  67.116  1.00  0.00    -0.003 C 
ATOM     14  C   UNL     1      37.980  39.137  66.291  1.00  0.00     0.004 C 
ENDBRANCH  12  13
ENDBRANCH  11  12
ENDBRANCH  10  11
ENDBRANCH   9  10
ENDBRANCH   1   9
TORSDOF 10
ENDMDL
MODEL 6
REMARK VINA RESULT:    -2.966     15.219     17.726
REMARK INTER + INTRA:          -5.194
REMARK INTER:                  -4.445
REMARK INTRA:                  -0.749
REMARK UNBOUND:                -0.493
REMARK SMILES CCCCCCCCCCCC(=O)[O-]
REMARK SMILES IDX 7 1 8 2 9 3 10 4 11 5 12 6 13 7 14 8 6 9 5 10 4 11 3 12 2 13
REMARK SMILES IDX 1 14
REMARK H PARENT
REMARK Flexibility Score: inf
ROOT
ATOM      1  C   UNL     1      40.223  38.375  65.150  1.00  0.00     0.000 C 
ENDROOT
BRANCH   1   2
ATOM      2  C   UNL     1      39.306  39.607  65.242  1.00  0.00     0.000 C 
BRANCH   2   3
ATOM      3  C   UNL     1      38.006  39.319  66.012  1.00  0.00     0.000 C 
BRANCH   3   4
ATOM      4  C   UNL     1      37.317  40.601  66.511  1.00  0.00     0.006 C 
BRANCH   4   5
ATOM      5  C   UNL     1      37.845  41.855  65.802  1.00  0.00     0.053 C 
BRANCH   5   6
ATOM      6  C   UNL     1      36.778  42.521  64.987  1.00  0.00     0.041 C 
ATOM      7  O   UNL     1      36.979  42.781  63.771  1.00  0.00    -0.550 OA
ATOM      8  O   UNL     1      35.577  42.885  65.580  1.00  0.00    -0.550 OA
ENDBRANCH   5   6
ENDBRANCH   4   5
ENDBRANCH   3   4
ENDBRANCH   2   3
ENDBRANCH   1   2
BRANCH   1   9
ATOM      9  C   UNL     1      41.283  38.345  66.263  1.00  0.00     0.000 C 
BRANCH   9  10
ATOM     10  C   UNL     1      42.359  39.430  66.079  1.00  0.00    -0.000 C 
BRANCH  10  11
ATOM     11  C   UNL     1      42.189  40.612  67.052  1.00  0.00    -0.000 C 
BRANCH  11  12
ATOM     12  C   UNL     1      41.747  41.936  66.400  1.00  0.00    -0.000 C 
BRANCH  12  13
ATOM     13  C   UNL     1      42.632  43.125  66.798  1.00  0.00    -0.003 C 
ATOM     14  C   UNL     1      44.050  42.668  67.125  1.00  0.00     0.004 C 
ENDBRANCH  12  13
ENDBRANCH  11  12
ENDBRANCH  10  11
ENDBRANCH   9  10
ENDBRANCH   1   9
TORSDOF 10
ENDMDL
MODEL 7
REMARK VINA RESULT:    -2.827     10.314     11.395
REMARK INTER + INTRA:          -4.974
REMARK INTER:                  -4.658
REMARK INTRA:                  -0.316
REMARK UNBOUND:                -0.493
REMARK SMILES CCCCCCCCCCCC(=O)[O-]
REMARK SMILES IDX 7 1 8 2 9 3 10 4 11 5 12 6 13 7 14 8 6 9 5 10 4 11 3 12 2 13
REMARK SMILES IDX 1 14
REMARK H PARENT
REMARK Flexibility Score: inf
ROOT
ATOM      1  C   UNL     1      37.339  24.689  52.876  1.00  0.00     0.000 C 
ENDROOT
BRANCH   1   2
ATOM      2  C   UNL     1      38.256  23.529  52.455  1.00  0.00     0.000 C 
BRANCH   2   3
ATOM      3  C   UNL     1      38.968  22.875  53.652  1.00  0.00     0.000 C 
BRANCH   3   4
ATOM      4  C   UNL     1      38.766  23.657  54.961  1.00  0.00     0.006 C 
BRANCH   4   5
ATOM      5  C   UNL     1      39.538  23.034  56.132  1.00  0.00     0.053 C 
BRANCH   5   6
ATOM      6  C   UNL     1      40.142  24.082  57.017  1.00  0.00     0.041 C 
ATOM      7  O   UNL     1      41.363  24.027  57.322  1.00  0.00    -0.550 OA
ATOM      8  O   UNL     1      39.349  25.098  57.533  1.00  0.00    -0.550 OA
ENDBRANCH   5   6
ENDBRANCH   4   5
ENDBRANCH   3   4
ENDBRANCH   2   3
ENDBRANCH   1   2
BRANCH   1   9
ATOM      9  C   UNL     1      35.857  24.280  52.926  1.00  0.00     0.000 C 
BRANCH   9  10
ATOM     10  C   UNL     1      35.650  22.894  53.561  1.00  0.00    -0.000 C 
BRANCH  10  11
ATOM     11  C   UNL     1      35.287  22.968  55.056  1.00  0.00    -0.000 C 
BRANCH  11  12
ATOM     12  C   UNL     1      35.717  24.263  55.769  1.00  0.00    -0.000 C 
BRANCH  12  13
ATOM     13  C   UNL     1      34.533  25.172  56.127  1.00  0.00    -0.003 C 
ATOM     14  C   UNL     1      33.247  24.364  56.277  1.00  0.00     0.004 C 
ENDBRANCH  12  13
ENDBRANCH  11  12
ENDBRANCH  10  11
ENDBRANCH   9  10
ENDBRANCH   1   9
TORSDOF 10
ENDMDL
MODEL 8
REMARK VINA RESULT:    -2.641     12.332     13.892
REMARK INTER + INTRA:          -4.679
REMARK INTER:                  -4.282
REMARK INTRA:                  -0.397
REMARK UNBOUND:                -0.493
REMARK SMILES CCCCCCCCCCCC(=O)[O-]
REMARK SMILES IDX 7 1 8 2 9 3 10 4 11 5 12 6 13 7 14 8 6 9 5 10 4 11 3 12 2 13
REMARK SMILES IDX 1 14
REMARK H PARENT
REMARK Flexibility Score: inf
ROOT
ATOM      1  C   UNL     1      35.254  24.807  54.392  1.00  0.00     0.000 C 
ENDROOT
BRANCH   1   2
ATOM      2  C   UNL     1      36.617  25.051  53.722  1.00  0.00     0.000 C 
BRANCH   2   3
ATOM      3  C   UNL     1      37.101  23.838  52.909  1.00  0.00     0.000 C 
BRANCH   3   4
ATOM      4  C   UNL     1      36.090  23.404  51.833  1.00  0.00     0.006 C 
BRANCH   4   5
ATOM      5  C   UNL     1      36.782  22.939  50.545  1.00  0.00     0.053 C 
BRANCH   5   6
ATOM      6  C   UNL     1      35.887  23.084  49.352  1.00  0.00     0.041 C 
ATOM      7  O   UNL     1      34.667  23.358  49.504  1.00  0.00    -0.550 OA
ATOM      8  O   UNL     1      36.393  22.884  48.074  1.00  0.00    -0.550 OA
ENDBRANCH   5   6
ENDBRANCH   4   5
ENDBRANCH   3   4
ENDBRANCH   2   3
ENDBRANCH   1   2
BRANCH   1   9
ATOM      9  C   UNL     1      35.240  23.532  55.252  1.00  0.00     0.000 C 
BRANCH   9  10
ATOM     10  C   UNL     1      35.822  23.763  56.657  1.00  0.00    -0.000 C 
BRANCH  10  11
ATOM     11  C   UNL     1      37.309  24.165  56.630  1.00  0.00    -0.000 C 
BRANCH  11  12
ATOM     12  C   UNL     1      38.298  22.996  56.465  1.00  0.00    -0.000 C 
BRANCH  12  13
ATOM     13  C   UNL     1      39.685  23.448  55.987  1.00  0.00    -0.003 C 
ATOM     14  C   UNL     1      40.453  24.141  57.109  1.00  0.00     0.004 C 
ENDBRANCH  12  13
ENDBRANCH  11  12
ENDBRANCH  10  11
ENDBRANCH   9  10
ENDBRANCH   1   9
TORSDOF 10
ENDMDL
MODEL 9
REMARK VINA RESULT:    -2.633     14.970     16.726
REMARK INTER + INTRA:          -4.665
REMARK INTER:                  -4.248
REMARK INTRA:                  -0.417
REMARK UNBOUND:                -0.493
REMARK SMILES CCCCCCCCCCCC(=O)[O-]
REMARK SMILES IDX 7 1 8 2 9 3 10 4 11 5 12 6 13 7 14 8 6 9 5 10 4 11 3 12 2 13
REMARK SMILES IDX 1 14
REMARK H PARENT
REMARK Flexibility Score: inf
ROOT
ATOM      1  C   UNL     1      38.846  39.595  65.939  1.00  0.00     0.000 C 
ENDROOT
BRANCH   1   2
ATOM      2  C   UNL     1      39.758  38.563  66.624  1.00  0.00     0.000 C 
BRANCH   2   3
ATOM      3  C   UNL     1      41.246  38.945  66.542  1.00  0.00     0.000 C 
BRANCH   3   4
ATOM      4  C   UNL     1      41.517  40.056  65.512  1.00  0.00     0.006 C 
BRANCH   4   5
ATOM      5  C   UNL     1      41.477  41.453  66.146  1.00  0.00     0.053 C 
BRANCH   5   6
ATOM      6  C   UNL     1      42.781  41.804  66.796  1.00  0.00     0.041 C 
ATOM      7  O   UNL     1      43.614  40.901  67.074  1.00  0.00    -0.550 OA
ATOM      8  O   UNL     1      43.061  43.124  67.125  1.00  0.00    -0.550 OA
ENDBRANCH   5   6
ENDBRANCH   4   5
ENDBRANCH   3   4
ENDBRANCH   2   3
ENDBRANCH   1   2
BRANCH   1   9
ATOM      9  C   UNL     1      37.360  39.383  66.277  1.00  0.00     0.000 C 
BRANCH   9  10
ATOM     10  C   UNL     1      36.687  40.664  66.800  1.00  0.00    -0.000 C 
BRANCH  10  11
ATOM     11  C   UNL     1      37.649  41.865  66.857  1.00  0.00    -0.000 C 
BRANCH  11  12
ATOM     12  C   UNL     1      37.324  43.009  65.878  1.00  0.00    -0.000 C 
BRANCH  12  13
ATOM     13  C   UNL     1      37.140  42.527  64.433  1.00  0.00    -0.003 C 
ATOM     14  C   UNL     1      35.877  43.117  63.813  1.00  0.00     0.004 C 
ENDBRANCH  12  13
ENDBRANCH  11  12
ENDBRANCH  10  11
ENDBRANCH   9  10
ENDBRANCH   1   9
TORSDOF 10
ENDMDL
