MODEL 1
REMARK VINA RESULT:    -4.403      0.000      0.000
REMARK INTER + INTRA:          -9.444
REMARK INTER:                  -7.492
REMARK INTRA:                  -1.952
REMARK UNBOUND:                -1.952
REMARK SMILES CCCCCCCCCCCCCC(=O)[O-]
REMARK SMILES IDX 8 1 9 2 10 3 11 4 12 5 13 6 14 7 15 8 16 9 7 10 6 11 5 12
REMARK SMILES IDX 4 13 3 14 2 15 1 16
REMARK H PARENT
REMARK Flexibility Score: inf
ROOT
ATOM      1  C   UNL     1      18.079  17.343  32.321  1.00  0.00     0.000 C 
ENDROOT
BRANCH   1   2
ATOM      2  C   UNL     1      19.123  16.486  33.046  1.00  0.00     0.000 C 
BRANCH   2   3
ATOM      3  C   UNL     1      18.506  15.774  34.256  1.00  0.00     0.000 C 
BRANCH   3   4
ATOM      4  C   UNL     1      19.072  16.332  35.570  1.00  0.00     0.000 C 
BRANCH   4   5
ATOM      5  C   UNL     1      18.052  17.177  36.356  1.00  0.00     0.006 C 
BRANCH   5   6
ATOM      6  C   UNL     1      16.584  16.823  36.058  1.00  0.00     0.053 C 
BRANCH   6   7
ATOM      7  C   UNL     1      15.945  16.031  37.158  1.00  0.00     0.041 C 
ATOM      8  O   UNL     1      15.280  16.611  38.056  1.00  0.00    -0.550 OA
ATOM      9  O   UNL     1      16.110  14.652  37.209  1.00  0.00    -0.550 OA
ENDBRANCH   6   7
ENDBRANCH   5   6
ENDBRANCH   4   5
ENDBRANCH   3   4
ENDBRANCH   2   3
ENDBRANCH   1   2
BRANCH   1  10
ATOM     10  C   UNL     1      18.425  18.837  32.423  1.00  0.00     0.000 C 
BRANCH  10  11
ATOM     11  C   UNL     1      17.854  19.491  33.690  1.00  0.00    -0.000 C 
BRANCH  11  12
ATOM     12  C   UNL     1      18.902  20.315  34.455  1.00  0.00    -0.000 C 
BRANCH  12  13
ATOM     13  C   UNL     1      20.300  19.677  34.425  1.00  0.00    -0.000 C 
BRANCH  13  14
ATOM     14  C   UNL     1      20.963  19.574  35.815  1.00  0.00    -0.000 C 
BRANCH  14  15
ATOM     15  C   UNL     1      20.141  20.280  36.905  1.00  0.00    -0.003 C 
ATOM     16  C   UNL     1      20.913  20.348  38.219  1.00  0.00     0.004 C 
ENDBRANCH  14  15
ENDBRANCH  13  14
ENDBRANCH  12  13
ENDBRANCH  11  12
ENDBRANCH  10  11
ENDBRANCH   1  10
TORSDOF 12
ENDMDL
MODEL 2
REMARK VINA RESULT:    -4.260      3.390      4.732
REMARK INTER + INTRA:          -9.200
REMARK INTER:                  -7.239
REMARK INTRA:                  -1.961
REMARK UNBOUND:                -1.952
REMARK SMILES CCCCCCCCCCCCCC(=O)[O-]
REMARK SMILES IDX 8 1 9 2 10 3 11 4 12 5 13 6 14 7 15 8 16 9 7 10 6 11 5 12
REMARK SMILES IDX 4 13 3 14 2 15 1 16
REMARK H PARENT
REMARK Flexibility Score: inf
ROOT
ATOM      1  C   UNL     1      17.329  16.929  31.752  1.00  0.00     0.000 C 
ENDROOT
BRANCH   1   2
ATOM      2  C   UNL     1      16.603  18.230  31.388  1.00  0.00     0.000 C 
BRANCH   2   3
ATOM      3  C   UNL     1      15.734  18.720  32.552  1.00  0.00     0.000 C 
BRANCH   3   4
ATOM      4  C   UNL     1      14.317  19.069  32.072  1.00  0.00     0.000 C 
BRANCH   4   5
ATOM      5  C   UNL     1      13.881  18.260  30.837  1.00  0.00     0.006 C 
BRANCH   5   6
ATOM      6  C   UNL     1      12.903  17.114  31.153  1.00  0.00     0.053 C 
BRANCH   6   7
ATOM      7  C   UNL     1      13.601  15.817  31.429  1.00  0.00     0.041 C 
ATOM      8  O   UNL     1      14.287  15.260  30.532  1.00  0.00    -0.550 OA
ATOM      9  O   UNL     1      13.466  15.204  32.668  1.00  0.00    -0.550 OA
ENDBRANCH   6   7
ENDBRANCH   5   6
ENDBRANCH   4   5
ENDBRANCH   3   4
ENDBRANCH   2   3
ENDBRANCH   1   2
BRANCH   1  10
ATOM     10  C   UNL     1      16.997  16.497  33.189  1.00  0.00     0.000 C 
BRANCH  10  11
ATOM     11  C   UNL     1      18.244  16.086  33.986  1.00  0.00    -0.000 C 
BRANCH  11  12
ATOM     12  C   UNL     1      19.520  16.787  33.493  1.00  0.00    -0.000 C 
BRANCH  12  13
ATOM     13  C   UNL     1      19.961  17.939  34.410  1.00  0.00    -0.000 C 
BRANCH  13  14
ATOM     14  C   UNL     1      20.059  19.300  33.689  1.00  0.00    -0.000 C 
BRANCH  14  15
ATOM     15  C   UNL     1      18.781  20.137  33.850  1.00  0.00    -0.003 C 
ATOM     16  C   UNL     1      18.082  19.826  35.171  1.00  0.00     0.004 C 
ENDBRANCH  14  15
ENDBRANCH  13  14
ENDBRANCH  12  13
ENDBRANCH  11  12
ENDBRANCH  10  11
ENDBRANCH   1  10
TORSDOF 12
ENDMDL
MODEL 3
REMARK VINA RESULT:    -4.190      2.355      4.876
REMARK INTER + INTRA:          -9.080
REMARK INTER:                  -7.725
REMARK INTRA:                  -1.356
REMARK UNBOUND:                -1.952
REMARK SMILES CCCCCCCCCCCCCC(=O)[O-]
REMARK SMILES IDX 8 1 9 2 10 3 11 4 12 5 13 6 14 7 15 8 16 9 7 10 6 11 5 12
REMARK SMILES IDX 4 13 3 14 2 15 1 16
REMARK H PARENT
REMARK Flexibility Score: inf
ROOT
ATOM      1  C   UNL     1      18.934  19.773  33.656  1.00  0.00     0.000 C 
ENDROOT
BRANCH   1   2
ATOM      2  C   UNL     1      18.031  19.784  34.896  1.00  0.00     0.000 C 
BRANCH   2   3
ATOM      3  C   UNL     1      18.756  19.194  36.111  1.00  0.00     0.000 C 
BRANCH   3   4
ATOM      4  C   UNL     1      18.404  17.711  36.296  1.00  0.00     0.000 C 
BRANCH   4   5
ATOM      5  C   UNL     1      16.890  17.460  36.421  1.00  0.00     0.006 C 
BRANCH   5   6
ATOM      6  C   UNL     1      16.498  15.972  36.387  1.00  0.00     0.053 C 
BRANCH   6   7
ATOM      7  C   UNL     1      15.369  15.650  37.318  1.00  0.00     0.041 C 
ATOM      8  O   UNL     1      15.234  14.485  37.776  1.00  0.00    -0.550 OA
ATOM      9  O   UNL     1      14.444  16.630  37.655  1.00  0.00    -0.550 OA
ENDBRANCH   6   7
ENDBRANCH   5   6
ENDBRANCH   4   5
ENDBRANCH   3   4
ENDBRANCH   2   3
ENDBRANCH   1   2
BRANCH   1  10
ATOM     10  C   UNL     1      18.224  19.114  32.464  1.00  0.00     0.000 C 
BRANCH  10  11
ATOM     11  C   UNL     1      17.942  17.622  32.694  1.00  0.00    -0.000 C 
BRANCH  11  12
ATOM     12  C   UNL     1      16.440  17.297  32.700  1.00  0.00    -0.000 C 
BRANCH  12  13
ATOM     13  C   UNL     1      15.562  18.528  32.418  1.00  0.00    -0.000 C 
BRANCH  13  14
ATOM     14  C   UNL     1      14.687  18.387  31.155  1.00  0.00    -0.000 C 
BRANCH  14  15
ATOM     15  C   UNL     1      13.229  18.042  31.494  1.00  0.00    -0.003 C 
ATOM     16  C   UNL     1      12.896  16.606  31.099  1.00  0.00     0.004 C 
ENDBRANCH  14  15
ENDBRANCH  13  14
ENDBRANCH  12  13
ENDBRANCH  11  12
ENDBRANCH  10  11
ENDBRANCH   1  10
TORSDOF 12
ENDMDL
MODEL 4
REMARK VINA RESULT:    -4.182      1.191      3.323
REMARK INTER + INTRA:          -9.067
REMARK INTER:                  -7.129
REMARK INTRA:                  -1.938
REMARK UNBOUND:                -1.952
REMARK SMILES CCCCCCCCCCCCCC(=O)[O-]
REMARK SMILES IDX 8 1 9 2 10 3 11 4 12 5 13 6 14 7 15 8 16 9 7 10 6 11 5 12
REMARK SMILES IDX 4 13 3 14 2 15 1 16
REMARK H PARENT
REMARK Flexibility Score: inf
ROOT
ATOM      1  C   UNL     1      20.265  17.663  36.367  1.00  0.00     0.000 C 
ENDROOT
BRANCH   1   2
ATOM      2  C   UNL     1      20.835  16.355  35.804  1.00  0.00     0.000 C 
BRANCH   2   3
ATOM      3  C   UNL     1      19.711  15.393  35.404  1.00  0.00     0.000 C 
BRANCH   3   4
ATOM      4  C   UNL     1      18.625  16.119  34.597  1.00  0.00     0.000 C 
BRANCH   4   5
ATOM      5  C   UNL     1      17.197  15.773  35.056  1.00  0.00     0.006 C 
BRANCH   5   6
ATOM      6  C   UNL     1      16.570  16.819  35.996  1.00  0.00     0.053 C 
BRANCH   6   7
ATOM      7  C   UNL     1      15.917  16.203  37.195  1.00  0.00     0.041 C 
ATOM      8  O   UNL     1      15.416  16.931  38.091  1.00  0.00    -0.550 OA
ATOM      9  O   UNL     1      15.891  14.821  37.341  1.00  0.00    -0.550 OA
ENDBRANCH   6   7
ENDBRANCH   5   6
ENDBRANCH   4   5
ENDBRANCH   3   4
ENDBRANCH   2   3
ENDBRANCH   1   2
BRANCH   1  10
ATOM     10  C   UNL     1      21.125  18.864  35.946  1.00  0.00     0.000 C 
BRANCH  10  11
ATOM     11  C   UNL     1      20.318  19.937  35.199  1.00  0.00    -0.000 C 
BRANCH  11  12
ATOM     12  C   UNL     1      18.812  19.859  35.496  1.00  0.00    -0.000 C 
BRANCH  12  13
ATOM     13  C   UNL     1      17.947  19.966  34.229  1.00  0.00    -0.000 C 
BRANCH  13  14
ATOM     14  C   UNL     1      18.654  19.463  32.953  1.00  0.00    -0.000 C 
BRANCH  14  15
ATOM     15  C   UNL     1      17.727  18.614  32.071  1.00  0.00    -0.003 C 
ATOM     16  C   UNL     1      16.317  18.555  32.651  1.00  0.00     0.004 C 
ENDBRANCH  14  15
ENDBRANCH  13  14
ENDBRANCH  12  13
ENDBRANCH  11  12
ENDBRANCH  10  11
ENDBRANCH   1  10
TORSDOF 12
ENDMDL
MODEL 5
REMARK VINA RESULT:    -4.096      1.322      3.961
REMARK INTER + INTRA:          -8.921
REMARK INTER:                  -6.985
REMARK INTRA:                  -1.936
REMARK UNBOUND:                -1.952
REMARK SMILES CCCCCCCCCCCCCC(=O)[O-]
REMARK SMILES IDX 8 1 9 2 10 3 11 4 12 5 13 6 14 7 15 8 16 9 7 10 6 11 5 12
REMARK SMILES IDX 4 13 3 14 2 15 1 16
REMARK H PARENT
REMARK Flexibility Score: inf
ROOT
ATOM      1  C   UNL     1      20.380  19.555  34.531  1.00  0.00     0.000 C 
ENDROOT
BRANCH   1   2
ATOM      2  C   UNL     1      21.015  18.929  35.779  1.00  0.00     0.000 C 
BRANCH   2   3
ATOM      3  C   UNL     1      20.110  17.842  36.371  1.00  0.00     0.000 C 
BRANCH   3   4
ATOM      4  C   UNL     1      19.684  16.834  35.294  1.00  0.00     0.000 C 
BRANCH   4   5
ATOM      5  C   UNL     1      18.186  16.481  35.355  1.00  0.00     0.006 C 
BRANCH   5   6
ATOM      6  C   UNL     1      17.397  17.282  36.406  1.00  0.00     0.053 C 
BRANCH   6   7
ATOM      7  C   UNL     1      16.098  16.633  36.775  1.00  0.00     0.041 C 
ATOM      8  O   UNL     1      15.555  15.809  35.993  1.00  0.00    -0.550 OA
ATOM      9  O   UNL     1      15.470  16.962  37.969  1.00  0.00    -0.550 OA
ENDBRANCH   6   7
ENDBRANCH   5   6
ENDBRANCH   4   5
ENDBRANCH   3   4
ENDBRANCH   2   3
ENDBRANCH   1   2
BRANCH   1  10
ATOM     10  C   UNL     1      19.045  20.234  34.874  1.00  0.00     0.000 C 
BRANCH  10  11
ATOM     11  C   UNL     1      17.953  19.952  33.832  1.00  0.00    -0.000 C 
BRANCH  11  12
ATOM     12  C   UNL     1      18.491  19.216  32.595  1.00  0.00    -0.000 C 
BRANCH  12  13
ATOM     13  C   UNL     1      17.393  18.468  31.821  1.00  0.00    -0.000 C 
BRANCH  13  14
ATOM     14  C   UNL     1      16.130  18.182  32.660  1.00  0.00    -0.000 C 
BRANCH  14  15
ATOM     15  C   UNL     1      15.732  16.698  32.624  1.00  0.00    -0.003 C 
ATOM     16  C   UNL     1      16.799  15.858  31.929  1.00  0.00     0.004 C 
ENDBRANCH  14  15
ENDBRANCH  13  14
ENDBRANCH  12  13
ENDBRANCH  11  12
ENDBRANCH  10  11
ENDBRANCH   1  10
TORSDOF 12
ENDMDL
MODEL 6
REMARK VINA RESULT:    -3.989      1.179      2.293
REMARK INTER + INTRA:          -8.740
REMARK INTER:                  -6.782
REMARK INTRA:                  -1.958
REMARK UNBOUND:                -1.952
REMARK SMILES CCCCCCCCCCCCCC(=O)[O-]
REMARK SMILES IDX 8 1 9 2 10 3 11 4 12 5 13 6 14 7 15 8 16 9 7 10 6 11 5 12
REMARK SMILES IDX 4 13 3 14 2 15 1 16
REMARK H PARENT
REMARK Flexibility Score: inf
ROOT
ATOM      1  C   UNL     1      19.508  15.785  32.393  1.00  0.00     0.000 C 
ENDROOT
BRANCH   1   2
ATOM      2  C   UNL     1      19.547  15.248  33.829  1.00  0.00     0.000 C 
BRANCH   2   3
ATOM      3  C   UNL     1      19.907  16.358  34.823  1.00  0.00     0.000 C 
BRANCH   3   4
ATOM      4  C   UNL     1      18.996  16.309  36.058  1.00  0.00     0.000 C 
BRANCH   4   5
ATOM      5  C   UNL     1      17.560  15.860  35.731  1.00  0.00     0.006 C 
BRANCH   5   6
ATOM      6  C   UNL     1      16.470  16.768  36.329  1.00  0.00     0.053 C 
BRANCH   6   7
ATOM      7  C   UNL     1      15.495  16.018  37.183  1.00  0.00     0.041 C 
ATOM      8  O   UNL     1      14.500  16.607  37.681  1.00  0.00    -0.550 OA
ATOM      9  O   UNL     1      15.703  14.672  37.459  1.00  0.00    -0.550 OA
ENDBRANCH   6   7
ENDBRANCH   5   6
ENDBRANCH   4   5
ENDBRANCH   3   4
ENDBRANCH   2   3
ENDBRANCH   1   2
BRANCH   1  10
ATOM     10  C   UNL     1      18.098  16.272  32.025  1.00  0.00     0.000 C 
BRANCH  10  11
ATOM     11  C   UNL     1      18.118  17.472  31.067  1.00  0.00    -0.000 C 
BRANCH  11  12
ATOM     12  C   UNL     1      18.154  18.819  31.806  1.00  0.00    -0.000 C 
BRANCH  12  13
ATOM     13  C   UNL     1      17.170  18.880  32.986  1.00  0.00    -0.000 C 
BRANCH  13  14
ATOM     14  C   UNL     1      17.770  19.507  34.261  1.00  0.00    -0.000 C 
BRANCH  14  15
ATOM     15  C   UNL     1      19.224  19.959  34.057  1.00  0.00    -0.003 C 
ATOM     16  C   UNL     1      19.964  20.054  35.389  1.00  0.00     0.004 C 
ENDBRANCH  14  15
ENDBRANCH  13  14
ENDBRANCH  12  13
ENDBRANCH  11  12
ENDBRANCH  10  11
ENDBRANCH   1  10
TORSDOF 12
ENDMDL
MODEL 7
REMARK VINA RESULT:    -3.987      1.858      3.818
REMARK INTER + INTRA:          -8.736
REMARK INTER:                  -6.674
REMARK INTRA:                  -2.062
REMARK UNBOUND:                -1.952
REMARK SMILES CCCCCCCCCCCCCC(=O)[O-]
REMARK SMILES IDX 8 1 9 2 10 3 11 4 12 5 13 6 14 7 15 8 16 9 7 10 6 11 5 12
REMARK SMILES IDX 4 13 3 14 2 15 1 16
REMARK H PARENT
REMARK Flexibility Score: inf
ROOT
ATOM      1  C   UNL     1      20.427  18.877  33.819  1.00  0.00     0.000 C 
ENDROOT
BRANCH   1   2
ATOM      2  C   UNL     1      19.380  19.840  33.245  1.00  0.00     0.000 C 
BRANCH   2   3
ATOM      3  C   UNL     1      18.216  19.072  32.609  1.00  0.00     0.000 C 
BRANCH   3   4
ATOM      4  C   UNL     1      18.611  17.618  32.314  1.00  0.00     0.000 C 
BRANCH   4   5
ATOM      5  C   UNL     1      17.422  16.747  31.869  1.00  0.00     0.006 C 
BRANCH   5   6
ATOM      6  C   UNL     1      16.252  16.727  32.869  1.00  0.00     0.053 C 
BRANCH   6   7
ATOM      7  C   UNL     1      15.974  15.357  33.408  1.00  0.00     0.041 C 
ATOM      8  O   UNL     1      15.149  15.197  34.345  1.00  0.00    -0.550 OA
ATOM      9  O   UNL     1      16.654  14.258  32.898  1.00  0.00    -0.550 OA
ENDBRANCH   6   7
ENDBRANCH   5   6
ENDBRANCH   4   5
ENDBRANCH   3   4
ENDBRANCH   2   3
ENDBRANCH   1   2
BRANCH   1  10
ATOM     10  C   UNL     1      20.827  19.285  35.245  1.00  0.00     0.000 C 
BRANCH  10  11
ATOM     11  C   UNL     1      19.842  20.282  35.874  1.00  0.00    -0.000 C 
BRANCH  11  12
ATOM     12  C   UNL     1      19.222  19.759  37.179  1.00  0.00    -0.000 C 
BRANCH  12  13
ATOM     13  C   UNL     1      17.724  19.441  37.044  1.00  0.00    -0.000 C 
BRANCH  13  14
ATOM     14  C   UNL     1      17.410  18.390  35.958  1.00  0.00    -0.000 C 
BRANCH  14  15
ATOM     15  C   UNL     1      17.564  16.953  36.479  1.00  0.00    -0.003 C 
ATOM     16  C   UNL     1      18.643  16.200  35.706  1.00  0.00     0.004 C 
ENDBRANCH  14  15
ENDBRANCH  13  14
ENDBRANCH  12  13
ENDBRANCH  11  12
ENDBRANCH  10  11
ENDBRANCH   1  10
TORSDOF 12
ENDMDL
MODEL 8
REMARK VINA RESULT:    -3.945      3.190      4.129
REMARK INTER + INTRA:          -8.664
REMARK INTER:                  -7.381
REMARK INTRA:                  -1.283
REMARK UNBOUND:                -1.952
REMARK SMILES CCCCCCCCCCCCCC(=O)[O-]
REMARK SMILES IDX 8 1 9 2 10 3 11 4 12 5 13 6 14 7 15 8 16 9 7 10 6 11 5 12
REMARK SMILES IDX 4 13 3 14 2 15 1 16
REMARK H PARENT
REMARK Flexibility Score: inf
ROOT
ATOM      1  C   UNL     1      17.715  16.893  34.258  1.00  0.00     0.000 C 
ENDROOT
BRANCH   1   2
ATOM      2  C   UNL     1      16.332  17.377  33.806  1.00  0.00     0.000 C 
BRANCH   2   3
ATOM      3  C   UNL     1      16.430  18.183  32.505  1.00  0.00     0.000 C 
BRANCH   3   4
ATOM      4  C   UNL     1      15.119  18.932  32.222  1.00  0.00     0.000 C 
BRANCH   4   5
ATOM      5  C   UNL     1      14.310  18.317  31.065  1.00  0.00     0.006 C 
BRANCH   5   6
ATOM      6  C   UNL     1      14.403  16.782  30.983  1.00  0.00     0.053 C 
BRANCH   6   7
ATOM      7  C   UNL     1      13.392  16.093  31.847  1.00  0.00     0.041 C 
ATOM      8  O   UNL     1      12.202  16.502  31.884  1.00  0.00    -0.550 OA
ATOM      9  O   UNL     1      13.771  15.017  32.640  1.00  0.00    -0.550 OA
ENDBRANCH   6   7
ENDBRANCH   5   6
ENDBRANCH   4   5
ENDBRANCH   3   4
ENDBRANCH   2   3
ENDBRANCH   1   2
BRANCH   1  10
ATOM     10  C   UNL     1      18.799  17.303  33.250  1.00  0.00     0.000 C 
BRANCH  10  11
ATOM     11  C   UNL     1      19.993  18.004  33.917  1.00  0.00    -0.000 C 
BRANCH  11  12
ATOM     12  C   UNL     1      19.952  19.531  33.749  1.00  0.00    -0.000 C 
BRANCH  12  13
ATOM     13  C   UNL     1      19.201  20.238  34.889  1.00  0.00    -0.000 C 
BRANCH  13  14
ATOM     14  C   UNL     1      19.955  20.215  36.234  1.00  0.00    -0.000 C 
BRANCH  14  15
ATOM     15  C   UNL     1      19.013  19.984  37.426  1.00  0.00    -0.003 C 
ATOM     16  C   UNL     1      17.663  19.444  36.964  1.00  0.00     0.004 C 
ENDBRANCH  14  15
ENDBRANCH  13  14
ENDBRANCH  12  13
ENDBRANCH  11  12
ENDBRANCH  10  11
ENDBRANCH   1  10
TORSDOF 12
ENDMDL
MODEL 9
REMARK VINA RESULT:    -3.902      1.580      3.780
REMARK INTER + INTRA:          -8.591
REMARK INTER:                  -6.549
REMARK INTRA:                  -2.042
REMARK UNBOUND:                -1.952
REMARK SMILES CCCCCCCCCCCCCC(=O)[O-]
REMARK SMILES IDX 8 1 9 2 10 3 11 4 12 5 13 6 14 7 15 8 16 9 7 10 6 11 5 12
REMARK SMILES IDX 4 13 3 14 2 15 1 16
REMARK H PARENT
REMARK Flexibility Score: inf
ROOT
ATOM      1  C   UNL     1      19.247  19.939  33.545  1.00  0.00     0.000 C 
ENDROOT
BRANCH   1   2
ATOM      2  C   UNL     1      20.173  19.318  34.597  1.00  0.00     0.000 C 
BRANCH   2   3
ATOM      3  C   UNL     1      20.036  17.791  34.619  1.00  0.00     0.000 C 
BRANCH   3   4
ATOM      4  C   UNL     1      19.697  17.289  36.030  1.00  0.00     0.000 C 
BRANCH   4   5
ATOM      5  C   UNL     1      18.369  16.511  36.092  1.00  0.00     0.006 C 
BRANCH   5   6
ATOM      6  C   UNL     1      17.161  17.368  36.510  1.00  0.00     0.053 C 
BRANCH   6   7
ATOM      7  C   UNL     1      15.954  16.545  36.842  1.00  0.00     0.041 C 
ATOM      8  O   UNL     1      15.412  16.638  37.974  1.00  0.00    -0.550 OA
ATOM      9  O   UNL     1      15.445  15.649  35.910  1.00  0.00    -0.550 OA
ENDBRANCH   6   7
ENDBRANCH   5   6
ENDBRANCH   4   5
ENDBRANCH   3   4
ENDBRANCH   2   3
ENDBRANCH   1   2
BRANCH   1  10
ATOM     10  C   UNL     1      17.799  19.461  33.735  1.00  0.00     0.000 C 
BRANCH  10  11
ATOM     11  C   UNL     1      17.263  18.699  32.513  1.00  0.00    -0.000 C 
BRANCH  11  12
ATOM     12  C   UNL     1      16.498  17.424  32.901  1.00  0.00    -0.000 C 
BRANCH  12  13
ATOM     13  C   UNL     1      17.286  16.139  32.597  1.00  0.00    -0.000 C 
BRANCH  13  14
ATOM     14  C   UNL     1      18.404  16.331  31.552  1.00  0.00    -0.000 C 
BRANCH  14  15
ATOM     15  C   UNL     1      19.636  15.463  31.851  1.00  0.00    -0.003 C 
ATOM     16  C   UNL     1      19.363  14.499  33.002  1.00  0.00     0.004 C 
ENDBRANCH  14  15
ENDBRANCH  13  14
ENDBRANCH  12  13
ENDBRANCH  11  12
ENDBRANCH  10  11
ENDBRANCH   1  10
TORSDOF 12
ENDMDL
