MODEL 1
REMARK VINA RESULT:    -5.421      0.000      0.000
REMARK INTER + INTRA:         -11.763
REMARK INTER:                  -9.857
REMARK INTRA:                  -1.906
REMARK UNBOUND:                -1.906
REMARK SMILES CCCCCCCCCCCCCCCC(=O)[O-]
REMARK SMILES IDX 9 1 10 2 11 3 12 4 13 5 14 6 15 7 16 8 17 9 18 10 8 11 7 12
REMARK SMILES IDX 6 13 5 14 4 15 3 16 2 17 1 18
REMARK H PARENT
REMARK Flexibility Score: inf
ROOT
ATOM      1  C   UNL     1       9.068 -24.727  22.076  1.00  0.00     0.000 C 
ENDROOT
BRANCH   1   2
ATOM      2  C   UNL     1      10.516 -25.227  21.983  1.00  0.00     0.000 C 
BRANCH   2   3
ATOM      3  C   UNL     1      11.251 -24.571  20.808  1.00  0.00     0.000 C 
BRANCH   3   4
ATOM      4  C   UNL     1      12.218 -23.484  21.300  1.00  0.00     0.000 C 
BRANCH   4   5
ATOM      5  C   UNL     1      13.043 -22.854  20.163  1.00  0.00     0.000 C 
BRANCH   5   6
ATOM      6  C   UNL     1      14.540 -23.228  20.158  1.00  0.00     0.006 C 
BRANCH   6   7
ATOM      7  C   UNL     1      14.821 -24.734  20.041  1.00  0.00     0.053 C 
BRANCH   7   8
ATOM      8  C   UNL     1      15.415 -25.294  21.297  1.00  0.00     0.041 C 
ATOM      9  O   UNL     1      15.725 -24.527  22.246  1.00  0.00    -0.550 OA
ATOM     10  O   UNL     1      15.658 -26.657  21.406  1.00  0.00    -0.550 OA
ENDBRANCH   7   8
ENDBRANCH   6   7
ENDBRANCH   5   6
ENDBRANCH   4   5
ENDBRANCH   3   4
ENDBRANCH   2   3
ENDBRANCH   1   2
BRANCH   1  11
ATOM     11  C   UNL     1       8.768 -24.015  23.405  1.00  0.00     0.000 C 
BRANCH  11  12
ATOM     12  C   UNL     1       9.395 -24.732  24.613  1.00  0.00    -0.000 C 
BRANCH  12  13
ATOM     13  C   UNL     1      10.032 -23.751  25.611  1.00  0.00    -0.000 C 
BRANCH  13  14
ATOM     14  C   UNL     1      10.109 -22.315  25.062  1.00  0.00    -0.000 C 
BRANCH  14  15
ATOM     15  C   UNL     1      11.560 -21.882  24.762  1.00  0.00    -0.000 C 
BRANCH  15  16
ATOM     16  C   UNL     1      12.618 -22.915  25.200  1.00  0.00    -0.000 C 
BRANCH  16  17
ATOM     17  C   UNL     1      13.999 -22.734  24.548  1.00  0.00    -0.003 C 
ATOM     18  C   UNL     1      14.127 -21.418  23.781  1.00  0.00     0.004 C 
ENDBRANCH  16  17
ENDBRANCH  15  16
ENDBRANCH  14  15
ENDBRANCH  13  14
ENDBRANCH  12  13
ENDBRANCH  11  12
ENDBRANCH   1  11
TORSDOF 14
ENDMDL
MODEL 2
REMARK VINA RESULT:    -5.286      0.937      3.298
REMARK INTER + INTRA:         -11.519
REMARK INTER:                  -9.613
REMARK INTRA:                  -1.906
REMARK UNBOUND:                -1.906
REMARK SMILES CCCCCCCCCCCCCCCC(=O)[O-]
REMARK SMILES IDX 9 1 10 2 11 3 12 4 13 5 14 6 15 7 16 8 17 9 18 10 8 11 7 12
REMARK SMILES IDX 6 13 5 14 4 15 3 16 2 17 1 18
REMARK H PARENT
REMARK Flexibility Score: inf
ROOT
ATOM      1  C   UNL     1      13.081 -21.979  23.786  1.00  0.00     0.000 C 
ENDROOT
BRANCH   1   2
ATOM      2  C   UNL     1      12.142 -22.239  22.599  1.00  0.00     0.000 C 
BRANCH   2   3
ATOM      3  C   UNL     1      12.153 -23.721  22.204  1.00  0.00     0.000 C 
BRANCH   3   4
ATOM      4  C   UNL     1      12.300 -23.885  20.685  1.00  0.00     0.000 C 
BRANCH   4   5
ATOM      5  C   UNL     1      13.288 -22.880  20.065  1.00  0.00     0.000 C 
BRANCH   5   6
ATOM      6  C   UNL     1      14.739 -23.388  19.933  1.00  0.00     0.006 C 
BRANCH   6   7
ATOM      7  C   UNL     1      14.894 -24.913  20.041  1.00  0.00     0.053 C 
BRANCH   7   8
ATOM      8  C   UNL     1      15.432 -25.329  21.376  1.00  0.00     0.041 C 
ATOM      9  O   UNL     1      15.659 -24.465  22.264  1.00  0.00    -0.550 OA
ATOM     10  O   UNL     1      15.715 -26.665  21.628  1.00  0.00    -0.550 OA
ENDBRANCH   7   8
ENDBRANCH   6   7
ENDBRANCH   5   6
ENDBRANCH   4   5
ENDBRANCH   3   4
ENDBRANCH   2   3
ENDBRANCH   1   2
BRANCH   1  11
ATOM     11  C   UNL     1      13.317 -23.233  24.643  1.00  0.00     0.000 C 
BRANCH  11  12
ATOM     12  C   UNL     1      12.724 -23.104  26.057  1.00  0.00    -0.000 C 
BRANCH  12  13
ATOM     13  C   UNL     1      11.193 -22.974  26.041  1.00  0.00    -0.000 C 
BRANCH  13  14
ATOM     14  C   UNL     1      10.484 -24.292  26.402  1.00  0.00    -0.000 C 
BRANCH  14  15
ATOM     15  C   UNL     1       9.467 -24.722  25.324  1.00  0.00    -0.000 C 
BRANCH  15  16
ATOM     16  C   UNL     1       9.215 -23.649  24.246  1.00  0.00    -0.000 C 
BRANCH  16  17
ATOM     17  C   UNL     1       8.300 -24.098  23.095  1.00  0.00    -0.003 C 
ATOM     18  C   UNL     1       8.907 -25.225  22.258  1.00  0.00     0.004 C 
ENDBRANCH  16  17
ENDBRANCH  15  16
ENDBRANCH  14  15
ENDBRANCH  13  14
ENDBRANCH  12  13
ENDBRANCH  11  12
ENDBRANCH   1  11
TORSDOF 14
ENDMDL
MODEL 3
REMARK VINA RESULT:    -5.188      3.285      5.667
REMARK INTER + INTRA:         -11.340
REMARK INTER:                  -9.874
REMARK INTRA:                  -1.465
REMARK UNBOUND:                -1.906
REMARK SMILES CCCCCCCCCCCCCCCC(=O)[O-]
REMARK SMILES IDX 9 1 10 2 11 3 12 4 13 5 14 6 15 7 16 8 17 9 18 10 8 11 7 12
REMARK SMILES IDX 6 13 5 14 4 15 3 16 2 17 1 18
REMARK H PARENT
REMARK Flexibility Score: inf
ROOT
ATOM      1  C   UNL     1      14.441 -22.624  21.072  1.00  0.00     0.000 C 
ENDROOT
BRANCH   1   2
ATOM      2  C   UNL     1      13.106 -23.093  20.476  1.00  0.00     0.000 C 
BRANCH   2   3
ATOM      3  C   UNL     1      12.855 -24.573  20.789  1.00  0.00     0.000 C 
BRANCH   3   4
ATOM      4  C   UNL     1      11.351 -24.884  20.815  1.00  0.00     0.000 C 
BRANCH   4   5
ATOM      5  C   UNL     1      10.689 -24.536  22.160  1.00  0.00     0.000 C 
BRANCH   5   6
ATOM      6  C   UNL     1       9.258 -25.084  22.345  1.00  0.00     0.006 C 
BRANCH   6   7
ATOM      7  C   UNL     1       8.301 -24.133  23.080  1.00  0.00     0.053 C 
BRANCH   7   8
ATOM      8  C   UNL     1       7.168 -23.689  22.205  1.00  0.00     0.041 C 
ATOM      9  O   UNL     1       6.233 -22.996  22.685  1.00  0.00    -0.550 OA
ATOM     10  O   UNL     1       7.129 -24.069  20.870  1.00  0.00    -0.550 OA
ENDBRANCH   7   8
ENDBRANCH   6   7
ENDBRANCH   5   6
ENDBRANCH   4   5
ENDBRANCH   3   4
ENDBRANCH   2   3
ENDBRANCH   1   2
BRANCH   1  11
ATOM     11  C   UNL     1      14.586 -22.979  22.560  1.00  0.00     0.000 C 
BRANCH  11  12
ATOM     12  C   UNL     1      14.190 -21.816  23.487  1.00  0.00    -0.000 C 
BRANCH  12  13
ATOM     13  C   UNL     1      12.873 -22.083  24.233  1.00  0.00    -0.000 C 
BRANCH  13  14
ATOM     14  C   UNL     1      12.991 -23.233  25.248  1.00  0.00    -0.000 C 
BRANCH  14  15
ATOM     15  C   UNL     1      11.803 -23.267  26.233  1.00  0.00    -0.000 C 
BRANCH  15  16
ATOM     16  C   UNL     1      10.580 -24.042  25.704  1.00  0.00    -0.000 C 
BRANCH  16  17
ATOM     17  C   UNL     1       9.609 -24.529  26.792  1.00  0.00    -0.003 C 
ATOM     18  C   UNL     1       9.389 -26.042  26.759  1.00  0.00     0.004 C 
ENDBRANCH  16  17
ENDBRANCH  15  16
ENDBRANCH  14  15
ENDBRANCH  13  14
ENDBRANCH  12  13
ENDBRANCH  11  12
ENDBRANCH   1  11
TORSDOF 14
ENDMDL
MODEL 4
REMARK VINA RESULT:    -5.180      2.474      5.512
REMARK INTER + INTRA:         -11.326
REMARK INTER:                  -9.643
REMARK INTRA:                  -1.684
REMARK UNBOUND:                -1.906
REMARK SMILES CCCCCCCCCCCCCCCC(=O)[O-]
REMARK SMILES IDX 9 1 10 2 11 3 12 4 13 5 14 6 15 7 16 8 17 9 18 10 8 11 7 12
REMARK SMILES IDX 6 13 5 14 4 15 3 16 2 17 1 18
REMARK H PARENT
REMARK Flexibility Score: inf
ROOT
ATOM      1  C   UNL     1      11.991 -24.436  20.695  1.00  0.00     0.000 C 
ENDROOT
BRANCH   1   2
ATOM      2  C   UNL     1      11.239 -24.352  22.031  1.00  0.00     0.000 C 
BRANCH   2   3
ATOM      3  C   UNL     1       9.957 -25.192  21.994  1.00  0.00     0.000 C 
BRANCH   3   4
ATOM      4  C   UNL     1       8.861 -24.564  22.868  1.00  0.00     0.000 C 
BRANCH   4   5
ATOM      5  C   UNL     1       9.412 -23.931  24.159  1.00  0.00     0.000 C 
BRANCH   5   6
ATOM      6  C   UNL     1       9.628 -24.913  25.329  1.00  0.00     0.006 C 
BRANCH   6   7
ATOM      7  C   UNL     1       9.756 -24.245  26.707  1.00  0.00     0.053 C 
BRANCH   7   8
ATOM      8  C   UNL     1      10.846 -23.219  26.735  1.00  0.00     0.041 C 
ATOM      9  O   UNL     1      12.051 -23.579  26.802  1.00  0.00    -0.550 OA
ATOM     10  O   UNL     1      10.531 -21.866  26.720  1.00  0.00    -0.550 OA
ENDBRANCH   7   8
ENDBRANCH   6   7
ENDBRANCH   5   6
ENDBRANCH   4   5
ENDBRANCH   3   4
ENDBRANCH   2   3
ENDBRANCH   1   2
BRANCH   1  11
ATOM     11  C   UNL     1      12.722 -23.131  20.341  1.00  0.00     0.000 C 
BRANCH  11  12
ATOM     12  C   UNL     1      14.245 -23.320  20.222  1.00  0.00    -0.000 C 
BRANCH  12  13
ATOM     13  C   UNL     1      14.715 -24.664  20.798  1.00  0.00    -0.000 C 
BRANCH  13  14
ATOM     14  C   UNL     1      15.394 -24.516  22.171  1.00  0.00    -0.000 C 
BRANCH  14  15
ATOM     15  C   UNL     1      15.752 -23.049  22.490  1.00  0.00    -0.000 C 
BRANCH  15  16
ATOM     16  C   UNL     1      15.216 -22.560  23.850  1.00  0.00    -0.000 C 
BRANCH  16  17
ATOM     17  C   UNL     1      14.208 -21.402  23.765  1.00  0.00    -0.003 C 
ATOM     18  C   UNL     1      12.757 -21.866  23.900  1.00  0.00     0.004 C 
ENDBRANCH  16  17
ENDBRANCH  15  16
ENDBRANCH  14  15
ENDBRANCH  13  14
ENDBRANCH  12  13
ENDBRANCH  11  12
ENDBRANCH   1  11
TORSDOF 14
ENDMDL
MODEL 5
REMARK VINA RESULT:    -5.042      2.473      6.046
REMARK INTER + INTRA:         -11.075
REMARK INTER:                  -9.095
REMARK INTRA:                  -1.980
REMARK UNBOUND:                -1.906
REMARK SMILES CCCCCCCCCCCCCCCC(=O)[O-]
REMARK SMILES IDX 9 1 10 2 11 3 12 4 13 5 14 6 15 7 16 8 17 9 18 10 8 11 7 12
REMARK SMILES IDX 6 13 5 14 4 15 3 16 2 17 1 18
REMARK H PARENT
REMARK Flexibility Score: inf
ROOT
ATOM      1  C   UNL     1      15.752 -23.556  22.356  1.00  0.00     0.000 C 
ENDROOT
BRANCH   1   2
ATOM      2  C   UNL     1      15.016 -22.419  23.081  1.00  0.00     0.000 C 
BRANCH   2   3
ATOM      3  C   UNL     1      13.848 -22.963  23.912  1.00  0.00     0.000 C 
BRANCH   3   4
ATOM      4  C   UNL     1      12.732 -21.916  24.045  1.00  0.00     0.000 C 
BRANCH   4   5
ATOM      5  C   UNL     1      11.327 -22.542  24.117  1.00  0.00     0.000 C 
BRANCH   5   6
ATOM      6  C   UNL     1      10.498 -22.145  25.356  1.00  0.00     0.006 C 
BRANCH   6   7
ATOM      7  C   UNL     1      10.054 -23.327  26.231  1.00  0.00     0.053 C 
BRANCH   7   8
ATOM      8  C   UNL     1      11.216 -24.009  26.885  1.00  0.00     0.041 C 
ATOM      9  O   UNL     1      11.240 -25.265  26.982  1.00  0.00    -0.550 OA
ATOM     10  O   UNL     1      12.256 -23.258  27.417  1.00  0.00    -0.550 OA
ENDBRANCH   7   8
ENDBRANCH   6   7
ENDBRANCH   5   6
ENDBRANCH   4   5
ENDBRANCH   3   4
ENDBRANCH   2   3
ENDBRANCH   1   2
BRANCH   1  11
ATOM     11  C   UNL     1      14.941 -24.139  21.188  1.00  0.00     0.000 C 
BRANCH  11  12
ATOM     12  C   UNL     1      14.310 -23.049  20.304  1.00  0.00    -0.000 C 
BRANCH  12  13
ATOM     13  C   UNL     1      12.777 -23.143  20.263  1.00  0.00    -0.000 C 
BRANCH  13  14
ATOM     14  C   UNL     1      12.248 -24.454  20.870  1.00  0.00    -0.000 C 
BRANCH  14  15
ATOM     15  C   UNL     1      10.707 -24.478  20.956  1.00  0.00    -0.000 C 
BRANCH  15  16
ATOM     16  C   UNL     1      10.154 -25.592  21.867  1.00  0.00    -0.000 C 
BRANCH  16  17
ATOM     17  C   UNL     1       9.236 -25.100  22.998  1.00  0.00    -0.003 C 
ATOM     18  C   UNL     1       8.121 -24.179  22.501  1.00  0.00     0.004 C 
ENDBRANCH  16  17
ENDBRANCH  15  16
ENDBRANCH  14  15
ENDBRANCH  13  14
ENDBRANCH  12  13
ENDBRANCH  11  12
ENDBRANCH   1  11
TORSDOF 14
ENDMDL
MODEL 6
REMARK VINA RESULT:    -4.914      2.440      5.808
REMARK INTER + INTRA:         -10.843
REMARK INTER:                  -9.505
REMARK INTRA:                  -1.338
REMARK UNBOUND:                -1.906
REMARK SMILES CCCCCCCCCCCCCCCC(=O)[O-]
REMARK SMILES IDX 9 1 10 2 11 3 12 4 13 5 14 6 15 7 16 8 17 9 18 10 8 11 7 12
REMARK SMILES IDX 6 13 5 14 4 15 3 16 2 17 1 18
REMARK H PARENT
REMARK Flexibility Score: inf
ROOT
ATOM      1  C   UNL     1      13.001 -23.354  24.972  1.00  0.00     0.000 C 
ENDROOT
BRANCH   1   2
ATOM      2  C   UNL     1      12.360 -23.146  26.351  1.00  0.00     0.000 C 
BRANCH   2   3
ATOM      3  C   UNL     1      11.526 -24.367  26.759  1.00  0.00     0.000 C 
BRANCH   3   4
ATOM      4  C   UNL     1      10.027 -24.104  26.556  1.00  0.00     0.000 C 
BRANCH   4   5
ATOM      5  C   UNL     1       9.748 -22.905  25.631  1.00  0.00     0.000 C 
BRANCH   5   6
ATOM      6  C   UNL     1       9.260 -23.273  24.214  1.00  0.00     0.006 C 
BRANCH   6   7
ATOM      7  C   UNL     1       9.342 -24.771  23.880  1.00  0.00     0.053 C 
BRANCH   7   8
ATOM      8  C   UNL     1       9.272 -25.023  22.405  1.00  0.00     0.041 C 
ATOM      9  O   UNL     1      10.237 -25.570  21.810  1.00  0.00    -0.550 OA
ATOM     10  O   UNL     1       8.156 -24.622  21.682  1.00  0.00    -0.550 OA
ENDBRANCH   7   8
ENDBRANCH   6   7
ENDBRANCH   5   6
ENDBRANCH   4   5
ENDBRANCH   3   4
ENDBRANCH   2   3
ENDBRANCH   1   2
BRANCH   1  11
ATOM     11  C   UNL     1      13.782 -22.122  24.488  1.00  0.00     0.000 C 
BRANCH  11  12
ATOM     12  C   UNL     1      13.651 -21.898  22.971  1.00  0.00    -0.000 C 
BRANCH  12  13
ATOM     13  C   UNL     1      12.434 -22.621  22.374  1.00  0.00    -0.000 C 
BRANCH  13  14
ATOM     14  C   UNL     1      12.657 -23.049  20.913  1.00  0.00    -0.000 C 
BRANCH  14  15
ATOM     15  C   UNL     1      14.155 -23.118  20.547  1.00  0.00    -0.000 C 
BRANCH  15  16
ATOM     16  C   UNL     1      14.834 -24.438  20.961  1.00  0.00    -0.000 C 
BRANCH  16  17
ATOM     17  C   UNL     1      14.566 -25.623  20.018  1.00  0.00    -0.003 C 
ATOM     18  C   UNL     1      15.548 -25.684  18.847  1.00  0.00     0.004 C 
ENDBRANCH  16  17
ENDBRANCH  15  16
ENDBRANCH  14  15
ENDBRANCH  13  14
ENDBRANCH  12  13
ENDBRANCH  11  12
ENDBRANCH   1  11
TORSDOF 14
ENDMDL
MODEL 7
REMARK VINA RESULT:    -4.724      2.994      5.446
REMARK INTER + INTRA:         -10.497
REMARK INTER:                  -8.874
REMARK INTRA:                  -1.624
REMARK UNBOUND:                -1.906
REMARK SMILES CCCCCCCCCCCCCCCC(=O)[O-]
REMARK SMILES IDX 9 1 10 2 11 3 12 4 13 5 14 6 15 7 16 8 17 9 18 10 8 11 7 12
REMARK SMILES IDX 6 13 5 14 4 15 3 16 2 17 1 18
REMARK H PARENT
REMARK Flexibility Score: inf
ROOT
ATOM      1  C   UNL     1      14.875 -24.823  20.715  1.00  0.00     0.000 C 
ENDROOT
BRANCH   1   2
ATOM      2  C   UNL     1      13.927 -25.741  19.930  1.00  0.00     0.000 C 
BRANCH   2   3
ATOM      3  C   UNL     1      12.650 -26.025  20.729  1.00  0.00     0.000 C 
BRANCH   3   4
ATOM      4  C   UNL     1      11.643 -24.874  20.586  1.00  0.00     0.000 C 
BRANCH   4   5
ATOM      5  C   UNL     1      11.043 -24.431  21.933  1.00  0.00     0.000 C 
BRANCH   5   6
ATOM      6  C   UNL     1       9.886 -25.309  22.454  1.00  0.00     0.006 C 
BRANCH   6   7
ATOM      7  C   UNL     1       8.504 -24.942  21.893  1.00  0.00     0.053 C 
BRANCH   7   8
ATOM      8  C   UNL     1       7.790 -23.952  22.763  1.00  0.00     0.041 C 
ATOM      9  O   UNL     1       6.684 -23.473  22.399  1.00  0.00    -0.550 OA
ATOM     10  O   UNL     1       8.362 -23.533  23.957  1.00  0.00    -0.550 OA
ENDBRANCH   7   8
ENDBRANCH   6   7
ENDBRANCH   5   6
ENDBRANCH   4   5
ENDBRANCH   3   4
ENDBRANCH   2   3
ENDBRANCH   1   2
BRANCH   1  11
ATOM     11  C   UNL     1      14.842 -23.369  20.216  1.00  0.00     0.000 C 
BRANCH  11  12
ATOM     12  C   UNL     1      14.447 -22.373  21.320  1.00  0.00    -0.000 C 
BRANCH  12  13
ATOM     13  C   UNL     1      14.342 -23.040  22.701  1.00  0.00    -0.000 C 
BRANCH  13  14
ATOM     14  C   UNL     1      14.002 -22.038  23.818  1.00  0.00    -0.000 C 
BRANCH  14  15
ATOM     15  C   UNL     1      13.189 -22.688  24.958  1.00  0.00    -0.000 C 
BRANCH  15  16
ATOM     16  C   UNL     1      11.692 -22.322  24.937  1.00  0.00    -0.000 C 
BRANCH  16  17
ATOM     17  C   UNL     1      10.929 -22.666  26.228  1.00  0.00    -0.003 C 
ATOM     18  C   UNL     1      10.732 -24.170  26.419  1.00  0.00     0.004 C 
ENDBRANCH  16  17
ENDBRANCH  15  16
ENDBRANCH  14  15
ENDBRANCH  13  14
ENDBRANCH  12  13
ENDBRANCH  11  12
ENDBRANCH   1  11
TORSDOF 14
ENDMDL
MODEL 8
REMARK VINA RESULT:    -4.716      2.763      5.366
REMARK INTER + INTRA:         -10.482
REMARK INTER:                  -8.904
REMARK INTRA:                  -1.578
REMARK UNBOUND:                -1.906
REMARK SMILES CCCCCCCCCCCCCCCC(=O)[O-]
REMARK SMILES IDX 9 1 10 2 11 3 12 4 13 5 14 6 15 7 16 8 17 9 18 10 8 11 7 12
REMARK SMILES IDX 6 13 5 14 4 15 3 16 2 17 1 18
REMARK H PARENT
REMARK Flexibility Score: inf
ROOT
ATOM      1  C   UNL     1      10.634 -25.347  21.891  1.00  0.00     0.000 C 
ENDROOT
BRANCH   1   2
ATOM      2  C   UNL     1       9.192 -24.817  21.895  1.00  0.00     0.000 C 
BRANCH   2   3
ATOM      3  C   UNL     1       8.815 -24.260  23.273  1.00  0.00     0.000 C 
BRANCH   3   4
ATOM      4  C   UNL     1      10.043 -23.674  23.986  1.00  0.00     0.000 C 
BRANCH   4   5
ATOM      5  C   UNL     1       9.671 -22.740  25.152  1.00  0.00     0.000 C 
BRANCH   5   6
ATOM      6  C   UNL     1      10.369 -23.058  26.491  1.00  0.00     0.006 C 
BRANCH   6   7
ATOM      7  C   UNL     1      11.333 -24.253  26.440  1.00  0.00     0.053 C 
BRANCH   7   8
ATOM      8  C   UNL     1      10.713 -25.499  26.992  1.00  0.00     0.041 C 
ATOM      9  O   UNL     1      11.422 -26.342  27.603  1.00  0.00    -0.550 OA
ATOM     10  O   UNL     1       9.359 -25.746  26.805  1.00  0.00    -0.550 OA
ENDBRANCH   7   8
ENDBRANCH   6   7
ENDBRANCH   5   6
ENDBRANCH   4   5
ENDBRANCH   3   4
ENDBRANCH   2   3
ENDBRANCH   1   2
BRANCH   1  11
ATOM     11  C   UNL     1      11.524 -24.640  20.857  1.00  0.00     0.000 C 
BRANCH  11  12
ATOM     12  C   UNL     1      12.615 -25.563  20.286  1.00  0.00    -0.000 C 
BRANCH  12  13
ATOM     13  C   UNL     1      14.032 -25.068  20.614  1.00  0.00    -0.000 C 
BRANCH  13  14
ATOM     14  C   UNL     1      14.317 -23.667  20.045  1.00  0.00    -0.000 C 
BRANCH  14  15
ATOM     15  C   UNL     1      14.572 -22.626  21.155  1.00  0.00    -0.000 C 
BRANCH  15  16
ATOM     16  C   UNL     1      14.788 -23.246  22.549  1.00  0.00    -0.000 C 
BRANCH  16  17
ATOM     17  C   UNL     1      13.666 -22.961  23.561  1.00  0.00    -0.003 C 
ATOM     18  C   UNL     1      13.642 -21.504  24.026  1.00  0.00     0.004 C 
ENDBRANCH  16  17
ENDBRANCH  15  16
ENDBRANCH  14  15
ENDBRANCH  13  14
ENDBRANCH  12  13
ENDBRANCH  11  12
ENDBRANCH   1  11
TORSDOF 14
ENDMDL
MODEL 9
REMARK VINA RESULT:    -4.673      1.815      3.307
REMARK INTER + INTRA:         -10.404
REMARK INTER:                  -9.234
REMARK INTRA:                  -1.171
REMARK UNBOUND:                -1.906
REMARK SMILES CCCCCCCCCCCCCCCC(=O)[O-]
REMARK SMILES IDX 9 1 10 2 11 3 12 4 13 5 14 6 15 7 16 8 17 9 18 10 8 11 7 12
REMARK SMILES IDX 6 13 5 14 4 15 3 16 2 17 1 18
REMARK H PARENT
REMARK Flexibility Score: inf
ROOT
ATOM      1  C   UNL     1      10.452 -24.867  21.013  1.00  0.00     0.000 C 
ENDROOT
BRANCH   1   2
ATOM      2  C   UNL     1      11.947 -24.541  21.147  1.00  0.00     0.000 C 
BRANCH   2   3
ATOM      3  C   UNL     1      12.804 -25.580  20.414  1.00  0.00     0.000 C 
BRANCH   3   4
ATOM      4  C   UNL     1      14.271 -25.130  20.339  1.00  0.00     0.000 C 
BRANCH   4   5
ATOM      5  C   UNL     1      14.424 -23.632  20.020  1.00  0.00     0.000 C 
BRANCH   5   6
ATOM      6  C   UNL     1      15.090 -22.793  21.130  1.00  0.00     0.006 C 
BRANCH   6   7
ATOM      7  C   UNL     1      15.400 -23.570  22.419  1.00  0.00     0.053 C 
BRANCH   7   8
ATOM      8  C   UNL     1      14.731 -22.965  23.615  1.00  0.00     0.041 C 
ATOM      9  O   UNL     1      15.252 -21.980  24.200  1.00  0.00    -0.550 OA
ATOM     10  O   UNL     1      13.550 -23.509  24.103  1.00  0.00    -0.550 OA
ENDBRANCH   7   8
ENDBRANCH   6   7
ENDBRANCH   5   6
ENDBRANCH   4   5
ENDBRANCH   3   4
ENDBRANCH   2   3
ENDBRANCH   1   2
BRANCH   1  11
ATOM     11  C   UNL     1       9.857 -25.465  22.298  1.00  0.00     0.000 C 
BRANCH  11  12
ATOM     12  C   UNL     1       9.075 -24.429  23.124  1.00  0.00    -0.000 C 
BRANCH  12  13
ATOM     13  C   UNL     1       9.999 -23.430  23.838  1.00  0.00    -0.000 C 
BRANCH  13  14
ATOM     14  C   UNL     1       9.555 -23.140  25.283  1.00  0.00    -0.000 C 
BRANCH  14  15
ATOM     15  C   UNL     1      10.684 -23.396  26.303  1.00  0.00    -0.000 C 
BRANCH  15  16
ATOM     16  C   UNL     1      10.733 -24.846  26.824  1.00  0.00    -0.000 C 
BRANCH  16  17
ATOM     17  C   UNL     1       9.418 -25.628  26.670  1.00  0.00    -0.003 C 
ATOM     18  C   UNL     1       9.552 -27.099  27.064  1.00  0.00     0.004 C 
ENDBRANCH  16  17
ENDBRANCH  15  16
ENDBRANCH  14  15
ENDBRANCH  13  14
ENDBRANCH  12  13
ENDBRANCH  11  12
ENDBRANCH   1  11
TORSDOF 14
ENDMDL
