MODEL 1
REMARK VINA RESULT:    -6.445      0.000      0.000
REMARK INTER + INTRA:          -8.067
REMARK INTER:                  -7.764
REMARK INTRA:                  -0.303
REMARK UNBOUND:                -0.303
REMARK SMILES O=c1c(O)c(-c2ccc(O)cc2O)oc2cc(O)cc(O)c12
REMARK SMILES IDX 5 1 3 2 2 3 1 4 22 5 20 6 19 7 17 8 16 9 15 10 14 11 6 12
REMARK SMILES IDX 8 13 7 14 9 15 11 16 12 17 10 18 13 20 4 22 21 24 18 26
REMARK H PARENT 10 19 13 21 4 23 21 25 18 27
REMARK Flexibility Score: inf
ROOT
ATOM      1  C   UNL     1      -1.594  13.215   3.036  1.00  0.00     0.184 A 
ATOM      2  C   UNL     1      -0.386  13.622   3.629  1.00  0.00     0.208 A 
ATOM      3  C   UNL     1      -0.254  13.541   5.023  1.00  0.00     0.238 A 
ATOM      4  O   UNL     1       0.821  13.914   5.567  1.00  0.00    -0.285 OA
ATOM      5  C   UNL     1      -1.321  13.035   5.795  1.00  0.00     0.111 A 
ATOM      6  C   UNL     1      -1.268  12.915   7.205  1.00  0.00     0.134 A 
ATOM      7  C   UNL     1      -2.369  12.395   7.900  1.00  0.00     0.093 A 
ATOM      8  C   UNL     1      -3.518  11.990   7.217  1.00  0.00     0.123 A 
ATOM      9  C   UNL     1      -3.576  12.106   5.824  1.00  0.00     0.094 A 
ATOM     10  C   UNL     1      -2.491  12.625   5.112  1.00  0.00     0.146 A 
ATOM     11  O   UNL     1      -2.574  12.728   3.790  1.00  0.00    -0.451 OA
ENDROOT
BRANCH   1  12
ATOM     12  C   UNL     1      -1.803  13.286   1.574  1.00  0.00     0.063 A 
ATOM     13  C   UNL     1      -1.840  14.625  -0.455  1.00  0.00     0.047 A 
ATOM     14  C   UNL     1      -1.655  14.523   0.926  1.00  0.00     0.020 A 
ATOM     15  C   UNL     1      -2.162  13.491  -1.207  1.00  0.00     0.119 A 
ATOM     16  C   UNL     1      -2.288  12.249  -0.573  1.00  0.00     0.093 A 
ATOM     17  C   UNL     1      -2.099  12.137   0.812  1.00  0.00     0.130 A 
BRANCH  15  18
ATOM     18  O   UNL     1      -2.348  13.610  -2.583  1.00  0.00    -0.508 OA
ATOM     19  H   UNL     1      -2.399  12.795  -3.182  1.00  0.00     0.293 HD
ENDBRANCH  15  18
BRANCH  17  20
ATOM     20  O   UNL     1      -2.179  10.886   1.425  1.00  0.00    -0.507 OA
ATOM     21  H   UNL     1      -1.363  10.437   1.826  1.00  0.00     0.293 HD
ENDBRANCH  17  20
ENDBRANCH   1  12
BRANCH   2  22
ATOM     22  O   UNL     1       0.668  14.077   2.832  1.00  0.00    -0.502 OA
ATOM     23  H   UNL     1       1.488  14.526   3.223  1.00  0.00     0.293 HD
ENDBRANCH   2  22
BRANCH   6  24
ATOM     24  O   UNL     1      -0.134  13.309   7.917  1.00  0.00    -0.507 OA
ATOM     25  H   UNL     1       0.364  12.668   8.522  1.00  0.00     0.293 HD
ENDBRANCH   6  24
BRANCH   8  26
ATOM     26  O   UNL     1      -4.596  11.475   7.931  1.00  0.00    -0.508 OA
ATOM     27  H   UNL     1      -5.366  11.007   7.466  1.00  0.00     0.293 HD
ENDBRANCH   8  26
TORSDOF 6
ENDMDL
MODEL 2
REMARK VINA RESULT:    -5.846      1.344      1.355
REMARK INTER + INTRA:          -7.345
REMARK INTER:                  -6.991
REMARK INTRA:                  -0.353
REMARK UNBOUND:                -0.303
REMARK SMILES O=c1c(O)c(-c2ccc(O)cc2O)oc2cc(O)cc(O)c12
REMARK SMILES IDX 5 1 3 2 2 3 1 4 22 5 20 6 19 7 17 8 16 9 15 10 14 11 6 12
REMARK SMILES IDX 8 13 7 14 9 15 11 16 12 17 10 18 13 20 4 22 21 24 18 26
REMARK H PARENT 10 19 13 21 4 23 21 25 18 27
REMARK Flexibility Score: inf
ROOT
ATOM      1  C   UNL     1      -1.782  13.558   2.494  1.00  0.00     0.184 A 
ATOM      2  C   UNL     1      -0.568  13.362   3.177  1.00  0.00     0.208 A 
ATOM      3  C   UNL     1      -0.549  13.487   4.574  1.00  0.00     0.238 A 
ATOM      4  O   UNL     1       0.535  13.326   5.197  1.00  0.00    -0.285 OA
ATOM      5  C   UNL     1      -1.744  13.783   5.264  1.00  0.00     0.111 A 
ATOM      6  C   UNL     1      -1.813  13.923   6.671  1.00  0.00     0.134 A 
ATOM      7  C   UNL     1      -3.041  14.210   7.282  1.00  0.00     0.093 A 
ATOM      8  C   UNL     1      -4.201  14.360   6.518  1.00  0.00     0.123 A 
ATOM      9  C   UNL     1      -4.140  14.224   5.127  1.00  0.00     0.094 A 
ATOM     10  C   UNL     1      -2.924  13.940   4.497  1.00  0.00     0.146 A 
ATOM     11  O   UNL     1      -2.893  13.820   3.175  1.00  0.00    -0.451 OA
ENDROOT
BRANCH   1  12
ATOM     12  C   UNL     1      -1.869  13.453   1.022  1.00  0.00     0.063 A 
ATOM     13  C   UNL     1      -1.910  14.564  -1.140  1.00  0.00     0.047 A 
ATOM     14  C   UNL     1      -1.835  14.628   0.254  1.00  0.00     0.020 A 
ATOM     15  C   UNL     1      -2.005  13.327  -1.784  1.00  0.00     0.119 A 
ATOM     16  C   UNL     1      -2.015  12.149  -1.027  1.00  0.00     0.093 A 
ATOM     17  C   UNL     1      -1.935  12.203   0.372  1.00  0.00     0.130 A 
BRANCH  15  18
ATOM     18  O   UNL     1      -2.083  13.280  -3.174  1.00  0.00    -0.508 OA
ATOM     19  H   UNL     1      -1.429  13.787  -3.758  1.00  0.00     0.293 HD
ENDBRANCH  15  18
BRANCH  17  20
ATOM     20  O   UNL     1      -1.898  11.021   1.112  1.00  0.00    -0.507 OA
ATOM     21  H   UNL     1      -1.156  10.341   0.990  1.00  0.00     0.293 HD
ENDBRANCH  17  20
ENDBRANCH   1  12
BRANCH   2  22
ATOM     22  O   UNL     1       0.588  13.025   2.469  1.00  0.00    -0.502 OA
ATOM     23  H   UNL     1       0.897  13.546   1.656  1.00  0.00     0.293 HD
ENDBRANCH   2  22
BRANCH   6  24
ATOM     24  O   UNL     1      -0.672  13.778   7.463  1.00  0.00    -0.507 OA
ATOM     25  H   UNL     1      -0.661  13.170   8.273  1.00  0.00     0.293 HD
ENDBRANCH   6  24
BRANCH   8  26
ATOM     26  O   UNL     1      -5.408  14.644   7.150  1.00  0.00    -0.508 OA
ATOM     27  H   UNL     1      -5.829  13.996   7.806  1.00  0.00     0.293 HD
ENDBRANCH   8  26
TORSDOF 6
ENDMDL
MODEL 3
REMARK VINA RESULT:    -5.778      1.853      7.243
REMARK INTER + INTRA:          -7.264
REMARK INTER:                  -6.871
REMARK INTRA:                  -0.392
REMARK UNBOUND:                -0.303
REMARK SMILES O=c1c(O)c(-c2ccc(O)cc2O)oc2cc(O)cc(O)c12
REMARK SMILES IDX 5 1 3 2 2 3 1 4 22 5 20 6 19 7 17 8 16 9 15 10 14 11 6 12
REMARK SMILES IDX 8 13 7 14 9 15 11 16 12 17 10 18 13 20 4 22 21 24 18 26
REMARK H PARENT 10 19 13 21 4 23 21 25 18 27
REMARK Flexibility Score: inf
ROOT
ATOM      1  C   UNL     1      -1.598  14.075   2.522  1.00  0.00     0.184 A 
ATOM      2  C   UNL     1      -2.147  12.982   1.826  1.00  0.00     0.208 A 
ATOM      3  C   UNL     1      -2.284  13.066   0.432  1.00  0.00     0.238 A 
ATOM      4  O   UNL     1      -2.786  12.098  -0.201  1.00  0.00    -0.285 OA
ATOM      5  C   UNL     1      -1.852  14.228  -0.241  1.00  0.00     0.111 A 
ATOM      6  C   UNL     1      -1.951  14.392  -1.644  1.00  0.00     0.134 A 
ATOM      7  C   UNL     1      -1.492  15.575  -2.240  1.00  0.00     0.093 A 
ATOM      8  C   UNL     1      -0.935  16.594  -1.465  1.00  0.00     0.123 A 
ATOM      9  C   UNL     1      -0.835  16.439  -0.079  1.00  0.00     0.094 A 
ATOM     10  C   UNL     1      -1.290  15.269   0.536  1.00  0.00     0.146 A 
ATOM     11  O   UNL     1      -1.187  15.148   1.855  1.00  0.00    -0.451 OA
ENDROOT
BRANCH   1  12
ATOM     12  C   UNL     1      -1.437  14.057   3.991  1.00  0.00     0.063 A 
ATOM     13  C   UNL     1       0.015  13.750   5.916  1.00  0.00     0.047 A 
ATOM     14  C   UNL     1      -0.174  13.769   4.532  1.00  0.00     0.020 A 
ATOM     15  C   UNL     1      -1.051  14.031   6.776  1.00  0.00     0.119 A 
ATOM     16  C   UNL     1      -2.309  14.342   6.245  1.00  0.00     0.093 A 
ATOM     17  C   UNL     1      -2.505  14.369   4.856  1.00  0.00     0.130 A 
BRANCH  15  18
ATOM     18  O   UNL     1      -0.848  14.003   8.154  1.00  0.00    -0.508 OA
ATOM     19  H   UNL     1      -1.242  13.272   8.733  1.00  0.00     0.293 HD
ENDBRANCH  15  18
BRANCH  17  20
ATOM     20  O   UNL     1      -3.750  14.728   4.338  1.00  0.00    -0.507 OA
ATOM     21  H   UNL     1      -4.231  14.149   3.659  1.00  0.00     0.293 HD
ENDBRANCH  17  20
ENDBRANCH   1  12
BRANCH   2  22
ATOM     22  O   UNL     1      -2.523  11.828   2.518  1.00  0.00    -0.502 OA
ATOM     23  H   UNL     1      -2.265  11.668   3.485  1.00  0.00     0.293 HD
ENDBRANCH   2  22
BRANCH   6  24
ATOM     24  O   UNL     1      -2.501  13.391  -2.447  1.00  0.00    -0.507 OA
ATOM     25  H   UNL     1      -3.050  13.609  -3.270  1.00  0.00     0.293 HD
ENDBRANCH   6  24
BRANCH   8  26
ATOM     26  O   UNL     1      -0.485  17.759  -2.083  1.00  0.00    -0.508 OA
ATOM     27  H   UNL     1       0.450  18.116  -1.923  1.00  0.00     0.293 HD
ENDBRANCH   8  26
TORSDOF 6
ENDMDL
MODEL 4
REMARK VINA RESULT:    -5.718      1.858      6.544
REMARK INTER + INTRA:          -7.191
REMARK INTER:                  -7.048
REMARK INTRA:                  -0.144
REMARK UNBOUND:                -0.303
REMARK SMILES O=c1c(O)c(-c2ccc(O)cc2O)oc2cc(O)cc(O)c12
REMARK SMILES IDX 5 1 3 2 2 3 1 4 22 5 20 6 19 7 17 8 16 9 15 10 14 11 6 12
REMARK SMILES IDX 8 13 7 14 9 15 11 16 12 17 10 18 13 20 4 22 21 24 18 26
REMARK H PARENT 10 19 13 21 4 23 21 25 18 27
REMARK Flexibility Score: inf
ROOT
ATOM      1  C   UNL     1      -1.955  13.272   4.807  1.00  0.00     0.184 A 
ATOM      2  C   UNL     1      -1.850  14.671   4.709  1.00  0.00     0.208 A 
ATOM      3  C   UNL     1      -1.703  15.253   3.441  1.00  0.00     0.238 A 
ATOM      4  O   UNL     1      -1.596  16.506   3.342  1.00  0.00    -0.285 OA
ATOM      5  C   UNL     1      -1.685  14.431   2.295  1.00  0.00     0.111 A 
ATOM      6  C   UNL     1      -1.545  14.937   0.981  1.00  0.00     0.134 A 
ATOM      7  C   UNL     1      -1.545  14.054  -0.109  1.00  0.00     0.093 A 
ATOM      8  C   UNL     1      -1.683  12.678   0.089  1.00  0.00     0.123 A 
ATOM      9  C   UNL     1      -1.822  12.171   1.385  1.00  0.00     0.094 A 
ATOM     10  C   UNL     1      -1.822  13.035   2.485  1.00  0.00     0.146 A 
ATOM     11  O   UNL     1      -1.951  12.527   3.706  1.00  0.00    -0.451 OA
ENDROOT
BRANCH   1  12
ATOM     12  C   UNL     1      -2.100  12.594   6.112  1.00  0.00     0.063 A 
ATOM     13  C   UNL     1      -1.374  12.357   8.420  1.00  0.00     0.047 A 
ATOM     14  C   UNL     1      -1.260  12.973   7.171  1.00  0.00     0.020 A 
ATOM     15  C   UNL     1      -2.336  11.365   8.630  1.00  0.00     0.119 A 
ATOM     16  C   UNL     1      -3.195  10.997   7.586  1.00  0.00     0.093 A 
ATOM     17  C   UNL     1      -3.090  11.615   6.331  1.00  0.00     0.130 A 
BRANCH  15  18
ATOM     18  O   UNL     1      -2.435  10.756   9.879  1.00  0.00    -0.508 OA
ATOM     19  H   UNL     1      -3.085  11.089  10.581  1.00  0.00     0.293 HD
ENDBRANCH  15  18
BRANCH  17  20
ATOM     20  O   UNL     1      -3.983  11.275   5.314  1.00  0.00    -0.507 OA
ATOM     21  H   UNL     1      -4.496  11.981   4.798  1.00  0.00     0.293 HD
ENDBRANCH  17  20
ENDBRANCH   1  12
BRANCH   2  22
ATOM     22  O   UNL     1      -1.917  15.461   5.860  1.00  0.00    -0.502 OA
ATOM     23  H   UNL     1      -2.791  15.652   6.336  1.00  0.00     0.293 HD
ENDBRANCH   2  22
BRANCH   6  24
ATOM     24  O   UNL     1      -1.406  16.307   0.750  1.00  0.00    -0.507 OA
ATOM     25  H   UNL     1      -2.080  16.825   0.200  1.00  0.00     0.293 HD
ENDBRANCH   6  24
BRANCH   8  26
ATOM     26  O   UNL     1      -1.681  11.823  -1.010  1.00  0.00    -0.508 OA
ATOM     27  H   UNL     1      -0.860  11.712  -1.594  1.00  0.00     0.293 HD
ENDBRANCH   8  26
TORSDOF 6
ENDMDL
MODEL 5
REMARK VINA RESULT:    -5.713      1.939      2.399
REMARK INTER + INTRA:          -7.185
REMARK INTER:                  -6.761
REMARK INTRA:                  -0.424
REMARK UNBOUND:                -0.303
REMARK SMILES O=c1c(O)c(-c2ccc(O)cc2O)oc2cc(O)cc(O)c12
REMARK SMILES IDX 5 1 3 2 2 3 1 4 22 5 20 6 19 7 17 8 16 9 15 10 14 11 6 12
REMARK SMILES IDX 8 13 7 14 9 15 11 16 12 17 10 18 13 20 4 22 21 24 18 26
REMARK H PARENT 10 19 13 21 4 23 21 25 18 27
REMARK Flexibility Score: inf
ROOT
ATOM      1  C   UNL     1      -1.894  13.842   2.202  1.00  0.00     0.184 A 
ATOM      2  C   UNL     1      -0.788  13.414   2.957  1.00  0.00     0.208 A 
ATOM      3  C   UNL     1      -0.840  13.520   4.356  1.00  0.00     0.238 A 
ATOM      4  O   UNL     1       0.150  13.150   5.043  1.00  0.00    -0.285 OA
ATOM      5  C   UNL     1      -2.002  14.030   4.972  1.00  0.00     0.111 A 
ATOM      6  C   UNL     1      -2.139  14.166   6.375  1.00  0.00     0.134 A 
ATOM      7  C   UNL     1      -3.330  14.674   6.912  1.00  0.00     0.093 A 
ATOM      8  C   UNL     1      -4.386  15.047   6.077  1.00  0.00     0.123 A 
ATOM      9  C   UNL     1      -4.258  14.916   4.691  1.00  0.00     0.094 A 
ATOM     10  C   UNL     1      -3.077  14.414   4.135  1.00  0.00     0.146 A 
ATOM     11  O   UNL     1      -2.980  14.303   2.815  1.00  0.00    -0.451 OA
ENDROOT
BRANCH   1  12
ATOM     12  C   UNL     1      -1.899  13.769   0.725  1.00  0.00     0.063 A 
ATOM     13  C   UNL     1      -2.196  12.438  -1.287  1.00  0.00     0.047 A 
ATOM     14  C   UNL     1      -2.177  12.540   0.106  1.00  0.00     0.020 A 
ATOM     15  C   UNL     1      -1.951  13.564  -2.078  1.00  0.00     0.119 A 
ATOM     16  C   UNL     1      -1.697  14.799  -1.470  1.00  0.00     0.093 A 
ATOM     17  C   UNL     1      -1.682  14.912  -0.072  1.00  0.00     0.130 A 
BRANCH  15  18
ATOM     18  O   UNL     1      -1.969  13.445  -3.467  1.00  0.00    -0.508 OA
ATOM     19  H   UNL     1      -1.675  12.593  -3.929  1.00  0.00     0.293 HD
ENDBRANCH  15  18
BRANCH  17  20
ATOM     20  O   UNL     1      -1.476  16.158   0.522  1.00  0.00    -0.507 OA
ATOM     21  H   UNL     1      -1.039  16.247   1.433  1.00  0.00     0.293 HD
ENDBRANCH  17  20
ENDBRANCH   1  12
BRANCH   2  22
ATOM     22  O   UNL     1       0.330  12.871   2.319  1.00  0.00    -0.502 OA
ATOM     23  H   UNL     1       0.417  11.879   2.129  1.00  0.00     0.293 HD
ENDBRANCH   2  22
BRANCH   6  24
ATOM     24  O   UNL     1      -1.103  13.800   7.236  1.00  0.00    -0.507 OA
ATOM     25  H   UNL     1      -1.183  13.905   8.240  1.00  0.00     0.293 HD
ENDBRANCH   6  24
BRANCH   8  26
ATOM     26  O   UNL     1      -5.559  15.548   6.636  1.00  0.00    -0.508 OA
ATOM     27  H   UNL     1      -6.325  14.938   6.899  1.00  0.00     0.293 HD
ENDBRANCH   8  26
TORSDOF 6
ENDMDL
MODEL 6
REMARK VINA RESULT:    -5.515      2.196      6.954
REMARK INTER + INTRA:          -6.946
REMARK INTER:                  -6.547
REMARK INTRA:                  -0.399
REMARK UNBOUND:                -0.303
REMARK SMILES O=c1c(O)c(-c2ccc(O)cc2O)oc2cc(O)cc(O)c12
REMARK SMILES IDX 5 1 3 2 2 3 1 4 22 5 20 6 19 7 17 8 16 9 15 10 14 11 6 12
REMARK SMILES IDX 8 13 7 14 9 15 11 16 12 17 10 18 13 20 4 22 21 24 18 26
REMARK H PARENT 10 19 13 21 4 23 21 25 18 27
REMARK Flexibility Score: inf
ROOT
ATOM      1  C   UNL     1      -1.761  14.729   2.397  1.00  0.00     0.184 A 
ATOM      2  C   UNL     1      -1.095  15.966   2.353  1.00  0.00     0.208 A 
ATOM      3  C   UNL     1      -0.729  16.495   1.106  1.00  0.00     0.238 A 
ATOM      4  O   UNL     1      -0.121  17.599   1.055  1.00  0.00    -0.285 OA
ATOM      5  C   UNL     1      -1.053  15.790  -0.072  1.00  0.00     0.111 A 
ATOM      6  C   UNL     1      -0.725  16.254  -1.368  1.00  0.00     0.134 A 
ATOM      7  C   UNL     1      -1.090  15.498  -2.491  1.00  0.00     0.093 A 
ATOM      8  C   UNL     1      -1.776  14.291  -2.346  1.00  0.00     0.123 A 
ATOM      9  C   UNL     1      -2.103  13.826  -1.068  1.00  0.00     0.094 A 
ATOM     10  C   UNL     1      -1.747  14.563   0.065  1.00  0.00     0.146 A 
ATOM     11  O   UNL     1      -2.066  14.097   1.268  1.00  0.00    -0.451 OA
ENDROOT
BRANCH   1  12
ATOM     12  C   UNL     1      -2.164  14.109   3.677  1.00  0.00     0.063 A 
ATOM     13  C   UNL     1      -1.569  12.755   5.606  1.00  0.00     0.047 A 
ATOM     14  C   UNL     1      -1.223  13.349   4.390  1.00  0.00     0.020 A 
ATOM     15  C   UNL     1      -2.853  12.924   6.132  1.00  0.00     0.119 A 
ATOM     16  C   UNL     1      -3.791  13.701   5.440  1.00  0.00     0.093 A 
ATOM     17  C   UNL     1      -3.450  14.305   4.221  1.00  0.00     0.130 A 
BRANCH  15  18
ATOM     18  O   UNL     1      -3.184  12.322   7.344  1.00  0.00    -0.508 OA
ATOM     19  H   UNL     1      -3.340  12.869   8.182  1.00  0.00     0.293 HD
ENDBRANCH  15  18
BRANCH  17  20
ATOM     20  O   UNL     1      -4.377  15.116   3.565  1.00  0.00    -0.507 OA
ATOM     21  H   UNL     1      -4.090  15.800   2.873  1.00  0.00     0.293 HD
ENDBRANCH  17  20
ENDBRANCH   1  12
BRANCH   2  22
ATOM     22  O   UNL     1      -0.829  16.661   3.535  1.00  0.00    -0.502 OA
ATOM     23  H   UNL     1      -0.712  16.191   4.426  1.00  0.00     0.293 HD
ENDBRANCH   2  22
BRANCH   6  24
ATOM     24  O   UNL     1      -0.040  17.458  -1.548  1.00  0.00    -0.507 OA
ATOM     25  H   UNL     1      -0.523  18.314  -1.794  1.00  0.00     0.293 HD
ENDBRANCH   6  24
BRANCH   8  26
ATOM     26  O   UNL     1      -2.128  13.560  -3.478  1.00  0.00    -0.508 OA
ATOM     27  H   UNL     1      -2.436  12.596  -3.412  1.00  0.00     0.293 HD
ENDBRANCH   8  26
TORSDOF 6
ENDMDL
MODEL 7
REMARK VINA RESULT:    -5.462      4.589      7.699
REMARK INTER + INTRA:          -6.882
REMARK INTER:                  -6.498
REMARK INTRA:                  -0.385
REMARK UNBOUND:                -0.303
REMARK SMILES O=c1c(O)c(-c2ccc(O)cc2O)oc2cc(O)cc(O)c12
REMARK SMILES IDX 5 1 3 2 2 3 1 4 22 5 20 6 19 7 17 8 16 9 15 10 14 11 6 12
REMARK SMILES IDX 8 13 7 14 9 15 11 16 12 17 10 18 13 20 4 22 21 24 18 26
REMARK H PARENT 10 19 13 21 4 23 21 25 18 27
REMARK Flexibility Score: inf
ROOT
ATOM      1  C   UNL     1      -5.832  10.411   6.852  1.00  0.00     0.184 A 
ATOM      2  C   UNL     1      -5.347   9.517   7.823  1.00  0.00     0.208 A 
ATOM      3  C   UNL     1      -6.110   8.383   8.142  1.00  0.00     0.238 A 
ATOM      4  O   UNL     1      -5.691   7.580   9.019  1.00  0.00    -0.285 OA
ATOM      5  C   UNL     1      -7.329   8.153   7.471  1.00  0.00     0.111 A 
ATOM      6  C   UNL     1      -8.156   7.033   7.730  1.00  0.00     0.134 A 
ATOM      7  C   UNL     1      -9.351   6.871   7.014  1.00  0.00     0.093 A 
ATOM      8  C   UNL     1      -9.735   7.802   6.046  1.00  0.00     0.123 A 
ATOM      9  C   UNL     1      -8.923   8.911   5.786  1.00  0.00     0.094 A 
ATOM     10  C   UNL     1      -7.729   9.093   6.490  1.00  0.00     0.146 A 
ATOM     11  O   UNL     1      -6.978  10.156   6.227  1.00  0.00    -0.451 OA
ENDROOT
BRANCH   1  12
ATOM     12  C   UNL     1      -5.085  11.630   6.478  1.00  0.00     0.063 A 
ATOM     13  C   UNL     1      -3.124  12.628   5.445  1.00  0.00     0.047 A 
ATOM     14  C   UNL     1      -3.853  11.496   5.818  1.00  0.00     0.020 A 
ATOM     15  C   UNL     1      -3.621  13.906   5.714  1.00  0.00     0.119 A 
ATOM     16  C   UNL     1      -4.860  14.050   6.351  1.00  0.00     0.093 A 
ATOM     17  C   UNL     1      -5.602  12.919   6.724  1.00  0.00     0.130 A 
BRANCH  15  18
ATOM     18  O   UNL     1      -2.880  15.025   5.340  1.00  0.00    -0.508 OA
ATOM     19  H   UNL     1      -3.188  15.639   4.595  1.00  0.00     0.293 HD
ENDBRANCH  15  18
BRANCH  17  20
ATOM     20  O   UNL     1      -6.857  13.075   7.313  1.00  0.00    -0.507 OA
ATOM     21  H   UNL     1      -7.008  13.724   8.077  1.00  0.00     0.293 HD
ENDBRANCH  17  20
ENDBRANCH   1  12
BRANCH   2  22
ATOM     22  O   UNL     1      -4.114   9.750   8.437  1.00  0.00    -0.502 OA
ATOM     23  H   UNL     1      -3.233   9.559   7.973  1.00  0.00     0.293 HD
ENDBRANCH   2  22
BRANCH   6  24
ATOM     24  O   UNL     1      -7.800   6.084   8.689  1.00  0.00    -0.507 OA
ATOM     25  H   UNL     1      -7.120   5.359   8.495  1.00  0.00     0.293 HD
ENDBRANCH   6  24
BRANCH   8  26
ATOM     26  O   UNL     1     -10.926   7.617   5.349  1.00  0.00    -0.508 OA
ATOM     27  H   UNL     1     -11.220   8.259   4.621  1.00  0.00     0.293 HD
ENDBRANCH   8  26
TORSDOF 6
ENDMDL
MODEL 8
REMARK VINA RESULT:    -5.416      2.465      3.161
REMARK INTER + INTRA:          -6.827
REMARK INTER:                  -6.448
REMARK INTRA:                  -0.379
REMARK UNBOUND:                -0.303
REMARK SMILES O=c1c(O)c(-c2ccc(O)cc2O)oc2cc(O)cc(O)c12
REMARK SMILES IDX 5 1 3 2 2 3 1 4 22 5 20 6 19 7 17 8 16 9 15 10 14 11 6 12
REMARK SMILES IDX 8 13 7 14 9 15 11 16 12 17 10 18 13 20 4 22 21 24 18 26
REMARK H PARENT 10 19 13 21 4 23 21 25 18 27
REMARK Flexibility Score: inf
ROOT
ATOM      1  C   UNL     1      -2.642  14.388   3.050  1.00  0.00     0.184 A 
ATOM      2  C   UNL     1      -2.193  13.225   3.701  1.00  0.00     0.208 A 
ATOM      3  C   UNL     1      -2.852  12.803   4.866  1.00  0.00     0.238 A 
ATOM      4  O   UNL     1      -2.451  11.768   5.464  1.00  0.00    -0.285 OA
ATOM      5  C   UNL     1      -3.958  13.536   5.345  1.00  0.00     0.111 A 
ATOM      6  C   UNL     1      -4.680  13.177   6.509  1.00  0.00     0.134 A 
ATOM      7  C   UNL     1      -5.774  13.954   6.916  1.00  0.00     0.093 A 
ATOM      8  C   UNL     1      -6.161  15.079   6.185  1.00  0.00     0.123 A 
ATOM      9  C   UNL     1      -5.451  15.440   5.035  1.00  0.00     0.094 A 
ATOM     10  C   UNL     1      -4.356  14.680   4.613  1.00  0.00     0.146 A 
ATOM     11  O   UNL     1      -3.697  15.047   3.519  1.00  0.00    -0.451 OA
ENDROOT
BRANCH   1  12
ATOM     12  C   UNL     1      -1.986  14.894   1.826  1.00  0.00     0.063 A 
ATOM     13  C   UNL     1      -0.358  16.385   0.809  1.00  0.00     0.047 A 
ATOM     14  C   UNL     1      -1.002  15.888   1.945  1.00  0.00     0.020 A 
ATOM     15  C   UNL     1      -0.678  15.886  -0.457  1.00  0.00     0.119 A 
ATOM     16  C   UNL     1      -1.641  14.878  -0.582  1.00  0.00     0.093 A 
ATOM     17  C   UNL     1      -2.289  14.369   0.553  1.00  0.00     0.130 A 
BRANCH  15  18
ATOM     18  O   UNL     1      -0.030  16.395  -1.580  1.00  0.00    -0.508 OA
ATOM     19  H   UNL     1       0.933  16.160  -1.788  1.00  0.00     0.293 HD
ENDBRANCH  15  18
BRANCH  17  20
ATOM     20  O   UNL     1      -3.212  13.331   0.420  1.00  0.00    -0.507 OA
ATOM     21  H   UNL     1      -2.993  12.490  -0.102  1.00  0.00     0.293 HD
ENDBRANCH  17  20
ENDBRANCH   1  12
BRANCH   2  22
ATOM     22  O   UNL     1      -1.124  12.496   3.175  1.00  0.00    -0.502 OA
ATOM     23  H   UNL     1      -0.627  12.788   2.341  1.00  0.00     0.293 HD
ENDBRANCH   2  22
BRANCH   6  24
ATOM     24  O   UNL     1      -4.319  12.057   7.260  1.00  0.00    -0.507 OA
ATOM     25  H   UNL     1      -4.005  12.138   8.220  1.00  0.00     0.293 HD
ENDBRANCH   6  24
BRANCH   8  26
ATOM     26  O   UNL     1      -7.252  15.833   6.611  1.00  0.00    -0.508 OA
ATOM     27  H   UNL     1      -7.267  16.842   6.520  1.00  0.00     0.293 HD
ENDBRANCH   8  26
TORSDOF 6
ENDMDL
MODEL 9
REMARK VINA RESULT:    -5.379      3.309      6.691
REMARK INTER + INTRA:          -6.783
REMARK INTER:                  -6.390
REMARK INTRA:                  -0.393
REMARK UNBOUND:                -0.303
REMARK SMILES O=c1c(O)c(-c2ccc(O)cc2O)oc2cc(O)cc(O)c12
REMARK SMILES IDX 5 1 3 2 2 3 1 4 22 5 20 6 19 7 17 8 16 9 15 10 14 11 6 12
REMARK SMILES IDX 8 13 7 14 9 15 11 16 12 17 10 18 13 20 4 22 21 24 18 26
REMARK H PARENT 10 19 13 21 4 23 21 25 18 27
REMARK Flexibility Score: inf
ROOT
ATOM      1  C   UNL     1      -0.240  15.757   2.745  1.00  0.00     0.184 A 
ATOM      2  C   UNL     1      -0.398  16.457   1.536  1.00  0.00     0.208 A 
ATOM      3  C   UNL     1      -1.020  15.812   0.456  1.00  0.00     0.238 A 
ATOM      4  O   UNL     1      -1.157  16.426  -0.637  1.00  0.00    -0.285 OA
ATOM      5  C   UNL     1      -1.489  14.491   0.610  1.00  0.00     0.111 A 
ATOM      6  C   UNL     1      -2.129  13.771  -0.427  1.00  0.00     0.134 A 
ATOM      7  C   UNL     1      -2.575  12.462  -0.192  1.00  0.00     0.093 A 
ATOM      8  C   UNL     1      -2.396  11.860   1.055  1.00  0.00     0.123 A 
ATOM      9  C   UNL     1      -1.763  12.566   2.084  1.00  0.00     0.094 A 
ATOM     10  C   UNL     1      -1.309  13.871   1.870  1.00  0.00     0.146 A 
ATOM     11  O   UNL     1      -0.708  14.518   2.863  1.00  0.00    -0.451 OA
ENDROOT
BRANCH   1  12
ATOM     12  C   UNL     1       0.416  16.373   3.918  1.00  0.00     0.063 A 
ATOM     13  C   UNL     1       0.204  17.475   6.075  1.00  0.00     0.047 A 
ATOM     14  C   UNL     1      -0.383  16.891   4.949  1.00  0.00     0.020 A 
ATOM     15  C   UNL     1       1.596  17.536   6.190  1.00  0.00     0.119 A 
ATOM     16  C   UNL     1       2.401  16.999   5.178  1.00  0.00     0.093 A 
ATOM     17  C   UNL     1       1.819  16.407   4.047  1.00  0.00     0.130 A 
BRANCH  15  18
ATOM     18  O   UNL     1       2.167  18.125   7.316  1.00  0.00    -0.508 OA
ATOM     19  H   UNL     1       2.758  18.944   7.243  1.00  0.00     0.293 HD
ENDBRANCH  15  18
BRANCH  17  20
ATOM     20  O   UNL     1       2.632  15.833   3.069  1.00  0.00    -0.507 OA
ATOM     21  H   UNL     1       2.781  14.831   3.022  1.00  0.00     0.293 HD
ENDBRANCH  17  20
ENDBRANCH   1  12
BRANCH   2  22
ATOM     22  O   UNL     1       0.037  17.781   1.430  1.00  0.00    -0.502 OA
ATOM     23  H   UNL     1       0.932  18.026   1.023  1.00  0.00     0.293 HD
ENDBRANCH   2  22
BRANCH   6  24
ATOM     24  O   UNL     1      -2.325  14.344  -1.685  1.00  0.00    -0.507 OA
ATOM     25  H   UNL     1      -3.198  14.793  -1.936  1.00  0.00     0.293 HD
ENDBRANCH   6  24
BRANCH   8  26
ATOM     26  O   UNL     1      -2.849  10.560   1.263  1.00  0.00    -0.508 OA
ATOM     27  H   UNL     1      -3.267  10.278   2.142  1.00  0.00     0.293 HD
ENDBRANCH   8  26
TORSDOF 6
ENDMDL
