MODEL 1
REMARK VINA RESULT:    -4.578      0.000      0.000
REMARK INTER + INTRA:          -9.000
REMARK INTER:                  -7.790
REMARK INTRA:                  -1.210
REMARK UNBOUND:                -1.210
REMARK SMILES CCCCCCCCCCCCCC(=O)[O-]
REMARK SMILES IDX 8 1 9 2 10 3 11 4 12 5 13 6 14 7 15 8 16 9 7 10 6 11 5 12
REMARK SMILES IDX 4 13 3 14 2 15 1 16
REMARK H PARENT
REMARK Flexibility Score: inf
ROOT
ATOM      1  C   UNL     1      11.820 -16.480  10.451  1.00  0.00     0.000 C 
ENDROOT
BRANCH   1   2
ATOM      2  C   UNL     1      12.964 -17.347  11.006  1.00  0.00     0.000 C 
BRANCH   2   3
ATOM      3  C   UNL     1      14.315 -16.615  10.994  1.00  0.00     0.000 C 
BRANCH   3   4
ATOM      4  C   UNL     1      15.346 -17.259  11.938  1.00  0.00     0.000 C 
BRANCH   4   5
ATOM      5  C   UNL     1      15.560 -16.455  13.234  1.00  0.00     0.006 C 
BRANCH   5   6
ATOM      6  C   UNL     1      15.706 -17.329  14.492  1.00  0.00     0.053 C 
BRANCH   6   7
ATOM      7  C   UNL     1      14.444 -17.397  15.299  1.00  0.00     0.041 C 
ATOM      8  O   UNL     1      13.539 -18.218  14.996  1.00  0.00    -0.550 OA
ATOM      9  O   UNL     1      14.281 -16.573  16.405  1.00  0.00    -0.550 OA
ENDBRANCH   6   7
ENDBRANCH   5   6
ENDBRANCH   4   5
ENDBRANCH   3   4
ENDBRANCH   2   3
ENDBRANCH   1   2
BRANCH   1  10
ATOM     10  C   UNL     1      11.003 -15.799  11.561  1.00  0.00     0.000 C 
BRANCH  10  11
ATOM     11  C   UNL     1      11.343 -16.332  12.961  1.00  0.00    -0.000 C 
BRANCH  11  12
ATOM     12  C   UNL     1      11.891 -15.214  13.857  1.00  0.00    -0.000 C 
BRANCH  12  13
ATOM     13  C   UNL     1      11.223 -15.238  15.239  1.00  0.00    -0.000 C 
BRANCH  13  14
ATOM     14  C   UNL     1      11.692 -14.091  16.152  1.00  0.00    -0.000 C 
BRANCH  14  15
ATOM     15  C   UNL     1      11.381 -12.678  15.627  1.00  0.00    -0.003 C 
ATOM     16  C   UNL     1      12.623 -11.939  15.129  1.00  0.00     0.004 C 
ENDBRANCH  14  15
ENDBRANCH  13  14
ENDBRANCH  12  13
ENDBRANCH  11  12
ENDBRANCH  10  11
ENDBRANCH   1  10
TORSDOF 12
ENDMDL
MODEL 2
REMARK VINA RESULT:    -4.449      1.728      4.381
REMARK INTER + INTRA:          -8.781
REMARK INTER:                  -7.393
REMARK INTRA:                  -1.388
REMARK UNBOUND:                -1.210
REMARK SMILES CCCCCCCCCCCCCC(=O)[O-]
REMARK SMILES IDX 8 1 9 2 10 3 11 4 12 5 13 6 14 7 15 8 16 9 7 10 6 11 5 12
REMARK SMILES IDX 4 13 3 14 2 15 1 16
REMARK H PARENT
REMARK Flexibility Score: inf
ROOT
ATOM      1  C   UNL     1      12.442 -16.140   9.941  1.00  0.00     0.000 C 
ENDROOT
BRANCH   1   2
ATOM      2  C   UNL     1      10.959 -16.198  10.344  1.00  0.00     0.000 C 
BRANCH   2   3
ATOM      3  C   UNL     1      10.627 -15.254  11.510  1.00  0.00     0.000 C 
BRANCH   3   4
ATOM      4  C   UNL     1      10.662 -15.962  12.875  1.00  0.00     0.000 C 
BRANCH   4   5
ATOM      5  C   UNL     1      11.513 -15.216  13.919  1.00  0.00     0.006 C 
BRANCH   5   6
ATOM      6  C   UNL     1      11.077 -15.467  15.374  1.00  0.00     0.053 C 
BRANCH   6   7
ATOM      7  C   UNL     1      11.528 -14.384  16.308  1.00  0.00     0.041 C 
ATOM      8  O   UNL     1      12.075 -14.677  17.403  1.00  0.00    -0.550 OA
ATOM      9  O   UNL     1      11.370 -13.050  15.953  1.00  0.00    -0.550 OA
ENDBRANCH   6   7
ENDBRANCH   5   6
ENDBRANCH   4   5
ENDBRANCH   3   4
ENDBRANCH   2   3
ENDBRANCH   1   2
BRANCH   1  10
ATOM     10  C   UNL     1      13.180 -17.462  10.209  1.00  0.00     0.000 C 
BRANCH  10  11
ATOM     11  C   UNL     1      13.635 -17.603  11.669  1.00  0.00    -0.000 C 
BRANCH  11  12
ATOM     12  C   UNL     1      15.022 -16.980  11.875  1.00  0.00    -0.000 C 
BRANCH  12  13
ATOM     13  C   UNL     1      14.962 -15.821  12.882  1.00  0.00    -0.000 C 
BRANCH  13  14
ATOM     14  C   UNL     1      15.637 -16.156  14.223  1.00  0.00    -0.000 C 
BRANCH  14  15
ATOM     15  C   UNL     1      15.426 -17.601  14.711  1.00  0.00    -0.003 C 
ATOM     16  C   UNL     1      14.112 -17.790  15.468  1.00  0.00     0.004 C 
ENDBRANCH  14  15
ENDBRANCH  13  14
ENDBRANCH  12  13
ENDBRANCH  11  12
ENDBRANCH  10  11
ENDBRANCH   1  10
TORSDOF 12
ENDMDL
MODEL 3
REMARK VINA RESULT:    -4.395      2.517      4.191
REMARK INTER + INTRA:          -8.689
REMARK INTER:                  -6.708
REMARK INTRA:                  -1.981
REMARK UNBOUND:                -1.210
REMARK SMILES CCCCCCCCCCCCCC(=O)[O-]
REMARK SMILES IDX 8 1 9 2 10 3 11 4 12 5 13 6 14 7 15 8 16 9 7 10 6 11 5 12
REMARK SMILES IDX 4 13 3 14 2 15 1 16
REMARK H PARENT
REMARK Flexibility Score: inf
ROOT
ATOM      1  C   UNL     1      14.429 -17.654  13.380  1.00  0.00     0.000 C 
ENDROOT
BRANCH   1   2
ATOM      2  C   UNL     1      15.435 -16.828  12.559  1.00  0.00     0.000 C 
BRANCH   2   3
ATOM      3  C   UNL     1      15.238 -15.315  12.737  1.00  0.00     0.000 C 
BRANCH   3   4
ATOM      4  C   UNL     1      16.332 -14.672  13.608  1.00  0.00     0.000 C 
BRANCH   4   5
ATOM      5  C   UNL     1      15.842 -13.427  14.368  1.00  0.00     0.006 C 
BRANCH   5   6
ATOM      6  C   UNL     1      14.489 -12.886  13.872  1.00  0.00     0.053 C 
BRANCH   6   7
ATOM      7  C   UNL     1      13.956 -11.781  14.734  1.00  0.00     0.041 C 
ATOM      8  O   UNL     1      14.650 -10.754  14.952  1.00  0.00    -0.550 OA
ATOM      9  O   UNL     1      12.678 -11.873  15.271  1.00  0.00    -0.550 OA
ENDBRANCH   6   7
ENDBRANCH   5   6
ENDBRANCH   4   5
ENDBRANCH   3   4
ENDBRANCH   2   3
ENDBRANCH   1   2
BRANCH   1  10
ATOM     10  C   UNL     1      14.817 -17.751  14.864  1.00  0.00     0.000 C 
BRANCH  10  11
ATOM     11  C   UNL     1      13.676 -17.332  15.804  1.00  0.00    -0.000 C 
BRANCH  11  12
ATOM     12  C   UNL     1      13.713 -15.824  16.077  1.00  0.00    -0.000 C 
BRANCH  12  13
ATOM     13  C   UNL     1      12.295 -15.260  16.254  1.00  0.00    -0.000 C 
BRANCH  13  14
ATOM     14  C   UNL     1      11.326 -15.717  15.150  1.00  0.00    -0.000 C 
BRANCH  14  15
ATOM     15  C   UNL     1      11.602 -15.117  13.759  1.00  0.00    -0.003 C 
ATOM     16  C   UNL     1      10.837 -15.824  12.641  1.00  0.00     0.004 C 
ENDBRANCH  14  15
ENDBRANCH  13  14
ENDBRANCH  12  13
ENDBRANCH  11  12
ENDBRANCH  10  11
ENDBRANCH   1  10
TORSDOF 12
ENDMDL
MODEL 4
REMARK VINA RESULT:    -4.381      2.961      5.556
REMARK INTER + INTRA:          -8.664
REMARK INTER:                  -7.265
REMARK INTRA:                  -1.399
REMARK UNBOUND:                -1.210
REMARK SMILES CCCCCCCCCCCCCC(=O)[O-]
REMARK SMILES IDX 8 1 9 2 10 3 11 4 12 5 13 6 14 7 15 8 16 9 7 10 6 11 5 12
REMARK SMILES IDX 4 13 3 14 2 15 1 16
REMARK H PARENT
REMARK Flexibility Score: inf
ROOT
ATOM      1  C   UNL     1      11.194 -15.143  14.094  1.00  0.00     0.000 C 
ENDROOT
BRANCH   1   2
ATOM      2  C   UNL     1      11.081 -15.151  15.629  1.00  0.00     0.000 C 
BRANCH   2   3
ATOM      3  C   UNL     1      11.769 -13.939  16.276  1.00  0.00     0.000 C 
BRANCH   3   4
ATOM      4  C   UNL     1      11.754 -12.695  15.372  1.00  0.00     0.000 C 
BRANCH   4   5
ATOM      5  C   UNL     1      13.156 -12.102  15.140  1.00  0.00     0.006 C 
BRANCH   5   6
ATOM      6  C   UNL     1      13.174 -10.568  15.024  1.00  0.00     0.053 C 
BRANCH   6   7
ATOM      7  C   UNL     1      14.501 -10.036  14.572  1.00  0.00     0.041 C 
ATOM      8  O   UNL     1      14.560  -9.014  13.840  1.00  0.00    -0.550 OA
ATOM      9  O   UNL     1      15.674 -10.654  14.986  1.00  0.00    -0.550 OA
ENDBRANCH   6   7
ENDBRANCH   5   6
ENDBRANCH   4   5
ENDBRANCH   3   4
ENDBRANCH   2   3
ENDBRANCH   1   2
BRANCH   1  10
ATOM     10  C   UNL     1      11.503 -16.534  13.517  1.00  0.00     0.000 C 
BRANCH  10  11
ATOM     11  C   UNL     1      12.991 -16.723  13.189  1.00  0.00    -0.000 C 
BRANCH  11  12
ATOM     12  C   UNL     1      13.704 -17.505  14.299  1.00  0.00    -0.000 C 
BRANCH  12  13
ATOM     13  C   UNL     1      14.610 -16.583  15.128  1.00  0.00    -0.000 C 
BRANCH  13  14
ATOM     14  C   UNL     1      14.890 -15.237  14.436  1.00  0.00    -0.000 C 
BRANCH  14  15
ATOM     15  C   UNL     1      16.233 -15.160  13.689  1.00  0.00    -0.003 C 
ATOM     16  C   UNL     1      16.717 -13.727  13.474  1.00  0.00     0.004 C 
ENDBRANCH  14  15
ENDBRANCH  13  14
ENDBRANCH  12  13
ENDBRANCH  11  12
ENDBRANCH  10  11
ENDBRANCH   1  10
TORSDOF 12
ENDMDL
MODEL 5
REMARK VINA RESULT:    -4.368      3.233      6.452
REMARK INTER + INTRA:          -8.643
REMARK INTER:                  -7.605
REMARK INTRA:                  -1.037
REMARK UNBOUND:                -1.210
REMARK SMILES CCCCCCCCCCCCCC(=O)[O-]
REMARK SMILES IDX 8 1 9 2 10 3 11 4 12 5 13 6 14 7 15 8 16 9 7 10 6 11 5 12
REMARK SMILES IDX 4 13 3 14 2 15 1 16
REMARK H PARENT
REMARK Flexibility Score: inf
ROOT
ATOM      1  C   UNL     1      12.212 -13.459  16.196  1.00  0.00     0.000 C 
ENDROOT
BRANCH   1   2
ATOM      2  C   UNL     1      11.399 -12.712  15.126  1.00  0.00     0.000 C 
BRANCH   2   3
ATOM      3  C   UNL     1      11.567 -11.187  15.217  1.00  0.00     0.000 C 
BRANCH   3   4
ATOM      4  C   UNL     1      13.036 -10.743  15.105  1.00  0.00     0.000 C 
BRANCH   4   5
ATOM      5  C   UNL     1      13.205  -9.213  15.104  1.00  0.00     0.006 C 
BRANCH   5   6
ATOM      6  C   UNL     1      14.670  -8.747  15.044  1.00  0.00     0.053 C 
BRANCH   6   7
ATOM      7  C   UNL     1      15.459  -9.452  13.982  1.00  0.00     0.041 C 
ATOM      8  O   UNL     1      16.329 -10.305  14.297  1.00  0.00    -0.550 OA
ATOM      9  O   UNL     1      15.210  -9.189  12.641  1.00  0.00    -0.550 OA
ENDBRANCH   6   7
ENDBRANCH   5   6
ENDBRANCH   4   5
ENDBRANCH   3   4
ENDBRANCH   2   3
ENDBRANCH   1   2
BRANCH   1  10
ATOM     10  C   UNL     1      12.179 -14.984  16.006  1.00  0.00     0.000 C 
BRANCH  10  11
ATOM     11  C   UNL     1      11.006 -15.447  15.128  1.00  0.00    -0.000 C 
BRANCH  11  12
ATOM     12  C   UNL     1      11.491 -16.379  14.010  1.00  0.00    -0.000 C 
BRANCH  12  13
ATOM     13  C   UNL     1      12.803 -15.867  13.396  1.00  0.00    -0.000 C 
BRANCH  13  14
ATOM     14  C   UNL     1      13.877 -16.963  13.279  1.00  0.00    -0.000 C 
BRANCH  14  15
ATOM     15  C   UNL     1      14.961 -16.925  14.371  1.00  0.00    -0.003 C 
ATOM     16  C   UNL     1      14.622 -17.796  15.581  1.00  0.00     0.004 C 
ENDBRANCH  14  15
ENDBRANCH  13  14
ENDBRANCH  12  13
ENDBRANCH  11  12
ENDBRANCH  10  11
ENDBRANCH   1  10
TORSDOF 12
ENDMDL
MODEL 6
REMARK VINA RESULT:    -4.368      2.307      5.308
REMARK INTER + INTRA:          -8.642
REMARK INTER:                  -7.416
REMARK INTRA:                  -1.226
REMARK UNBOUND:                -1.210
REMARK SMILES CCCCCCCCCCCCCC(=O)[O-]
REMARK SMILES IDX 8 1 9 2 10 3 11 4 12 5 13 6 14 7 15 8 16 9 7 10 6 11 5 12
REMARK SMILES IDX 4 13 3 14 2 15 1 16
REMARK H PARENT
REMARK Flexibility Score: inf
ROOT
ATOM      1  C   UNL     1      15.297 -17.100  12.843  1.00  0.00     0.000 C 
ENDROOT
BRANCH   1   2
ATOM      2  C   UNL     1      15.407 -17.534  14.315  1.00  0.00     0.000 C 
BRANCH   2   3
ATOM      3  C   UNL     1      14.034 -17.752  14.969  1.00  0.00     0.000 C 
BRANCH   3   4
ATOM      4  C   UNL     1      13.653 -16.621  15.941  1.00  0.00     0.000 C 
BRANCH   4   5
ATOM      5  C   UNL     1      12.612 -15.650  15.355  1.00  0.00     0.006 C 
BRANCH   5   6
ATOM      6  C   UNL     1      13.211 -14.329  14.841  1.00  0.00     0.053 C 
BRANCH   6   7
ATOM      7  C   UNL     1      12.515 -13.123  15.397  1.00  0.00     0.041 C 
ATOM      8  O   UNL     1      12.908 -11.966  15.095  1.00  0.00    -0.550 OA
ATOM      9  O   UNL     1      11.410 -13.278  16.226  1.00  0.00    -0.550 OA
ENDBRANCH   6   7
ENDBRANCH   5   6
ENDBRANCH   4   5
ENDBRANCH   3   4
ENDBRANCH   2   3
ENDBRANCH   1   2
BRANCH   1  10
ATOM     10  C   UNL     1      13.926 -17.429  12.231  1.00  0.00     0.000 C 
BRANCH  10  11
ATOM     11  C   UNL     1      13.250 -16.204  11.596  1.00  0.00    -0.000 C 
BRANCH  11  12
ATOM     12  C   UNL     1      11.726 -16.274  11.755  1.00  0.00    -0.000 C 
BRANCH  12  13
ATOM     13  C   UNL     1      11.016 -15.739  10.502  1.00  0.00    -0.000 C 
BRANCH  13  14
ATOM     14  C   UNL     1      11.023 -16.742   9.335  1.00  0.00    -0.000 C 
BRANCH  14  15
ATOM     15  C   UNL     1      10.387 -16.223   8.033  1.00  0.00    -0.003 C 
ATOM     16  C   UNL     1       9.509 -17.265   7.340  1.00  0.00     0.004 C 
ENDBRANCH  14  15
ENDBRANCH  13  14
ENDBRANCH  12  13
ENDBRANCH  11  12
ENDBRANCH  10  11
ENDBRANCH   1  10
TORSDOF 12
ENDMDL
MODEL 7
REMARK VINA RESULT:    -4.349      2.596      5.642
REMARK INTER + INTRA:          -8.611
REMARK INTER:                  -7.653
REMARK INTRA:                  -0.957
REMARK UNBOUND:                -1.210
REMARK SMILES CCCCCCCCCCCCCC(=O)[O-]
REMARK SMILES IDX 8 1 9 2 10 3 11 4 12 5 13 6 14 7 15 8 16 9 7 10 6 11 5 12
REMARK SMILES IDX 4 13 3 14 2 15 1 16
REMARK H PARENT
REMARK Flexibility Score: inf
ROOT
ATOM      1  C   UNL     1      12.606 -11.602  15.158  1.00  0.00     0.000 C 
ENDROOT
BRANCH   1   2
ATOM      2  C   UNL     1      11.445 -12.585  15.383  1.00  0.00     0.000 C 
BRANCH   2   3
ATOM      3  C   UNL     1      11.776 -13.658  16.433  1.00  0.00     0.000 C 
BRANCH   3   4
ATOM      4  C   UNL     1      11.303 -15.062  16.018  1.00  0.00     0.000 C 
BRANCH   4   5
ATOM      5  C   UNL     1      11.603 -15.386  14.543  1.00  0.00     0.006 C 
BRANCH   5   6
ATOM      6  C   UNL     1      13.062 -15.801  14.281  1.00  0.00     0.053 C 
BRANCH   6   7
ATOM      7  C   UNL     1      13.513 -16.923  15.166  1.00  0.00     0.041 C 
ATOM      8  O   UNL     1      13.214 -18.113  14.887  1.00  0.00    -0.550 OA
ATOM      9  O   UNL     1      14.292 -16.655  16.285  1.00  0.00    -0.550 OA
ENDBRANCH   6   7
ENDBRANCH   5   6
ENDBRANCH   4   5
ENDBRANCH   3   4
ENDBRANCH   2   3
ENDBRANCH   1   2
BRANCH   1  10
ATOM     10  C   UNL     1      12.146 -10.135  15.154  1.00  0.00     0.000 C 
BRANCH  10  11
ATOM     11  C   UNL     1      13.321  -9.145  15.140  1.00  0.00    -0.000 C 
BRANCH  11  12
ATOM     12  C   UNL     1      14.651  -9.873  14.915  1.00  0.00    -0.000 C 
BRANCH  12  13
ATOM     13  C   UNL     1      15.493  -9.165  13.843  1.00  0.00    -0.000 C 
BRANCH  13  14
ATOM     14  C   UNL     1      15.413  -9.852  12.468  1.00  0.00    -0.000 C 
BRANCH  14  15
ATOM     15  C   UNL     1      15.849 -11.327  12.456  1.00  0.00    -0.003 C 
ATOM     16  C   UNL     1      17.353 -11.508  12.663  1.00  0.00     0.004 C 
ENDBRANCH  14  15
ENDBRANCH  13  14
ENDBRANCH  12  13
ENDBRANCH  11  12
ENDBRANCH  10  11
ENDBRANCH   1  10
TORSDOF 12
ENDMDL
MODEL 8
REMARK VINA RESULT:    -4.327      6.459      9.610
REMARK INTER + INTRA:          -8.573
REMARK INTER:                  -6.553
REMARK INTRA:                  -2.020
REMARK UNBOUND:                -1.210
REMARK SMILES CCCCCCCCCCCCCC(=O)[O-]
REMARK SMILES IDX 8 1 9 2 10 3 11 4 12 5 13 6 14 7 15 8 16 9 7 10 6 11 5 12
REMARK SMILES IDX 4 13 3 14 2 15 1 16
REMARK H PARENT
REMARK Flexibility Score: inf
ROOT
ATOM      1  C   UNL     1       9.792 -16.628   3.296  1.00  0.00     0.000 C 
ENDROOT
BRANCH   1   2
ATOM      2  C   UNL     1      10.015 -15.884   4.624  1.00  0.00     0.000 C 
BRANCH   2   3
ATOM      3  C   UNL     1       8.765 -15.887   5.518  1.00  0.00     0.000 C 
BRANCH   3   4
ATOM      4  C   UNL     1       9.061 -16.364   6.950  1.00  0.00     0.000 C 
BRANCH   4   5
ATOM      5  C   UNL     1      10.550 -16.259   7.324  1.00  0.00     0.006 C 
BRANCH   5   6
ATOM      6  C   UNL     1      10.825 -16.388   8.833  1.00  0.00     0.053 C 
BRANCH   6   7
ATOM      7  C   UNL     1      11.323 -17.749   9.216  1.00  0.00     0.041 C 
ATOM      8  O   UNL     1      12.446 -17.882   9.769  1.00  0.00    -0.550 OA
ATOM      9  O   UNL     1      10.532 -18.868   8.990  1.00  0.00    -0.550 OA
ENDBRANCH   6   7
ENDBRANCH   5   6
ENDBRANCH   4   5
ENDBRANCH   3   4
ENDBRANCH   2   3
ENDBRANCH   1   2
BRANCH   1  10
ATOM     10  C   UNL     1       8.310 -16.683   2.891  1.00  0.00     0.000 C 
BRANCH  10  11
ATOM     11  C   UNL     1       7.784 -18.120   2.756  1.00  0.00    -0.000 C 
BRANCH  11  12
ATOM     12  C   UNL     1       6.469 -18.299   3.525  1.00  0.00    -0.000 C 
BRANCH  12  13
ATOM     13  C   UNL     1       6.706 -19.013   4.864  1.00  0.00    -0.000 C 
BRANCH  13  14
ATOM     14  C   UNL     1       7.875 -20.012   4.812  1.00  0.00    -0.000 C 
BRANCH  14  15
ATOM     15  C   UNL     1       8.883 -19.888   5.968  1.00  0.00    -0.003 C 
ATOM     16  C   UNL     1      10.303 -19.581   5.494  1.00  0.00     0.004 C 
ENDBRANCH  14  15
ENDBRANCH  13  14
ENDBRANCH  12  13
ENDBRANCH  11  12
ENDBRANCH  10  11
ENDBRANCH   1  10
TORSDOF 12
ENDMDL
MODEL 9
REMARK VINA RESULT:    -4.283      3.702      6.281
REMARK INTER + INTRA:          -8.498
REMARK INTER:                  -7.189
REMARK INTRA:                  -1.309
REMARK UNBOUND:                -1.210
REMARK SMILES CCCCCCCCCCCCCC(=O)[O-]
REMARK SMILES IDX 8 1 9 2 10 3 11 4 12 5 13 6 14 7 15 8 16 9 7 10 6 11 5 12
REMARK SMILES IDX 4 13 3 14 2 15 1 16
REMARK H PARENT
REMARK Flexibility Score: inf
ROOT
ATOM      1  C   UNL     1      12.489 -11.921  15.119  1.00  0.00     0.000 C 
ENDROOT
BRANCH   1   2
ATOM      2  C   UNL     1      13.867 -12.602  15.191  1.00  0.00     0.000 C 
BRANCH   2   3
ATOM      3  C   UNL     1      14.743 -12.287  13.968  1.00  0.00     0.000 C 
BRANCH   3   4
ATOM      4  C   UNL     1      15.936 -11.378  14.311  1.00  0.00     0.000 C 
BRANCH   4   5
ATOM      5  C   UNL     1      16.161 -10.264  13.272  1.00  0.00     0.006 C 
BRANCH   5   6
ATOM      6  C   UNL     1      15.128  -9.126  13.345  1.00  0.00     0.053 C 
BRANCH   6   7
ATOM      7  C   UNL     1      14.964  -8.579  14.731  1.00  0.00     0.041 C 
ATOM      8  O   UNL     1      15.904  -7.946  15.279  1.00  0.00    -0.550 OA
ATOM      9  O   UNL     1      13.761  -8.744  15.406  1.00  0.00    -0.550 OA
ENDBRANCH   6   7
ENDBRANCH   5   6
ENDBRANCH   4   5
ENDBRANCH   3   4
ENDBRANCH   2   3
ENDBRANCH   1   2
BRANCH   1  10
ATOM     10  C   UNL     1      11.377 -12.768  15.757  1.00  0.00     0.000 C 
BRANCH  10  11
ATOM     11  C   UNL     1      11.858 -14.169  16.165  1.00  0.00    -0.000 C 
BRANCH  11  12
ATOM     12  C   UNL     1      11.004 -15.258  15.505  1.00  0.00    -0.000 C 
BRANCH  12  13
ATOM     13  C   UNL     1      11.449 -15.504  14.056  1.00  0.00    -0.000 C 
BRANCH  13  14
ATOM     14  C   UNL     1      12.912 -15.968  13.948  1.00  0.00    -0.000 C 
BRANCH  14  15
ATOM     15  C   UNL     1      13.149 -17.448  14.300  1.00  0.00    -0.003 C 
ATOM     16  C   UNL     1      14.021 -17.636  15.541  1.00  0.00     0.004 C 
ENDBRANCH  14  15
ENDBRANCH  13  14
ENDBRANCH  12  13
ENDBRANCH  11  12
ENDBRANCH  10  11
ENDBRANCH   1  10
TORSDOF 12
ENDMDL
