MODEL 1
REMARK VINA RESULT:    -0.913      0.000      0.000
REMARK INTER + INTRA:          -1.806
REMARK INTER:                  -1.980
REMARK INTRA:                   0.174
REMARK UNBOUND:                 0.174
REMARK SMILES CCCCCCCCCCCCCCCCCCCCCC(=O)[O-]
REMARK SMILES IDX 12 1 11 2 10 3 9 4 8 5 7 6 6 7 5 8 4 9 3 10 2 11 1 12 13 13
REMARK SMILES IDX 14 14 15 15 16 16 17 17 18 18 19 19 20 20 21 21 22 22 23 23
REMARK SMILES IDX 24 24
REMARK H PARENT
REMARK Flexibility Score: inf
ROOT
ATOM      1  C   UNL     1      -4.663  -9.463  -4.734  1.00  0.00     0.000 C 
ENDROOT
BRANCH   1   2
ATOM      2  C   UNL     1      -3.838  -9.222  -6.012  1.00  0.00     0.000 C 
BRANCH   2   3
ATOM      3  C   UNL     1      -4.270 -10.125  -7.180  1.00  0.00     0.000 C 
BRANCH   3   4
ATOM      4  C   UNL     1      -5.777 -10.033  -7.478  1.00  0.00    -0.000 C 
BRANCH   4   5
ATOM      5  C   UNL     1      -6.143  -9.890  -8.970  1.00  0.00    -0.000 C 
BRANCH   5   6
ATOM      6  C   UNL     1      -7.581  -9.409  -9.250  1.00  0.00    -0.000 C 
BRANCH   6   7
ATOM      7  C   UNL     1      -7.700  -7.952  -9.734  1.00  0.00    -0.000 C 
BRANCH   7   8
ATOM      8  C   UNL     1      -6.336  -7.257  -9.874  1.00  0.00    -0.000 C 
BRANCH   8   9
ATOM      9  C   UNL     1      -5.556  -7.199  -8.548  1.00  0.00    -0.000 C 
BRANCH   9  10
ATOM     10  C   UNL     1      -6.417  -7.005  -7.284  1.00  0.00    -0.000 C 
BRANCH  10  11
ATOM     11  C   UNL     1      -5.823  -6.053  -6.230  1.00  0.00    -0.003 C 
ATOM     12  C   UNL     1      -6.363  -6.311  -4.824  1.00  0.00     0.004 C 
ENDBRANCH  10  11
ENDBRANCH   9  10
ENDBRANCH   8   9
ENDBRANCH   7   8
ENDBRANCH   6   7
ENDBRANCH   5   6
ENDBRANCH   4   5
ENDBRANCH   3   4
ENDBRANCH   2   3
ENDBRANCH   1   2
BRANCH   1  13
ATOM     13  C   UNL     1      -6.066 -10.063  -4.956  1.00  0.00     0.000 C 
BRANCH  13  14
ATOM     14  C   UNL     1      -6.973 -10.096  -3.712  1.00  0.00     0.000 C 
BRANCH  14  15
ATOM     15  C   UNL     1      -8.403  -9.610  -4.005  1.00  0.00     0.000 C 
BRANCH  15  16
ATOM     16  C   UNL     1      -8.937 -10.125  -5.351  1.00  0.00     0.000 C 
BRANCH  16  17
ATOM     17  C   UNL     1      -8.950  -9.036  -6.439  1.00  0.00     0.000 C 
BRANCH  17  18
ATOM     18  C   UNL     1     -10.064  -7.997  -6.217  1.00  0.00     0.000 C 
BRANCH  18  19
ATOM     19  C   UNL     1      -9.531  -6.674  -5.641  1.00  0.00     0.000 C 
BRANCH  19  20
ATOM     20  C   UNL     1      -9.999  -5.445  -6.441  1.00  0.00     0.006 C 
BRANCH  20  21
ATOM     21  C   UNL     1      -9.908  -5.608  -7.967  1.00  0.00     0.053 C 
BRANCH  21  22
ATOM     22  C   UNL     1      -9.794  -4.288  -8.666  1.00  0.00     0.041 C 
ATOM     23  O   UNL     1      -9.398  -3.270  -8.040  1.00  0.00    -0.550 OA
ATOM     24  O   UNL     1     -10.095  -4.189 -10.019  1.00  0.00    -0.550 OA
ENDBRANCH  21  22
ENDBRANCH  20  21
ENDBRANCH  19  20
ENDBRANCH  18  19
ENDBRANCH  17  18
ENDBRANCH  16  17
ENDBRANCH  15  16
ENDBRANCH  14  15
ENDBRANCH  13  14
ENDBRANCH   1  13
TORSDOF 20
ENDMDL
MODEL 2
REMARK VINA RESULT:    -0.508     13.996     16.520
REMARK INTER + INTRA:          -0.928
REMARK INTER:                   0.270
REMARK INTRA:                  -1.198
REMARK UNBOUND:                 0.174
REMARK SMILES CCCCCCCCCCCCCCCCCCCCCC(=O)[O-]
REMARK SMILES IDX 12 1 11 2 10 3 9 4 8 5 7 6 6 7 5 8 4 9 3 10 2 11 1 12 13 13
REMARK SMILES IDX 14 14 15 15 16 16 17 17 18 18 19 19 20 20 21 21 22 22 23 23
REMARK SMILES IDX 24 24
REMARK H PARENT
REMARK Flexibility Score: inf
ROOT
ATOM      1  C   UNL     1       0.588   4.483  -2.897  1.00  0.00     0.000 C 
ENDROOT
BRANCH   1   2
ATOM      2  C   UNL     1       0.398   5.655  -3.877  1.00  0.00     0.000 C 
BRANCH   2   3
ATOM      3  C   UNL     1      -0.074   5.200  -5.268  1.00  0.00     0.000 C 
BRANCH   3   4
ATOM      4  C   UNL     1       0.094   6.291  -6.341  1.00  0.00    -0.000 C 
BRANCH   4   5
ATOM      5  C   UNL     1       0.866   5.857  -7.603  1.00  0.00    -0.000 C 
BRANCH   5   6
ATOM      6  C   UNL     1       0.507   6.627  -8.890  1.00  0.00    -0.000 C 
BRANCH   6   7
ATOM      7  C   UNL     1       1.415   7.831  -9.206  1.00  0.00    -0.000 C 
BRANCH   7   8
ATOM      8  C   UNL     1       0.719   8.889 -10.078  1.00  0.00    -0.000 C 
BRANCH   8   9
ATOM      9  C   UNL     1       0.019   9.981  -9.249  1.00  0.00    -0.000 C 
BRANCH   9  10
ATOM     10  C   UNL     1      -1.311   9.560  -8.593  1.00  0.00    -0.000 C 
BRANCH  10  11
ATOM     11  C   UNL     1      -1.359   9.713  -7.062  1.00  0.00    -0.003 C 
ATOM     12  C   UNL     1       0.010  10.010  -6.451  1.00  0.00     0.004 C 
ENDBRANCH  10  11
ENDBRANCH   9  10
ENDBRANCH   8   9
ENDBRANCH   7   8
ENDBRANCH   6   7
ENDBRANCH   5   6
ENDBRANCH   4   5
ENDBRANCH   3   4
ENDBRANCH   2   3
ENDBRANCH   1   2
BRANCH   1  13
ATOM     13  C   UNL     1       2.048   4.175  -2.509  1.00  0.00     0.000 C 
BRANCH  13  14
ATOM     14  C   UNL     1       2.230   3.400  -1.191  1.00  0.00     0.000 C 
BRANCH  14  15
ATOM     15  C   UNL     1       2.549   1.912  -1.413  1.00  0.00     0.000 C 
BRANCH  15  16
ATOM     16  C   UNL     1       2.794   1.157  -0.096  1.00  0.00     0.000 C 
BRANCH  16  17
ATOM     17  C   UNL     1       1.870  -0.062   0.068  1.00  0.00     0.000 C 
BRANCH  17  18
ATOM     18  C   UNL     1       1.698  -0.475   1.541  1.00  0.00     0.000 C 
BRANCH  18  19
ATOM     19  C   UNL     1       0.900  -1.781   1.697  1.00  0.00     0.000 C 
BRANCH  19  20
ATOM     20  C   UNL     1       0.523  -2.076   3.161  1.00  0.00     0.006 C 
BRANCH  20  21
ATOM     21  C   UNL     1      -0.958  -1.834   3.496  1.00  0.00     0.053 C 
BRANCH  21  22
ATOM     22  C   UNL     1      -1.131  -0.774   4.539  1.00  0.00     0.041 C 
ATOM     23  O   UNL     1      -1.449  -1.087   5.717  1.00  0.00    -0.550 OA
ATOM     24  O   UNL     1      -0.910   0.560   4.218  1.00  0.00    -0.550 OA
ENDBRANCH  21  22
ENDBRANCH  20  21
ENDBRANCH  19  20
ENDBRANCH  18  19
ENDBRANCH  17  18
ENDBRANCH  16  17
ENDBRANCH  15  16
ENDBRANCH  14  15
ENDBRANCH  13  14
ENDBRANCH   1  13
TORSDOF 20
ENDMDL
MODEL 3
REMARK VINA RESULT:    -0.392     13.856     16.349
REMARK INTER + INTRA:          -0.677
REMARK INTER:                   0.121
REMARK INTRA:                  -0.798
REMARK UNBOUND:                 0.174
REMARK SMILES CCCCCCCCCCCCCCCCCCCCCC(=O)[O-]
REMARK SMILES IDX 12 1 11 2 10 3 9 4 8 5 7 6 6 7 5 8 4 9 3 10 2 11 1 12 13 13
REMARK SMILES IDX 14 14 15 15 16 16 17 17 18 18 19 19 20 20 21 21 22 22 23 23
REMARK SMILES IDX 24 24
REMARK H PARENT
REMARK Flexibility Score: inf
ROOT
ATOM      1  C   UNL     1       1.650   4.552  -3.131  1.00  0.00     0.000 C 
ENDROOT
BRANCH   1   2
ATOM      2  C   UNL     1       0.461   5.530  -3.162  1.00  0.00     0.000 C 
BRANCH   2   3
ATOM      3  C   UNL     1      -0.428   5.350  -4.404  1.00  0.00     0.000 C 
BRANCH   3   4
ATOM      4  C   UNL     1       0.383   5.236  -5.707  1.00  0.00    -0.000 C 
BRANCH   4   5
ATOM      5  C   UNL     1       0.076   6.313  -6.767  1.00  0.00    -0.000 C 
BRANCH   5   6
ATOM      6  C   UNL     1       1.059   6.366  -7.953  1.00  0.00    -0.000 C 
BRANCH   6   7
ATOM      7  C   UNL     1       0.403   6.388  -9.346  1.00  0.00    -0.000 C 
BRANCH   7   8
ATOM      8  C   UNL     1       0.188   7.814  -9.881  1.00  0.00    -0.000 C 
BRANCH   8   9
ATOM      9  C   UNL     1       1.285   8.794  -9.429  1.00  0.00    -0.000 C 
BRANCH   9  10
ATOM     10  C   UNL     1       0.777  10.125  -8.837  1.00  0.00    -0.000 C 
BRANCH  10  11
ATOM     11  C   UNL     1      -0.393   9.992  -7.847  1.00  0.00    -0.003 C 
ATOM     12  C   UNL     1       0.067   9.695  -6.419  1.00  0.00     0.004 C 
ENDBRANCH  10  11
ENDBRANCH   9  10
ENDBRANCH   8   9
ENDBRANCH   7   8
ENDBRANCH   6   7
ENDBRANCH   5   6
ENDBRANCH   4   5
ENDBRANCH   3   4
ENDBRANCH   2   3
ENDBRANCH   1   2
BRANCH   1  13
ATOM     13  C   UNL     1       1.838   3.783  -1.807  1.00  0.00     0.000 C 
BRANCH  13  14
ATOM     14  C   UNL     1       1.788   2.248  -1.925  1.00  0.00     0.000 C 
BRANCH  14  15
ATOM     15  C   UNL     1       2.621   1.541  -0.842  1.00  0.00     0.000 C 
BRANCH  15  16
ATOM     16  C   UNL     1       2.019   0.190  -0.423  1.00  0.00     0.000 C 
BRANCH  16  17
ATOM     17  C   UNL     1       2.228  -0.114   1.071  1.00  0.00     0.000 C 
BRANCH  17  18
ATOM     18  C   UNL     1       1.489  -1.386   1.522  1.00  0.00     0.000 C 
BRANCH  18  19
ATOM     19  C   UNL     1       0.743  -1.193   2.854  1.00  0.00     0.000 C 
BRANCH  19  20
ATOM     20  C   UNL     1      -0.621  -1.907   2.881  1.00  0.00     0.006 C 
BRANCH  20  21
ATOM     21  C   UNL     1      -1.176  -2.164   4.292  1.00  0.00     0.053 C 
BRANCH  21  22
ATOM     22  C   UNL     1      -1.377  -0.891   5.055  1.00  0.00     0.041 C 
ATOM     23  O   UNL     1      -1.511  -0.915   6.307  1.00  0.00    -0.550 OA
ATOM     24  O   UNL     1      -1.385   0.327   4.386  1.00  0.00    -0.550 OA
ENDBRANCH  21  22
ENDBRANCH  20  21
ENDBRANCH  19  20
ENDBRANCH  18  19
ENDBRANCH  17  18
ENDBRANCH  16  17
ENDBRANCH  15  16
ENDBRANCH  14  15
ENDBRANCH  13  14
ENDBRANCH   1  13
TORSDOF 20
ENDMDL
MODEL 4
REMARK VINA RESULT:    -0.194     13.856     16.291
REMARK INTER + INTRA:          -0.247
REMARK INTER:                   0.700
REMARK INTRA:                  -0.948
REMARK UNBOUND:                 0.174
REMARK SMILES CCCCCCCCCCCCCCCCCCCCCC(=O)[O-]
REMARK SMILES IDX 12 1 11 2 10 3 9 4 8 5 7 6 6 7 5 8 4 9 3 10 2 11 1 12 13 13
REMARK SMILES IDX 14 14 15 15 16 16 17 17 18 18 19 19 20 20 21 21 22 22 23 23
REMARK SMILES IDX 24 24
REMARK H PARENT
REMARK Flexibility Score: inf
ROOT
ATOM      1  C   UNL     1       2.100   4.392  -2.586  1.00  0.00     0.000 C 
ENDROOT
BRANCH   1   2
ATOM      2  C   UNL     1       2.290   2.881  -2.362  1.00  0.00     0.000 C 
BRANCH   2   3
ATOM      3  C   UNL     1       2.354   2.502  -0.873  1.00  0.00     0.000 C 
BRANCH   3   4
ATOM      4  C   UNL     1       2.797   1.046  -0.647  1.00  0.00    -0.000 C 
BRANCH   4   5
ATOM      5  C   UNL     1       2.619   0.522   0.793  1.00  0.00    -0.000 C 
BRANCH   5   6
ATOM      6  C   UNL     1       1.578  -0.603   0.958  1.00  0.00    -0.000 C 
BRANCH   6   7
ATOM      7  C   UNL     1       1.290  -1.019   2.413  1.00  0.00    -0.000 C 
BRANCH   7   8
ATOM      8  C   UNL     1       0.315  -2.203   2.513  1.00  0.00    -0.000 C 
BRANCH   8   9
ATOM      9  C   UNL     1      -0.804  -1.972   3.544  1.00  0.00    -0.000 C 
BRANCH   9  10
ATOM     10  C   UNL     1      -1.083  -0.496   3.895  1.00  0.00    -0.000 C 
BRANCH  10  11
ATOM     11  C   UNL     1      -1.625  -0.255   5.315  1.00  0.00    -0.003 C 
ATOM     12  C   UNL     1      -1.199  -1.338   6.306  1.00  0.00     0.004 C 
ENDBRANCH  10  11
ENDBRANCH   9  10
ENDBRANCH   8   9
ENDBRANCH   7   8
ENDBRANCH   6   7
ENDBRANCH   5   6
ENDBRANCH   4   5
ENDBRANCH   3   4
ENDBRANCH   2   3
ENDBRANCH   1   2
BRANCH   1  13
ATOM     13  C   UNL     1       0.636   4.863  -2.711  1.00  0.00     0.000 C 
BRANCH  13  14
ATOM     14  C   UNL     1       0.366   5.884  -3.832  1.00  0.00     0.000 C 
BRANCH  14  15
ATOM     15  C   UNL     1      -0.108   5.223  -5.138  1.00  0.00     0.000 C 
BRANCH  15  16
ATOM     16  C   UNL     1      -0.102   6.197  -6.328  1.00  0.00     0.000 C 
BRANCH  16  17
ATOM     17  C   UNL     1       0.766   5.698  -7.497  1.00  0.00     0.000 C 
BRANCH  17  18
ATOM     18  C   UNL     1       1.134   6.824  -8.479  1.00  0.00     0.000 C 
BRANCH  18  19
ATOM     19  C   UNL     1      -0.057   7.259  -9.350  1.00  0.00     0.000 C 
BRANCH  19  20
ATOM     20  C   UNL     1       0.050   8.723  -9.817  1.00  0.00     0.006 C 
BRANCH  20  21
ATOM     21  C   UNL     1       0.478   9.710  -8.719  1.00  0.00     0.053 C 
BRANCH  21  22
ATOM     22  C   UNL     1      -0.507   9.755  -7.592  1.00  0.00     0.041 C 
ATOM     23  O   UNL     1      -0.108   9.718  -6.398  1.00  0.00    -0.550 OA
ATOM     24  O   UNL     1      -1.866   9.871  -7.860  1.00  0.00    -0.550 OA
ENDBRANCH  21  22
ENDBRANCH  20  21
ENDBRANCH  19  20
ENDBRANCH  18  19
ENDBRANCH  17  18
ENDBRANCH  16  17
ENDBRANCH  15  16
ENDBRANCH  14  15
ENDBRANCH  13  14
ENDBRANCH   1  13
TORSDOF 20
ENDMDL
MODEL 5
REMARK VINA RESULT:     0.541     14.120     16.873
REMARK INTER + INTRA:           1.347
REMARK INTER:                   2.552
REMARK INTRA:                  -1.205
REMARK UNBOUND:                 0.174
REMARK SMILES CCCCCCCCCCCCCCCCCCCCCC(=O)[O-]
REMARK SMILES IDX 12 1 11 2 10 3 9 4 8 5 7 6 6 7 5 8 4 9 3 10 2 11 1 12 13 13
REMARK SMILES IDX 14 14 15 15 16 16 17 17 18 18 19 19 20 20 21 21 22 22 23 23
REMARK SMILES IDX 24 24
REMARK H PARENT
REMARK Flexibility Score: inf
ROOT
ATOM      1  C   UNL     1      -0.064   4.977  -4.315  1.00  0.00     0.000 C 
ENDROOT
BRANCH   1   2
ATOM      2  C   UNL     1       0.753   5.340  -3.062  1.00  0.00     0.000 C 
BRANCH   2   3
ATOM      3  C   UNL     1       1.846   4.306  -2.742  1.00  0.00     0.000 C 
BRANCH   3   4
ATOM      4  C   UNL     1       1.618   3.595  -1.397  1.00  0.00    -0.000 C 
BRANCH   4   5
ATOM      5  C   UNL     1       2.520   2.371  -1.140  1.00  0.00    -0.000 C 
BRANCH   5   6
ATOM      6  C   UNL     1       1.865   1.228  -0.339  1.00  0.00    -0.000 C 
BRANCH   6   7
ATOM      7  C   UNL     1       2.826   0.421   0.554  1.00  0.00    -0.000 C 
BRANCH   7   8
ATOM      8  C   UNL     1       2.269   0.185   1.967  1.00  0.00    -0.000 C 
BRANCH   8   9
ATOM      9  C   UNL     1       2.039  -1.306   2.278  1.00  0.00    -0.000 C 
BRANCH   9  10
ATOM     10  C   UNL     1       0.595  -1.807   2.071  1.00  0.00    -0.000 C 
BRANCH  10  11
ATOM     11  C   UNL     1      -0.453  -1.178   3.006  1.00  0.00    -0.003 C 
ATOM     12  C   UNL     1      -1.063  -2.187   3.979  1.00  0.00     0.004 C 
ENDBRANCH  10  11
ENDBRANCH   9  10
ENDBRANCH   8   9
ENDBRANCH   7   8
ENDBRANCH   6   7
ENDBRANCH   5   6
ENDBRANCH   4   5
ENDBRANCH   3   4
ENDBRANCH   2   3
ENDBRANCH   1   2
BRANCH   1  13
ATOM     13  C   UNL     1      -0.043   6.026  -5.445  1.00  0.00     0.000 C 
BRANCH  13  14
ATOM     14  C   UNL     1       0.739   5.618  -6.708  1.00  0.00     0.000 C 
BRANCH  14  15
ATOM     15  C   UNL     1       0.358   6.456  -7.941  1.00  0.00     0.000 C 
BRANCH  15  16
ATOM     16  C   UNL     1       1.093   6.001  -9.213  1.00  0.00     0.000 C 
BRANCH  16  17
ATOM     17  C   UNL     1       1.998   7.099  -9.798  1.00  0.00     0.000 C 
BRANCH  17  18
ATOM     18  C   UNL     1       1.237   8.410 -10.063  1.00  0.00     0.000 C 
BRANCH  18  19
ATOM     19  C   UNL     1       1.902   9.624  -9.393  1.00  0.00     0.000 C 
BRANCH  19  20
ATOM     20  C   UNL     1       1.125  10.125  -8.161  1.00  0.00     0.006 C 
BRANCH  20  21
ATOM     21  C   UNL     1      -0.405  10.067  -8.310  1.00  0.00     0.053 C 
BRANCH  21  22
ATOM     22  C   UNL     1      -1.087   9.839  -6.996  1.00  0.00     0.041 C 
ATOM     23  O   UNL     1      -2.344   9.783  -6.935  1.00  0.00    -0.550 OA
ATOM     24  O   UNL     1      -0.333   9.655  -5.844  1.00  0.00    -0.550 OA
ENDBRANCH  21  22
ENDBRANCH  20  21
ENDBRANCH  19  20
ENDBRANCH  18  19
ENDBRANCH  17  18
ENDBRANCH  16  17
ENDBRANCH  15  16
ENDBRANCH  14  15
ENDBRANCH  13  14
ENDBRANCH   1  13
TORSDOF 20
ENDMDL
MODEL 6
REMARK VINA RESULT:     0.589     13.720     16.109
REMARK INTER + INTRA:           1.451
REMARK INTER:                   2.706
REMARK INTRA:                  -1.254
REMARK UNBOUND:                 0.174
REMARK SMILES CCCCCCCCCCCCCCCCCCCCCC(=O)[O-]
REMARK SMILES IDX 12 1 11 2 10 3 9 4 8 5 7 6 6 7 5 8 4 9 3 10 2 11 1 12 13 13
REMARK SMILES IDX 14 14 15 15 16 16 17 17 18 18 19 19 20 20 21 21 22 22 23 23
REMARK SMILES IDX 24 24
REMARK H PARENT
REMARK Flexibility Score: inf
ROOT
ATOM      1  C   UNL     1       2.056   3.772  -1.677  1.00  0.00     0.000 C 
ENDROOT
BRANCH   1   2
ATOM      2  C   UNL     1       2.637   2.366  -1.910  1.00  0.00     0.000 C 
BRANCH   2   3
ATOM      3  C   UNL     1       1.763   1.252  -1.309  1.00  0.00     0.000 C 
BRANCH   3   4
ATOM      4  C   UNL     1       2.557   0.298  -0.398  1.00  0.00    -0.000 C 
BRANCH   4   5
ATOM      5  C   UNL     1       2.719   0.768   1.061  1.00  0.00    -0.000 C 
BRANCH   5   6
ATOM      6  C   UNL     1       1.980  -0.084   2.112  1.00  0.00    -0.000 C 
BRANCH   6   7
ATOM      7  C   UNL     1       1.330  -1.371   1.571  1.00  0.00    -0.000 C 
BRANCH   7   8
ATOM      8  C   UNL     1       0.705  -2.234   2.679  1.00  0.00    -0.000 C 
BRANCH   8   9
ATOM      9  C   UNL     1      -0.761  -1.862   2.971  1.00  0.00    -0.000 C 
BRANCH   9  10
ATOM     10  C   UNL     1      -1.193  -1.995   4.446  1.00  0.00    -0.000 C 
BRANCH  10  11
ATOM     11  C   UNL     1      -1.504  -0.665   5.155  1.00  0.00    -0.003 C 
ATOM     12  C   UNL     1      -1.034   0.556   4.364  1.00  0.00     0.004 C 
ENDBRANCH  10  11
ENDBRANCH   9  10
ENDBRANCH   8   9
ENDBRANCH   7   8
ENDBRANCH   6   7
ENDBRANCH   5   6
ENDBRANCH   4   5
ENDBRANCH   3   4
ENDBRANCH   2   3
ENDBRANCH   1   2
BRANCH   1  13
ATOM     13  C   UNL     1       1.790   4.596  -2.953  1.00  0.00     0.000 C 
BRANCH  13  14
ATOM     14  C   UNL     1       0.310   4.914  -3.235  1.00  0.00     0.000 C 
BRANCH  14  15
ATOM     15  C   UNL     1       0.120   5.852  -4.439  1.00  0.00     0.000 C 
BRANCH  15  16
ATOM     16  C   UNL     1       0.197   5.110  -5.783  1.00  0.00     0.000 C 
BRANCH  16  17
ATOM     17  C   UNL     1       0.210   6.067  -6.989  1.00  0.00     0.000 C 
BRANCH  17  18
ATOM     18  C   UNL     1      -0.108   7.519  -6.590  1.00  0.00     0.000 C 
BRANCH  18  19
ATOM     19  C   UNL     1       0.046   8.500  -7.765  1.00  0.00     0.000 C 
BRANCH  19  20
ATOM     20  C   UNL     1       0.121   7.788  -9.129  1.00  0.00     0.006 C 
BRANCH  20  21
ATOM     21  C   UNL     1       1.375   8.126  -9.952  1.00  0.00     0.053 C 
BRANCH  21  22
ATOM     22  C   UNL     1       2.342   6.983  -9.996  1.00  0.00     0.041 C 
ATOM     23  O   UNL     1       1.921   5.797 -10.049  1.00  0.00    -0.550 OA
ATOM     24  O   UNL     1       3.709   7.229 -10.010  1.00  0.00    -0.550 OA
ENDBRANCH  21  22
ENDBRANCH  20  21
ENDBRANCH  19  20
ENDBRANCH  18  19
ENDBRANCH  17  18
ENDBRANCH  16  17
ENDBRANCH  15  16
ENDBRANCH  14  15
ENDBRANCH  13  14
ENDBRANCH   1  13
TORSDOF 20
ENDMDL
MODEL 7
REMARK VINA RESULT:     0.642     16.882     19.184
REMARK INTER + INTRA:           1.567
REMARK INTER:                   1.898
REMARK INTRA:                  -0.331
REMARK UNBOUND:                 0.174
REMARK SMILES CCCCCCCCCCCCCCCCCCCCCC(=O)[O-]
REMARK SMILES IDX 12 1 11 2 10 3 9 4 8 5 7 6 6 7 5 8 4 9 3 10 2 11 1 12 13 13
REMARK SMILES IDX 14 14 15 15 16 16 17 17 18 18 19 19 20 20 21 21 22 22 23 23
REMARK SMILES IDX 24 24
REMARK H PARENT
REMARK Flexibility Score: inf
ROOT
ATOM      1  C   UNL     1       6.707   1.142   0.471  1.00  0.00     0.000 C 
ENDROOT
BRANCH   1   2
ATOM      2  C   UNL     1       7.302   2.480  -0.003  1.00  0.00     0.000 C 
BRANCH   2   3
ATOM      3  C   UNL     1       8.840   2.473  -0.036  1.00  0.00     0.000 C 
BRANCH   3   4
ATOM      4  C   UNL     1       9.414   3.226  -1.249  1.00  0.00    -0.000 C 
BRANCH   4   5
ATOM      5  C   UNL     1      10.076   4.581  -0.926  1.00  0.00    -0.000 C 
BRANCH   5   6
ATOM      6  C   UNL     1      10.103   4.959   0.569  1.00  0.00    -0.000 C 
BRANCH   6   7
ATOM      7  C   UNL     1       9.987   6.466   0.864  1.00  0.00    -0.000 C 
BRANCH   7   8
ATOM      8  C   UNL     1       9.335   6.758   2.225  1.00  0.00    -0.000 C 
BRANCH   8   9
ATOM      9  C   UNL     1       8.774   8.188   2.326  1.00  0.00    -0.000 C 
BRANCH   9  10
ATOM     10  C   UNL     1       7.262   8.284   2.615  1.00  0.00    -0.000 C 
BRANCH  10  11
ATOM     11  C   UNL     1       6.363   8.351   1.368  1.00  0.00    -0.003 C 
ATOM     12  C   UNL     1       5.781   9.744   1.129  1.00  0.00     0.004 C 
ENDBRANCH  10  11
ENDBRANCH   9  10
ENDBRANCH   8   9
ENDBRANCH   7   8
ENDBRANCH   6   7
ENDBRANCH   5   6
ENDBRANCH   4   5
ENDBRANCH   3   4
ENDBRANCH   2   3
ENDBRANCH   1   2
BRANCH   1  13
ATOM     13  C   UNL     1       5.300   1.228   1.096  1.00  0.00     0.000 C 
BRANCH  13  14
ATOM     14  C   UNL     1       4.153   1.494   0.103  1.00  0.00     0.000 C 
BRANCH  14  15
ATOM     15  C   UNL     1       2.863   0.740   0.468  1.00  0.00     0.000 C 
BRANCH  15  16
ATOM     16  C   UNL     1       2.802   0.359   1.956  1.00  0.00     0.000 C 
BRANCH  16  17
ATOM     17  C   UNL     1       1.422  -0.177   2.375  1.00  0.00     0.000 C 
BRANCH  17  18
ATOM     18  C   UNL     1       1.303  -1.701   2.193  1.00  0.00     0.000 C 
BRANCH  18  19
ATOM     19  C   UNL     1      -0.153  -2.192   2.270  1.00  0.00     0.000 C 
BRANCH  19  20
ATOM     20  C   UNL     1      -0.753  -2.056   3.681  1.00  0.00     0.006 C 
BRANCH  20  21
ATOM     21  C   UNL     1      -0.852  -0.609   4.192  1.00  0.00     0.053 C 
BRANCH  21  22
ATOM     22  C   UNL     1      -1.602  -0.522   5.485  1.00  0.00     0.041 C 
ATOM     23  O   UNL     1      -1.208  -1.167   6.492  1.00  0.00    -0.550 OA
ATOM     24  O   UNL     1      -2.719   0.298   5.587  1.00  0.00    -0.550 OA
ENDBRANCH  21  22
ENDBRANCH  20  21
ENDBRANCH  19  20
ENDBRANCH  18  19
ENDBRANCH  17  18
ENDBRANCH  16  17
ENDBRANCH  15  16
ENDBRANCH  14  15
ENDBRANCH  13  14
ENDBRANCH   1  13
TORSDOF 20
ENDMDL
MODEL 8
REMARK VINA RESULT:     0.683     13.704     16.406
REMARK INTER + INTRA:           1.655
REMARK INTER:                   2.531
REMARK INTRA:                  -0.876
REMARK UNBOUND:                 0.174
REMARK SMILES CCCCCCCCCCCCCCCCCCCCCC(=O)[O-]
REMARK SMILES IDX 12 1 11 2 10 3 9 4 8 5 7 6 6 7 5 8 4 9 3 10 2 11 1 12 13 13
REMARK SMILES IDX 14 14 15 15 16 16 17 17 18 18 19 19 20 20 21 21 22 22 23 23
REMARK SMILES IDX 24 24
REMARK H PARENT
REMARK Flexibility Score: inf
ROOT
ATOM      1  C   UNL     1       0.552   4.949  -2.645  1.00  0.00     0.000 C 
ENDROOT
BRANCH   1   2
ATOM      2  C   UNL     1       1.972   4.358  -2.595  1.00  0.00     0.000 C 
BRANCH   2   3
ATOM      3  C   UNL     1       2.246   3.570  -1.302  1.00  0.00     0.000 C 
BRANCH   3   4
ATOM      4  C   UNL     1       2.235   2.047  -1.520  1.00  0.00    -0.000 C 
BRANCH   4   5
ATOM      5  C   UNL     1       2.723   1.209  -0.320  1.00  0.00    -0.000 C 
BRANCH   5   6
ATOM      6  C   UNL     1       1.903  -0.064  -0.031  1.00  0.00    -0.000 C 
BRANCH   6   7
ATOM      7  C   UNL     1       1.731  -0.407   1.461  1.00  0.00    -0.000 C 
BRANCH   7   8
ATOM      8  C   UNL     1       1.174  -1.821   1.687  1.00  0.00    -0.000 C 
BRANCH   8   9
ATOM      9  C   UNL     1      -0.199  -1.820   2.383  1.00  0.00    -0.000 C 
BRANCH   9  10
ATOM     10  C   UNL     1      -0.192  -1.360   3.855  1.00  0.00    -0.000 C 
BRANCH  10  11
ATOM     11  C   UNL     1      -1.111  -0.166   4.168  1.00  0.00    -0.003 C 
ATOM     12  C   UNL     1      -1.894  -0.343   5.469  1.00  0.00     0.004 C 
ENDBRANCH  10  11
ENDBRANCH   9  10
ENDBRANCH   8   9
ENDBRANCH   7   8
ENDBRANCH   6   7
ENDBRANCH   5   6
ENDBRANCH   4   5
ENDBRANCH   3   4
ENDBRANCH   2   3
ENDBRANCH   1   2
BRANCH   1  13
ATOM     13  C   UNL     1       0.230   5.789  -3.898  1.00  0.00     0.000 C 
BRANCH  13  14
ATOM     14  C   UNL     1      -0.007   4.982  -5.188  1.00  0.00     0.000 C 
BRANCH  14  15
ATOM     15  C   UNL     1       0.387   5.757  -6.457  1.00  0.00     0.000 C 
BRANCH  15  16
ATOM     16  C   UNL     1      -0.503   6.987  -6.698  1.00  0.00     0.000 C 
BRANCH  16  17
ATOM     17  C   UNL     1       0.271   8.312  -6.575  1.00  0.00     0.000 C 
BRANCH  17  18
ATOM     18  C   UNL     1      -0.161   9.346  -7.629  1.00  0.00     0.000 C 
BRANCH  18  19
ATOM     19  C   UNL     1      -0.938   8.709  -8.795  1.00  0.00     0.000 C 
BRANCH  19  20
ATOM     20  C   UNL     1      -0.164   8.761 -10.125  1.00  0.00     0.006 C 
BRANCH  20  21
ATOM     21  C   UNL     1       1.348   8.517  -9.989  1.00  0.00     0.053 C 
BRANCH  21  22
ATOM     22  C   UNL     1       1.659   7.086  -9.676  1.00  0.00     0.041 C 
ATOM     23  O   UNL     1       0.766   6.204  -9.786  1.00  0.00    -0.550 OA
ATOM     24  O   UNL     1       2.943   6.721  -9.293  1.00  0.00    -0.550 OA
ENDBRANCH  21  22
ENDBRANCH  20  21
ENDBRANCH  19  20
ENDBRANCH  18  19
ENDBRANCH  17  18
ENDBRANCH  16  17
ENDBRANCH  15  16
ENDBRANCH  14  15
ENDBRANCH  13  14
ENDBRANCH   1  13
TORSDOF 20
ENDMDL
MODEL 9
REMARK VINA RESULT:     0.687     13.869     16.389
REMARK INTER + INTRA:           1.664
REMARK INTER:                   2.545
REMARK INTRA:                  -0.880
REMARK UNBOUND:                 0.174
REMARK SMILES CCCCCCCCCCCCCCCCCCCCCC(=O)[O-]
REMARK SMILES IDX 12 1 11 2 10 3 9 4 8 5 7 6 6 7 5 8 4 9 3 10 2 11 1 12 13 13
REMARK SMILES IDX 14 14 15 15 16 16 17 17 18 18 19 19 20 20 21 21 22 22 23 23
REMARK SMILES IDX 24 24
REMARK H PARENT
REMARK Flexibility Score: inf
ROOT
ATOM      1  C   UNL     1       2.136   4.441  -2.569  1.00  0.00     0.000 C 
ENDROOT
BRANCH   1   2
ATOM      2  C   UNL     1       0.790   4.923  -3.139  1.00  0.00     0.000 C 
BRANCH   2   3
ATOM      3  C   UNL     1       0.750   4.898  -4.676  1.00  0.00     0.000 C 
BRANCH   3   4
ATOM      4  C   UNL     1      -0.146   6.002  -5.266  1.00  0.00    -0.000 C 
BRANCH   4   5
ATOM      5  C   UNL     1       0.201   6.428  -6.707  1.00  0.00    -0.000 C 
BRANCH   5   6
ATOM      6  C   UNL     1      -0.439   7.752  -7.173  1.00  0.00    -0.000 C 
BRANCH   6   7
ATOM      7  C   UNL     1       0.557   8.878  -7.505  1.00  0.00    -0.000 C 
BRANCH   7   8
ATOM      8  C   UNL     1       0.289   9.526  -8.873  1.00  0.00    -0.000 C 
BRANCH   8   9
ATOM      9  C   UNL     1       0.923   8.745 -10.039  1.00  0.00    -0.000 C 
BRANCH   9  10
ATOM     10  C   UNL     1       2.436   8.476  -9.907  1.00  0.00    -0.000 C 
BRANCH  10  11
ATOM     11  C   UNL     1       2.859   7.012 -10.125  1.00  0.00    -0.003 C 
ATOM     12  C   UNL     1       1.902   6.014  -9.474  1.00  0.00     0.004 C 
ENDBRANCH  10  11
ENDBRANCH   9  10
ENDBRANCH   8   9
ENDBRANCH   7   8
ENDBRANCH   6   7
ENDBRANCH   5   6
ENDBRANCH   4   5
ENDBRANCH   3   4
ENDBRANCH   2   3
ENDBRANCH   1   2
BRANCH   1  13
ATOM     13  C   UNL     1       2.223   2.931  -2.265  1.00  0.00     0.000 C 
BRANCH  13  14
ATOM     14  C   UNL     1       2.498   2.571  -0.793  1.00  0.00     0.000 C 
BRANCH  14  15
ATOM     15  C   UNL     1       3.002   1.128  -0.617  1.00  0.00     0.000 C 
BRANCH  15  16
ATOM     16  C   UNL     1       1.863   0.136  -0.332  1.00  0.00     0.000 C 
BRANCH  16  17
ATOM     17  C   UNL     1       1.829  -0.320   1.138  1.00  0.00     0.000 C 
BRANCH  17  18
ATOM     18  C   UNL     1       1.556  -1.828   1.280  1.00  0.00     0.000 C 
BRANCH  18  19
ATOM     19  C   UNL     1       0.916  -2.187   2.633  1.00  0.00     0.000 C 
BRANCH  19  20
ATOM     20  C   UNL     1      -0.524  -1.659   2.768  1.00  0.00     0.006 C 
BRANCH  20  21
ATOM     21  C   UNL     1      -1.115  -1.784   4.182  1.00  0.00     0.053 C 
BRANCH  21  22
ATOM     22  C   UNL     1      -1.388  -0.445   4.796  1.00  0.00     0.041 C 
ATOM     23  O   UNL     1      -1.101   0.610   4.171  1.00  0.00    -0.550 OA
ATOM     24  O   UNL     1      -1.989  -0.362   6.046  1.00  0.00    -0.550 OA
ENDBRANCH  21  22
ENDBRANCH  20  21
ENDBRANCH  19  20
ENDBRANCH  18  19
ENDBRANCH  17  18
ENDBRANCH  16  17
ENDBRANCH  15  16
ENDBRANCH  14  15
ENDBRANCH  13  14
ENDBRANCH   1  13
TORSDOF 20
ENDMDL
