MODEL 1
REMARK VINA RESULT:    -7.615      0.000      0.000
REMARK INTER + INTRA:          -9.254
REMARK INTER:                  -8.951
REMARK INTRA:                  -0.303
REMARK UNBOUND:                -0.303
REMARK SMILES O=c1cc(-c2ccc(O)c(O)c2)oc2cc(O)cc(O)c12
REMARK SMILES IDX 4 1 3 2 2 3 1 4 21 5 19 6 18 7 16 8 15 9 14 10 13 11 5 12
REMARK SMILES IDX 6 13 7 14 8 15 12 16 10 17 9 18 11 20 20 22 17 24
REMARK H PARENT 9 19 11 21 20 23 17 25
REMARK Flexibility Score: inf
ROOT
ATOM      1  C   UNL     1     -38.970  12.818   7.926  1.00  0.00     0.138 A 
ATOM      2  C   UNL     1     -39.136  11.497   8.362  1.00  0.00     0.100 A 
ATOM      3  C   UNL     1     -40.204  11.176   9.201  1.00  0.00     0.197 A 
ATOM      4  O   UNL     1     -40.359   9.972   9.531  1.00  0.00    -0.289 OA
ATOM      5  C   UNL     1     -41.088  12.193   9.636  1.00  0.00     0.107 A 
ATOM      6  C   UNL     1     -42.191  11.990  10.520  1.00  0.00     0.134 A 
ATOM      7  C   UNL     1     -43.056  13.057  10.800  1.00  0.00     0.093 A 
ATOM      8  C   UNL     1     -42.825  14.328  10.277  1.00  0.00     0.123 A 
ATOM      9  C   UNL     1     -41.722  14.550   9.452  1.00  0.00     0.094 A 
ATOM     10  C   UNL     1     -40.861  13.499   9.126  1.00  0.00     0.146 A 
ATOM     11  O   UNL     1     -39.831  13.748   8.323  1.00  0.00    -0.456 OA
ENDROOT
BRANCH   1  12
ATOM     12  C   UNL     1     -37.850  13.216   7.036  1.00  0.00     0.021 A 
ATOM     13  C   UNL     1     -36.607  12.574   7.159  1.00  0.00     0.016 A 
ATOM     14  C   UNL     1     -35.536  12.935   6.339  1.00  0.00     0.051 A 
ATOM     15  C   UNL     1     -35.683  13.947   5.388  1.00  0.00     0.157 A 
ATOM     16  C   UNL     1     -37.990  14.246   6.084  1.00  0.00     0.062 A 
ATOM     17  C   UNL     1     -36.914  14.609   5.261  1.00  0.00     0.158 A 
BRANCH  15  18
ATOM     18  O   UNL     1     -34.595  14.285   4.583  1.00  0.00    -0.504 OA
ATOM     19  H   UNL     1     -34.512  13.960   3.628  1.00  0.00     0.293 HD
ENDBRANCH  15  18
BRANCH  17  20
ATOM     20  O   UNL     1     -37.064  15.629   4.321  1.00  0.00    -0.504 OA
ATOM     21  H   UNL     1     -37.779  15.589   3.603  1.00  0.00     0.293 HD
ENDBRANCH  17  20
ENDBRANCH   1  12
BRANCH   6  22
ATOM     22  O   UNL     1     -42.470  10.780  11.162  1.00  0.00    -0.507 OA
ATOM     23  H   UNL     1     -43.228  10.159  10.924  1.00  0.00     0.293 HD
ENDBRANCH   6  22
BRANCH   8  24
ATOM     24  O   UNL     1     -43.697  15.368  10.591  1.00  0.00    -0.508 OA
ATOM     25  H   UNL     1     -43.641  16.267  10.124  1.00  0.00     0.293 HD
ENDBRANCH   8  24
TORSDOF 5
ENDMDL
MODEL 2
REMARK VINA RESULT:    -7.536      1.162      2.665
REMARK INTER + INTRA:          -9.161
REMARK INTER:                  -8.871
REMARK INTRA:                  -0.290
REMARK UNBOUND:                -0.303
REMARK SMILES O=c1cc(-c2ccc(O)c(O)c2)oc2cc(O)cc(O)c12
REMARK SMILES IDX 4 1 3 2 2 3 1 4 21 5 19 6 18 7 16 8 15 9 14 10 13 11 5 12
REMARK SMILES IDX 6 13 7 14 8 15 12 16 10 17 9 18 11 20 20 22 17 24
REMARK H PARENT 9 19 11 21 20 23 17 25
REMARK Flexibility Score: inf
ROOT
ATOM      1  C   UNL     1     -39.051  13.302   8.008  1.00  0.00     0.138 A 
ATOM      2  C   UNL     1     -39.998  14.311   8.222  1.00  0.00     0.100 A 
ATOM      3  C   UNL     1     -41.089  14.069   9.058  1.00  0.00     0.197 A 
ATOM      4  O   UNL     1     -41.893  15.012   9.274  1.00  0.00    -0.289 OA
ATOM      5  C   UNL     1     -41.250  12.794   9.654  1.00  0.00     0.107 A 
ATOM      6  C   UNL     1     -42.340  12.421  10.496  1.00  0.00     0.134 A 
ATOM      7  C   UNL     1     -42.338  11.160  11.108  1.00  0.00     0.093 A 
ATOM      8  C   UNL     1     -41.319  10.241  10.863  1.00  0.00     0.123 A 
ATOM      9  C   UNL     1     -40.274  10.577  10.002  1.00  0.00     0.094 A 
ATOM     10  C   UNL     1     -40.229  11.838   9.403  1.00  0.00     0.146 A 
ATOM     11  O   UNL     1     -39.207  12.125   8.604  1.00  0.00    -0.456 OA
ENDROOT
BRANCH   1  12
ATOM     12  C   UNL     1     -37.873  13.504   7.126  1.00  0.00     0.021 A 
ATOM     13  C   UNL     1     -36.706  12.754   7.348  1.00  0.00     0.016 A 
ATOM     14  C   UNL     1     -35.583  12.930   6.538  1.00  0.00     0.051 A 
ATOM     15  C   UNL     1     -35.600  13.863   5.498  1.00  0.00     0.157 A 
ATOM     16  C   UNL     1     -37.881  14.454   6.085  1.00  0.00     0.062 A 
ATOM     17  C   UNL     1     -36.752  14.632   5.272  1.00  0.00     0.158 A 
BRANCH  15  18
ATOM     18  O   UNL     1     -34.463  14.016   4.705  1.00  0.00    -0.504 OA
ATOM     19  H   UNL     1     -33.566  13.630   4.971  1.00  0.00     0.293 HD
ENDBRANCH  15  18
BRANCH  17  20
ATOM     20  O   UNL     1     -36.771  15.574   4.244  1.00  0.00    -0.504 OA
ATOM     21  H   UNL     1     -36.576  15.316   3.283  1.00  0.00     0.293 HD
ENDBRANCH  17  20
ENDBRANCH   1  12
BRANCH   6  22
ATOM     22  O   UNL     1     -43.451  13.231  10.747  1.00  0.00    -0.507 OA
ATOM     23  H   UNL     1     -43.450  14.240  10.723  1.00  0.00     0.293 HD
ENDBRANCH   6  22
BRANCH   8  24
ATOM     24  O   UNL     1     -41.360   8.991  11.477  1.00  0.00    -0.508 OA
ATOM     25  H   UNL     1     -41.411   8.135  10.936  1.00  0.00     0.293 HD
ENDBRANCH   8  24
TORSDOF 5
ENDMDL
MODEL 3
REMARK VINA RESULT:    -7.064      1.902      7.248
REMARK INTER + INTRA:          -8.606
REMARK INTER:                  -8.312
REMARK INTRA:                  -0.294
REMARK UNBOUND:                -0.303
REMARK SMILES O=c1cc(-c2ccc(O)c(O)c2)oc2cc(O)cc(O)c12
REMARK SMILES IDX 4 1 3 2 2 3 1 4 21 5 19 6 18 7 16 8 15 9 14 10 13 11 5 12
REMARK SMILES IDX 6 13 7 14 8 15 12 16 10 17 9 18 11 20 20 22 17 24
REMARK H PARENT 9 19 11 21 20 23 17 25
REMARK Flexibility Score: inf
ROOT
ATOM      1  C   UNL     1     -39.784  12.967   7.957  1.00  0.00     0.138 A 
ATOM      2  C   UNL     1     -39.222  14.206   7.621  1.00  0.00     0.100 A 
ATOM      3  C   UNL     1     -38.193  14.265   6.680  1.00  0.00     0.197 A 
ATOM      4  O   UNL     1     -37.747  15.396   6.358  1.00  0.00    -0.289 OA
ATOM      5  C   UNL     1     -37.700  13.071   6.100  1.00  0.00     0.107 A 
ATOM      6  C   UNL     1     -36.631  13.005   5.156  1.00  0.00     0.134 A 
ATOM      7  C   UNL     1     -36.297  11.773   4.577  1.00  0.00     0.093 A 
ATOM      8  C   UNL     1     -36.952  10.601   4.950  1.00  0.00     0.123 A 
ATOM      9  C   UNL     1     -37.964  10.645   5.909  1.00  0.00     0.094 A 
ATOM     10  C   UNL     1     -38.344  11.862   6.479  1.00  0.00     0.146 A 
ATOM     11  O   UNL     1     -39.325  11.864   7.376  1.00  0.00    -0.456 OA
ENDROOT
BRANCH   1  12
ATOM     12  C   UNL     1     -40.878  12.846   8.954  1.00  0.00     0.021 A 
ATOM     13  C   UNL     1     -41.202  11.582   9.474  1.00  0.00     0.016 A 
ATOM     14  C   UNL     1     -42.231  11.439  10.407  1.00  0.00     0.051 A 
ATOM     15  C   UNL     1     -42.961  12.552  10.831  1.00  0.00     0.157 A 
ATOM     16  C   UNL     1     -41.625  13.964   9.374  1.00  0.00     0.062 A 
ATOM     17  C   UNL     1     -42.661  13.821  10.310  1.00  0.00     0.158 A 
BRANCH  15  18
ATOM     18  O   UNL     1     -43.982  12.379  11.764  1.00  0.00    -0.504 OA
ATOM     19  H   UNL     1     -44.011  12.897  12.633  1.00  0.00     0.293 HD
ENDBRANCH  15  18
BRANCH  17  20
ATOM     20  O   UNL     1     -43.393  14.934  10.720  1.00  0.00    -0.504 OA
ATOM     21  H   UNL     1     -43.984  15.448  10.075  1.00  0.00     0.293 HD
ENDBRANCH  17  20
ENDBRANCH   1  12
BRANCH   6  22
ATOM     22  O   UNL     1     -35.856  14.103   4.770  1.00  0.00    -0.507 OA
ATOM     23  H   UNL     1     -35.554  14.843   5.384  1.00  0.00     0.293 HD
ENDBRANCH   6  22
BRANCH   8  24
ATOM     24  O   UNL     1     -36.581   9.391   4.365  1.00  0.00    -0.508 OA
ATOM     25  H   UNL     1     -36.269   9.342   3.401  1.00  0.00     0.293 HD
ENDBRANCH   8  24
TORSDOF 5
ENDMDL
MODEL 4
REMARK VINA RESULT:    -7.043      1.938      3.300
REMARK INTER + INTRA:          -8.581
REMARK INTER:                  -8.306
REMARK INTRA:                  -0.275
REMARK UNBOUND:                -0.303
REMARK SMILES O=c1cc(-c2ccc(O)c(O)c2)oc2cc(O)cc(O)c12
REMARK SMILES IDX 4 1 3 2 2 3 1 4 21 5 19 6 18 7 16 8 15 9 14 10 13 11 5 12
REMARK SMILES IDX 6 13 7 14 8 15 12 16 10 17 9 18 11 20 20 22 17 24
REMARK H PARENT 9 19 11 21 20 23 17 25
REMARK Flexibility Score: inf
ROOT
ATOM      1  C   UNL     1     -37.009  13.442   5.883  1.00  0.00     0.138 A 
ATOM      2  C   UNL     1     -36.855  12.063   6.075  1.00  0.00     0.100 A 
ATOM      3  C   UNL     1     -37.657  11.402   7.008  1.00  0.00     0.197 A 
ATOM      4  O   UNL     1     -37.534  10.155   7.119  1.00  0.00    -0.289 OA
ATOM      5  C   UNL     1     -38.591  12.136   7.778  1.00  0.00     0.107 A 
ATOM      6  C   UNL     1     -39.437  11.576   8.782  1.00  0.00     0.134 A 
ATOM      7  C   UNL     1     -40.394  12.386   9.409  1.00  0.00     0.093 A 
ATOM      8  C   UNL     1     -40.495  13.744   9.111  1.00  0.00     0.123 A 
ATOM      9  C   UNL     1     -39.639  14.314   8.168  1.00  0.00     0.094 A 
ATOM     10  C   UNL     1     -38.699  13.525   7.500  1.00  0.00     0.146 A 
ATOM     11  O   UNL     1     -37.915  14.103   6.595  1.00  0.00    -0.456 OA
ENDROOT
BRANCH   1  12
ATOM     12  C   UNL     1     -36.181  14.195   4.907  1.00  0.00     0.021 A 
ATOM     13  C   UNL     1     -36.806  15.053   3.987  1.00  0.00     0.016 A 
ATOM     14  C   UNL     1     -36.052  15.767   3.054  1.00  0.00     0.051 A 
ATOM     15  C   UNL     1     -34.662  15.632   3.016  1.00  0.00     0.157 A 
ATOM     16  C   UNL     1     -34.780  14.051   4.856  1.00  0.00     0.062 A 
ATOM     17  C   UNL     1     -34.022  14.768   3.918  1.00  0.00     0.158 A 
BRANCH  15  18
ATOM     18  O   UNL     1     -33.935  16.359   2.074  1.00  0.00    -0.504 OA
ATOM     19  H   UNL     1     -33.759  17.350   2.178  1.00  0.00     0.293 HD
ENDBRANCH  15  18
BRANCH  17  20
ATOM     20  O   UNL     1     -32.636  14.619   3.877  1.00  0.00    -0.504 OA
ATOM     21  H   UNL     1     -32.052  15.234   3.321  1.00  0.00     0.293 HD
ENDBRANCH  17  20
ENDBRANCH   1  12
BRANCH   6  22
ATOM     22  O   UNL     1     -39.369  10.248   9.215  1.00  0.00    -0.507 OA
ATOM     23  H   UNL     1     -39.431   9.440   8.616  1.00  0.00     0.293 HD
ENDBRANCH   6  22
BRANCH   8  24
ATOM     24  O   UNL     1     -41.447  14.522   9.767  1.00  0.00    -0.508 OA
ATOM     25  H   UNL     1     -41.234  15.458  10.094  1.00  0.00     0.293 HD
ENDBRANCH   8  24
TORSDOF 5
ENDMDL
MODEL 5
REMARK VINA RESULT:    -6.914      5.235      8.093
REMARK INTER + INTRA:          -8.429
REMARK INTER:                  -8.149
REMARK INTRA:                  -0.281
REMARK UNBOUND:                -0.303
REMARK SMILES O=c1cc(-c2ccc(O)c(O)c2)oc2cc(O)cc(O)c12
REMARK SMILES IDX 4 1 3 2 2 3 1 4 21 5 19 6 18 7 16 8 15 9 14 10 13 11 5 12
REMARK SMILES IDX 6 13 7 14 8 15 12 16 10 17 9 18 11 20 20 22 17 24
REMARK H PARENT 9 19 11 21 20 23 17 25
REMARK Flexibility Score: inf
ROOT
ATOM      1  C   UNL     1     -33.758  14.349   2.706  1.00  0.00     0.138 A 
ATOM      2  C   UNL     1     -33.854  14.546   4.089  1.00  0.00     0.100 A 
ATOM      3  C   UNL     1     -35.052  14.262   4.746  1.00  0.00     0.197 A 
ATOM      4  O   UNL     1     -35.091  14.396   5.996  1.00  0.00    -0.289 OA
ATOM      5  C   UNL     1     -36.172  13.813   4.004  1.00  0.00     0.107 A 
ATOM      6  C   UNL     1     -37.455  13.525   4.560  1.00  0.00     0.134 A 
ATOM      7  C   UNL     1     -38.458  12.991   3.740  1.00  0.00     0.093 A 
ATOM      8  C   UNL     1     -38.244  12.791   2.378  1.00  0.00     0.123 A 
ATOM      9  C   UNL     1     -37.011  13.116   1.813  1.00  0.00     0.094 A 
ATOM     10  C   UNL     1     -35.978  13.617   2.610  1.00  0.00     0.146 A 
ATOM     11  O   UNL     1     -34.813  13.897   2.037  1.00  0.00    -0.456 OA
ENDROOT
BRANCH   1  12
ATOM     12  C   UNL     1     -32.509  14.639   1.956  1.00  0.00     0.021 A 
ATOM     13  C   UNL     1     -32.585  15.261   0.699  1.00  0.00     0.016 A 
ATOM     14  C   UNL     1     -31.427  15.537  -0.030  1.00  0.00     0.051 A 
ATOM     15  C   UNL     1     -30.172  15.190   0.478  1.00  0.00     0.157 A 
ATOM     16  C   UNL     1     -31.243  14.278   2.458  1.00  0.00     0.062 A 
ATOM     17  C   UNL     1     -30.078  14.554   1.726  1.00  0.00     0.158 A 
BRANCH  15  18
ATOM     18  O   UNL     1     -29.033  15.480  -0.272  1.00  0.00    -0.504 OA
ATOM     19  H   UNL     1     -28.209  14.893  -0.247  1.00  0.00     0.293 HD
ENDBRANCH  15  18
BRANCH  17  20
ATOM     20  O   UNL     1     -28.830  14.194   2.232  1.00  0.00    -0.504 OA
ATOM     21  H   UNL     1     -28.097  14.880   2.375  1.00  0.00     0.293 HD
ENDBRANCH  17  20
ENDBRANCH   1  12
BRANCH   6  22
ATOM     22  O   UNL     1     -37.803  13.761   5.893  1.00  0.00    -0.507 OA
ATOM     23  H   UNL     1     -37.894  13.049   6.603  1.00  0.00     0.293 HD
ENDBRANCH   6  22
BRANCH   8  24
ATOM     24  O   UNL     1     -39.271  12.273   1.590  1.00  0.00    -0.508 OA
ATOM     25  H   UNL     1     -39.267  11.308   1.281  1.00  0.00     0.293 HD
ENDBRANCH   8  24
TORSDOF 5
ENDMDL
MODEL 6
REMARK VINA RESULT:    -6.815      2.152      6.975
REMARK INTER + INTRA:          -8.313
REMARK INTER:                  -8.021
REMARK INTRA:                  -0.292
REMARK UNBOUND:                -0.303
REMARK SMILES O=c1cc(-c2ccc(O)c(O)c2)oc2cc(O)cc(O)c12
REMARK SMILES IDX 4 1 3 2 2 3 1 4 21 5 19 6 18 7 16 8 15 9 14 10 13 11 5 12
REMARK SMILES IDX 6 13 7 14 8 15 12 16 10 17 9 18 11 20 20 22 17 24
REMARK H PARENT 9 19 11 21 20 23 17 25
REMARK Flexibility Score: inf
ROOT
ATOM      1  C   UNL     1     -40.745  11.978   7.857  1.00  0.00     0.138 A 
ATOM      2  C   UNL     1     -40.990  11.070   6.818  1.00  0.00     0.100 A 
ATOM      3  C   UNL     1     -40.139  11.041   5.712  1.00  0.00     0.197 A 
ATOM      4  O   UNL     1     -40.353  10.178   4.822  1.00  0.00    -0.289 OA
ATOM      5  C   UNL     1     -39.058  11.952   5.631  1.00  0.00     0.107 A 
ATOM      6  C   UNL     1     -38.146  12.038   4.536  1.00  0.00     0.134 A 
ATOM      7  C   UNL     1     -37.055  12.913   4.614  1.00  0.00     0.093 A 
ATOM      8  C   UNL     1     -36.877  13.746   5.718  1.00  0.00     0.123 A 
ATOM      9  C   UNL     1     -37.790  13.707   6.772  1.00  0.00     0.094 A 
ATOM     10  C   UNL     1     -38.869  12.820   6.740  1.00  0.00     0.146 A 
ATOM     11  O   UNL     1     -39.706  12.801   7.772  1.00  0.00    -0.456 OA
ENDROOT
BRANCH   1  12
ATOM     12  C   UNL     1     -41.619  12.055   9.055  1.00  0.00     0.021 A 
ATOM     13  C   UNL     1     -42.040  10.869   9.681  1.00  0.00     0.016 A 
ATOM     14  C   UNL     1     -42.868  10.914  10.804  1.00  0.00     0.051 A 
ATOM     15  C   UNL     1     -43.299  12.140  11.318  1.00  0.00     0.157 A 
ATOM     16  C   UNL     1     -42.068  13.288   9.567  1.00  0.00     0.062 A 
ATOM     17  C   UNL     1     -42.901  13.333  10.695  1.00  0.00     0.158 A 
BRANCH  15  18
ATOM     18  O   UNL     1     -44.125  12.152  12.441  1.00  0.00    -0.504 OA
ATOM     19  H   UNL     1     -44.872  11.481  12.567  1.00  0.00     0.293 HD
ENDBRANCH  15  18
BRANCH  17  20
ATOM     20  O   UNL     1     -43.338  14.560  11.195  1.00  0.00    -0.504 OA
ATOM     21  H   UNL     1     -44.318  14.820  11.182  1.00  0.00     0.293 HD
ENDBRANCH  17  20
ENDBRANCH   1  12
BRANCH   6  22
ATOM     22  O   UNL     1     -38.274  11.310   3.349  1.00  0.00    -0.507 OA
ATOM     23  H   UNL     1     -38.334  11.712   2.426  1.00  0.00     0.293 HD
ENDBRANCH   6  22
BRANCH   8  24
ATOM     24  O   UNL     1     -35.788  14.616   5.754  1.00  0.00    -0.508 OA
ATOM     25  H   UNL     1     -34.930  14.412   5.255  1.00  0.00     0.293 HD
ENDBRANCH   8  24
TORSDOF 5
ENDMDL
MODEL 7
REMARK VINA RESULT:    -6.709      3.513      9.303
REMARK INTER + INTRA:          -8.189
REMARK INTER:                  -7.911
REMARK INTRA:                  -0.278
REMARK UNBOUND:                -0.303
REMARK SMILES O=c1cc(-c2ccc(O)c(O)c2)oc2cc(O)cc(O)c12
REMARK SMILES IDX 4 1 3 2 2 3 1 4 21 5 19 6 18 7 16 8 15 9 14 10 13 11 5 12
REMARK SMILES IDX 6 13 7 14 8 15 12 16 10 17 9 18 11 20 20 22 17 24
REMARK H PARENT 9 19 11 21 20 23 17 25
REMARK Flexibility Score: inf
ROOT
ATOM      1  C   UNL     1     -35.832  14.141   3.965  1.00  0.00     0.138 A 
ATOM      2  C   UNL     1     -36.653  14.308   2.842  1.00  0.00     0.100 A 
ATOM      3  C   UNL     1     -36.087  14.688   1.624  1.00  0.00     0.197 A 
ATOM      4  O   UNL     1     -36.841  14.776   0.621  1.00  0.00    -0.289 OA
ATOM      5  C   UNL     1     -34.696  14.938   1.541  1.00  0.00     0.107 A 
ATOM      6  C   UNL     1     -34.013  15.364   0.362  1.00  0.00     0.134 A 
ATOM      7  C   UNL     1     -32.617  15.483   0.378  1.00  0.00     0.093 A 
ATOM      8  C   UNL     1     -31.887  15.249   1.542  1.00  0.00     0.123 A 
ATOM      9  C   UNL     1     -32.548  14.882   2.714  1.00  0.00     0.094 A 
ATOM     10  C   UNL     1     -33.936  14.720   2.722  1.00  0.00     0.146 A 
ATOM     11  O   UNL     1     -34.525  14.352   3.855  1.00  0.00    -0.456 OA
ENDROOT
BRANCH   1  12
ATOM     12  C   UNL     1     -36.381  13.742   5.286  1.00  0.00     0.021 A 
ATOM     13  C   UNL     1     -35.724  12.752   6.037  1.00  0.00     0.016 A 
ATOM     14  C   UNL     1     -36.224  12.353   7.278  1.00  0.00     0.051 A 
ATOM     15  C   UNL     1     -37.391  12.927   7.789  1.00  0.00     0.157 A 
ATOM     16  C   UNL     1     -37.565  14.308   5.799  1.00  0.00     0.062 A 
ATOM     17  C   UNL     1     -38.067  13.907   7.046  1.00  0.00     0.158 A 
BRANCH  15  18
ATOM     18  O   UNL     1     -37.864  12.509   9.032  1.00  0.00    -0.504 OA
ATOM     19  H   UNL     1     -37.788  11.548   9.342  1.00  0.00     0.293 HD
ENDBRANCH  15  18
BRANCH  17  20
ATOM     20  O   UNL     1     -39.239  14.475   7.545  1.00  0.00    -0.504 OA
ATOM     21  H   UNL     1     -39.225  15.333   8.085  1.00  0.00     0.293 HD
ENDBRANCH  17  20
ENDBRANCH   1  12
BRANCH   6  22
ATOM     22  O   UNL     1     -34.652  15.701  -0.835  1.00  0.00    -0.507 OA
ATOM     23  H   UNL     1     -35.584  15.416  -1.095  1.00  0.00     0.293 HD
ENDBRANCH   6  22
BRANCH   8  24
ATOM     24  O   UNL     1     -30.501  15.394   1.524  1.00  0.00    -0.508 OA
ATOM     25  H   UNL     1     -30.034  15.941   0.809  1.00  0.00     0.293 HD
ENDBRANCH   8  24
TORSDOF 5
ENDMDL
MODEL 8
REMARK VINA RESULT:    -6.628      2.899      3.232
REMARK INTER + INTRA:          -8.094
REMARK INTER:                  -7.827
REMARK INTRA:                  -0.266
REMARK UNBOUND:                -0.303
REMARK SMILES O=c1cc(-c2ccc(O)c(O)c2)oc2cc(O)cc(O)c12
REMARK SMILES IDX 4 1 3 2 2 3 1 4 21 5 19 6 18 7 16 8 15 9 14 10 13 11 5 12
REMARK SMILES IDX 6 13 7 14 8 15 12 16 10 17 9 18 11 20 20 22 17 24
REMARK H PARENT 9 19 11 21 20 23 17 25
REMARK Flexibility Score: inf
ROOT
ATOM      1  C   UNL     1     -40.048  11.032   6.623  1.00  0.00     0.138 A 
ATOM      2  C   UNL     1     -39.583   9.857   7.228  1.00  0.00     0.100 A 
ATOM      3  C   UNL     1     -40.038   9.508   8.500  1.00  0.00     0.197 A 
ATOM      4  O   UNL     1     -39.645   8.419   8.993  1.00  0.00    -0.289 OA
ATOM      5  C   UNL     1     -40.937  10.361   9.185  1.00  0.00     0.107 A 
ATOM      6  C   UNL     1     -41.442  10.126  10.499  1.00  0.00     0.134 A 
ATOM      7  C   UNL     1     -42.405  10.992  11.033  1.00  0.00     0.093 A 
ATOM      8  C   UNL     1     -42.835  12.115  10.328  1.00  0.00     0.123 A 
ATOM      9  C   UNL     1     -42.312  12.383   9.063  1.00  0.00     0.094 A 
ATOM     10  C   UNL     1     -41.376  11.519   8.487  1.00  0.00     0.146 A 
ATOM     11  O   UNL     1     -40.915  11.801   7.274  1.00  0.00    -0.456 OA
ENDROOT
BRANCH   1  12
ATOM     12  C   UNL     1     -39.594  11.454   5.274  1.00  0.00     0.021 A 
ATOM     13  C   UNL     1     -38.575  12.414   5.155  1.00  0.00     0.016 A 
ATOM     14  C   UNL     1     -38.135  12.833   3.898  1.00  0.00     0.051 A 
ATOM     15  C   UNL     1     -38.709  12.310   2.737  1.00  0.00     0.157 A 
ATOM     16  C   UNL     1     -40.180  10.939   4.100  1.00  0.00     0.062 A 
ATOM     17  C   UNL     1     -39.739  11.361   2.837  1.00  0.00     0.158 A 
BRANCH  15  18
ATOM     18  O   UNL     1     -38.249  12.747   1.496  1.00  0.00    -0.504 OA
ATOM     19  H   UNL     1     -38.858  13.194   0.823  1.00  0.00     0.293 HD
ENDBRANCH  15  18
BRANCH  17  20
ATOM     20  O   UNL     1     -40.324  10.843   1.682  1.00  0.00    -0.504 OA
ATOM     21  H   UNL     1     -41.269  11.091   1.408  1.00  0.00     0.293 HD
ENDBRANCH  17  20
ENDBRANCH   1  12
BRANCH   6  22
ATOM     22  O   UNL     1     -41.023   9.079  11.325  1.00  0.00    -0.507 OA
ATOM     23  H   UNL     1     -40.363   8.363  11.062  1.00  0.00     0.293 HD
ENDBRANCH   6  22
BRANCH   8  24
ATOM     24  O   UNL     1     -43.782  12.963  10.898  1.00  0.00    -0.508 OA
ATOM     25  H   UNL     1     -43.647  13.968  10.925  1.00  0.00     0.293 HD
ENDBRANCH   8  24
TORSDOF 5
ENDMDL
