MODEL 1
REMARK VINA RESULT:    -4.777      0.000      0.000
REMARK INTER + INTRA:          -6.065
REMARK INTER:                  -5.755
REMARK INTRA:                  -0.310
REMARK UNBOUND:                -0.310
REMARK SMILES O=c1c(O)c(-c2ccc(O)c(O)c2)oc2cc(O)cc(O)c12
REMARK SMILES IDX 5 1 3 2 2 3 1 4 22 5 20 6 19 7 17 8 16 9 15 10 14 11 6 12
REMARK SMILES IDX 7 13 8 14 9 15 13 16 11 17 10 18 12 20 4 22 21 24 18 26
REMARK H PARENT 10 19 12 21 4 23 21 25 18 27
REMARK Flexibility Score: inf
ROOT
ATOM      1  C   UNL     1     -13.228 -11.899   3.963  1.00  0.00     0.180 A 
ATOM      2  C   UNL     1     -12.152 -12.533   4.608  1.00  0.00     0.208 A 
ATOM      3  C   UNL     1     -11.785 -12.110   5.896  1.00  0.00     0.238 A 
ATOM      4  O   UNL     1     -10.870 -12.732   6.496  1.00  0.00    -0.285 OA
ATOM      5  C   UNL     1     -12.461 -11.022   6.501  1.00  0.00     0.111 A 
ATOM      6  C   UNL     1     -12.143 -10.479   7.783  1.00  0.00     0.134 A 
ATOM      7  C   UNL     1     -12.950  -9.472   8.325  1.00  0.00     0.093 A 
ATOM      8  C   UNL     1     -14.021  -8.941   7.606  1.00  0.00     0.123 A 
ATOM      9  C   UNL     1     -14.306  -9.425   6.330  1.00  0.00     0.094 A 
ATOM     10  C   UNL     1     -13.544 -10.457   5.777  1.00  0.00     0.146 A 
ATOM     11  O   UNL     1     -13.864 -10.904   4.568  1.00  0.00    -0.452 OA
ENDROOT
BRANCH   1  12
ATOM     12  C   UNL     1     -13.683 -12.298   2.612  1.00  0.00     0.025 A 
ATOM     13  C   UNL     1     -14.516 -13.415   2.420  1.00  0.00     0.016 A 
ATOM     14  C   UNL     1     -14.953 -13.757   1.137  1.00  0.00     0.051 A 
ATOM     15  C   UNL     1     -14.577 -12.983   0.032  1.00  0.00     0.157 A 
ATOM     16  C   UNL     1     -13.327 -11.513   1.504  1.00  0.00     0.062 A 
ATOM     17  C   UNL     1     -13.764 -11.857   0.216  1.00  0.00     0.158 A 
BRANCH  15  18
ATOM     18  O   UNL     1     -15.009 -13.322  -1.248  1.00  0.00    -0.504 OA
ATOM     19  H   UNL     1     -14.366 -13.671  -1.950  1.00  0.00     0.293 HD
ENDBRANCH  15  18
BRANCH  17  20
ATOM     20  O   UNL     1     -13.398 -11.083  -0.884  1.00  0.00    -0.504 OA
ATOM     21  H   UNL     1     -12.521 -10.576  -0.906  1.00  0.00     0.293 HD
ENDBRANCH  17  20
ENDBRANCH   1  12
BRANCH   2  22
ATOM     22  O   UNL     1     -11.449 -13.554   3.963  1.00  0.00    -0.502 OA
ATOM     23  H   UNL     1     -11.879 -14.161   3.276  1.00  0.00     0.293 HD
ENDBRANCH   2  22
BRANCH   6  24
ATOM     24  O   UNL     1     -11.043 -10.875   8.549  1.00  0.00    -0.507 OA
ATOM     25  H   UNL     1     -10.096 -10.946   8.208  1.00  0.00     0.293 HD
ENDBRANCH   6  24
BRANCH   8  26
ATOM     26  O   UNL     1     -14.791  -7.926   8.171  1.00  0.00    -0.508 OA
ATOM     27  H   UNL     1     -14.467  -6.966   8.193  1.00  0.00     0.293 HD
ENDBRANCH   8  26
TORSDOF 6
ENDMDL
MODEL 2
REMARK VINA RESULT:    -4.772      4.117      9.074
REMARK INTER + INTRA:          -6.058
REMARK INTER:                  -5.737
REMARK INTRA:                  -0.322
REMARK UNBOUND:                -0.310
REMARK SMILES O=c1c(O)c(-c2ccc(O)c(O)c2)oc2cc(O)cc(O)c12
REMARK SMILES IDX 5 1 3 2 2 3 1 4 22 5 20 6 19 7 17 8 16 9 15 10 14 11 6 12
REMARK SMILES IDX 7 13 8 14 9 15 13 16 11 17 10 18 12 20 4 22 21 24 18 26
REMARK H PARENT 10 19 12 21 4 23 21 25 18 27
REMARK Flexibility Score: inf
ROOT
ATOM      1  C   UNL     1     -12.497 -12.799  -1.546  1.00  0.00     0.180 A 
ATOM      2  C   UNL     1     -11.166 -13.115  -1.872  1.00  0.00     0.208 A 
ATOM      3  C   UNL     1     -10.747 -12.999  -3.208  1.00  0.00     0.238 A 
ATOM      4  O   UNL     1      -9.537 -13.211  -3.480  1.00  0.00    -0.285 OA
ATOM      5  C   UNL     1     -11.676 -12.625  -4.209  1.00  0.00     0.111 A 
ATOM      6  C   UNL     1     -11.374 -12.520  -5.601  1.00  0.00     0.134 A 
ATOM      7  C   UNL     1     -12.346 -12.037  -6.485  1.00  0.00     0.093 A 
ATOM      8  C   UNL     1     -13.629 -11.718  -6.040  1.00  0.00     0.123 A 
ATOM      9  C   UNL     1     -13.953 -11.868  -4.692  1.00  0.00     0.094 A 
ATOM     10  C   UNL     1     -12.993 -12.311  -3.779  1.00  0.00     0.146 A 
ATOM     11  O   UNL     1     -13.336 -12.419  -2.500  1.00  0.00    -0.452 OA
ENDROOT
BRANCH   1  12
ATOM     12  C   UNL     1     -13.009 -12.883  -0.159  1.00  0.00     0.025 A 
ATOM     13  C   UNL     1     -13.595 -14.061   0.335  1.00  0.00     0.016 A 
ATOM     14  C   UNL     1     -14.049 -14.124   1.656  1.00  0.00     0.051 A 
ATOM     15  C   UNL     1     -13.911 -13.018   2.504  1.00  0.00     0.157 A 
ATOM     16  C   UNL     1     -12.853 -11.784   0.702  1.00  0.00     0.062 A 
ATOM     17  C   UNL     1     -13.310 -11.846   2.027  1.00  0.00     0.158 A 
BRANCH  15  18
ATOM     18  O   UNL     1     -14.363 -13.076   3.820  1.00  0.00    -0.504 OA
ATOM     19  H   UNL     1     -15.133 -12.501   4.143  1.00  0.00     0.293 HD
ENDBRANCH  15  18
BRANCH  17  20
ATOM     20  O   UNL     1     -13.166 -10.749   2.875  1.00  0.00    -0.504 OA
ATOM     21  H   UNL     1     -12.259 -10.337   3.058  1.00  0.00     0.293 HD
ENDBRANCH  17  20
ENDBRANCH   1  12
BRANCH   2  22
ATOM     22  O   UNL     1     -10.285 -13.557  -0.882  1.00  0.00    -0.502 OA
ATOM     23  H   UNL     1      -9.893 -12.935  -0.186  1.00  0.00     0.293 HD
ENDBRANCH   2  22
BRANCH   6  24
ATOM     24  O   UNL     1     -10.152 -12.897  -6.166  1.00  0.00    -0.507 OA
ATOM     25  H   UNL     1      -9.327 -13.153  -5.644  1.00  0.00     0.293 HD
ENDBRANCH   6  24
BRANCH   8  26
ATOM     26  O   UNL     1     -14.576 -11.256  -6.952  1.00  0.00    -0.508 OA
ATOM     27  H   UNL     1     -14.412 -10.428  -7.513  1.00  0.00     0.293 HD
ENDBRANCH   8  26
TORSDOF 6
ENDMDL
MODEL 3
REMARK VINA RESULT:    -4.580      4.090      9.457
REMARK INTER + INTRA:          -5.827
REMARK INTER:                  -5.517
REMARK INTRA:                  -0.310
REMARK UNBOUND:                -0.310
REMARK SMILES O=c1c(O)c(-c2ccc(O)c(O)c2)oc2cc(O)cc(O)c12
REMARK SMILES IDX 5 1 3 2 2 3 1 4 22 5 20 6 19 7 17 8 16 9 15 10 14 11 6 12
REMARK SMILES IDX 7 13 8 14 9 15 13 16 11 17 10 18 12 20 4 22 21 24 18 26
REMARK H PARENT 10 19 12 21 4 23 21 25 18 27
REMARK Flexibility Score: inf
ROOT
ATOM      1  C   UNL     1     -13.003 -12.616  -1.646  1.00  0.00     0.180 A 
ATOM      2  C   UNL     1     -13.946 -11.993  -2.483  1.00  0.00     0.208 A 
ATOM      3  C   UNL     1     -13.673 -11.889  -3.857  1.00  0.00     0.238 A 
ATOM      4  O   UNL     1     -14.553 -11.399  -4.610  1.00  0.00    -0.285 OA
ATOM      5  C   UNL     1     -12.438 -12.358  -4.368  1.00  0.00     0.111 A 
ATOM      6  C   UNL     1     -12.036 -12.262  -5.735  1.00  0.00     0.134 A 
ATOM      7  C   UNL     1     -10.836 -12.857  -6.145  1.00  0.00     0.093 A 
ATOM      8  C   UNL     1      -9.993 -13.484  -5.228  1.00  0.00     0.123 A 
ATOM      9  C   UNL     1     -10.349 -13.535  -3.881  1.00  0.00     0.094 A 
ATOM     10  C   UNL     1     -11.558 -12.985  -3.447  1.00  0.00     0.146 A 
ATOM     11  O   UNL     1     -11.869 -13.075  -2.160  1.00  0.00    -0.452 OA
ENDROOT
BRANCH   1  12
ATOM     12  C   UNL     1     -13.226 -12.776  -0.191  1.00  0.00     0.025 A 
ATOM     13  C   UNL     1     -13.685 -13.990   0.350  1.00  0.00     0.016 A 
ATOM     14  C   UNL     1     -13.863 -14.125   1.730  1.00  0.00     0.051 A 
ATOM     15  C   UNL     1     -13.574 -13.056   2.588  1.00  0.00     0.157 A 
ATOM     16  C   UNL     1     -12.916 -11.715   0.675  1.00  0.00     0.062 A 
ATOM     17  C   UNL     1     -13.097 -11.850   2.060  1.00  0.00     0.158 A 
BRANCH  15  18
ATOM     18  O   UNL     1     -13.752 -13.186   3.964  1.00  0.00    -0.504 OA
ATOM     19  H   UNL     1     -14.675 -13.274   4.373  1.00  0.00     0.293 HD
ENDBRANCH  15  18
BRANCH  17  20
ATOM     20  O   UNL     1     -12.801 -10.790   2.917  1.00  0.00    -0.504 OA
ATOM     21  H   UNL     1     -13.513 -10.367   3.501  1.00  0.00     0.293 HD
ENDBRANCH  17  20
ENDBRANCH   1  12
BRANCH   2  22
ATOM     22  O   UNL     1     -15.125 -11.469  -1.947  1.00  0.00    -0.502 OA
ATOM     23  H   UNL     1     -15.127 -10.815  -1.174  1.00  0.00     0.293 HD
ENDBRANCH   2  22
BRANCH   6  24
ATOM     24  O   UNL     1     -12.760 -11.581  -6.718  1.00  0.00    -0.507 OA
ATOM     25  H   UNL     1     -12.558 -10.648  -7.042  1.00  0.00     0.293 HD
ENDBRANCH   6  24
BRANCH   8  26
ATOM     26  O   UNL     1      -8.798 -14.049  -5.670  1.00  0.00    -0.508 OA
ATOM     27  H   UNL     1      -8.783 -14.929  -6.173  1.00  0.00     0.293 HD
ENDBRANCH   8  26
TORSDOF 6
ENDMDL
MODEL 4
REMARK VINA RESULT:    -4.289      2.031      2.653
REMARK INTER + INTRA:          -5.476
REMARK INTER:                  -5.189
REMARK INTRA:                  -0.287
REMARK UNBOUND:                -0.310
REMARK SMILES O=c1c(O)c(-c2ccc(O)c(O)c2)oc2cc(O)cc(O)c12
REMARK SMILES IDX 5 1 3 2 2 3 1 4 22 5 20 6 19 7 17 8 16 9 15 10 14 11 6 12
REMARK SMILES IDX 7 13 8 14 9 15 13 16 11 17 10 18 12 20 4 22 21 24 18 26
REMARK H PARENT 10 19 12 21 4 23 21 25 18 27
REMARK Flexibility Score: inf
ROOT
ATOM      1  C   UNL     1     -13.161 -12.265   2.609  1.00  0.00     0.180 A 
ATOM      2  C   UNL     1     -14.060 -13.105   3.289  1.00  0.00     0.208 A 
ATOM      3  C   UNL     1     -14.258 -12.918   4.666  1.00  0.00     0.238 A 
ATOM      4  O   UNL     1     -15.119 -13.624   5.253  1.00  0.00    -0.285 OA
ATOM      5  C   UNL     1     -13.513 -11.932   5.359  1.00  0.00     0.111 A 
ATOM      6  C   UNL     1     -13.598 -11.686   6.763  1.00  0.00     0.134 A 
ATOM      7  C   UNL     1     -12.892 -10.612   7.320  1.00  0.00     0.093 A 
ATOM      8  C   UNL     1     -12.054  -9.818   6.537  1.00  0.00     0.123 A 
ATOM      9  C   UNL     1     -11.921 -10.083   5.175  1.00  0.00     0.094 A 
ATOM     10  C   UNL     1     -12.642 -11.123   4.583  1.00  0.00     0.146 A 
ATOM     11  O   UNL     1     -12.502 -11.328   3.278  1.00  0.00    -0.452 OA
ENDROOT
BRANCH   1  12
ATOM     12  C   UNL     1     -12.911 -12.391   1.155  1.00  0.00     0.025 A 
ATOM     13  C   UNL     1     -12.072 -13.396   0.641  1.00  0.00     0.016 A 
ATOM     14  C   UNL     1     -11.870 -13.511  -0.738  1.00  0.00     0.051 A 
ATOM     15  C   UNL     1     -12.512 -12.634  -1.621  1.00  0.00     0.157 A 
ATOM     16  C   UNL     1     -13.569 -11.529   0.264  1.00  0.00     0.062 A 
ATOM     17  C   UNL     1     -13.365 -11.643  -1.120  1.00  0.00     0.158 A 
BRANCH  15  18
ATOM     18  O   UNL     1     -12.313 -12.744  -2.995  1.00  0.00    -0.504 OA
ATOM     19  H   UNL     1     -12.058 -11.942  -3.560  1.00  0.00     0.293 HD
ENDBRANCH  15  18
BRANCH  17  20
ATOM     20  O   UNL     1     -14.010 -10.776  -2.001  1.00  0.00    -0.504 OA
ATOM     21  H   UNL     1     -14.640 -10.055  -1.670  1.00  0.00     0.293 HD
ENDBRANCH  17  20
ENDBRANCH   1  12
BRANCH   2  22
ATOM     22  O   UNL     1     -14.728 -14.123   2.603  1.00  0.00    -0.502 OA
ATOM     23  H   UNL     1     -14.526 -15.104   2.753  1.00  0.00     0.293 HD
ENDBRANCH   2  22
BRANCH   6  24
ATOM     24  O   UNL     1     -14.336 -12.473   7.652  1.00  0.00    -0.507 OA
ATOM     25  H   UNL     1     -15.231 -12.219   8.043  1.00  0.00     0.293 HD
ENDBRANCH   6  24
BRANCH   8  26
ATOM     26  O   UNL     1     -11.354  -8.769   7.130  1.00  0.00    -0.508 OA
ATOM     27  H   UNL     1     -10.584  -8.939   7.766  1.00  0.00     0.293 HD
ENDBRANCH   8  26
TORSDOF 6
ENDMDL
MODEL 5
REMARK VINA RESULT:    -4.253      7.660     10.471
REMARK INTER + INTRA:          -5.434
REMARK INTER:                  -5.625
REMARK INTRA:                   0.191
REMARK UNBOUND:                -0.310
REMARK SMILES O=c1c(O)c(-c2ccc(O)c(O)c2)oc2cc(O)cc(O)c12
REMARK SMILES IDX 5 1 3 2 2 3 1 4 22 5 20 6 19 7 17 8 16 9 15 10 14 11 6 12
REMARK SMILES IDX 7 13 8 14 9 15 13 16 11 17 10 18 12 20 4 22 21 24 18 26
REMARK H PARENT 10 19 12 21 4 23 21 25 18 27
REMARK Flexibility Score: inf
ROOT
ATOM      1  C   UNL     1      -9.530 -13.156  -4.154  1.00  0.00     0.180 A 
ATOM      2  C   UNL     1      -9.856 -13.584  -2.855  1.00  0.00     0.208 A 
ATOM      3  C   UNL     1     -11.184 -13.468  -2.414  1.00  0.00     0.238 A 
ATOM      4  O   UNL     1     -11.484 -13.922  -1.279  1.00  0.00    -0.285 OA
ATOM      5  C   UNL     1     -12.158 -12.875  -3.254  1.00  0.00     0.111 A 
ATOM      6  C   UNL     1     -13.524 -12.665  -2.893  1.00  0.00     0.134 A 
ATOM      7  C   UNL     1     -14.421 -12.167  -3.846  1.00  0.00     0.093 A 
ATOM      8  C   UNL     1     -13.991 -11.809  -5.123  1.00  0.00     0.123 A 
ATOM      9  C   UNL     1     -12.648 -11.958  -5.469  1.00  0.00     0.094 A 
ATOM     10  C   UNL     1     -11.736 -12.489  -4.553  1.00  0.00     0.146 A 
ATOM     11  O   UNL     1     -10.471 -12.634  -4.931  1.00  0.00    -0.452 OA
ENDROOT
BRANCH   1  12
ATOM     12  C   UNL     1      -8.156 -13.258  -4.696  1.00  0.00     0.025 A 
ATOM     13  C   UNL     1      -7.030 -13.043  -3.881  1.00  0.00     0.016 A 
ATOM     14  C   UNL     1      -5.742 -13.171  -4.409  1.00  0.00     0.051 A 
ATOM     15  C   UNL     1      -5.561 -13.526  -5.751  1.00  0.00     0.157 A 
ATOM     16  C   UNL     1      -7.968 -13.636  -6.035  1.00  0.00     0.062 A 
ATOM     17  C   UNL     1      -6.676 -13.762  -6.566  1.00  0.00     0.158 A 
BRANCH  15  18
ATOM     18  O   UNL     1      -4.278 -13.652  -6.282  1.00  0.00    -0.504 OA
ATOM     19  H   UNL     1      -3.473 -13.242  -5.825  1.00  0.00     0.293 HD
ENDBRANCH  15  18
BRANCH  17  20
ATOM     20  O   UNL     1      -6.493 -14.124  -7.899  1.00  0.00    -0.504 OA
ATOM     21  H   UNL     1      -7.265 -14.443  -8.472  1.00  0.00     0.293 HD
ENDBRANCH  17  20
ENDBRANCH   1  12
BRANCH   2  22
ATOM     22  O   UNL     1      -8.865 -14.096  -2.013  1.00  0.00    -0.502 OA
ATOM     23  H   UNL     1      -7.878 -14.012  -2.223  1.00  0.00     0.293 HD
ENDBRANCH   2  22
BRANCH   6  24
ATOM     24  O   UNL     1     -14.042 -12.905  -1.617  1.00  0.00    -0.507 OA
ATOM     25  H   UNL     1     -13.957 -13.775  -1.113  1.00  0.00     0.293 HD
ENDBRANCH   6  24
BRANCH   8  26
ATOM     26  O   UNL     1     -14.909 -11.300  -6.039  1.00  0.00    -0.508 OA
ATOM     27  H   UNL     1     -14.971 -11.663  -6.983  1.00  0.00     0.293 HD
ENDBRANCH   8  26
TORSDOF 6
ENDMDL
MODEL 6
REMARK VINA RESULT:    -4.232     10.146     13.316
REMARK INTER + INTRA:          -5.408
REMARK INTER:                  -5.477
REMARK INTRA:                   0.069
REMARK UNBOUND:                -0.310
REMARK SMILES O=c1c(O)c(-c2ccc(O)c(O)c2)oc2cc(O)cc(O)c12
REMARK SMILES IDX 5 1 3 2 2 3 1 4 22 5 20 6 19 7 17 8 16 9 15 10 14 11 6 12
REMARK SMILES IDX 7 13 8 14 9 15 13 16 11 17 10 18 12 20 4 22 21 24 18 26
REMARK H PARENT 10 19 12 21 4 23 21 25 18 27
REMARK Flexibility Score: inf
ROOT
ATOM      1  C   UNL     1      -8.351 -12.419  -7.027  1.00  0.00     0.180 A 
ATOM      2  C   UNL     1      -8.763 -11.596  -8.090  1.00  0.00     0.208 A 
ATOM      3  C   UNL     1     -10.125 -11.275  -8.214  1.00  0.00     0.238 A 
ATOM      4  O   UNL     1     -10.475 -10.478  -9.122  1.00  0.00    -0.285 OA
ATOM      5  C   UNL     1     -11.065 -11.825  -7.309  1.00  0.00     0.111 A 
ATOM      6  C   UNL     1     -12.475 -11.606  -7.367  1.00  0.00     0.134 A 
ATOM      7  C   UNL     1     -13.296 -12.116  -6.354  1.00  0.00     0.093 A 
ATOM      8  C   UNL     1     -12.769 -12.892  -5.322  1.00  0.00     0.123 A 
ATOM      9  C   UNL     1     -11.401 -13.160  -5.285  1.00  0.00     0.094 A 
ATOM     10  C   UNL     1     -10.550 -12.633  -6.260  1.00  0.00     0.146 A 
ATOM     11  O   UNL     1      -9.251 -12.894  -6.175  1.00  0.00    -0.452 OA
ENDROOT
BRANCH   1  12
ATOM     12  C   UNL     1      -6.932 -12.790  -6.822  1.00  0.00     0.025 A 
ATOM     13  C   UNL     1      -6.334 -12.723  -5.551  1.00  0.00     0.016 A 
ATOM     14  C   UNL     1      -5.000 -13.103  -5.378  1.00  0.00     0.051 A 
ATOM     15  C   UNL     1      -4.250 -13.565  -6.466  1.00  0.00     0.157 A 
ATOM     16  C   UNL     1      -6.182 -13.275  -7.905  1.00  0.00     0.062 A 
ATOM     17  C   UNL     1      -4.842 -13.654  -7.732  1.00  0.00     0.158 A 
BRANCH  15  18
ATOM     18  O   UNL     1      -2.919 -13.943  -6.297  1.00  0.00    -0.504 OA
ATOM     19  H   UNL     1      -2.159 -13.387  -6.672  1.00  0.00     0.293 HD
ENDBRANCH  15  18
BRANCH  17  20
ATOM     20  O   UNL     1      -4.096 -14.123  -8.812  1.00  0.00    -0.504 OA
ATOM     21  H   UNL     1      -4.516 -14.689  -9.540  1.00  0.00     0.293 HD
ENDBRANCH  17  20
ENDBRANCH   1  12
BRANCH   2  22
ATOM     22  O   UNL     1      -7.830 -11.125  -9.017  1.00  0.00    -0.502 OA
ATOM     23  H   UNL     1      -7.357 -10.236  -8.909  1.00  0.00     0.293 HD
ENDBRANCH   2  22
BRANCH   6  24
ATOM     24  O   UNL     1     -13.117 -10.919  -8.401  1.00  0.00    -0.507 OA
ATOM     25  H   UNL     1     -12.655 -10.338  -9.084  1.00  0.00     0.293 HD
ENDBRANCH   6  24
BRANCH   8  26
ATOM     26  O   UNL     1     -13.619 -13.398  -4.341  1.00  0.00    -0.508 OA
ATOM     27  H   UNL     1     -14.584 -13.094  -4.269  1.00  0.00     0.293 HD
ENDBRANCH   8  26
TORSDOF 6
ENDMDL
MODEL 7
REMARK VINA RESULT:    -4.144      1.537      2.365
REMARK INTER + INTRA:          -5.302
REMARK INTER:                  -4.985
REMARK INTRA:                  -0.317
REMARK UNBOUND:                -0.310
REMARK SMILES O=c1c(O)c(-c2ccc(O)c(O)c2)oc2cc(O)cc(O)c12
REMARK SMILES IDX 5 1 3 2 2 3 1 4 22 5 20 6 19 7 17 8 16 9 15 10 14 11 6 12
REMARK SMILES IDX 7 13 8 14 9 15 13 16 11 17 10 18 12 20 4 22 21 24 18 26
REMARK H PARENT 10 19 12 21 4 23 21 25 18 27
REMARK Flexibility Score: inf
ROOT
ATOM      1  C   UNL     1     -13.151 -11.086   6.141  1.00  0.00     0.180 A 
ATOM      2  C   UNL     1     -12.123 -11.571   6.968  1.00  0.00     0.208 A 
ATOM      3  C   UNL     1     -11.873 -10.927   8.191  1.00  0.00     0.238 A 
ATOM      4  O   UNL     1     -11.003 -11.412   8.960  1.00  0.00    -0.285 OA
ATOM      5  C   UNL     1     -12.614  -9.773   8.546  1.00  0.00     0.111 A 
ATOM      6  C   UNL     1     -12.415  -9.014   9.739  1.00  0.00     0.134 A 
ATOM      7  C   UNL     1     -13.280  -7.953  10.035  1.00  0.00     0.093 A 
ATOM      8  C   UNL     1     -14.294  -7.583   9.153  1.00  0.00     0.123 A 
ATOM      9  C   UNL     1     -14.464  -8.283   7.958  1.00  0.00     0.094 A 
ATOM     10  C   UNL     1     -13.641  -9.370   7.652  1.00  0.00     0.146 A 
ATOM     11  O   UNL     1     -13.851 -10.022   6.515  1.00  0.00    -0.452 OA
ENDROOT
BRANCH   1  12
ATOM     12  C   UNL     1     -13.484 -11.719   4.845  1.00  0.00     0.025 A 
ATOM     13  C   UNL     1     -14.302 -12.861   4.776  1.00  0.00     0.016 A 
ATOM     14  C   UNL     1     -14.623 -13.426   3.539  1.00  0.00     0.051 A 
ATOM     15  C   UNL     1     -14.143 -12.853   2.354  1.00  0.00     0.157 A 
ATOM     16  C   UNL     1     -13.024 -11.136   3.653  1.00  0.00     0.062 A 
ATOM     17  C   UNL     1     -13.344 -11.704   2.411  1.00  0.00     0.158 A 
BRANCH  15  18
ATOM     18  O   UNL     1     -14.460 -13.415   1.119  1.00  0.00    -0.504 OA
ATOM     19  H   UNL     1     -13.997 -14.252   0.783  1.00  0.00     0.293 HD
ENDBRANCH  15  18
BRANCH  17  20
ATOM     20  O   UNL     1     -12.875 -11.131   1.230  1.00  0.00    -0.504 OA
ATOM     21  H   UNL     1     -11.887 -10.960   1.080  1.00  0.00     0.293 HD
ENDBRANCH  17  20
ENDBRANCH   1  12
BRANCH   2  22
ATOM     22  O   UNL     1     -11.352 -12.664   6.565  1.00  0.00    -0.502 OA
ATOM     23  H   UNL     1     -11.753 -13.577   6.390  1.00  0.00     0.293 HD
ENDBRANCH   2  22
BRANCH   6  24
ATOM     24  O   UNL     1     -11.377  -9.242  10.647  1.00  0.00    -0.507 OA
ATOM     25  H   UNL     1     -10.405  -9.030  10.480  1.00  0.00     0.293 HD
ENDBRANCH   6  24
BRANCH   8  26
ATOM     26  O   UNL     1     -15.125  -6.511   9.473  1.00  0.00    -0.508 OA
ATOM     27  H   UNL     1     -16.018  -6.652   9.931  1.00  0.00     0.293 HD
ENDBRANCH   8  26
TORSDOF 6
ENDMDL
MODEL 8
REMARK VINA RESULT:    -4.078     22.126     23.816
REMARK INTER + INTRA:          -5.222
REMARK INTER:                  -5.017
REMARK INTRA:                  -0.205
REMARK UNBOUND:                -0.310
REMARK SMILES O=c1c(O)c(-c2ccc(O)c(O)c2)oc2cc(O)cc(O)c12
REMARK SMILES IDX 5 1 3 2 2 3 1 4 22 5 20 6 19 7 17 8 16 9 15 10 14 11 6 12
REMARK SMILES IDX 7 13 8 14 9 15 13 16 11 17 10 18 12 20 4 22 21 24 18 26
REMARK H PARENT 10 19 12 21 4 23 21 25 18 27
REMARK Flexibility Score: inf
ROOT
ATOM      1  C   UNL     1       3.121   1.255  -6.095  1.00  0.00     0.180 A 
ATOM      2  C   UNL     1       3.766   2.472  -5.815  1.00  0.00     0.208 A 
ATOM      3  C   UNL     1       3.188   3.669  -6.269  1.00  0.00     0.238 A 
ATOM      4  O   UNL     1       3.731   4.759  -5.950  1.00  0.00    -0.285 OA
ATOM      5  C   UNL     1       2.004   3.631  -7.045  1.00  0.00     0.111 A 
ATOM      6  C   UNL     1       1.356   4.778  -7.596  1.00  0.00     0.134 A 
ATOM      7  C   UNL     1       0.131   4.629  -8.257  1.00  0.00     0.093 A 
ATOM      8  C   UNL     1      -0.437   3.369  -8.445  1.00  0.00     0.123 A 
ATOM      9  C   UNL     1       0.214   2.235  -7.959  1.00  0.00     0.094 A 
ATOM     10  C   UNL     1       1.419   2.356  -7.261  1.00  0.00     0.146 A 
ATOM     11  O   UNL     1       1.995   1.253  -6.797  1.00  0.00    -0.452 OA
ENDROOT
BRANCH   1  12
ATOM     12  C   UNL     1       3.660  -0.046  -5.638  1.00  0.00     0.025 A 
ATOM     13  C   UNL     1       3.722  -0.374  -4.273  1.00  0.00     0.016 A 
ATOM     14  C   UNL     1       4.212  -1.619  -3.867  1.00  0.00     0.051 A 
ATOM     15  C   UNL     1       4.634  -2.556  -4.818  1.00  0.00     0.157 A 
ATOM     16  C   UNL     1       4.065  -0.998  -6.589  1.00  0.00     0.062 A 
ATOM     17  C   UNL     1       4.558  -2.246  -6.182  1.00  0.00     0.158 A 
BRANCH  15  18
ATOM     18  O   UNL     1       5.125  -3.797  -4.418  1.00  0.00    -0.504 OA
ATOM     19  H   UNL     1       4.596  -4.403  -3.801  1.00  0.00     0.293 HD
ENDBRANCH  15  18
BRANCH  17  20
ATOM     20  O   UNL     1       4.971  -3.184  -7.127  1.00  0.00    -0.504 OA
ATOM     21  H   UNL     1       4.813  -4.176  -6.994  1.00  0.00     0.293 HD
ENDBRANCH  17  20
ENDBRANCH   1  12
BRANCH   2  22
ATOM     22  O   UNL     1       4.974   2.483  -5.113  1.00  0.00    -0.502 OA
ATOM     23  H   UNL     1       5.613   3.268  -5.143  1.00  0.00     0.293 HD
ENDBRANCH   2  22
BRANCH   6  24
ATOM     24  O   UNL     1       1.880   6.073  -7.543  1.00  0.00    -0.507 OA
ATOM     25  H   UNL     1       1.370   6.892  -7.246  1.00  0.00     0.293 HD
ENDBRANCH   6  24
BRANCH   8  26
ATOM     26  O   UNL     1      -1.650   3.257  -9.123  1.00  0.00    -0.508 OA
ATOM     27  H   UNL     1      -1.982   3.990  -9.739  1.00  0.00     0.293 HD
ENDBRANCH   8  26
TORSDOF 6
ENDMDL
MODEL 9
REMARK VINA RESULT:    -4.072     22.363     23.278
REMARK INTER + INTRA:          -5.215
REMARK INTER:                  -4.974
REMARK INTRA:                  -0.241
REMARK UNBOUND:                -0.310
REMARK SMILES O=c1c(O)c(-c2ccc(O)c(O)c2)oc2cc(O)cc(O)c12
REMARK SMILES IDX 5 1 3 2 2 3 1 4 22 5 20 6 19 7 17 8 16 9 15 10 14 11 6 12
REMARK SMILES IDX 7 13 8 14 9 15 13 16 11 17 10 18 12 20 4 22 21 24 18 26
REMARK H PARENT 10 19 12 21 4 23 21 25 18 27
REMARK Flexibility Score: inf
ROOT
ATOM      1  C   UNL     1       1.873   1.559  -7.168  1.00  0.00     0.180 A 
ATOM      2  C   UNL     1       1.907   0.351  -7.886  1.00  0.00     0.208 A 
ATOM      3  C   UNL     1       2.610  -0.740  -7.349  1.00  0.00     0.238 A 
ATOM      4  O   UNL     1       2.574  -1.839  -7.961  1.00  0.00    -0.285 OA
ATOM      5  C   UNL     1       3.315  -0.594  -6.130  1.00  0.00     0.111 A 
ATOM      6  C   UNL     1       4.098  -1.619  -5.516  1.00  0.00     0.134 A 
ATOM      7  C   UNL     1       4.664  -1.394  -4.255  1.00  0.00     0.093 A 
ATOM      8  C   UNL     1       4.532  -0.161  -3.616  1.00  0.00     0.123 A 
ATOM      9  C   UNL     1       3.817   0.866  -4.231  1.00  0.00     0.094 A 
ATOM     10  C   UNL     1       3.207   0.659  -5.471  1.00  0.00     0.146 A 
ATOM     11  O   UNL     1       2.516   1.656  -6.012  1.00  0.00    -0.452 OA
ENDROOT
BRANCH   1  12
ATOM     12  C   UNL     1       1.142   2.749  -7.661  1.00  0.00     0.025 A 
ATOM     13  C   UNL     1       1.822   3.851  -8.208  1.00  0.00     0.016 A 
ATOM     14  C   UNL     1       1.109   4.952  -8.691  1.00  0.00     0.051 A 
ATOM     15  C   UNL     1      -0.290   4.963  -8.646  1.00  0.00     0.157 A 
ATOM     16  C   UNL     1      -0.262   2.755  -7.639  1.00  0.00     0.062 A 
ATOM     17  C   UNL     1      -0.978   3.861  -8.121  1.00  0.00     0.158 A 
BRANCH  15  18
ATOM     18  O   UNL     1      -1.005   6.059  -9.125  1.00  0.00    -0.504 OA
ATOM     19  H   UNL     1      -1.643   6.576  -8.531  1.00  0.00     0.293 HD
ENDBRANCH  15  18
BRANCH  17  20
ATOM     20  O   UNL     1      -2.371   3.870  -8.085  1.00  0.00    -0.504 OA
ATOM     21  H   UNL     1      -2.890   4.709  -7.852  1.00  0.00     0.293 HD
ENDBRANCH  17  20
ENDBRANCH   1  12
BRANCH   2  22
ATOM     22  O   UNL     1       1.269   0.251  -9.125  1.00  0.00    -0.502 OA
ATOM     23  H   UNL     1       1.114  -0.638  -9.586  1.00  0.00     0.293 HD
ENDBRANCH   2  22
BRANCH   6  24
ATOM     24  O   UNL     1       4.368  -2.857  -6.107  1.00  0.00    -0.507 OA
ATOM     25  H   UNL     1       4.535  -3.004  -7.091  1.00  0.00     0.293 HD
ENDBRANCH   6  24
BRANCH   8  26
ATOM     26  O   UNL     1       5.124   0.032  -2.370  1.00  0.00    -0.508 OA
ATOM     27  H   UNL     1       5.004   0.897  -1.855  1.00  0.00     0.293 HD
ENDBRANCH   8  26
TORSDOF 6
ENDMDL
