MODEL 1
REMARK VINA RESULT:    -2.367      0.000      0.000
REMARK INTER + INTRA:          -7.583
REMARK INTER:                  -5.135
REMARK INTRA:                  -2.448
REMARK UNBOUND:                -2.448
REMARK SMILES CCCCCCCCCCCCCCCCCCCCCC(=O)[O-]
REMARK SMILES IDX 12 1 11 2 10 3 9 4 8 5 7 6 6 7 5 8 4 9 3 10 2 11 1 12 13 13
REMARK SMILES IDX 14 14 15 15 16 16 17 17 18 18 19 19 20 20 21 21 22 22 23 23
REMARK SMILES IDX 24 24
REMARK H PARENT
REMARK Flexibility Score: inf
ROOT
ATOM      1  C   UNL     1       3.104   2.999  15.250  1.00  0.00     0.000 C 
ENDROOT
BRANCH   1   2
ATOM      2  C   UNL     1       3.442   4.183  14.326  1.00  0.00     0.000 C 
BRANCH   2   3
ATOM      3  C   UNL     1       4.642   3.897  13.407  1.00  0.00     0.000 C 
BRANCH   3   4
ATOM      4  C   UNL     1       4.682   2.438  12.922  1.00  0.00    -0.000 C 
BRANCH   4   5
ATOM      5  C   UNL     1       6.110   1.868  12.875  1.00  0.00    -0.000 C 
BRANCH   5   6
ATOM      6  C   UNL     1       6.146   0.351  13.132  1.00  0.00    -0.000 C 
BRANCH   6   7
ATOM      7  C   UNL     1       4.790  -0.324  12.875  1.00  0.00    -0.000 C 
BRANCH   7   8
ATOM      8  C   UNL     1       4.803  -1.781  13.362  1.00  0.00    -0.000 C 
BRANCH   8   9
ATOM      9  C   UNL     1       3.651  -2.093  14.329  1.00  0.00    -0.000 C 
BRANCH   9  10
ATOM     10  C   UNL     1       2.334  -1.408  13.922  1.00  0.00    -0.000 C 
BRANCH  10  11
ATOM     11  C   UNL     1       1.380  -1.211  15.111  1.00  0.00    -0.003 C 
ATOM     12  C   UNL     1       0.386  -0.072  14.886  1.00  0.00     0.004 C 
ENDBRANCH  10  11
ENDBRANCH   9  10
ENDBRANCH   8   9
ENDBRANCH   7   8
ENDBRANCH   6   7
ENDBRANCH   5   6
ENDBRANCH   4   5
ENDBRANCH   3   4
ENDBRANCH   2   3
ENDBRANCH   1   2
BRANCH   1  13
ATOM     13  C   UNL     1       4.279   2.475  16.098  1.00  0.00     0.000 C 
BRANCH  13  14
ATOM     14  C   UNL     1       4.449   0.943  16.104  1.00  0.00     0.000 C 
BRANCH  14  15
ATOM     15  C   UNL     1       5.812   0.439  16.621  1.00  0.00     0.000 C 
BRANCH  15  16
ATOM     16  C   UNL     1       5.966  -1.092  16.681  1.00  0.00     0.000 C 
BRANCH  16  17
ATOM     17  C   UNL     1       5.405  -1.699  17.979  1.00  0.00     0.000 C 
BRANCH  17  18
ATOM     18  C   UNL     1       6.230  -1.307  19.216  1.00  0.00     0.000 C 
BRANCH  18  19
ATOM     19  C   UNL     1       5.910   0.108  19.720  1.00  0.00     0.000 C 
BRANCH  19  20
ATOM     20  C   UNL     1       4.398   0.287  19.931  1.00  0.00     0.006 C 
BRANCH  20  21
ATOM     21  C   UNL     1       3.904   1.664  19.465  1.00  0.00     0.053 C 
BRANCH  21  22
ATOM     22  C   UNL     1       2.409   1.713  19.357  1.00  0.00     0.041 C 
ATOM     23  O   UNL     1       1.851   1.670  18.227  1.00  0.00    -0.550 OA
ATOM     24  O   UNL     1       1.630   1.767  20.507  1.00  0.00    -0.550 OA
ENDBRANCH  21  22
ENDBRANCH  20  21
ENDBRANCH  19  20
ENDBRANCH  18  19
ENDBRANCH  17  18
ENDBRANCH  16  17
ENDBRANCH  15  16
ENDBRANCH  14  15
ENDBRANCH  13  14
ENDBRANCH   1  13
TORSDOF 20
ENDMDL
MODEL 2
REMARK VINA RESULT:    -1.634      1.075      2.776
REMARK INTER + INTRA:          -5.993
REMARK INTER:                  -3.379
REMARK INTRA:                  -2.613
REMARK UNBOUND:                -2.448
REMARK SMILES CCCCCCCCCCCCCCCCCCCCCC(=O)[O-]
REMARK SMILES IDX 12 1 11 2 10 3 9 4 8 5 7 6 6 7 5 8 4 9 3 10 2 11 1 12 13 13
REMARK SMILES IDX 14 14 15 15 16 16 17 17 18 18 19 19 20 20 21 21 22 22 23 23
REMARK SMILES IDX 24 24
REMARK H PARENT
REMARK Flexibility Score: inf
ROOT
ATOM      1  C   UNL     1       6.242   1.192  13.991  1.00  0.00     0.000 C 
ENDROOT
BRANCH   1   2
ATOM      2  C   UNL     1       5.254   1.652  12.903  1.00  0.00     0.000 C 
BRANCH   2   3
ATOM      3  C   UNL     1       5.066   3.178  12.877  1.00  0.00     0.000 C 
BRANCH   3   4
ATOM      4  C   UNL     1       4.701   3.753  14.256  1.00  0.00    -0.000 C 
BRANCH   4   5
ATOM      5  C   UNL     1       3.224   4.173  14.352  1.00  0.00    -0.000 C 
BRANCH   5   6
ATOM      6  C   UNL     1       2.342   3.081  14.984  1.00  0.00    -0.000 C 
BRANCH   6   7
ATOM      7  C   UNL     1       3.061   2.319  16.108  1.00  0.00    -0.000 C 
BRANCH   7   8
ATOM      8  C   UNL     1       3.116   0.815  15.800  1.00  0.00    -0.000 C 
BRANCH   8   9
ATOM      9  C   UNL     1       2.386   0.449  14.499  1.00  0.00    -0.000 C 
BRANCH   9  10
ATOM     10  C   UNL     1       1.245  -0.559  14.724  1.00  0.00    -0.000 C 
BRANCH  10  11
ATOM     11  C   UNL     1       1.696  -2.014  14.517  1.00  0.00    -0.003 C 
ATOM     12  C   UNL     1       3.015  -2.118  13.751  1.00  0.00     0.004 C 
ENDBRANCH  10  11
ENDBRANCH   9  10
ENDBRANCH   8   9
ENDBRANCH   7   8
ENDBRANCH   6   7
ENDBRANCH   5   6
ENDBRANCH   4   5
ENDBRANCH   3   4
ENDBRANCH   2   3
ENDBRANCH   1   2
BRANCH   1  13
ATOM     13  C   UNL     1       6.935  -0.158  13.716  1.00  0.00     0.000 C 
BRANCH  13  14
ATOM     14  C   UNL     1       6.439  -1.335  14.580  1.00  0.00     0.000 C 
BRANCH  14  15
ATOM     15  C   UNL     1       6.158  -0.989  16.056  1.00  0.00     0.000 C 
BRANCH  15  16
ATOM     16  C   UNL     1       4.840  -1.550  16.622  1.00  0.00     0.000 C 
BRANCH  16  17
ATOM     17  C   UNL     1       4.775  -1.492  18.158  1.00  0.00     0.000 C 
BRANCH  17  18
ATOM     18  C   UNL     1       5.887  -0.617  18.761  1.00  0.00     0.000 C 
BRANCH  18  19
ATOM     19  C   UNL     1       5.349   0.441  19.735  1.00  0.00     0.000 C 
BRANCH  19  20
ATOM     20  C   UNL     1       3.978   0.963  19.277  1.00  0.00     0.006 C 
BRANCH  20  21
ATOM     21  C   UNL     1       2.967   1.034  20.430  1.00  0.00     0.053 C 
BRANCH  21  22
ATOM     22  C   UNL     1       1.746   1.820  20.055  1.00  0.00     0.041 C 
ATOM     23  O   UNL     1       1.080   2.422  20.940  1.00  0.00    -0.550 OA
ATOM     24  O   UNL     1       1.366   1.921  18.721  1.00  0.00    -0.550 OA
ENDBRANCH  21  22
ENDBRANCH  20  21
ENDBRANCH  19  20
ENDBRANCH  18  19
ENDBRANCH  17  18
ENDBRANCH  16  17
ENDBRANCH  15  16
ENDBRANCH  14  15
ENDBRANCH  13  14
ENDBRANCH   1  13
TORSDOF 20
ENDMDL
MODEL 3
REMARK VINA RESULT:    -1.570      1.824      4.768
REMARK INTER + INTRA:          -5.854
REMARK INTER:                  -4.673
REMARK INTRA:                  -1.181
REMARK UNBOUND:                -2.448
REMARK SMILES CCCCCCCCCCCCCCCCCCCCCC(=O)[O-]
REMARK SMILES IDX 12 1 11 2 10 3 9 4 8 5 7 6 6 7 5 8 4 9 3 10 2 11 1 12 13 13
REMARK SMILES IDX 14 14 15 15 16 16 17 17 18 18 19 19 20 20 21 21 22 22 23 23
REMARK SMILES IDX 24 24
REMARK H PARENT
REMARK Flexibility Score: inf
ROOT
ATOM      1  C   UNL     1       4.699  -2.047  18.299  1.00  0.00     0.000 C 
ENDROOT
BRANCH   1   2
ATOM      2  C   UNL     1       4.240  -1.954  16.832  1.00  0.00     0.000 C 
BRANCH   2   3
ATOM      3  C   UNL     1       5.291  -1.297  15.921  1.00  0.00     0.000 C 
BRANCH   3   4
ATOM      4  C   UNL     1       5.543  -2.098  14.633  1.00  0.00    -0.000 C 
BRANCH   4   5
ATOM      5  C   UNL     1       6.944  -1.854  14.047  1.00  0.00    -0.000 C 
BRANCH   5   6
ATOM      6  C   UNL     1       6.928  -0.847  12.884  1.00  0.00    -0.000 C 
BRANCH   6   7
ATOM      7  C   UNL     1       5.671   0.037  12.885  1.00  0.00    -0.000 C 
BRANCH   7   8
ATOM      8  C   UNL     1       6.041   1.516  13.073  1.00  0.00    -0.000 C 
BRANCH   8   9
ATOM      9  C   UNL     1       4.825   2.393  13.406  1.00  0.00    -0.000 C 
BRANCH   9  10
ATOM     10  C   UNL     1       5.205   3.653  14.205  1.00  0.00    -0.000 C 
BRANCH  10  11
ATOM     11  C   UNL     1       3.982   4.343  14.831  1.00  0.00    -0.003 C 
ATOM     12  C   UNL     1       2.683   4.023  14.092  1.00  0.00     0.004 C 
ENDBRANCH  10  11
ENDBRANCH   9  10
ENDBRANCH   8   9
ENDBRANCH   7   8
ENDBRANCH   6   7
ENDBRANCH   5   6
ENDBRANCH   4   5
ENDBRANCH   3   4
ENDBRANCH   2   3
ENDBRANCH   1   2
BRANCH   1  13
ATOM     13  C   UNL     1       6.201  -1.794  18.532  1.00  0.00     0.000 C 
BRANCH  13  14
ATOM     14  C   UNL     1       6.541  -0.451  19.210  1.00  0.00     0.000 C 
BRANCH  14  15
ATOM     15  C   UNL     1       5.436   0.118  20.123  1.00  0.00     0.000 C 
BRANCH  15  16
ATOM     16  C   UNL     1       4.115   0.468  19.415  1.00  0.00     0.000 C 
BRANCH  16  17
ATOM     17  C   UNL     1       4.048   1.939  18.966  1.00  0.00     0.000 C 
BRANCH  17  18
ATOM     18  C   UNL     1       4.072   2.088  17.436  1.00  0.00     0.000 C 
BRANCH  18  19
ATOM     19  C   UNL     1       2.834   1.480  16.760  1.00  0.00     0.000 C 
BRANCH  19  20
ATOM     20  C   UNL     1       3.236   0.621  15.550  1.00  0.00     0.006 C 
BRANCH  20  21
ATOM     21  C   UNL     1       2.117   0.530  14.502  1.00  0.00     0.053 C 
BRANCH  21  22
ATOM     22  C   UNL     1       1.062  -0.459  14.897  1.00  0.00     0.041 C 
ATOM     23  O   UNL     1       1.315  -1.694  14.896  1.00  0.00    -0.550 OA
ATOM     24  O   UNL     1      -0.190  -0.015  15.305  1.00  0.00    -0.550 OA
ENDBRANCH  21  22
ENDBRANCH  20  21
ENDBRANCH  19  20
ENDBRANCH  18  19
ENDBRANCH  17  18
ENDBRANCH  16  17
ENDBRANCH  15  16
ENDBRANCH  14  15
ENDBRANCH  13  14
ENDBRANCH   1  13
TORSDOF 20
ENDMDL
MODEL 4
REMARK VINA RESULT:    -1.294      1.703      5.201
REMARK INTER + INTRA:          -5.254
REMARK INTER:                  -4.532
REMARK INTRA:                  -0.722
REMARK UNBOUND:                -2.448
REMARK SMILES CCCCCCCCCCCCCCCCCCCCCC(=O)[O-]
REMARK SMILES IDX 12 1 11 2 10 3 9 4 8 5 7 6 6 7 5 8 4 9 3 10 2 11 1 12 13 13
REMARK SMILES IDX 14 14 15 15 16 16 17 17 18 18 19 19 20 20 21 21 22 22 23 23
REMARK SMILES IDX 24 24
REMARK H PARENT
REMARK Flexibility Score: inf
ROOT
ATOM      1  C   UNL     1       3.354   3.580  15.167  1.00  0.00     0.000 C 
ENDROOT
BRANCH   1   2
ATOM      2  C   UNL     1       4.610   3.030  15.867  1.00  0.00     0.000 C 
BRANCH   2   3
ATOM      3  C   UNL     1       4.315   1.793  16.733  1.00  0.00     0.000 C 
BRANCH   3   4
ATOM      4  C   UNL     1       5.449   0.757  16.692  1.00  0.00    -0.000 C 
BRANCH   4   5
ATOM      5  C   UNL     1       4.930  -0.692  16.674  1.00  0.00    -0.000 C 
BRANCH   5   6
ATOM      6  C   UNL     1       5.934  -1.684  17.287  1.00  0.00    -0.000 C 
BRANCH   6   7
ATOM      7  C   UNL     1       5.919  -1.667  18.823  1.00  0.00    -0.000 C 
BRANCH   7   8
ATOM      8  C   UNL     1       5.743  -0.236  19.353  1.00  0.00    -0.000 C 
BRANCH   8   9
ATOM      9  C   UNL     1       4.354   0.003  19.964  1.00  0.00    -0.000 C 
BRANCH   9  10
ATOM     10  C   UNL     1       3.962   1.491  19.980  1.00  0.00    -0.000 C 
BRANCH  10  11
ATOM     11  C   UNL     1       2.477   1.712  19.652  1.00  0.00    -0.003 C 
ATOM     12  C   UNL     1       1.548   1.181  20.744  1.00  0.00     0.004 C 
ENDBRANCH  10  11
ENDBRANCH   9  10
ENDBRANCH   8   9
ENDBRANCH   7   8
ENDBRANCH   6   7
ENDBRANCH   5   6
ENDBRANCH   4   5
ENDBRANCH   3   4
ENDBRANCH   2   3
ENDBRANCH   1   2
BRANCH   1  13
ATOM     13  C   UNL     1       3.316   3.379  13.639  1.00  0.00     0.000 C 
BRANCH  13  14
ATOM     14  C   UNL     1       4.668   3.018  12.993  1.00  0.00     0.000 C 
BRANCH  14  15
ATOM     15  C   UNL     1       5.135   1.566  13.221  1.00  0.00     0.000 C 
BRANCH  15  16
ATOM     16  C   UNL     1       6.609   1.289  12.875  1.00  0.00     0.000 C 
BRANCH  16  17
ATOM     17  C   UNL     1       6.982  -0.200  12.992  1.00  0.00     0.000 C 
BRANCH  17  18
ATOM     18  C   UNL     1       5.948  -1.003  13.798  1.00  0.00     0.000 C 
BRANCH  18  19
ATOM     19  C   UNL     1       5.063  -1.892  12.912  1.00  0.00     0.000 C 
BRANCH  19  20
ATOM     20  C   UNL     1       3.657  -2.041  13.515  1.00  0.00     0.006 C 
BRANCH  20  21
ATOM     21  C   UNL     1       2.886  -0.714  13.532  1.00  0.00     0.053 C 
BRANCH  21  22
ATOM     22  C   UNL     1       1.813  -0.705  14.578  1.00  0.00     0.041 C 
ATOM     23  O   UNL     1       0.914   0.180  14.561  1.00  0.00    -0.550 OA
ATOM     24  O   UNL     1       1.781  -1.697  15.551  1.00  0.00    -0.550 OA
ENDBRANCH  21  22
ENDBRANCH  20  21
ENDBRANCH  19  20
ENDBRANCH  18  19
ENDBRANCH  17  18
ENDBRANCH  16  17
ENDBRANCH  15  16
ENDBRANCH  14  15
ENDBRANCH  13  14
ENDBRANCH   1  13
TORSDOF 20
ENDMDL
MODEL 5
REMARK VINA RESULT:    -1.274      1.212      2.433
REMARK INTER + INTRA:          -5.212
REMARK INTER:                  -4.766
REMARK INTRA:                  -0.446
REMARK UNBOUND:                -2.448
REMARK SMILES CCCCCCCCCCCCCCCCCCCCCC(=O)[O-]
REMARK SMILES IDX 12 1 11 2 10 3 9 4 8 5 7 6 6 7 5 8 4 9 3 10 2 11 1 12 13 13
REMARK SMILES IDX 14 14 15 15 16 16 17 17 18 18 19 19 20 20 21 21 22 22 23 23
REMARK SMILES IDX 24 24
REMARK H PARENT
REMARK Flexibility Score: inf
ROOT
ATOM      1  C   UNL     1       5.182   2.951  12.875  1.00  0.00     0.000 C 
ENDROOT
BRANCH   1   2
ATOM      2  C   UNL     1       4.973   3.681  14.214  1.00  0.00     0.000 C 
BRANCH   2   3
ATOM      3  C   UNL     1       3.536   4.200  14.391  1.00  0.00     0.000 C 
BRANCH   3   4
ATOM      4  C   UNL     1       2.530   3.073  14.681  1.00  0.00    -0.000 C 
BRANCH   4   5
ATOM      5  C   UNL     1       2.986   2.150  15.824  1.00  0.00    -0.000 C 
BRANCH   5   6
ATOM      6  C   UNL     1       3.315   0.728  15.337  1.00  0.00    -0.000 C 
BRANCH   6   7
ATOM      7  C   UNL     1       3.307   0.612  13.805  1.00  0.00    -0.000 C 
BRANCH   7   8
ATOM      8  C   UNL     1       3.075  -0.842  13.367  1.00  0.00    -0.000 C 
BRANCH   8   9
ATOM      9  C   UNL     1       2.778  -1.776  14.550  1.00  0.00    -0.000 C 
BRANCH   9  10
ATOM     10  C   UNL     1       1.270  -1.962  14.793  1.00  0.00    -0.000 C 
BRANCH  10  11
ATOM     11  C   UNL     1       0.463  -0.688  14.497  1.00  0.00    -0.003 C 
ATOM     12  C   UNL     1       0.076   0.072  15.766  1.00  0.00     0.004 C 
ENDBRANCH  10  11
ENDBRANCH   9  10
ENDBRANCH   8   9
ENDBRANCH   7   8
ENDBRANCH   6   7
ENDBRANCH   5   6
ENDBRANCH   4   5
ENDBRANCH   3   4
ENDBRANCH   2   3
ENDBRANCH   1   2
BRANCH   1  13
ATOM     13  C   UNL     1       6.298   1.887  12.878  1.00  0.00     0.000 C 
BRANCH  13  14
ATOM     14  C   UNL     1       6.362   1.009  14.143  1.00  0.00     0.000 C 
BRANCH  14  15
ATOM     15  C   UNL     1       6.892  -0.422  13.920  1.00  0.00     0.000 C 
BRANCH  15  16
ATOM     16  C   UNL     1       6.359  -1.481  14.902  1.00  0.00     0.000 C 
BRANCH  16  17
ATOM     17  C   UNL     1       5.830  -0.870  16.212  1.00  0.00     0.000 C 
BRANCH  17  18
ATOM     18  C   UNL     1       5.309  -1.937  17.189  1.00  0.00     0.000 C 
BRANCH  18  19
ATOM     19  C   UNL     1       6.047  -1.922  18.536  1.00  0.00     0.000 C 
BRANCH  19  20
ATOM     20  C   UNL     1       6.286  -0.481  19.015  1.00  0.00     0.006 C 
BRANCH  20  21
ATOM     21  C   UNL     1       5.140   0.038  19.894  1.00  0.00     0.053 C 
BRANCH  21  22
ATOM     22  C   UNL     1       4.353   1.114  19.207  1.00  0.00     0.041 C 
ATOM     23  O   UNL     1       4.588   1.404  18.003  1.00  0.00    -0.550 OA
ATOM     24  O   UNL     1       3.331   1.768  19.885  1.00  0.00    -0.550 OA
ENDBRANCH  21  22
ENDBRANCH  20  21
ENDBRANCH  19  20
ENDBRANCH  18  19
ENDBRANCH  17  18
ENDBRANCH  16  17
ENDBRANCH  15  16
ENDBRANCH  14  15
ENDBRANCH  13  14
ENDBRANCH   1  13
TORSDOF 20
ENDMDL
MODEL 6
REMARK VINA RESULT:    -1.097      1.066      3.742
REMARK INTER + INTRA:          -4.828
REMARK INTER:                  -2.915
REMARK INTRA:                  -1.913
REMARK UNBOUND:                -2.448
REMARK SMILES CCCCCCCCCCCCCCCCCCCCCC(=O)[O-]
REMARK SMILES IDX 12 1 11 2 10 3 9 4 8 5 7 6 6 7 5 8 4 9 3 10 2 11 1 12 13 13
REMARK SMILES IDX 14 14 15 15 16 16 17 17 18 18 19 19 20 20 21 21 22 22 23 23
REMARK SMILES IDX 24 24
REMARK H PARENT
REMARK Flexibility Score: inf
ROOT
ATOM      1  C   UNL     1       2.488   2.647  15.327  1.00  0.00     0.000 C 
ENDROOT
BRANCH   1   2
ATOM      2  C   UNL     1       1.386   1.674  14.869  1.00  0.00     0.000 C 
BRANCH   2   3
ATOM      3  C   UNL     1       1.563   0.260  15.449  1.00  0.00     0.000 C 
BRANCH   3   4
ATOM      4  C   UNL     1       1.483  -0.836  14.373  1.00  0.00    -0.000 C 
BRANCH   4   5
ATOM      5  C   UNL     1       2.775  -0.951  13.546  1.00  0.00    -0.000 C 
BRANCH   5   6
ATOM      6  C   UNL     1       3.762  -1.973  14.137  1.00  0.00    -0.000 C 
BRANCH   6   7
ATOM      7  C   UNL     1       5.196  -1.776  13.621  1.00  0.00    -0.000 C 
BRANCH   7   8
ATOM      8  C   UNL     1       6.222  -2.080  14.723  1.00  0.00    -0.000 C 
BRANCH   8   9
ATOM      9  C   UNL     1       5.591  -2.125  16.123  1.00  0.00    -0.000 C 
BRANCH   9  10
ATOM     10  C   UNL     1       6.614  -1.864  17.242  1.00  0.00    -0.000 C 
BRANCH  10  11
ATOM     11  C   UNL     1       5.966  -1.828  18.636  1.00  0.00    -0.003 C 
ATOM     12  C   UNL     1       6.478  -0.671  19.493  1.00  0.00     0.004 C 
ENDBRANCH  10  11
ENDBRANCH   9  10
ENDBRANCH   8   9
ENDBRANCH   7   8
ENDBRANCH   6   7
ENDBRANCH   5   6
ENDBRANCH   4   5
ENDBRANCH   3   4
ENDBRANCH   2   3
ENDBRANCH   1   2
BRANCH   1  13
ATOM     13  C   UNL     1       2.989   3.623  14.245  1.00  0.00     0.000 C 
BRANCH  13  14
ATOM     14  C   UNL     1       4.487   3.503  13.898  1.00  0.00     0.000 C 
BRANCH  14  15
ATOM     15  C   UNL     1       4.849   2.336  12.957  1.00  0.00     0.000 C 
BRANCH  15  16
ATOM     16  C   UNL     1       5.942   1.387  13.479  1.00  0.00     0.000 C 
BRANCH  16  17
ATOM     17  C   UNL     1       6.198   1.540  14.988  1.00  0.00     0.000 C 
BRANCH  17  18
ATOM     18  C   UNL     1       4.983   1.123  15.835  1.00  0.00     0.000 C 
BRANCH  18  19
ATOM     19  C   UNL     1       5.196   1.359  17.338  1.00  0.00     0.000 C 
BRANCH  19  20
ATOM     20  C   UNL     1       3.993   2.088  17.955  1.00  0.00     0.006 C 
BRANCH  20  21
ATOM     21  C   UNL     1       3.564   1.474  19.295  1.00  0.00     0.053 C 
BRANCH  21  22
ATOM     22  C   UNL     1       2.117   1.730  19.590  1.00  0.00     0.041 C 
ATOM     23  O   UNL     1       1.329   2.065  18.664  1.00  0.00    -0.550 OA
ATOM     24  O   UNL     1       1.629   1.560  20.880  1.00  0.00    -0.550 OA
ENDBRANCH  21  22
ENDBRANCH  20  21
ENDBRANCH  19  20
ENDBRANCH  18  19
ENDBRANCH  17  18
ENDBRANCH  16  17
ENDBRANCH  15  16
ENDBRANCH  14  15
ENDBRANCH  13  14
ENDBRANCH   1  13
TORSDOF 20
ENDMDL
