MODEL 1
REMARK VINA RESULT:    -3.505      0.000      0.000
REMARK INTER + INTRA:          -7.090
REMARK INTER:                  -5.963
REMARK INTRA:                  -1.127
REMARK UNBOUND:                -1.127
REMARK SMILES CCCCCCCCCCCCCC(=O)[O-]
REMARK SMILES IDX 8 1 9 2 10 3 11 4 12 5 13 6 14 7 15 8 16 9 7 10 6 11 5 12
REMARK SMILES IDX 4 13 3 14 2 15 1 16
REMARK H PARENT
REMARK Flexibility Score: inf
ROOT
ATOM      1  C   UNL     1      68.325  -1.930  10.410  1.00  0.00     0.000 C 
ENDROOT
BRANCH   1   2
ATOM      2  C   UNL     1      69.140  -1.659  11.684  1.00  0.00     0.000 C 
BRANCH   2   3
ATOM      3  C   UNL     1      69.257  -0.150  11.949  1.00  0.00     0.000 C 
BRANCH   3   4
ATOM      4  C   UNL     1      68.059   0.643  11.401  1.00  0.00     0.000 C 
BRANCH   4   5
ATOM      5  C   UNL     1      68.456   1.622  10.287  1.00  0.00     0.006 C 
BRANCH   5   6
ATOM      6  C   UNL     1      67.236   2.029   9.456  1.00  0.00     0.053 C 
BRANCH   6   7
ATOM      7  C   UNL     1      67.081   1.123   8.275  1.00  0.00     0.041 C 
ATOM      8  O   UNL     1      66.363   0.092   8.357  1.00  0.00    -0.550 OA
ATOM      9  O   UNL     1      67.690   1.443   7.068  1.00  0.00    -0.550 OA
ENDBRANCH   6   7
ENDBRANCH   5   6
ENDBRANCH   4   5
ENDBRANCH   3   4
ENDBRANCH   2   3
ENDBRANCH   1   2
BRANCH   1  10
ATOM     10  C   UNL     1      69.172  -2.540   9.280  1.00  0.00     0.000 C 
BRANCH  10  11
ATOM     11  C   UNL     1      69.616  -1.492   8.245  1.00  0.00    -0.000 C 
BRANCH  11  12
ATOM     12  C   UNL     1      69.809  -2.086   6.838  1.00  0.00    -0.000 C 
BRANCH  12  13
ATOM     13  C   UNL     1      70.051  -3.607   6.797  1.00  0.00    -0.000 C 
BRANCH  13  14
ATOM     14  C   UNL     1      69.713  -4.287   5.457  1.00  0.00    -0.000 C 
BRANCH  14  15
ATOM     15  C   UNL     1      69.263  -5.756   5.600  1.00  0.00    -0.003 C 
ATOM     16  C   UNL     1      69.020  -6.160   7.054  1.00  0.00     0.004 C 
ENDBRANCH  14  15
ENDBRANCH  13  14
ENDBRANCH  12  13
ENDBRANCH  11  12
ENDBRANCH  10  11
ENDBRANCH   1  10
TORSDOF 12
ENDMDL
MODEL 2
REMARK VINA RESULT:    -3.438     17.304     19.622
REMARK INTER + INTRA:          -6.977
REMARK INTER:                  -6.146
REMARK INTRA:                  -0.831
REMARK UNBOUND:                -1.127
REMARK SMILES CCCCCCCCCCCCCC(=O)[O-]
REMARK SMILES IDX 8 1 9 2 10 3 11 4 12 5 13 6 14 7 15 8 16 9 7 10 6 11 5 12
REMARK SMILES IDX 4 13 3 14 2 15 1 16
REMARK H PARENT
REMARK Flexibility Score: inf
ROOT
ATOM      1  C   UNL     1      57.733 -14.070   9.029  1.00  0.00     0.000 C 
ENDROOT
BRANCH   1   2
ATOM      2  C   UNL     1      58.189 -13.959   7.566  1.00  0.00     0.000 C 
BRANCH   2   3
ATOM      3  C   UNL     1      58.120 -15.325   6.866  1.00  0.00     0.000 C 
BRANCH   3   4
ATOM      4  C   UNL     1      57.674 -15.218   5.400  1.00  0.00     0.000 C 
BRANCH   4   5
ATOM      5  C   UNL     1      56.546 -16.200   5.050  1.00  0.00     0.006 C 
BRANCH   5   6
ATOM      6  C   UNL     1      55.210 -15.467   4.900  1.00  0.00     0.053 C 
BRANCH   6   7
ATOM      7  C   UNL     1      54.195 -16.027   5.846  1.00  0.00     0.041 C 
ATOM      8  O   UNL     1      54.564 -16.596   6.906  1.00  0.00    -0.550 OA
ATOM      9  O   UNL     1      52.840 -15.877   5.581  1.00  0.00    -0.550 OA
ENDBRANCH   6   7
ENDBRANCH   5   6
ENDBRANCH   4   5
ENDBRANCH   3   4
ENDBRANCH   2   3
ENDBRANCH   1   2
BRANCH   1  10
ATOM     10  C   UNL     1      56.355 -14.737   9.173  1.00  0.00     0.000 C 
BRANCH  10  11
ATOM     11  C   UNL     1      56.427 -16.087   9.908  1.00  0.00    -0.000 C 
BRANCH  11  12
ATOM     12  C   UNL     1      55.818 -16.032  11.321  1.00  0.00    -0.000 C 
BRANCH  12  13
ATOM     13  C   UNL     1      56.439 -17.007  12.339  1.00  0.00    -0.000 C 
BRANCH  13  14
ATOM     14  C   UNL     1      56.457 -16.507  13.796  1.00  0.00    -0.000 C 
BRANCH  14  15
ATOM     15  C   UNL     1      57.875 -16.365  14.389  1.00  0.00    -0.003 C 
ATOM     16  C   UNL     1      58.969 -16.424  13.323  1.00  0.00     0.004 C 
ENDBRANCH  14  15
ENDBRANCH  13  14
ENDBRANCH  12  13
ENDBRANCH  11  12
ENDBRANCH  10  11
ENDBRANCH   1  10
TORSDOF 12
ENDMDL
MODEL 3
REMARK VINA RESULT:    -3.320     17.606     20.045
REMARK INTER + INTRA:          -6.777
REMARK INTER:                  -5.567
REMARK INTRA:                  -1.209
REMARK UNBOUND:                -1.127
REMARK SMILES CCCCCCCCCCCCCC(=O)[O-]
REMARK SMILES IDX 8 1 9 2 10 3 11 4 12 5 13 6 14 7 15 8 16 9 7 10 6 11 5 12
REMARK SMILES IDX 4 13 3 14 2 15 1 16
REMARK H PARENT
REMARK Flexibility Score: inf
ROOT
ATOM      1  C   UNL     1      55.922   2.676  23.022  1.00  0.00     0.000 C 
ENDROOT
BRANCH   1   2
ATOM      2  C   UNL     1      56.288   1.187  23.120  1.00  0.00     0.000 C 
BRANCH   2   3
ATOM      3  C   UNL     1      56.194   0.508  21.745  1.00  0.00     0.000 C 
BRANCH   3   4
ATOM      4  C   UNL     1      57.436  -0.334  21.413  1.00  0.00     0.000 C 
BRANCH   4   5
ATOM      5  C   UNL     1      57.490  -1.648  22.205  1.00  0.00     0.006 C 
BRANCH   5   6
ATOM      6  C   UNL     1      58.890  -1.883  22.780  1.00  0.00     0.053 C 
BRANCH   6   7
ATOM      7  C   UNL     1      58.856  -1.838  24.276  1.00  0.00     0.041 C 
ATOM      8  O   UNL     1      59.869  -2.173  24.942  1.00  0.00    -0.550 OA
ATOM      9  O   UNL     1      57.721  -1.378  24.932  1.00  0.00    -0.550 OA
ENDBRANCH   6   7
ENDBRANCH   5   6
ENDBRANCH   4   5
ENDBRANCH   3   4
ENDBRANCH   2   3
ENDBRANCH   1   2
BRANCH   1  10
ATOM     10  C   UNL     1      54.536   2.908  22.398  1.00  0.00     0.000 C 
BRANCH  10  11
ATOM     11  C   UNL     1      53.395   2.360  23.274  1.00  0.00    -0.000 C 
BRANCH  11  12
ATOM     12  C   UNL     1      52.184   1.885  22.451  1.00  0.00    -0.000 C 
BRANCH  12  13
ATOM     13  C   UNL     1      52.473   1.604  20.964  1.00  0.00    -0.000 C 
BRANCH  13  14
ATOM     14  C   UNL     1      52.764   0.131  20.621  1.00  0.00    -0.000 C 
BRANCH  14  15
ATOM     15  C   UNL     1      52.270  -0.867  21.690  1.00  0.00    -0.003 C 
ATOM     16  C   UNL     1      50.869  -1.402  21.394  1.00  0.00     0.004 C 
ENDBRANCH  14  15
ENDBRANCH  13  14
ENDBRANCH  12  13
ENDBRANCH  11  12
ENDBRANCH  10  11
ENDBRANCH   1  10
TORSDOF 12
ENDMDL
MODEL 4
REMARK VINA RESULT:    -3.294     17.400     19.823
REMARK INTER + INTRA:          -6.731
REMARK INTER:                  -5.331
REMARK INTRA:                  -1.400
REMARK UNBOUND:                -1.127
REMARK SMILES CCCCCCCCCCCCCC(=O)[O-]
REMARK SMILES IDX 8 1 9 2 10 3 11 4 12 5 13 6 14 7 15 8 16 9 7 10 6 11 5 12
REMARK SMILES IDX 4 13 3 14 2 15 1 16
REMARK H PARENT
REMARK Flexibility Score: inf
ROOT
ATOM      1  C   UNL     1      56.446   2.394  23.255  1.00  0.00     0.000 C 
ENDROOT
BRANCH   1   2
ATOM      2  C   UNL     1      55.252   3.125  22.622  1.00  0.00     0.000 C 
BRANCH   2   3
ATOM      3  C   UNL     1      53.935   2.398  22.939  1.00  0.00     0.000 C 
BRANCH   3   4
ATOM      4  C   UNL     1      53.283   1.781  21.691  1.00  0.00     0.000 C 
BRANCH   4   5
ATOM      5  C   UNL     1      53.797   0.365  21.392  1.00  0.00     0.006 C 
BRANCH   5   6
ATOM      6  C   UNL     1      52.696  -0.675  21.615  1.00  0.00     0.053 C 
BRANCH   6   7
ATOM      7  C   UNL     1      51.487  -0.341  20.798  1.00  0.00     0.041 C 
ATOM      8  O   UNL     1      51.524  -0.436  19.543  1.00  0.00    -0.550 OA
ATOM      9  O   UNL     1      50.304   0.028  21.425  1.00  0.00    -0.550 OA
ENDBRANCH   6   7
ENDBRANCH   5   6
ENDBRANCH   4   5
ENDBRANCH   3   4
ENDBRANCH   2   3
ENDBRANCH   1   2
BRANCH   1  10
ATOM     10  C   UNL     1      56.021   1.387  24.337  1.00  0.00     0.000 C 
BRANCH  10  11
ATOM     11  C   UNL     1      57.202   0.547  24.857  1.00  0.00    -0.000 C 
BRANCH  11  12
ATOM     12  C   UNL     1      57.051  -0.953  24.546  1.00  0.00    -0.000 C 
BRANCH  12  13
ATOM     13  C   UNL     1      58.355  -1.677  24.163  1.00  0.00    -0.000 C 
BRANCH  13  14
ATOM     14  C   UNL     1      58.665  -1.714  22.654  1.00  0.00    -0.000 C 
BRANCH  14  15
ATOM     15  C   UNL     1      57.440  -1.430  21.760  1.00  0.00    -0.003 C 
ATOM     16  C   UNL     1      57.567  -0.119  20.983  1.00  0.00     0.004 C 
ENDBRANCH  14  15
ENDBRANCH  13  14
ENDBRANCH  12  13
ENDBRANCH  11  12
ENDBRANCH  10  11
ENDBRANCH   1  10
TORSDOF 12
ENDMDL
MODEL 5
REMARK VINA RESULT:    -3.226     17.385     19.404
REMARK INTER + INTRA:          -6.616
REMARK INTER:                  -5.279
REMARK INTRA:                  -1.337
REMARK UNBOUND:                -1.127
REMARK SMILES CCCCCCCCCCCCCC(=O)[O-]
REMARK SMILES IDX 8 1 9 2 10 3 11 4 12 5 13 6 14 7 15 8 16 9 7 10 6 11 5 12
REMARK SMILES IDX 4 13 3 14 2 15 1 16
REMARK H PARENT
REMARK Flexibility Score: inf
ROOT
ATOM      1  C   UNL     1      56.955 -14.809   9.102  1.00  0.00     0.000 C 
ENDROOT
BRANCH   1   2
ATOM      2  C   UNL     1      56.594 -16.289   8.902  1.00  0.00     0.000 C 
BRANCH   2   3
ATOM      3  C   UNL     1      55.591 -16.756   9.967  1.00  0.00     0.000 C 
BRANCH   3   4
ATOM      4  C   UNL     1      55.778 -16.039  11.313  1.00  0.00     0.000 C 
BRANCH   4   5
ATOM      5  C   UNL     1      56.270 -16.980  12.423  1.00  0.00     0.006 C 
BRANCH   5   6
ATOM      6  C   UNL     1      57.793 -17.124  12.382  1.00  0.00     0.053 C 
BRANCH   6   7
ATOM      7  C   UNL     1      58.406 -16.574  13.631  1.00  0.00     0.041 C 
ATOM      8  O   UNL     1      57.706 -16.424  14.667  1.00  0.00    -0.550 OA
ATOM      9  O   UNL     1      59.761 -16.272  13.667  1.00  0.00    -0.550 OA
ENDBRANCH   6   7
ENDBRANCH   5   6
ENDBRANCH   4   5
ENDBRANCH   3   4
ENDBRANCH   2   3
ENDBRANCH   1   2
BRANCH   1  10
ATOM     10  C   UNL     1      57.814 -14.246   7.957  1.00  0.00     0.000 C 
BRANCH  10  11
ATOM     11  C   UNL     1      58.177 -15.314   6.911  1.00  0.00    -0.000 C 
BRANCH  11  12
ATOM     12  C   UNL     1      57.695 -14.952   5.495  1.00  0.00    -0.000 C 
BRANCH  12  13
ATOM     13  C   UNL     1      56.215 -15.268   5.206  1.00  0.00    -0.000 C 
BRANCH  13  14
ATOM     14  C   UNL     1      55.831 -16.757   5.309  1.00  0.00    -0.000 C 
BRANCH  14  15
ATOM     15  C   UNL     1      54.330 -16.996   5.571  1.00  0.00    -0.003 C 
ATOM     16  C   UNL     1      53.766 -16.076   6.655  1.00  0.00     0.004 C 
ENDBRANCH  14  15
ENDBRANCH  13  14
ENDBRANCH  12  13
ENDBRANCH  11  12
ENDBRANCH  10  11
ENDBRANCH   1  10
TORSDOF 12
ENDMDL
MODEL 6
REMARK VINA RESULT:    -3.148     18.323     20.591
REMARK INTER + INTRA:          -6.483
REMARK INTER:                  -4.984
REMARK INTRA:                  -1.498
REMARK UNBOUND:                -1.127
REMARK SMILES CCCCCCCCCCCCCC(=O)[O-]
REMARK SMILES IDX 8 1 9 2 10 3 11 4 12 5 13 6 14 7 15 8 16 9 7 10 6 11 5 12
REMARK SMILES IDX 4 13 3 14 2 15 1 16
REMARK H PARENT
REMARK Flexibility Score: inf
ROOT
ATOM      1  C   UNL     1      52.842   2.341  22.326  1.00  0.00     0.000 C 
ENDROOT
BRANCH   1   2
ATOM      2  C   UNL     1      54.168   1.709  22.777  1.00  0.00     0.000 C 
BRANCH   2   3
ATOM      3  C   UNL     1      54.533   0.511  21.887  1.00  0.00     0.000 C 
BRANCH   3   4
ATOM      4  C   UNL     1      56.051   0.305  21.762  1.00  0.00     0.000 C 
BRANCH   4   5
ATOM      5  C   UNL     1      56.764   0.320  23.122  1.00  0.00     0.006 C 
BRANCH   5   6
ATOM      6  C   UNL     1      56.824  -1.087  23.724  1.00  0.00     0.053 C 
BRANCH   6   7
ATOM      7  C   UNL     1      58.187  -1.678  23.540  1.00  0.00     0.041 C 
ATOM      8  O   UNL     1      58.600  -1.969  22.387  1.00  0.00    -0.550 OA
ATOM      9  O   UNL     1      59.019  -1.861  24.636  1.00  0.00    -0.550 OA
ENDBRANCH   6   7
ENDBRANCH   5   6
ENDBRANCH   4   5
ENDBRANCH   3   4
ENDBRANCH   2   3
ENDBRANCH   1   2
BRANCH   1  10
ATOM     10  C   UNL     1      52.602   2.204  20.813  1.00  0.00     0.000 C 
BRANCH  10  11
ATOM     11  C   UNL     1      51.116   2.338  20.436  1.00  0.00    -0.000 C 
BRANCH  11  12
ATOM     12  C   UNL     1      50.565   1.091  19.723  1.00  0.00    -0.000 C 
BRANCH  12  13
ATOM     13  C   UNL     1      51.405  -0.188  19.897  1.00  0.00    -0.000 C 
BRANCH  13  14
ATOM     14  C   UNL     1      50.783  -1.260  20.812  1.00  0.00    -0.000 C 
BRANCH  14  15
ATOM     15  C   UNL     1      51.445  -1.351  22.204  1.00  0.00    -0.003 C 
ATOM     16  C   UNL     1      50.765  -0.457  23.240  1.00  0.00     0.004 C 
ENDBRANCH  14  15
ENDBRANCH  13  14
ENDBRANCH  12  13
ENDBRANCH  11  12
ENDBRANCH  10  11
ENDBRANCH   1  10
TORSDOF 12
ENDMDL
MODEL 7
REMARK VINA RESULT:    -3.134     14.510     16.161
REMARK INTER + INTRA:          -6.459
REMARK INTER:                  -5.394
REMARK INTRA:                  -1.066
REMARK UNBOUND:                -1.127
REMARK SMILES CCCCCCCCCCCCCC(=O)[O-]
REMARK SMILES IDX 8 1 9 2 10 3 11 4 12 5 13 6 14 7 15 8 16 9 7 10 6 11 5 12
REMARK SMILES IDX 4 13 3 14 2 15 1 16
REMARK H PARENT
REMARK Flexibility Score: inf
ROOT
ATOM      1  C   UNL     1      64.700 -15.847  13.425  1.00  0.00     0.000 C 
ENDROOT
BRANCH   1   2
ATOM      2  C   UNL     1      64.543 -16.987  12.406  1.00  0.00     0.000 C 
BRANCH   2   3
ATOM      3  C   UNL     1      65.793 -17.105  11.521  1.00  0.00     0.000 C 
BRANCH   3   4
ATOM      4  C   UNL     1      66.012 -15.868  10.635  1.00  0.00     0.000 C 
BRANCH   4   5
ATOM      5  C   UNL     1      67.485 -15.670  10.247  1.00  0.00     0.006 C 
BRANCH   5   6
ATOM      6  C   UNL     1      67.950 -16.768   9.287  1.00  0.00     0.053 C 
BRANCH   6   7
ATOM      7  C   UNL     1      69.112 -16.292   8.471  1.00  0.00     0.041 C 
ATOM      8  O   UNL     1      69.990 -15.555   8.990  1.00  0.00    -0.550 OA
ATOM      9  O   UNL     1      69.250 -16.704   7.152  1.00  0.00    -0.550 OA
ENDBRANCH   6   7
ENDBRANCH   5   6
ENDBRANCH   4   5
ENDBRANCH   3   4
ENDBRANCH   2   3
ENDBRANCH   1   2
BRANCH   1  10
ATOM     10  C   UNL     1      66.035 -15.911  14.188  1.00  0.00     0.000 C 
BRANCH  10  11
ATOM     11  C   UNL     1      66.957 -14.723  13.863  1.00  0.00    -0.000 C 
BRANCH  11  12
ATOM     12  C   UNL     1      68.366 -15.162  13.426  1.00  0.00    -0.000 C 
BRANCH  12  13
ATOM     13  C   UNL     1      68.966 -16.331  14.228  1.00  0.00    -0.000 C 
BRANCH  13  14
ATOM     14  C   UNL     1      69.440 -15.975  15.650  1.00  0.00    -0.000 C 
BRANCH  14  15
ATOM     15  C   UNL     1      69.200 -17.094  16.685  1.00  0.00    -0.003 C 
ATOM     16  C   UNL     1      67.767 -17.110  17.216  1.00  0.00     0.004 C 
ENDBRANCH  14  15
ENDBRANCH  13  14
ENDBRANCH  12  13
ENDBRANCH  11  12
ENDBRANCH  10  11
ENDBRANCH   1  10
TORSDOF 12
ENDMDL
MODEL 8
REMARK VINA RESULT:    -3.093     18.471     20.902
REMARK INTER + INTRA:          -6.389
REMARK INTER:                  -5.051
REMARK INTRA:                  -1.338
REMARK UNBOUND:                -1.127
REMARK SMILES CCCCCCCCCCCCCC(=O)[O-]
REMARK SMILES IDX 8 1 9 2 10 3 11 4 12 5 13 6 14 7 15 8 16 9 7 10 6 11 5 12
REMARK SMILES IDX 4 13 3 14 2 15 1 16
REMARK H PARENT
REMARK Flexibility Score: inf
ROOT
ATOM      1  C   UNL     1      53.743   1.467  22.809  1.00  0.00     0.000 C 
ENDROOT
BRANCH   1   2
ATOM      2  C   UNL     1      53.597   0.594  21.553  1.00  0.00     0.000 C 
BRANCH   2   3
ATOM      3  C   UNL     1      52.416   1.068  20.692  1.00  0.00     0.000 C 
BRANCH   3   4
ATOM      4  C   UNL     1      51.738  -0.082  19.930  1.00  0.00     0.000 C 
BRANCH   4   5
ATOM      5  C   UNL     1      51.119  -1.130  20.868  1.00  0.00     0.006 C 
BRANCH   5   6
ATOM      6  C   UNL     1      50.225  -0.465  21.918  1.00  0.00     0.053 C 
BRANCH   6   7
ATOM      7  C   UNL     1      50.527  -1.004  23.281  1.00  0.00     0.041 C 
ATOM      8  O   UNL     1      50.922  -0.233  24.194  1.00  0.00    -0.550 OA
ATOM      9  O   UNL     1      50.324  -2.351  23.556  1.00  0.00    -0.550 OA
ENDBRANCH   6   7
ENDBRANCH   5   6
ENDBRANCH   4   5
ENDBRANCH   3   4
ENDBRANCH   2   3
ENDBRANCH   1   2
BRANCH   1  10
ATOM     10  C   UNL     1      54.836   2.540  22.663  1.00  0.00     0.000 C 
BRANCH  10  11
ATOM     11  C   UNL     1      56.165   2.122  23.316  1.00  0.00    -0.000 C 
BRANCH  11  12
ATOM     12  C   UNL     1      55.979   1.083  24.437  1.00  0.00    -0.000 C 
BRANCH  12  13
ATOM     13  C   UNL     1      56.831  -0.192  24.296  1.00  0.00    -0.000 C 
BRANCH  13  14
ATOM     14  C   UNL     1      56.548  -1.032  23.036  1.00  0.00    -0.000 C 
BRANCH  14  15
ATOM     15  C   UNL     1      57.702  -1.027  22.011  1.00  0.00    -0.003 C 
ATOM     16  C   UNL     1      57.478  -0.028  20.876  1.00  0.00     0.004 C 
ENDBRANCH  14  15
ENDBRANCH  13  14
ENDBRANCH  12  13
ENDBRANCH  11  12
ENDBRANCH  10  11
ENDBRANCH   1  10
TORSDOF 12
ENDMDL
MODEL 9
REMARK VINA RESULT:    -3.078     14.198     15.448
REMARK INTER + INTRA:          -6.364
REMARK INTER:                  -5.540
REMARK INTRA:                  -0.824
REMARK UNBOUND:                -1.127
REMARK SMILES CCCCCCCCCCCCCC(=O)[O-]
REMARK SMILES IDX 8 1 9 2 10 3 11 4 12 5 13 6 14 7 15 8 16 9 7 10 6 11 5 12
REMARK SMILES IDX 4 13 3 14 2 15 1 16
REMARK H PARENT
REMARK Flexibility Score: inf
ROOT
ATOM      1  C   UNL     1      66.936 -14.435  11.826  1.00  0.00     0.000 C 
ENDROOT
BRANCH   1   2
ATOM      2  C   UNL     1      65.739 -14.577  12.779  1.00  0.00     0.000 C 
BRANCH   2   3
ATOM      3  C   UNL     1      65.245 -16.032  12.823  1.00  0.00     0.000 C 
BRANCH   3   4
ATOM      4  C   UNL     1      65.518 -16.710  14.175  1.00  0.00     0.000 C 
BRANCH   4   5
ATOM      5  C   UNL     1      66.364 -15.839  15.115  1.00  0.00     0.006 C 
BRANCH   5   6
ATOM      6  C   UNL     1      67.490 -16.657  15.753  1.00  0.00     0.053 C 
BRANCH   6   7
ATOM      7  C   UNL     1      68.778 -16.434  15.024  1.00  0.00     0.041 C 
ATOM      8  O   UNL     1      69.821 -16.134  15.661  1.00  0.00    -0.550 OA
ATOM      9  O   UNL     1      68.837 -16.606  13.647  1.00  0.00    -0.550 OA
ENDBRANCH   6   7
ENDBRANCH   5   6
ENDBRANCH   4   5
ENDBRANCH   3   4
ENDBRANCH   2   3
ENDBRANCH   1   2
BRANCH   1  10
ATOM     10  C   UNL     1      66.797 -15.302  10.563  1.00  0.00     0.000 C 
BRANCH  10  11
ATOM     11  C   UNL     1      68.157 -15.645   9.931  1.00  0.00    -0.000 C 
BRANCH  11  12
ATOM     12  C   UNL     1      68.088 -16.858   8.985  1.00  0.00    -0.000 C 
BRANCH  12  13
ATOM     13  C   UNL     1      69.300 -17.030   8.051  1.00  0.00    -0.000 C 
BRANCH  13  14
ATOM     14  C   UNL     1      69.950 -15.718   7.572  1.00  0.00    -0.000 C 
BRANCH  14  15
ATOM     15  C   UNL     1      69.982 -15.563   6.037  1.00  0.00    -0.003 C 
ATOM     16  C   UNL     1      68.707 -16.072   5.365  1.00  0.00     0.004 C 
ENDBRANCH  14  15
ENDBRANCH  13  14
ENDBRANCH  12  13
ENDBRANCH  11  12
ENDBRANCH  10  11
ENDBRANCH   1  10
TORSDOF 12
ENDMDL
