MODEL 1
REMARK VINA RESULT:     5.780      0.000      0.000
REMARK INTER + INTRA:           6.582
REMARK INTER:                   6.794
REMARK INTRA:                  -0.212
REMARK UNBOUND:                -0.212
REMARK SMILES O=c1c(O)c(-c2ccc(O)cc2)oc2cc(O)cc(O)c12
REMARK SMILES IDX 5 1 3 2 2 3 1 4 21 5 19 6 18 7 16 8 15 9 14 10 13 11 6 12
REMARK SMILES IDX 7 13 8 14 9 15 12 16 11 17 10 18 4 20 20 22 17 24
REMARK H PARENT 10 19 4 21 20 23 17 25
REMARK Flexibility Score: inf
ROOT
ATOM      1  C   UNL     1       0.536  61.082  -3.252  1.00  0.00     0.180 A 
ATOM      2  C   UNL     1      -0.731  60.991  -3.855  1.00  0.00     0.208 A 
ATOM      3  C   UNL     1      -0.811  60.714  -5.229  1.00  0.00     0.238 A 
ATOM      4  O   UNL     1      -1.946  60.687  -5.775  1.00  0.00    -0.285 OA
ATOM      5  C   UNL     1       0.373  60.515  -5.980  1.00  0.00     0.111 A 
ATOM      6  C   UNL     1       0.408  60.189  -7.368  1.00  0.00     0.134 A 
ATOM      7  C   UNL     1       1.638  60.143  -8.037  1.00  0.00     0.093 A 
ATOM      8  C   UNL     1       2.838  60.349  -7.351  1.00  0.00     0.123 A 
ATOM      9  C   UNL     1       2.817  60.609  -5.983  1.00  0.00     0.094 A 
ATOM     10  C   UNL     1       1.604  60.696  -5.296  1.00  0.00     0.146 A 
ATOM     11  O   UNL     1       1.630  60.956  -3.995  1.00  0.00    -0.452 OA
ENDROOT
BRANCH   1  12
ATOM     12  C   UNL     1       0.702  61.347  -1.804  1.00  0.00     0.021 A 
ATOM     13  C   UNL     1       0.359  60.384  -0.839  1.00  0.00     0.016 A 
ATOM     14  C   UNL     1       0.547  60.647   0.522  1.00  0.00     0.047 A 
ATOM     15  C   UNL     1       1.093  61.869   0.933  1.00  0.00     0.115 A 
ATOM     16  C   UNL     1       1.269  62.562  -1.384  1.00  0.00     0.016 A 
ATOM     17  C   UNL     1       1.455  62.823  -0.023  1.00  0.00     0.047 A 
BRANCH  15  18
ATOM     18  O   UNL     1       1.284  62.143   2.285  1.00  0.00    -0.508 OA
ATOM     19  H   UNL     1       1.896  62.889   2.593  1.00  0.00     0.293 HD
ENDBRANCH  15  18
ENDBRANCH   1  12
BRANCH   2  20
ATOM     20  O   UNL     1      -1.886  61.213  -3.101  1.00  0.00    -0.502 OA
ATOM     21  H   UNL     1      -2.807  60.946  -3.427  1.00  0.00     0.293 HD
ENDBRANCH   2  20
BRANCH   6  22
ATOM     22  O   UNL     1      -0.726  59.875  -8.125  1.00  0.00    -0.507 OA
ATOM     23  H   UNL     1      -1.219  58.997  -8.083  1.00  0.00     0.293 HD
ENDBRANCH   6  22
BRANCH   8  24
ATOM     24  O   UNL     1       4.058  60.287  -8.021  1.00  0.00    -0.508 OA
ATOM     25  H   UNL     1       4.723  59.542  -7.844  1.00  0.00     0.293 HD
ENDBRANCH   8  24
TORSDOF 5
ENDMDL
MODEL 2
REMARK VINA RESULT:     5.980      2.293      6.212
REMARK INTER + INTRA:           6.817
REMARK INTER:                   7.088
REMARK INTRA:                  -0.271
REMARK UNBOUND:                -0.212
REMARK SMILES O=c1c(O)c(-c2ccc(O)cc2)oc2cc(O)cc(O)c12
REMARK SMILES IDX 5 1 3 2 2 3 1 4 21 5 19 6 18 7 16 8 15 9 14 10 13 11 6 12
REMARK SMILES IDX 7 13 8 14 9 15 12 16 11 17 10 18 4 20 20 22 17 24
REMARK H PARENT 10 19 4 21 20 23 17 25
REMARK Flexibility Score: inf
ROOT
ATOM      1  C   UNL     1       0.790  60.766  -4.735  1.00  0.00     0.180 A 
ATOM      2  C   UNL     1       0.917  60.808  -3.335  1.00  0.00     0.208 A 
ATOM      3  C   UNL     1      -0.222  60.596  -2.542  1.00  0.00     0.238 A 
ATOM      4  O   UNL     1      -0.113  60.688  -1.291  1.00  0.00    -0.285 OA
ATOM      5  C   UNL     1      -1.470  60.330  -3.155  1.00  0.00     0.111 A 
ATOM      6  C   UNL     1      -2.681  60.061  -2.449  1.00  0.00     0.134 A 
ATOM      7  C   UNL     1      -3.882  59.940  -3.158  1.00  0.00     0.093 A 
ATOM      8  C   UNL     1      -3.905  60.015  -4.553  1.00  0.00     0.123 A 
ATOM      9  C   UNL     1      -2.720  60.218  -5.255  1.00  0.00     0.094 A 
ATOM     10  C   UNL     1      -1.511  60.377  -4.574  1.00  0.00     0.146 A 
ATOM     11  O   UNL     1      -0.406  60.579  -5.281  1.00  0.00    -0.452 OA
ENDROOT
BRANCH   1  12
ATOM     12  C   UNL     1       1.949  60.955  -5.637  1.00  0.00     0.021 A 
ATOM     13  C   UNL     1       2.240  62.209  -6.204  1.00  0.00     0.016 A 
ATOM     14  C   UNL     1       3.354  62.369  -7.033  1.00  0.00     0.047 A 
ATOM     15  C   UNL     1       4.197  61.283  -7.295  1.00  0.00     0.115 A 
ATOM     16  C   UNL     1       2.812  59.875  -5.889  1.00  0.00     0.016 A 
ATOM     17  C   UNL     1       3.925  60.038  -6.719  1.00  0.00     0.047 A 
BRANCH  15  18
ATOM     18  O   UNL     1       5.310  61.430  -8.122  1.00  0.00    -0.508 OA
ATOM     19  H   UNL     1       5.492  62.296  -8.615  1.00  0.00     0.293 HD
ENDBRANCH  15  18
ENDBRANCH   1  12
BRANCH   2  20
ATOM     20  O   UNL     1       2.153  61.094  -2.749  1.00  0.00    -0.502 OA
ATOM     21  H   UNL     1       2.791  61.779  -3.134  1.00  0.00     0.293 HD
ENDBRANCH   2  20
BRANCH   6  22
ATOM     22  O   UNL     1      -2.751  59.877  -1.065  1.00  0.00    -0.507 OA
ATOM     23  H   UNL     1      -3.533  59.465  -0.579  1.00  0.00     0.293 HD
ENDBRANCH   6  22
BRANCH   8  24
ATOM     24  O   UNL     1      -5.103  59.878  -5.252  1.00  0.00    -0.508 OA
ATOM     25  H   UNL     1      -5.483  60.637  -5.806  1.00  0.00     0.293 HD
ENDBRANCH   8  24
TORSDOF 5
ENDMDL
