MODEL 1
REMARK VINA RESULT:    10.333      0.000      0.000
REMARK INTER + INTRA:          24.380
REMARK INTER:                  26.040
REMARK INTRA:                  -1.660
REMARK UNBOUND:                -1.660
REMARK SMILES CCCCCCCCCCCCCCCCCCCCCCCCCCCC(=O)[O-]
REMARK SMILES IDX 15 1 16 2 17 3 18 4 19 5 20 6 21 7 22 8 23 9 24 10 25 11
REMARK SMILES IDX 26 12 27 13 28 14 29 15 30 16 14 17 13 18 12 19 11 20 10 21
REMARK SMILES IDX 9 22 8 23 7 24 6 25 5 26 4 27 3 28 2 29 1 30
REMARK H PARENT
REMARK Flexibility Score: inf
ROOT
ATOM      1  C   UNL     1      10.219   0.683 -13.868  1.00  0.00     0.000 C 
ENDROOT
BRANCH   1   2
ATOM      2  C   UNL     1      10.288   2.198 -14.141  1.00  0.00     0.000 C 
BRANCH   2   3
ATOM      3  C   UNL     1      11.538   2.607 -14.939  1.00  0.00     0.000 C 
BRANCH   3   4
ATOM      4  C   UNL     1      11.461   2.197 -16.417  1.00  0.00     0.000 C 
BRANCH   4   5
ATOM      5  C   UNL     1      12.849   2.094 -17.076  1.00  0.00     0.000 C 
BRANCH   5   6
ATOM      6  C   UNL     1      13.313   0.639 -17.238  1.00  0.00     0.000 C 
BRANCH   6   7
ATOM      7  C   UNL     1      12.146  -0.328 -17.507  1.00  0.00     0.000 C 
BRANCH   7   8
ATOM      8  C   UNL     1      12.074  -1.473 -16.483  1.00  0.00     0.000 C 
BRANCH   8   9
ATOM      9  C   UNL     1      10.805  -2.327 -16.643  1.00  0.00     0.000 C 
BRANCH   9  10
ATOM     10  C   UNL     1      11.082  -3.837 -16.522  1.00  0.00     0.000 C 
BRANCH  10  11
ATOM     11  C   UNL     1      11.663  -4.498 -17.785  1.00  0.00     0.000 C 
BRANCH  11  12
ATOM     12  C   UNL     1      12.310  -5.863 -17.503  1.00  0.00     0.006 C 
BRANCH  12  13
ATOM     13  C   UNL     1      12.835  -6.499 -18.794  1.00  0.00     0.053 C 
BRANCH  13  14
ATOM     14  C   UNL     1      14.308  -6.744 -18.711  1.00  0.00     0.041 C 
ATOM     15  O   UNL     1      14.745  -7.869 -18.346  1.00  0.00    -0.550 OA
ATOM     16  O   UNL     1      15.204  -5.735 -19.045  1.00  0.00    -0.550 OA
ENDBRANCH  13  14
ENDBRANCH  12  13
ENDBRANCH  11  12
ENDBRANCH  10  11
ENDBRANCH   9  10
ENDBRANCH   8   9
ENDBRANCH   7   8
ENDBRANCH   6   7
ENDBRANCH   5   6
ENDBRANCH   4   5
ENDBRANCH   3   4
ENDBRANCH   2   3
ENDBRANCH   1   2
BRANCH   1  17
ATOM     17  C   UNL     1       9.334   0.280 -12.676  1.00  0.00     0.000 C 
BRANCH  17  18
ATOM     18  C   UNL     1       8.301   1.354 -12.304  1.00  0.00     0.000 C 
BRANCH  18  19
ATOM     19  C   UNL     1       7.100   1.308 -13.256  1.00  0.00     0.000 C 
BRANCH  19  20
ATOM     20  C   UNL     1       6.084   2.409 -12.918  1.00  0.00     0.000 C 
BRANCH  20  21
ATOM     21  C   UNL     1       4.772   2.258 -13.708  1.00  0.00     0.000 C 
BRANCH  21  22
ATOM     22  C   UNL     1       4.063   0.924 -13.417  1.00  0.00    -0.000 C 
BRANCH  22  23
ATOM     23  C   UNL     1       2.815   0.716 -14.302  1.00  0.00    -0.000 C 
BRANCH  23  24
ATOM     24  C   UNL     1       1.518   0.489 -13.499  1.00  0.00    -0.000 C 
BRANCH  24  25
ATOM     25  C   UNL     1       0.236   0.432 -14.347  1.00  0.00    -0.000 C 
BRANCH  25  26
ATOM     26  C   UNL     1       0.437   0.697 -15.852  1.00  0.00    -0.000 C 
BRANCH  26  27
ATOM     27  C   UNL     1      -0.125  -0.418 -16.761  1.00  0.00    -0.000 C 
BRANCH  27  28
ATOM     28  C   UNL     1       0.746  -1.683 -16.745  1.00  0.00    -0.000 C 
BRANCH  28  29
ATOM     29  C   UNL     1       0.261  -2.696 -17.788  1.00  0.00    -0.003 C 
ATOM     30  C   UNL     1       0.086  -2.038 -19.156  1.00  0.00     0.004 C 
ENDBRANCH  28  29
ENDBRANCH  27  28
ENDBRANCH  26  27
ENDBRANCH  25  26
ENDBRANCH  24  25
ENDBRANCH  23  24
ENDBRANCH  22  23
ENDBRANCH  21  22
ENDBRANCH  20  21
ENDBRANCH  19  20
ENDBRANCH  18  19
ENDBRANCH  17  18
ENDBRANCH   1  17
TORSDOF 26
ENDMDL
MODEL 2
REMARK VINA RESULT:    11.032      4.046     10.726
REMARK INTER + INTRA:          26.140
REMARK INTER:                  25.760
REMARK INTRA:                   0.380
REMARK UNBOUND:                -1.660
REMARK SMILES CCCCCCCCCCCCCCCCCCCCCCCCCCCC(=O)[O-]
REMARK SMILES IDX 15 1 16 2 17 3 18 4 19 5 20 6 21 7 22 8 23 9 24 10 25 11
REMARK SMILES IDX 26 12 27 13 28 14 29 15 30 16 14 17 13 18 12 19 11 20 10 21
REMARK SMILES IDX 9 22 8 23 7 24 6 25 5 26 4 27 3 28 2 29 1 30
REMARK H PARENT
REMARK Flexibility Score: inf
ROOT
ATOM      1  C   UNL     1      10.344   1.849 -14.981  1.00  0.00     0.000 C 
ENDROOT
BRANCH   1   2
ATOM      2  C   UNL     1      10.533   0.923 -13.764  1.00  0.00     0.000 C 
BRANCH   2   3
ATOM      3  C   UNL     1       9.209   0.581 -13.060  1.00  0.00     0.000 C 
BRANCH   3   4
ATOM      4  C   UNL     1       8.125   1.646 -13.283  1.00  0.00     0.000 C 
BRANCH   4   5
ATOM      5  C   UNL     1       6.700   1.072 -13.173  1.00  0.00     0.000 C 
BRANCH   5   6
ATOM      6  C   UNL     1       5.643   2.009 -13.777  1.00  0.00     0.000 C 
BRANCH   6   7
ATOM      7  C   UNL     1       4.228   1.732 -13.235  1.00  0.00     0.000 C 
BRANCH   7   8
ATOM      8  C   UNL     1       3.426   0.774 -14.130  1.00  0.00     0.000 C 
BRANCH   8   9
ATOM      9  C   UNL     1       2.098   0.341 -13.485  1.00  0.00     0.000 C 
BRANCH   9  10
ATOM     10  C   UNL     1       0.866   0.822 -14.275  1.00  0.00     0.000 C 
BRANCH  10  11
ATOM     11  C   UNL     1       0.246  -0.226 -15.219  1.00  0.00     0.000 C 
BRANCH  11  12
ATOM     12  C   UNL     1      -0.123   0.352 -16.595  1.00  0.00     0.006 C 
BRANCH  12  13
ATOM     13  C   UNL     1       0.704  -0.304 -17.705  1.00  0.00     0.053 C 
BRANCH  13  14
ATOM     14  C   UNL     1       0.466  -1.781 -17.749  1.00  0.00     0.041 C 
ATOM     15  O   UNL     1       0.313  -2.431 -16.680  1.00  0.00    -0.550 OA
ATOM     16  O   UNL     1       0.402  -2.441 -18.971  1.00  0.00    -0.550 OA
ENDBRANCH  13  14
ENDBRANCH  12  13
ENDBRANCH  11  12
ENDBRANCH  10  11
ENDBRANCH   9  10
ENDBRANCH   8   9
ENDBRANCH   7   8
ENDBRANCH   6   7
ENDBRANCH   5   6
ENDBRANCH   4   5
ENDBRANCH   3   4
ENDBRANCH   2   3
ENDBRANCH   1   2
BRANCH   1  17
ATOM     17  C   UNL     1      11.600   2.632 -15.401  1.00  0.00     0.000 C 
BRANCH  17  18
ATOM     18  C   UNL     1      12.190   2.151 -16.734  1.00  0.00     0.000 C 
BRANCH  18  19
ATOM     19  C   UNL     1      13.714   2.322 -16.749  1.00  0.00     0.000 C 
BRANCH  19  20
ATOM     20  C   UNL     1      14.318   1.788 -18.056  1.00  0.00     0.000 C 
BRANCH  20  21
ATOM     21  C   UNL     1      13.909   0.332 -18.339  1.00  0.00     0.000 C 
BRANCH  21  22
ATOM     22  C   UNL     1      13.761  -0.496 -17.051  1.00  0.00    -0.000 C 
BRANCH  22  23
ATOM     23  C   UNL     1      12.284  -0.685 -16.640  1.00  0.00    -0.000 C 
BRANCH  23  24
ATOM     24  C   UNL     1      11.584  -1.850 -17.369  1.00  0.00    -0.000 C 
BRANCH  24  25
ATOM     25  C   UNL     1      10.894  -2.867 -16.445  1.00  0.00    -0.000 C 
BRANCH  25  26
ATOM     26  C   UNL     1      11.275  -4.340 -16.696  1.00  0.00    -0.000 C 
BRANCH  26  27
ATOM     27  C   UNL     1      12.263  -4.536 -17.866  1.00  0.00    -0.000 C 
BRANCH  27  28
ATOM     28  C   UNL     1      12.265  -5.977 -18.397  1.00  0.00    -0.000 C 
BRANCH  28  29
ATOM     29  C   UNL     1      13.669  -6.394 -18.850  1.00  0.00    -0.003 C 
ATOM     30  C   UNL     1      14.407  -7.139 -17.740  1.00  0.00     0.004 C 
ENDBRANCH  28  29
ENDBRANCH  27  28
ENDBRANCH  26  27
ENDBRANCH  25  26
ENDBRANCH  24  25
ENDBRANCH  23  24
ENDBRANCH  22  23
ENDBRANCH  21  22
ENDBRANCH  20  21
ENDBRANCH  19  20
ENDBRANCH  18  19
ENDBRANCH  17  18
ENDBRANCH   1  17
TORSDOF 26
ENDMDL
MODEL 3
REMARK VINA RESULT:    11.395      0.803      1.618
REMARK INTER + INTRA:          27.055
REMARK INTER:                  27.937
REMARK INTRA:                  -0.882
REMARK UNBOUND:                -1.660
REMARK SMILES CCCCCCCCCCCCCCCCCCCCCCCCCCCC(=O)[O-]
REMARK SMILES IDX 15 1 16 2 17 3 18 4 19 5 20 6 21 7 22 8 23 9 24 10 25 11
REMARK SMILES IDX 26 12 27 13 28 14 29 15 30 16 14 17 13 18 12 19 11 20 10 21
REMARK SMILES IDX 9 22 8 23 7 24 6 25 5 26 4 27 3 28 2 29 1 30
REMARK H PARENT
REMARK Flexibility Score: inf
ROOT
ATOM      1  C   UNL     1      11.083   2.023 -15.555  1.00  0.00     0.000 C 
ENDROOT
BRANCH   1   2
ATOM      2  C   UNL     1      12.235   3.017 -15.796  1.00  0.00     0.000 C 
BRANCH   2   3
ATOM      3  C   UNL     1      13.504   2.343 -16.344  1.00  0.00     0.000 C 
BRANCH   3   4
ATOM      4  C   UNL     1      13.292   1.715 -17.730  1.00  0.00     0.000 C 
BRANCH   4   5
ATOM      5  C   UNL     1      13.169   0.181 -17.672  1.00  0.00     0.000 C 
BRANCH   5   6
ATOM      6  C   UNL     1      11.791  -0.277 -17.169  1.00  0.00     0.000 C 
BRANCH   6   7
ATOM      7  C   UNL     1      11.886  -1.178 -15.924  1.00  0.00     0.000 C 
BRANCH   7   8
ATOM      8  C   UNL     1      10.836  -2.302 -15.922  1.00  0.00     0.000 C 
BRANCH   8   9
ATOM      9  C   UNL     1      10.872  -3.141 -17.211  1.00  0.00     0.000 C 
BRANCH   9  10
ATOM     10  C   UNL     1      11.820  -4.350 -17.109  1.00  0.00     0.000 C 
BRANCH  10  11
ATOM     11  C   UNL     1      11.219  -5.693 -17.565  1.00  0.00     0.000 C 
BRANCH  11  12
ATOM     12  C   UNL     1      12.170  -6.501 -18.461  1.00  0.00     0.006 C 
BRANCH  12  13
ATOM     13  C   UNL     1      13.405  -5.676 -18.835  1.00  0.00     0.053 C 
BRANCH  13  14
ATOM     14  C   UNL     1      14.648  -6.506 -18.761  1.00  0.00     0.041 C 
ATOM     15  O   UNL     1      15.643  -6.224 -19.482  1.00  0.00    -0.550 OA
ATOM     16  O   UNL     1      14.713  -7.587 -17.889  1.00  0.00    -0.550 OA
ENDBRANCH  13  14
ENDBRANCH  12  13
ENDBRANCH  11  12
ENDBRANCH  10  11
ENDBRANCH   9  10
ENDBRANCH   8   9
ENDBRANCH   7   8
ENDBRANCH   6   7
ENDBRANCH   5   6
ENDBRANCH   4   5
ENDBRANCH   3   4
ENDBRANCH   2   3
ENDBRANCH   1   2
BRANCH   1  17
ATOM     17  C   UNL     1      10.419   2.124 -14.171  1.00  0.00     0.000 C 
BRANCH  17  18
ATOM     18  C   UNL     1       9.699   0.833 -13.754  1.00  0.00     0.000 C 
BRANCH  18  19
ATOM     19  C   UNL     1       8.421   1.152 -12.969  1.00  0.00     0.000 C 
BRANCH  19  20
ATOM     20  C   UNL     1       7.251   1.456 -13.917  1.00  0.00     0.000 C 
BRANCH  20  21
ATOM     21  C   UNL     1       5.895   1.466 -13.190  1.00  0.00     0.000 C 
BRANCH  21  22
ATOM     22  C   UNL     1       4.713   1.246 -14.151  1.00  0.00    -0.000 C 
BRANCH  22  23
ATOM     23  C   UNL     1       3.356   1.211 -13.415  1.00  0.00    -0.000 C 
BRANCH  23  24
ATOM     24  C   UNL     1       2.346   0.220 -14.027  1.00  0.00    -0.000 C 
BRANCH  24  25
ATOM     25  C   UNL     1       0.903   0.745 -14.120  1.00  0.00    -0.000 C 
BRANCH  25  26
ATOM     26  C   UNL     1       0.398   1.015 -15.551  1.00  0.00    -0.000 C 
BRANCH  26  27
ATOM     27  C   UNL     1       0.629  -0.160 -16.525  1.00  0.00    -0.000 C 
BRANCH  27  28
ATOM     28  C   UNL     1      -0.070  -1.449 -16.067  1.00  0.00    -0.000 C 
BRANCH  28  29
ATOM     29  C   UNL     1      -0.106  -2.485 -17.196  1.00  0.00    -0.003 C 
ATOM     30  C   UNL     1       0.296  -1.859 -18.531  1.00  0.00     0.004 C 
ENDBRANCH  28  29
ENDBRANCH  27  28
ENDBRANCH  26  27
ENDBRANCH  25  26
ENDBRANCH  24  25
ENDBRANCH  23  24
ENDBRANCH  22  23
ENDBRANCH  21  22
ENDBRANCH  20  21
ENDBRANCH  19  20
ENDBRANCH  18  19
ENDBRANCH  17  18
ENDBRANCH   1  17
TORSDOF 26
ENDMDL
MODEL 4
REMARK VINA RESULT:    11.690      4.155     10.866
REMARK INTER + INTRA:          27.798
REMARK INTER:                  29.542
REMARK INTRA:                  -1.744
REMARK UNBOUND:                -1.660
REMARK SMILES CCCCCCCCCCCCCCCCCCCCCCCCCCCC(=O)[O-]
REMARK SMILES IDX 15 1 16 2 17 3 18 4 19 5 20 6 21 7 22 8 23 9 24 10 25 11
REMARK SMILES IDX 26 12 27 13 28 14 29 15 30 16 14 17 13 18 12 19 11 20 10 21
REMARK SMILES IDX 9 22 8 23 7 24 6 25 5 26 4 27 3 28 2 29 1 30
REMARK H PARENT
REMARK Flexibility Score: inf
ROOT
ATOM      1  C   UNL     1      10.037   1.201 -13.283  1.00  0.00     0.000 C 
ENDROOT
BRANCH   1   2
ATOM      2  C   UNL     1       8.637   1.263 -12.644  1.00  0.00     0.000 C 
BRANCH   2   3
ATOM      3  C   UNL     1       7.504   1.013 -13.655  1.00  0.00     0.000 C 
BRANCH   3   4
ATOM      4  C   UNL     1       6.226   1.797 -13.323  1.00  0.00     0.000 C 
BRANCH   4   5
ATOM      5  C   UNL     1       5.028   1.372 -14.193  1.00  0.00     0.000 C 
BRANCH   5   6
ATOM      6  C   UNL     1       3.903   0.731 -13.366  1.00  0.00     0.000 C 
BRANCH   6   7
ATOM      7  C   UNL     1       2.512   1.279 -13.736  1.00  0.00     0.000 C 
BRANCH   7   8
ATOM      8  C   UNL     1       1.430   0.891 -12.714  1.00  0.00     0.000 C 
BRANCH   8   9
ATOM      9  C   UNL     1       0.065   0.630 -13.375  1.00  0.00     0.000 C 
BRANCH   9  10
ATOM     10  C   UNL     1       0.161   0.484 -14.905  1.00  0.00     0.000 C 
BRANCH  10  11
ATOM     11  C   UNL     1      -0.047  -0.945 -15.439  1.00  0.00     0.000 C 
BRANCH  11  12
ATOM     12  C   UNL     1       0.767  -1.234 -16.710  1.00  0.00     0.006 C 
BRANCH  12  13
ATOM     13  C   UNL     1       0.205  -2.449 -17.456  1.00  0.00     0.053 C 
BRANCH  13  14
ATOM     14  C   UNL     1      -0.015  -2.134 -18.902  1.00  0.00     0.041 C 
ATOM     15  O   UNL     1      -0.117  -3.065 -19.746  1.00  0.00    -0.550 OA
ATOM     16  O   UNL     1      -0.121  -0.812 -19.320  1.00  0.00    -0.550 OA
ENDBRANCH  13  14
ENDBRANCH  12  13
ENDBRANCH  11  12
ENDBRANCH  10  11
ENDBRANCH   9  10
ENDBRANCH   8   9
ENDBRANCH   7   8
ENDBRANCH   6   7
ENDBRANCH   5   6
ENDBRANCH   4   5
ENDBRANCH   3   4
ENDBRANCH   2   3
ENDBRANCH   1   2
BRANCH   1  17
ATOM     17  C   UNL     1      10.069   1.472 -14.797  1.00  0.00     0.000 C 
BRANCH  17  18
ATOM     18  C   UNL     1      11.034   2.602 -15.185  1.00  0.00     0.000 C 
BRANCH  18  19
ATOM     19  C   UNL     1      11.559   2.405 -16.611  1.00  0.00     0.000 C 
BRANCH  19  20
ATOM     20  C   UNL     1      12.980   1.821 -16.602  1.00  0.00     0.000 C 
BRANCH  20  21
ATOM     21  C   UNL     1      13.136   0.642 -17.578  1.00  0.00     0.000 C 
BRANCH  21  22
ATOM     22  C   UNL     1      13.436  -0.683 -16.855  1.00  0.00    -0.000 C 
BRANCH  22  23
ATOM     23  C   UNL     1      12.250  -1.162 -15.990  1.00  0.00    -0.000 C 
BRANCH  23  24
ATOM     24  C   UNL     1      11.118  -1.821 -16.804  1.00  0.00    -0.000 C 
BRANCH  24  25
ATOM     25  C   UNL     1      10.760  -3.253 -16.370  1.00  0.00    -0.000 C 
BRANCH  25  26
ATOM     26  C   UNL     1      11.004  -4.338 -17.437  1.00  0.00    -0.000 C 
BRANCH  26  27
ATOM     27  C   UNL     1      12.411  -4.970 -17.373  1.00  0.00    -0.000 C 
BRANCH  27  28
ATOM     28  C   UNL     1      12.578  -6.132 -18.363  1.00  0.00    -0.000 C 
BRANCH  28  29
ATOM     29  C   UNL     1      13.957  -6.090 -19.031  1.00  0.00    -0.003 C 
ATOM     30  C   UNL     1      14.911  -7.095 -18.389  1.00  0.00     0.004 C 
ENDBRANCH  28  29
ENDBRANCH  27  28
ENDBRANCH  26  27
ENDBRANCH  25  26
ENDBRANCH  24  25
ENDBRANCH  23  24
ENDBRANCH  22  23
ENDBRANCH  21  22
ENDBRANCH  20  21
ENDBRANCH  19  20
ENDBRANCH  18  19
ENDBRANCH  17  18
ENDBRANCH   1  17
TORSDOF 26
ENDMDL
MODEL 5
REMARK VINA RESULT:    12.146      4.087     10.639
REMARK INTER + INTRA:          28.947
REMARK INTER:                  29.392
REMARK INTRA:                  -0.445
REMARK UNBOUND:                -1.660
REMARK SMILES CCCCCCCCCCCCCCCCCCCCCCCCCCCC(=O)[O-]
REMARK SMILES IDX 15 1 16 2 17 3 18 4 19 5 20 6 21 7 22 8 23 9 24 10 25 11
REMARK SMILES IDX 26 12 27 13 28 14 29 15 30 16 14 17 13 18 12 19 11 20 10 21
REMARK SMILES IDX 9 22 8 23 7 24 6 25 5 26 4 27 3 28 2 29 1 30
REMARK H PARENT
REMARK Flexibility Score: inf
ROOT
ATOM      1  C   UNL     1      11.410   1.705 -15.628  1.00  0.00     0.000 C 
ENDROOT
BRANCH   1   2
ATOM      2  C   UNL     1      10.815   2.508 -14.456  1.00  0.00     0.000 C 
BRANCH   2   3
ATOM      3  C   UNL     1      10.358   1.616 -13.289  1.00  0.00     0.000 C 
BRANCH   3   4
ATOM      4  C   UNL     1       9.125   0.768 -13.637  1.00  0.00     0.000 C 
BRANCH   4   5
ATOM      5  C   UNL     1       7.815   1.386 -13.113  1.00  0.00     0.000 C 
BRANCH   5   6
ATOM      6  C   UNL     1       6.922   1.913 -14.247  1.00  0.00     0.000 C 
BRANCH   6   7
ATOM      7  C   UNL     1       5.548   1.219 -14.288  1.00  0.00     0.000 C 
BRANCH   7   8
ATOM      8  C   UNL     1       4.552   1.812 -13.277  1.00  0.00     0.000 C 
BRANCH   8   9
ATOM      9  C   UNL     1       3.288   0.950 -13.122  1.00  0.00     0.000 C 
BRANCH   9  10
ATOM     10  C   UNL     1       2.319   1.093 -14.309  1.00  0.00     0.000 C 
BRANCH  10  11
ATOM     11  C   UNL     1       1.641  -0.214 -14.761  1.00  0.00     0.000 C 
BRANCH  11  12
ATOM     12  C   UNL     1       0.177  -0.015 -15.184  1.00  0.00     0.006 C 
BRANCH  12  13
ATOM     13  C   UNL     1       0.039  -0.043 -16.710  1.00  0.00     0.053 C 
BRANCH  13  14
ATOM     14  C   UNL     1       0.288  -1.418 -17.245  1.00  0.00     0.041 C 
ATOM     15  O   UNL     1       0.627  -2.350 -16.467  1.00  0.00    -0.550 OA
ATOM     16  O   UNL     1       0.138  -1.676 -18.603  1.00  0.00    -0.550 OA
ENDBRANCH  13  14
ENDBRANCH  12  13
ENDBRANCH  11  12
ENDBRANCH  10  11
ENDBRANCH   9  10
ENDBRANCH   8   9
ENDBRANCH   7   8
ENDBRANCH   6   7
ENDBRANCH   5   6
ENDBRANCH   4   5
ENDBRANCH   3   4
ENDBRANCH   2   3
ENDBRANCH   1   2
BRANCH   1  17
ATOM     17  C   UNL     1      12.648   2.340 -16.286  1.00  0.00     0.000 C 
BRANCH  17  18
ATOM     18  C   UNL     1      12.839   1.909 -17.747  1.00  0.00     0.000 C 
BRANCH  18  19
ATOM     19  C   UNL     1      14.325   1.702 -18.064  1.00  0.00     0.000 C 
BRANCH  19  20
ATOM     20  C   UNL     1      14.723   0.227 -17.912  1.00  0.00     0.000 C 
BRANCH  20  21
ATOM     21  C   UNL     1      13.858  -0.510 -16.875  1.00  0.00     0.000 C 
BRANCH  21  22
ATOM     22  C   UNL     1      12.770  -1.379 -17.530  1.00  0.00    -0.000 C 
BRANCH  22  23
ATOM     23  C   UNL     1      11.379  -1.153 -16.900  1.00  0.00    -0.000 C 
BRANCH  23  24
ATOM     24  C   UNL     1      10.517  -2.430 -16.831  1.00  0.00    -0.000 C 
BRANCH  24  25
ATOM     25  C   UNL     1      11.211  -3.643 -16.187  1.00  0.00    -0.000 C 
BRANCH  25  26
ATOM     26  C   UNL     1      11.160  -4.941 -17.016  1.00  0.00    -0.000 C 
BRANCH  26  27
ATOM     27  C   UNL     1      12.226  -5.010 -18.131  1.00  0.00    -0.000 C 
BRANCH  27  28
ATOM     28  C   UNL     1      12.620  -6.453 -18.478  1.00  0.00    -0.000 C 
BRANCH  28  29
ATOM     29  C   UNL     1      14.051  -6.515 -19.023  1.00  0.00    -0.003 C 
ATOM     30  C   UNL     1      14.980  -7.238 -18.050  1.00  0.00     0.004 C 
ENDBRANCH  28  29
ENDBRANCH  27  28
ENDBRANCH  26  27
ENDBRANCH  25  26
ENDBRANCH  24  25
ENDBRANCH  23  24
ENDBRANCH  22  23
ENDBRANCH  21  22
ENDBRANCH  20  21
ENDBRANCH  19  20
ENDBRANCH  18  19
ENDBRANCH  17  18
ENDBRANCH   1  17
TORSDOF 26
ENDMDL
MODEL 6
REMARK VINA RESULT:    12.229      4.086     11.048
REMARK INTER + INTRA:          29.157
REMARK INTER:                  30.703
REMARK INTRA:                  -1.546
REMARK UNBOUND:                -1.660
REMARK SMILES CCCCCCCCCCCCCCCCCCCCCCCCCCCC(=O)[O-]
REMARK SMILES IDX 15 1 16 2 17 3 18 4 19 5 20 6 21 7 22 8 23 9 24 10 25 11
REMARK SMILES IDX 26 12 27 13 28 14 29 15 30 16 14 17 13 18 12 19 11 20 10 21
REMARK SMILES IDX 9 22 8 23 7 24 6 25 5 26 4 27 3 28 2 29 1 30
REMARK H PARENT
REMARK Flexibility Score: inf
ROOT
ATOM      1  C   UNL     1      11.417   2.593 -15.152  1.00  0.00     0.000 C 
ENDROOT
BRANCH   1   2
ATOM      2  C   UNL     1      10.512   1.374 -14.892  1.00  0.00     0.000 C 
BRANCH   2   3
ATOM      3  C   UNL     1      10.335   1.067 -13.395  1.00  0.00     0.000 C 
BRANCH   3   4
ATOM      4  C   UNL     1       8.899   0.656 -13.038  1.00  0.00     0.000 C 
BRANCH   4   5
ATOM      5  C   UNL     1       7.892   1.806 -13.221  1.00  0.00     0.000 C 
BRANCH   5   6
ATOM      6  C   UNL     1       6.561   1.328 -13.823  1.00  0.00     0.000 C 
BRANCH   6   7
ATOM      7  C   UNL     1       5.343   2.031 -13.198  1.00  0.00     0.000 C 
BRANCH   7   8
ATOM      8  C   UNL     1       4.030   1.714 -13.935  1.00  0.00     0.000 C 
BRANCH   8   9
ATOM      9  C   UNL     1       3.339   0.453 -13.388  1.00  0.00     0.000 C 
BRANCH   9  10
ATOM     10  C   UNL     1       1.812   0.615 -13.268  1.00  0.00     0.000 C 
BRANCH  10  11
ATOM     11  C   UNL     1       1.204   1.734 -14.134  1.00  0.00     0.000 C 
BRANCH  11  12
ATOM     12  C   UNL     1       0.180   1.212 -15.154  1.00  0.00     0.006 C 
BRANCH  12  13
ATOM     13  C   UNL     1       0.226  -0.317 -15.244  1.00  0.00     0.053 C 
BRANCH  13  14
ATOM     14  C   UNL     1       0.532  -0.763 -16.639  1.00  0.00     0.041 C 
ATOM     15  O   UNL     1       0.493   0.062 -17.592  1.00  0.00    -0.550 OA
ATOM     16  O   UNL     1       0.872  -2.088 -16.889  1.00  0.00    -0.550 OA
ENDBRANCH  13  14
ENDBRANCH  12  13
ENDBRANCH  11  12
ENDBRANCH  10  11
ENDBRANCH   9  10
ENDBRANCH   8   9
ENDBRANCH   7   8
ENDBRANCH   6   7
ENDBRANCH   5   6
ENDBRANCH   4   5
ENDBRANCH   3   4
ENDBRANCH   2   3
ENDBRANCH   1   2
BRANCH   1  17
ATOM     17  C   UNL     1      12.032   2.654 -16.561  1.00  0.00     0.000 C 
BRANCH  17  18
ATOM     18  C   UNL     1      13.278   1.769 -16.711  1.00  0.00     0.000 C 
BRANCH  18  19
ATOM     19  C   UNL     1      12.967   0.532 -17.562  1.00  0.00     0.000 C 
BRANCH  19  20
ATOM     20  C   UNL     1      12.644  -0.681 -16.678  1.00  0.00     0.000 C 
BRANCH  20  21
ATOM     21  C   UNL     1      11.633  -1.635 -17.337  1.00  0.00     0.000 C 
BRANCH  21  22
ATOM     22  C   UNL     1      10.788  -2.400 -16.303  1.00  0.00    -0.000 C 
BRANCH  22  23
ATOM     23  C   UNL     1      11.401  -3.769 -15.939  1.00  0.00    -0.000 C 
BRANCH  23  24
ATOM     24  C   UNL     1      10.864  -4.935 -16.794  1.00  0.00    -0.000 C 
BRANCH  24  25
ATOM     25  C   UNL     1      11.525  -5.080 -18.175  1.00  0.00    -0.000 C 
BRANCH  25  26
ATOM     26  C   UNL     1      12.618  -6.164 -18.265  1.00  0.00    -0.000 C 
BRANCH  26  27
ATOM     27  C   UNL     1      13.654  -5.913 -19.382  1.00  0.00    -0.000 C 
BRANCH  27  28
ATOM     28  C   UNL     1      15.068  -6.356 -18.981  1.00  0.00    -0.000 C 
BRANCH  28  29
ATOM     29  C   UNL     1      15.032  -7.244 -17.732  1.00  0.00    -0.003 C 
ATOM     30  C   UNL     1      14.905  -8.719 -18.108  1.00  0.00     0.004 C 
ENDBRANCH  28  29
ENDBRANCH  27  28
ENDBRANCH  26  27
ENDBRANCH  25  26
ENDBRANCH  24  25
ENDBRANCH  23  24
ENDBRANCH  22  23
ENDBRANCH  21  22
ENDBRANCH  20  21
ENDBRANCH  19  20
ENDBRANCH  18  19
ENDBRANCH  17  18
ENDBRANCH   1  17
TORSDOF 26
ENDMDL
MODEL 7
REMARK VINA RESULT:    12.350      5.002     11.242
REMARK INTER + INTRA:          29.463
REMARK INTER:                  29.393
REMARK INTRA:                   0.070
REMARK UNBOUND:                -1.660
REMARK SMILES CCCCCCCCCCCCCCCCCCCCCCCCCCCC(=O)[O-]
REMARK SMILES IDX 15 1 16 2 17 3 18 4 19 5 20 6 21 7 22 8 23 9 24 10 25 11
REMARK SMILES IDX 26 12 27 13 28 14 29 15 30 16 14 17 13 18 12 19 11 20 10 21
REMARK SMILES IDX 9 22 8 23 7 24 6 25 5 26 4 27 3 28 2 29 1 30
REMARK H PARENT
REMARK Flexibility Score: inf
ROOT
ATOM      1  C   UNL     1       9.780   0.684 -13.778  1.00  0.00     0.000 C 
ENDROOT
BRANCH   1   2
ATOM      2  C   UNL     1       8.680   0.642 -12.701  1.00  0.00     0.000 C 
BRANCH   2   3
ATOM      3  C   UNL     1       7.475   1.537 -13.040  1.00  0.00     0.000 C 
BRANCH   3   4
ATOM      4  C   UNL     1       6.781   1.129 -14.348  1.00  0.00     0.000 C 
BRANCH   4   5
ATOM      5  C   UNL     1       5.364   1.719 -14.475  1.00  0.00     0.000 C 
BRANCH   5   6
ATOM      6  C   UNL     1       4.589   1.670 -13.149  1.00  0.00     0.000 C 
BRANCH   6   7
ATOM      7  C   UNL     1       3.096   1.351 -13.347  1.00  0.00     0.000 C 
BRANCH   7   8
ATOM      8  C   UNL     1       2.843   0.409 -14.536  1.00  0.00     0.000 C 
BRANCH   8   9
ATOM      9  C   UNL     1       1.403  -0.131 -14.561  1.00  0.00     0.000 C 
BRANCH   9  10
ATOM     10  C   UNL     1       1.056  -0.844 -15.881  1.00  0.00     0.000 C 
BRANCH  10  11
ATOM     11  C   UNL     1       0.117  -0.062 -16.818  1.00  0.00     0.000 C 
BRANCH  11  12
ATOM     12  C   UNL     1       0.126   1.451 -16.548  1.00  0.00     0.006 C 
BRANCH  12  13
ATOM     13  C   UNL     1      -0.065   1.742 -15.056  1.00  0.00     0.053 C 
BRANCH  13  14
ATOM     14  C   UNL     1      -0.109   3.215 -14.799  1.00  0.00     0.041 C 
ATOM     15  O   UNL     1      -0.123   3.653 -13.617  1.00  0.00    -0.550 OA
ATOM     16  O   UNL     1      -0.125   4.109 -15.864  1.00  0.00    -0.550 OA
ENDBRANCH  13  14
ENDBRANCH  12  13
ENDBRANCH  11  12
ENDBRANCH  10  11
ENDBRANCH   9  10
ENDBRANCH   8   9
ENDBRANCH   7   8
ENDBRANCH   6   7
ENDBRANCH   5   6
ENDBRANCH   4   5
ENDBRANCH   3   4
ENDBRANCH   2   3
ENDBRANCH   1   2
BRANCH   1  17
ATOM     17  C   UNL     1      10.475   2.047 -13.941  1.00  0.00     0.000 C 
BRANCH  17  18
ATOM     18  C   UNL     1      10.722   2.424 -15.409  1.00  0.00     0.000 C 
BRANCH  18  19
ATOM     19  C   UNL     1      12.180   2.162 -15.801  1.00  0.00     0.000 C 
BRANCH  19  20
ATOM     20  C   UNL     1      12.326   2.011 -17.322  1.00  0.00     0.000 C 
BRANCH  20  21
ATOM     21  C   UNL     1      13.648   1.331 -17.720  1.00  0.00     0.000 C 
BRANCH  21  22
ATOM     22  C   UNL     1      13.711  -0.139 -17.269  1.00  0.00    -0.000 C 
BRANCH  22  23
ATOM     23  C   UNL     1      12.310  -0.778 -17.152  1.00  0.00    -0.000 C 
BRANCH  23  24
ATOM     24  C   UNL     1      12.152  -1.702 -15.928  1.00  0.00    -0.000 C 
BRANCH  24  25
ATOM     25  C   UNL     1      11.105  -2.817 -16.092  1.00  0.00    -0.000 C 
BRANCH  25  26
ATOM     26  C   UNL     1      11.083  -3.492 -17.478  1.00  0.00    -0.000 C 
BRANCH  26  27
ATOM     27  C   UNL     1      11.369  -5.009 -17.436  1.00  0.00    -0.000 C 
BRANCH  27  28
ATOM     28  C   UNL     1      12.333  -5.455 -18.546  1.00  0.00    -0.000 C 
BRANCH  28  29
ATOM     29  C   UNL     1      13.343  -6.480 -18.016  1.00  0.00    -0.003 C 
ATOM     30  C   UNL     1      14.685  -6.351 -18.734  1.00  0.00     0.004 C 
ENDBRANCH  28  29
ENDBRANCH  27  28
ENDBRANCH  26  27
ENDBRANCH  25  26
ENDBRANCH  24  25
ENDBRANCH  23  24
ENDBRANCH  22  23
ENDBRANCH  21  22
ENDBRANCH  20  21
ENDBRANCH  19  20
ENDBRANCH  18  19
ENDBRANCH  17  18
ENDBRANCH   1  17
TORSDOF 26
ENDMDL
MODEL 8
REMARK VINA RESULT:    12.456      0.984      2.413
REMARK INTER + INTRA:          29.729
REMARK INTER:                  30.779
REMARK INTRA:                  -1.049
REMARK UNBOUND:                -1.660
REMARK SMILES CCCCCCCCCCCCCCCCCCCCCCCCCCCC(=O)[O-]
REMARK SMILES IDX 15 1 16 2 17 3 18 4 19 5 20 6 21 7 22 8 23 9 24 10 25 11
REMARK SMILES IDX 26 12 27 13 28 14 29 15 30 16 14 17 13 18 12 19 11 20 10 21
REMARK SMILES IDX 9 22 8 23 7 24 6 25 5 26 4 27 3 28 2 29 1 30
REMARK H PARENT
REMARK Flexibility Score: inf
ROOT
ATOM      1  C   UNL     1       7.293   1.234 -14.108  1.00  0.00     0.000 C 
ENDROOT
BRANCH   1   2
ATOM      2  C   UNL     1       8.482   0.730 -13.268  1.00  0.00     0.000 C 
BRANCH   2   3
ATOM      3  C   UNL     1       9.757   1.565 -13.474  1.00  0.00     0.000 C 
BRANCH   3   4
ATOM      4  C   UNL     1      10.763   0.892 -14.419  1.00  0.00     0.000 C 
BRANCH   4   5
ATOM      5  C   UNL     1      11.211   1.818 -15.564  1.00  0.00     0.000 C 
BRANCH   5   6
ATOM      6  C   UNL     1      12.448   1.282 -16.302  1.00  0.00     0.000 C 
BRANCH   6   7
ATOM      7  C   UNL     1      12.576  -0.249 -16.205  1.00  0.00     0.000 C 
BRANCH   7   8
ATOM      8  C   UNL     1      11.352  -0.986 -16.775  1.00  0.00     0.000 C 
BRANCH   8   9
ATOM      9  C   UNL     1      11.184  -2.394 -16.180  1.00  0.00     0.000 C 
BRANCH   9  10
ATOM     10  C   UNL     1      10.720  -3.430 -17.221  1.00  0.00     0.000 C 
BRANCH  10  11
ATOM     11  C   UNL     1      11.396  -4.809 -17.116  1.00  0.00     0.000 C 
BRANCH  11  12
ATOM     12  C   UNL     1      12.618  -4.948 -18.037  1.00  0.00     0.006 C 
BRANCH  12  13
ATOM     13  C   UNL     1      12.778  -6.393 -18.522  1.00  0.00     0.053 C 
BRANCH  13  14
ATOM     14  C   UNL     1      14.216  -6.806 -18.510  1.00  0.00     0.041 C 
ATOM     15  O   UNL     1      14.614  -7.697 -17.712  1.00  0.00    -0.550 OA
ATOM     16  O   UNL     1      15.119  -6.217 -19.388  1.00  0.00    -0.550 OA
ENDBRANCH  13  14
ENDBRANCH  12  13
ENDBRANCH  11  12
ENDBRANCH  10  11
ENDBRANCH   9  10
ENDBRANCH   8   9
ENDBRANCH   7   8
ENDBRANCH   6   7
ENDBRANCH   5   6
ENDBRANCH   4   5
ENDBRANCH   3   4
ENDBRANCH   2   3
ENDBRANCH   1   2
BRANCH   1  17
ATOM     17  C   UNL     1       6.014   1.531 -13.306  1.00  0.00     0.000 C 
BRANCH  17  18
ATOM     18  C   UNL     1       5.154   2.636 -13.936  1.00  0.00     0.000 C 
BRANCH  18  19
ATOM     19  C   UNL     1       3.661   2.319 -13.783  1.00  0.00     0.000 C 
BRANCH  19  20
ATOM     20  C   UNL     1       3.447   1.076 -12.908  1.00  0.00     0.000 C 
BRANCH  20  21
ATOM     21  C   UNL     1       2.353   0.147 -13.465  1.00  0.00     0.000 C 
BRANCH  21  22
ATOM     22  C   UNL     1       0.945   0.753 -13.330  1.00  0.00    -0.000 C 
BRANCH  22  23
ATOM     23  C   UNL     1       0.028   0.377 -14.514  1.00  0.00    -0.000 C 
BRANCH  23  24
ATOM     24  C   UNL     1       0.783  -0.232 -15.712  1.00  0.00    -0.000 C 
BRANCH  24  25
ATOM     25  C   UNL     1      -0.119  -0.836 -16.803  1.00  0.00    -0.000 C 
BRANCH  25  26
ATOM     26  C   UNL     1      -0.122  -2.376 -16.868  1.00  0.00    -0.000 C 
BRANCH  26  27
ATOM     27  C   UNL     1      -0.049  -2.939 -18.304  1.00  0.00    -0.000 C 
BRANCH  27  28
ATOM     28  C   UNL     1      -0.125  -1.836 -19.371  1.00  0.00    -0.000 C 
BRANCH  28  29
ATOM     29  C   UNL     1       0.090  -2.415 -20.774  1.00  0.00    -0.003 C 
ATOM     30  C   UNL     1      -0.096  -3.931 -20.779  1.00  0.00     0.004 C 
ENDBRANCH  28  29
ENDBRANCH  27  28
ENDBRANCH  26  27
ENDBRANCH  25  26
ENDBRANCH  24  25
ENDBRANCH  23  24
ENDBRANCH  22  23
ENDBRANCH  21  22
ENDBRANCH  20  21
ENDBRANCH  19  20
ENDBRANCH  18  19
ENDBRANCH  17  18
ENDBRANCH   1  17
TORSDOF 26
ENDMDL
MODEL 9
REMARK VINA RESULT:    12.508      1.095      1.617
REMARK INTER + INTRA:          29.859
REMARK INTER:                  31.237
REMARK INTRA:                  -1.378
REMARK UNBOUND:                -1.660
REMARK SMILES CCCCCCCCCCCCCCCCCCCCCCCCCCCC(=O)[O-]
REMARK SMILES IDX 15 1 16 2 17 3 18 4 19 5 20 6 21 7 22 8 23 9 24 10 25 11
REMARK SMILES IDX 26 12 27 13 28 14 29 15 30 16 14 17 13 18 12 19 11 20 10 21
REMARK SMILES IDX 9 22 8 23 7 24 6 25 5 26 4 27 3 28 2 29 1 30
REMARK H PARENT
REMARK Flexibility Score: inf
ROOT
ATOM      1  C   UNL     1       9.783   0.452 -13.479  1.00  0.00     0.000 C 
ENDROOT
BRANCH   1   2
ATOM      2  C   UNL     1      10.500   1.741 -13.924  1.00  0.00     0.000 C 
BRANCH   2   3
ATOM      3  C   UNL     1      11.185   1.603 -15.294  1.00  0.00     0.000 C 
BRANCH   3   4
ATOM      4  C   UNL     1      11.952   2.869 -15.706  1.00  0.00     0.000 C 
BRANCH   4   5
ATOM      5  C   UNL     1      13.309   2.553 -16.359  1.00  0.00     0.000 C 
BRANCH   5   6
ATOM      6  C   UNL     1      13.177   2.220 -17.854  1.00  0.00     0.000 C 
BRANCH   6   7
ATOM      7  C   UNL     1      13.948   0.947 -18.247  1.00  0.00     0.000 C 
BRANCH   7   8
ATOM      8  C   UNL     1      13.675  -0.231 -17.296  1.00  0.00     0.000 C 
BRANCH   8   9
ATOM      9  C   UNL     1      12.224  -0.732 -17.382  1.00  0.00     0.000 C 
BRANCH   9  10
ATOM     10  C   UNL     1      12.004  -2.057 -16.629  1.00  0.00     0.000 C 
BRANCH  10  11
ATOM     11  C   UNL     1      10.764  -2.859 -17.064  1.00  0.00     0.000 C 
BRANCH  11  12
ATOM     12  C   UNL     1      10.995  -4.378 -17.042  1.00  0.00     0.006 C 
BRANCH  12  13
ATOM     13  C   UNL     1      12.429  -4.720 -17.459  1.00  0.00     0.053 C 
BRANCH  13  14
ATOM     14  C   UNL     1      12.452  -5.890 -18.391  1.00  0.00     0.041 C 
ATOM     15  O   UNL     1      13.186  -6.885 -18.143  1.00  0.00    -0.550 OA
ATOM     16  O   UNL     1      11.655  -5.891 -19.529  1.00  0.00    -0.550 OA
ENDBRANCH  13  14
ENDBRANCH  12  13
ENDBRANCH  11  12
ENDBRANCH  10  11
ENDBRANCH   9  10
ENDBRANCH   8   9
ENDBRANCH   7   8
ENDBRANCH   6   7
ENDBRANCH   5   6
ENDBRANCH   4   5
ENDBRANCH   3   4
ENDBRANCH   2   3
ENDBRANCH   1   2
BRANCH   1  17
ATOM     17  C   UNL     1       8.485   0.674 -12.683  1.00  0.00     0.000 C 
BRANCH  17  18
ATOM     18  C   UNL     1       7.730   1.942 -13.107  1.00  0.00     0.000 C 
BRANCH  18  19
ATOM     19  C   UNL     1       6.417   1.584 -13.813  1.00  0.00     0.000 C 
BRANCH  19  20
ATOM     20  C   UNL     1       5.204   1.985 -12.962  1.00  0.00     0.000 C 
BRANCH  20  21
ATOM     21  C   UNL     1       3.915   2.097 -13.794  1.00  0.00     0.000 C 
BRANCH  21  22
ATOM     22  C   UNL     1       3.276   0.726 -14.073  1.00  0.00    -0.000 C 
BRANCH  22  23
ATOM     23  C   UNL     1       1.906   0.562 -13.379  1.00  0.00    -0.000 C 
BRANCH  23  24
ATOM     24  C   UNL     1       0.755   1.289 -14.104  1.00  0.00    -0.000 C 
BRANCH  24  25
ATOM     25  C   UNL     1      -0.091   0.395 -15.026  1.00  0.00    -0.000 C 
BRANCH  25  26
ATOM     26  C   UNL     1       0.714  -0.461 -16.024  1.00  0.00    -0.000 C 
BRANCH  26  27
ATOM     27  C   UNL     1      -0.005  -1.759 -16.452  1.00  0.00    -0.000 C 
BRANCH  27  28
ATOM     28  C   UNL     1       0.611  -2.381 -17.714  1.00  0.00    -0.000 C 
BRANCH  28  29
ATOM     29  C   UNL     1      -0.125  -1.910 -18.974  1.00  0.00    -0.003 C 
ATOM     30  C   UNL     1       0.245  -2.768 -20.182  1.00  0.00     0.004 C 
ENDBRANCH  28  29
ENDBRANCH  27  28
ENDBRANCH  26  27
ENDBRANCH  25  26
ENDBRANCH  24  25
ENDBRANCH  23  24
ENDBRANCH  22  23
ENDBRANCH  21  22
ENDBRANCH  20  21
ENDBRANCH  19  20
ENDBRANCH  18  19
ENDBRANCH  17  18
ENDBRANCH   1  17
TORSDOF 26
ENDMDL
