MODEL 1
REMARK VINA RESULT:    -3.032      0.000      0.000
REMARK INTER + INTRA:          -8.375
REMARK INTER:                  -5.513
REMARK INTRA:                  -2.862
REMARK UNBOUND:                -2.862
REMARK SMILES CCCCCCCCCCCCCCCC(=O)[O-]
REMARK SMILES IDX 9 1 10 2 11 3 12 4 13 5 14 6 15 7 16 8 17 9 18 10 8 11 7 12
REMARK SMILES IDX 6 13 5 14 4 15 3 16 2 17 1 18
REMARK H PARENT
REMARK Flexibility Score: inf
ROOT
ATOM      1  C   UNL     1      40.203  30.716  88.198  1.00  0.00     0.000 C 
ENDROOT
BRANCH   1   2
ATOM      2  C   UNL     1      41.446  30.875  87.305  1.00  0.00     0.000 C 
BRANCH   2   3
ATOM      3  C   UNL     1      42.701  31.287  88.094  1.00  0.00     0.000 C 
BRANCH   3   4
ATOM      4  C   UNL     1      43.893  30.351  87.840  1.00  0.00     0.000 C 
BRANCH   4   5
ATOM      5  C   UNL     1      43.472  29.015  87.209  1.00  0.00     0.000 C 
BRANCH   5   6
ATOM      6  C   UNL     1      44.278  27.852  87.796  1.00  0.00     0.006 C 
BRANCH   6   7
ATOM      7  C   UNL     1      45.490  28.362  88.581  1.00  0.00     0.053 C 
BRANCH   7   8
ATOM      8  C   UNL     1      45.698  27.542  89.814  1.00  0.00     0.041 C 
ATOM      9  O   UNL     1      44.991  26.520  90.022  1.00  0.00    -0.550 OA
ATOM     10  O   UNL     1      46.706  27.876  90.710  1.00  0.00    -0.550 OA
ENDBRANCH   7   8
ENDBRANCH   6   7
ENDBRANCH   5   6
ENDBRANCH   4   5
ENDBRANCH   3   4
ENDBRANCH   2   3
ENDBRANCH   1   2
BRANCH   1  11
ATOM     11  C   UNL     1      40.486  30.172  89.610  1.00  0.00     0.000 C 
BRANCH  11  12
ATOM     12  C   UNL     1      40.675  28.648  89.639  1.00  0.00    -0.000 C 
BRANCH  12  13
ATOM     13  C   UNL     1      41.838  28.257  90.558  1.00  0.00    -0.000 C 
BRANCH  13  14
ATOM     14  C   UNL     1      42.488  29.497  91.183  1.00  0.00    -0.000 C 
BRANCH  14  15
ATOM     15  C   UNL     1      43.557  29.098  92.212  1.00  0.00    -0.000 C 
BRANCH  15  16
ATOM     16  C   UNL     1      44.590  30.210  92.455  1.00  0.00    -0.000 C 
BRANCH  16  17
ATOM     17  C   UNL     1      44.606  31.257  91.332  1.00  0.00    -0.003 C 
ATOM     18  C   UNL     1      45.993  31.366  90.703  1.00  0.00     0.004 C 
ENDBRANCH  16  17
ENDBRANCH  15  16
ENDBRANCH  14  15
ENDBRANCH  13  14
ENDBRANCH  12  13
ENDBRANCH  11  12
ENDBRANCH   1  11
TORSDOF 14
ENDMDL
MODEL 2
REMARK VINA RESULT:    -2.991      1.331      4.775
REMARK INTER + INTRA:          -8.300
REMARK INTER:                  -5.831
REMARK INTRA:                  -2.469
REMARK UNBOUND:                -2.862
REMARK SMILES CCCCCCCCCCCCCCCC(=O)[O-]
REMARK SMILES IDX 9 1 10 2 11 3 12 4 13 5 14 6 15 7 16 8 17 9 18 10 8 11 7 12
REMARK SMILES IDX 6 13 5 14 4 15 3 16 2 17 1 18
REMARK H PARENT
REMARK Flexibility Score: inf
ROOT
ATOM      1  C   UNL     1      43.720  28.195  89.377  1.00  0.00     0.000 C 
ENDROOT
BRANCH   1   2
ATOM      2  C   UNL     1      42.618  28.205  90.451  1.00  0.00     0.000 C 
BRANCH   2   3
ATOM      3  C   UNL     1      42.562  29.526  91.238  1.00  0.00     0.000 C 
BRANCH   3   4
ATOM      4  C   UNL     1      43.628  29.603  92.341  1.00  0.00     0.000 C 
BRANCH   4   5
ATOM      5  C   UNL     1      44.335  30.966  92.385  1.00  0.00     0.000 C 
BRANCH   5   6
ATOM      6  C   UNL     1      44.787  31.396  90.985  1.00  0.00     0.006 C 
BRANCH   6   7
ATOM      7  C   UNL     1      46.314  31.377  90.868  1.00  0.00     0.053 C 
BRANCH   7   8
ATOM      8  C   UNL     1      46.779  30.072  90.304  1.00  0.00     0.041 C 
ATOM      9  O   UNL     1      46.846  29.052  91.041  1.00  0.00    -0.550 OA
ATOM     10  O   UNL     1      47.092  29.969  88.955  1.00  0.00    -0.550 OA
ENDBRANCH   7   8
ENDBRANCH   6   7
ENDBRANCH   5   6
ENDBRANCH   4   5
ENDBRANCH   3   4
ENDBRANCH   2   3
ENDBRANCH   1   2
BRANCH   1  11
ATOM     11  C   UNL     1      43.318  28.823  88.031  1.00  0.00     0.000 C 
BRANCH  11  12
ATOM     12  C   UNL     1      43.840  30.257  87.859  1.00  0.00    -0.000 C 
BRANCH  12  13
ATOM     13  C   UNL     1      42.704  31.277  88.005  1.00  0.00    -0.000 C 
BRANCH  13  14
ATOM     14  C   UNL     1      41.425  30.778  87.322  1.00  0.00    -0.000 C 
BRANCH  14  15
ATOM     15  C   UNL     1      40.233  30.820  88.289  1.00  0.00    -0.000 C 
BRANCH  15  16
ATOM     16  C   UNL     1      39.692  29.420  88.623  1.00  0.00    -0.000 C 
BRANCH  16  17
ATOM     17  C   UNL     1      39.509  28.544  87.377  1.00  0.00    -0.003 C 
ATOM     18  C   UNL     1      40.074  27.144  87.601  1.00  0.00     0.004 C 
ENDBRANCH  16  17
ENDBRANCH  15  16
ENDBRANCH  14  15
ENDBRANCH  13  14
ENDBRANCH  12  13
ENDBRANCH  11  12
ENDBRANCH   1  11
TORSDOF 14
ENDMDL
MODEL 3
REMARK VINA RESULT:    -2.988      2.460      5.008
REMARK INTER + INTRA:          -8.295
REMARK INTER:                  -5.978
REMARK INTRA:                  -2.317
REMARK UNBOUND:                -2.862
REMARK SMILES CCCCCCCCCCCCCCCC(=O)[O-]
REMARK SMILES IDX 9 1 10 2 11 3 12 4 13 5 14 6 15 7 16 8 17 9 18 10 8 11 7 12
REMARK SMILES IDX 6 13 5 14 4 15 3 16 2 17 1 18
REMARK H PARENT
REMARK Flexibility Score: inf
ROOT
ATOM      1  C   UNL     1      43.125  28.874  89.590  1.00  0.00     0.000 C 
ENDROOT
BRANCH   1   2
ATOM      2  C   UNL     1      42.675  29.747  90.776  1.00  0.00     0.000 C 
BRANCH   2   3
ATOM      3  C   UNL     1      43.799  29.996  91.796  1.00  0.00     0.000 C 
BRANCH   3   4
ATOM      4  C   UNL     1      44.643  31.234  91.455  1.00  0.00     0.000 C 
BRANCH   4   5
ATOM      5  C   UNL     1      45.937  30.878  90.705  1.00  0.00     0.000 C 
BRANCH   5   6
ATOM      6  C   UNL     1      46.044  31.661  89.392  1.00  0.00     0.006 C 
BRANCH   6   7
ATOM      7  C   UNL     1      46.566  30.770  88.261  1.00  0.00     0.053 C 
BRANCH   7   8
ATOM      8  C   UNL     1      47.715  31.428  87.565  1.00  0.00     0.041 C 
ATOM      9  O   UNL     1      48.468  30.756  86.811  1.00  0.00    -0.550 OA
ATOM     10  O   UNL     1      47.926  32.793  87.710  1.00  0.00    -0.550 OA
ENDBRANCH   7   8
ENDBRANCH   6   7
ENDBRANCH   5   6
ENDBRANCH   4   5
ENDBRANCH   3   4
ENDBRANCH   2   3
ENDBRANCH   1   2
BRANCH   1  11
ATOM     11  C   UNL     1      43.107  29.581  88.223  1.00  0.00     0.000 C 
BRANCH  11  12
ATOM     12  C   UNL     1      42.575  31.020  88.299  1.00  0.00    -0.000 C 
BRANCH  12  13
ATOM     13  C   UNL     1      41.275  31.168  87.499  1.00  0.00    -0.000 C 
BRANCH  13  14
ATOM     14  C   UNL     1      40.051  30.890  88.379  1.00  0.00    -0.000 C 
BRANCH  14  15
ATOM     15  C   UNL     1      39.299  29.640  87.897  1.00  0.00    -0.000 C 
BRANCH  15  16
ATOM     16  C   UNL     1      39.579  28.406  88.770  1.00  0.00    -0.000 C 
BRANCH  16  17
ATOM     17  C   UNL     1      40.097  27.212  87.956  1.00  0.00    -0.003 C 
ATOM     18  C   UNL     1      40.431  27.625  86.525  1.00  0.00     0.004 C 
ENDBRANCH  16  17
ENDBRANCH  15  16
ENDBRANCH  14  15
ENDBRANCH  13  14
ENDBRANCH  12  13
ENDBRANCH  11  12
ENDBRANCH   1  11
TORSDOF 14
ENDMDL
MODEL 4
REMARK VINA RESULT:    -2.946      2.272      5.015
REMARK INTER + INTRA:          -8.219
REMARK INTER:                  -5.682
REMARK INTRA:                  -2.536
REMARK UNBOUND:                -2.862
REMARK SMILES CCCCCCCCCCCCCCCC(=O)[O-]
REMARK SMILES IDX 9 1 10 2 11 3 12 4 13 5 14 6 15 7 16 8 17 9 18 10 8 11 7 12
REMARK SMILES IDX 6 13 5 14 4 15 3 16 2 17 1 18
REMARK H PARENT
REMARK Flexibility Score: inf
ROOT
ATOM      1  C   UNL     1      45.152  28.982  91.937  1.00  0.00     0.000 C 
ENDROOT
BRANCH   1   2
ATOM      2  C   UNL     1      44.307  30.246  92.180  1.00  0.00     0.000 C 
BRANCH   2   3
ATOM      3  C   UNL     1      44.504  31.315  91.093  1.00  0.00     0.000 C 
BRANCH   3   4
ATOM      4  C   UNL     1      45.985  31.638  90.842  1.00  0.00     0.000 C 
BRANCH   4   5
ATOM      5  C   UNL     1      46.335  31.684  89.346  1.00  0.00     0.000 C 
BRANCH   5   6
ATOM      6  C   UNL     1      47.757  31.168  89.099  1.00  0.00     0.006 C 
BRANCH   6   7
ATOM      7  C   UNL     1      48.465  30.852  90.419  1.00  0.00     0.053 C 
BRANCH   7   8
ATOM      8  C   UNL     1      49.947  30.804  90.219  1.00  0.00     0.041 C 
ATOM      9  O   UNL     1      50.723  31.139  91.153  1.00  0.00    -0.550 OA
ATOM     10  O   UNL     1      50.472  30.342  89.019  1.00  0.00    -0.550 OA
ENDBRANCH   7   8
ENDBRANCH   6   7
ENDBRANCH   5   6
ENDBRANCH   4   5
ENDBRANCH   3   4
ENDBRANCH   2   3
ENDBRANCH   1   2
BRANCH   1  11
ATOM     11  C   UNL     1      44.665  28.091  90.781  1.00  0.00     0.000 C 
BRANCH  11  12
ATOM     12  C   UNL     1      45.737  27.863  89.706  1.00  0.00    -0.000 C 
BRANCH  12  13
ATOM     13  C   UNL     1      45.244  28.328  88.331  1.00  0.00    -0.000 C 
BRANCH  13  14
ATOM     14  C   UNL     1      43.799  28.835  88.406  1.00  0.00    -0.000 C 
BRANCH  14  15
ATOM     15  C   UNL     1      43.603  30.072  87.516  1.00  0.00    -0.000 C 
BRANCH  15  16
ATOM     16  C   UNL     1      42.481  30.994  88.022  1.00  0.00    -0.000 C 
BRANCH  16  17
ATOM     17  C   UNL     1      41.480  30.264  88.928  1.00  0.00    -0.003 C 
ATOM     18  C   UNL     1      40.043  30.564  88.512  1.00  0.00     0.004 C 
ENDBRANCH  16  17
ENDBRANCH  15  16
ENDBRANCH  14  15
ENDBRANCH  13  14
ENDBRANCH  12  13
ENDBRANCH  11  12
ENDBRANCH   1  11
TORSDOF 14
ENDMDL
MODEL 5
REMARK VINA RESULT:    -2.924      3.480      5.751
REMARK INTER + INTRA:          -8.178
REMARK INTER:                  -6.717
REMARK INTRA:                  -1.461
REMARK UNBOUND:                -2.862
REMARK SMILES CCCCCCCCCCCCCCCC(=O)[O-]
REMARK SMILES IDX 9 1 10 2 11 3 12 4 13 5 14 6 15 7 16 8 17 9 18 10 8 11 7 12
REMARK SMILES IDX 6 13 5 14 4 15 3 16 2 17 1 18
REMARK H PARENT
REMARK Flexibility Score: inf
ROOT
ATOM      1  C   UNL     1      45.462  31.492  91.159  1.00  0.00     0.000 C 
ENDROOT
BRANCH   1   2
ATOM      2  C   UNL     1      46.183  31.552  89.800  1.00  0.00     0.000 C 
BRANCH   2   3
ATOM      3  C   UNL     1      47.100  30.341  89.556  1.00  0.00     0.000 C 
BRANCH   3   4
ATOM      4  C   UNL     1      48.473  30.494  90.229  1.00  0.00     0.000 C 
BRANCH   4   5
ATOM      5  C   UNL     1      49.542  31.041  89.272  1.00  0.00     0.000 C 
BRANCH   5   6
ATOM      6  C   UNL     1      50.939  30.553  89.672  1.00  0.00     0.006 C 
BRANCH   6   7
ATOM      7  C   UNL     1      51.074  30.459  91.194  1.00  0.00     0.053 C 
BRANCH   7   8
ATOM      8  C   UNL     1      51.615  31.737  91.752  1.00  0.00     0.041 C 
ATOM      9  O   UNL     1      52.653  32.254  91.259  1.00  0.00    -0.550 OA
ATOM     10  O   UNL     1      50.945  32.385  92.782  1.00  0.00    -0.550 OA
ENDBRANCH   7   8
ENDBRANCH   6   7
ENDBRANCH   5   6
ENDBRANCH   4   5
ENDBRANCH   3   4
ENDBRANCH   2   3
ENDBRANCH   1   2
BRANCH   1  11
ATOM     11  C   UNL     1      44.903  30.108  91.534  1.00  0.00     0.000 C 
BRANCH  11  12
ATOM     12  C   UNL     1      43.424  30.151  91.947  1.00  0.00    -0.000 C 
BRANCH  12  13
ATOM     13  C   UNL     1      42.528  29.580  90.842  1.00  0.00    -0.000 C 
BRANCH  13  14
ATOM     14  C   UNL     1      43.367  28.946  89.725  1.00  0.00    -0.000 C 
BRANCH  14  15
ATOM     15  C   UNL     1      42.900  29.431  88.344  1.00  0.00    -0.000 C 
BRANCH  15  16
ATOM     16  C   UNL     1      42.719  30.956  88.281  1.00  0.00    -0.000 C 
BRANCH  16  17
ATOM     17  C   UNL     1      41.424  31.369  87.568  1.00  0.00    -0.003 C 
ATOM     18  C   UNL     1      40.205  30.731  88.230  1.00  0.00     0.004 C 
ENDBRANCH  16  17
ENDBRANCH  15  16
ENDBRANCH  14  15
ENDBRANCH  13  14
ENDBRANCH  12  13
ENDBRANCH  11  12
ENDBRANCH   1  11
TORSDOF 14
ENDMDL
MODEL 6
REMARK VINA RESULT:    -2.862      2.241      4.136
REMARK INTER + INTRA:          -8.067
REMARK INTER:                  -5.483
REMARK INTRA:                  -2.584
REMARK UNBOUND:                -2.862
REMARK SMILES CCCCCCCCCCCCCCCC(=O)[O-]
REMARK SMILES IDX 9 1 10 2 11 3 12 4 13 5 14 6 15 7 16 8 17 9 18 10 8 11 7 12
REMARK SMILES IDX 6 13 5 14 4 15 3 16 2 17 1 18
REMARK H PARENT
REMARK Flexibility Score: inf
ROOT
ATOM      1  C   UNL     1      43.534  27.390  89.864  1.00  0.00     0.000 C 
ENDROOT
BRANCH   1   2
ATOM      2  C   UNL     1      44.418  27.923  88.721  1.00  0.00     0.000 C 
BRANCH   2   3
ATOM      3  C   UNL     1      43.626  28.735  87.682  1.00  0.00     0.000 C 
BRANCH   3   4
ATOM      4  C   UNL     1      43.877  30.247  87.798  1.00  0.00     0.000 C 
BRANCH   4   5
ATOM      5  C   UNL     1      42.810  30.960  88.643  1.00  0.00     0.000 C 
BRANCH   5   6
ATOM      6  C   UNL     1      41.401  30.625  88.144  1.00  0.00     0.006 C 
BRANCH   6   7
ATOM      7  C   UNL     1      40.503  30.165  89.296  1.00  0.00     0.053 C 
BRANCH   7   8
ATOM      8  C   UNL     1      40.153  28.719  89.141  1.00  0.00     0.041 C 
ATOM      9  O   UNL     1      39.909  28.014  90.157  1.00  0.00    -0.550 OA
ATOM     10  O   UNL     1      40.046  28.161  87.874  1.00  0.00    -0.550 OA
ENDBRANCH   7   8
ENDBRANCH   6   7
ENDBRANCH   5   6
ENDBRANCH   4   5
ENDBRANCH   3   4
ENDBRANCH   2   3
ENDBRANCH   1   2
BRANCH   1  11
ATOM     11  C   UNL     1      43.914  27.898  91.266  1.00  0.00     0.000 C 
BRANCH  11  12
ATOM     12  C   UNL     1      42.948  28.966  91.800  1.00  0.00    -0.000 C 
BRANCH  12  13
ATOM     13  C   UNL     1      43.697  30.256  92.153  1.00  0.00    -0.000 C 
BRANCH  13  14
ATOM     14  C   UNL     1      45.132  30.227  91.611  1.00  0.00    -0.000 C 
BRANCH  14  15
ATOM     15  C   UNL     1      45.506  31.573  90.973  1.00  0.00    -0.000 C 
BRANCH  15  16
ATOM     16  C   UNL     1      46.588  31.435  89.890  1.00  0.00    -0.000 C 
BRANCH  16  17
ATOM     17  C   UNL     1      47.589  30.311  90.194  1.00  0.00    -0.003 C 
ATOM     18  C   UNL     1      49.025  30.824  90.136  1.00  0.00     0.004 C 
ENDBRANCH  16  17
ENDBRANCH  15  16
ENDBRANCH  14  15
ENDBRANCH  13  14
ENDBRANCH  12  13
ENDBRANCH  11  12
ENDBRANCH   1  11
TORSDOF 14
ENDMDL
MODEL 7
REMARK VINA RESULT:    -2.849      3.131      4.451
REMARK INTER + INTRA:          -8.042
REMARK INTER:                  -5.812
REMARK INTRA:                  -2.230
REMARK UNBOUND:                -2.862
REMARK SMILES CCCCCCCCCCCCCCCC(=O)[O-]
REMARK SMILES IDX 9 1 10 2 11 3 12 4 13 5 14 6 15 7 16 8 17 9 18 10 8 11 7 12
REMARK SMILES IDX 6 13 5 14 4 15 3 16 2 17 1 18
REMARK H PARENT
REMARK Flexibility Score: inf
ROOT
ATOM      1  C   UNL     1      43.998  28.800  88.712  1.00  0.00     0.000 C 
ENDROOT
BRANCH   1   2
ATOM      2  C   UNL     1      43.512  29.825  87.672  1.00  0.00     0.000 C 
BRANCH   2   3
ATOM      3  C   UNL     1      42.610  30.912  88.280  1.00  0.00     0.000 C 
BRANCH   3   4
ATOM      4  C   UNL     1      41.360  31.187  87.429  1.00  0.00     0.000 C 
BRANCH   4   5
ATOM      5  C   UNL     1      40.055  30.902  88.188  1.00  0.00     0.000 C 
BRANCH   5   6
ATOM      6  C   UNL     1      39.915  29.408  88.499  1.00  0.00     0.006 C 
BRANCH   6   7
ATOM      7  C   UNL     1      39.882  28.578  87.212  1.00  0.00     0.053 C 
BRANCH   7   8
ATOM      8  C   UNL     1      38.471  28.257  86.833  1.00  0.00     0.041 C 
ATOM      9  O   UNL     1      38.193  27.924  85.650  1.00  0.00    -0.550 OA
ATOM     10  O   UNL     1      37.470  28.277  87.796  1.00  0.00    -0.550 OA
ENDBRANCH   7   8
ENDBRANCH   6   7
ENDBRANCH   5   6
ENDBRANCH   4   5
ENDBRANCH   3   4
ENDBRANCH   2   3
ENDBRANCH   1   2
BRANCH   1  11
ATOM     11  C   UNL     1      42.999  27.671  89.023  1.00  0.00     0.000 C 
BRANCH  11  12
ATOM     12  C   UNL     1      42.602  27.613  90.505  1.00  0.00    -0.000 C 
BRANCH  12  13
ATOM     13  C   UNL     1      42.749  28.989  91.168  1.00  0.00    -0.000 C 
BRANCH  13  14
ATOM     14  C   UNL     1      43.555  28.891  92.468  1.00  0.00    -0.000 C 
BRANCH  14  15
ATOM     15  C   UNL     1      44.780  29.818  92.427  1.00  0.00    -0.000 C 
BRANCH  15  16
ATOM     16  C   UNL     1      44.578  31.025  91.498  1.00  0.00    -0.000 C 
BRANCH  16  17
ATOM     17  C   UNL     1      45.852  31.397  90.727  1.00  0.00    -0.003 C 
ATOM     18  C   UNL     1      46.791  30.200  90.607  1.00  0.00     0.004 C 
ENDBRANCH  16  17
ENDBRANCH  15  16
ENDBRANCH  14  15
ENDBRANCH  13  14
ENDBRANCH  12  13
ENDBRANCH  11  12
ENDBRANCH   1  11
TORSDOF 14
ENDMDL
MODEL 8
REMARK VINA RESULT:    -2.823      2.769      4.845
REMARK INTER + INTRA:          -7.995
REMARK INTER:                  -5.944
REMARK INTRA:                  -2.051
REMARK UNBOUND:                -2.862
REMARK SMILES CCCCCCCCCCCCCCCC(=O)[O-]
REMARK SMILES IDX 9 1 10 2 11 3 12 4 13 5 14 6 15 7 16 8 17 9 18 10 8 11 7 12
REMARK SMILES IDX 6 13 5 14 4 15 3 16 2 17 1 18
REMARK H PARENT
REMARK Flexibility Score: inf
ROOT
ATOM      1  C   UNL     1      44.108  28.495  89.737  1.00  0.00     0.000 C 
ENDROOT
BRANCH   1   2
ATOM      2  C   UNL     1      44.300  28.858  91.221  1.00  0.00     0.000 C 
BRANCH   2   3
ATOM      3  C   UNL     1      44.160  30.366  91.490  1.00  0.00     0.000 C 
BRANCH   3   4
ATOM      4  C   UNL     1      44.504  31.221  90.261  1.00  0.00     0.000 C 
BRANCH   4   5
ATOM      5  C   UNL     1      46.013  31.472  90.120  1.00  0.00     0.000 C 
BRANCH   5   6
ATOM      6  C   UNL     1      46.412  31.606  88.646  1.00  0.00     0.006 C 
BRANCH   6   7
ATOM      7  C   UNL     1      47.930  31.739  88.496  1.00  0.00     0.053 C 
BRANCH   7   8
ATOM      8  C   UNL     1      48.270  32.426  87.212  1.00  0.00     0.041 C 
ATOM      9  O   UNL     1      48.341  31.767  86.140  1.00  0.00    -0.550 OA
ATOM     10  O   UNL     1      48.460  33.802  87.188  1.00  0.00    -0.550 OA
ENDBRANCH   7   8
ENDBRANCH   6   7
ENDBRANCH   5   6
ENDBRANCH   4   5
ENDBRANCH   3   4
ENDBRANCH   2   3
ENDBRANCH   1   2
BRANCH   1  11
ATOM     11  C   UNL     1      42.863  27.643  89.436  1.00  0.00     0.000 C 
BRANCH  11  12
ATOM     12  C   UNL     1      41.722  27.873  90.438  1.00  0.00    -0.000 C 
BRANCH  12  13
ATOM     13  C   UNL     1      40.513  28.521  89.755  1.00  0.00    -0.000 C 
BRANCH  13  14
ATOM     14  C   UNL     1      40.656  30.047  89.713  1.00  0.00    -0.000 C 
BRANCH  14  15
ATOM     15  C   UNL     1      40.487  30.577  88.281  1.00  0.00    -0.000 C 
BRANCH  15  16
ATOM     16  C   UNL     1      41.786  31.167  87.710  1.00  0.00    -0.000 C 
BRANCH  16  17
ATOM     17  C   UNL     1      42.538  30.179  86.807  1.00  0.00    -0.003 C 
ATOM     18  C   UNL     1      41.583  29.154  86.201  1.00  0.00     0.004 C 
ENDBRANCH  16  17
ENDBRANCH  15  16
ENDBRANCH  14  15
ENDBRANCH  13  14
ENDBRANCH  12  13
ENDBRANCH  11  12
ENDBRANCH   1  11
TORSDOF 14
ENDMDL
MODEL 9
REMARK VINA RESULT:    -2.820      2.597      5.202
REMARK INTER + INTRA:          -7.989
REMARK INTER:                  -5.788
REMARK INTRA:                  -2.201
REMARK UNBOUND:                -2.862
REMARK SMILES CCCCCCCCCCCCCCCC(=O)[O-]
REMARK SMILES IDX 9 1 10 2 11 3 12 4 13 5 14 6 15 7 16 8 17 9 18 10 8 11 7 12
REMARK SMILES IDX 6 13 5 14 4 15 3 16 2 17 1 18
REMARK H PARENT
REMARK Flexibility Score: inf
ROOT
ATOM      1  C   UNL     1      44.278  28.645  91.232  1.00  0.00     0.000 C 
ENDROOT
BRANCH   1   2
ATOM      2  C   UNL     1      45.633  29.128  91.780  1.00  0.00     0.000 C 
BRANCH   2   3
ATOM      3  C   UNL     1      46.831  28.551  91.007  1.00  0.00     0.000 C 
BRANCH   3   4
ATOM      4  C   UNL     1      46.479  28.189  89.555  1.00  0.00     0.000 C 
BRANCH   4   5
ATOM      5  C   UNL     1      47.033  29.202  88.543  1.00  0.00     0.000 C 
BRANCH   5   6
ATOM      6  C   UNL     1      47.877  30.273  89.243  1.00  0.00     0.006 C 
BRANCH   6   7
ATOM      7  C   UNL     1      47.424  31.680  88.842  1.00  0.00     0.053 C 
BRANCH   7   8
ATOM      8  C   UNL     1      48.305  32.226  87.764  1.00  0.00     0.041 C 
ATOM      9  O   UNL     1      48.236  33.443  87.444  1.00  0.00    -0.550 OA
ATOM     10  O   UNL     1      49.239  31.403  87.146  1.00  0.00    -0.550 OA
ENDBRANCH   7   8
ENDBRANCH   6   7
ENDBRANCH   5   6
ENDBRANCH   4   5
ENDBRANCH   3   4
ENDBRANCH   2   3
ENDBRANCH   1   2
BRANCH   1  11
ATOM     11  C   UNL     1      43.343  29.765  90.742  1.00  0.00     0.000 C 
BRANCH  11  12
ATOM     12  C   UNL     1      44.099  31.020  90.282  1.00  0.00    -0.000 C 
BRANCH  12  13
ATOM     13  C   UNL     1      43.697  31.411  88.855  1.00  0.00    -0.000 C 
BRANCH  13  14
ATOM     14  C   UNL     1      43.612  30.177  87.948  1.00  0.00    -0.000 C 
BRANCH  14  15
ATOM     15  C   UNL     1      42.223  30.065  87.301  1.00  0.00    -0.000 C 
BRANCH  15  16
ATOM     16  C   UNL     1      41.324  31.272  87.615  1.00  0.00    -0.000 C 
BRANCH  16  17
ATOM     17  C   UNL     1      39.971  30.862  88.211  1.00  0.00    -0.003 C 
ATOM     18  C   UNL     1      40.120  29.655  89.134  1.00  0.00     0.004 C 
ENDBRANCH  16  17
ENDBRANCH  15  16
ENDBRANCH  14  15
ENDBRANCH  13  14
ENDBRANCH  12  13
ENDBRANCH  11  12
ENDBRANCH   1  11
TORSDOF 14
ENDMDL
