MODEL 1
REMARK VINA RESULT:    -4.852      0.000      0.000
REMARK INTER + INTRA:          -5.710
REMARK INTER:                  -5.562
REMARK INTRA:                  -0.149
REMARK UNBOUND:                -0.149
REMARK SMILES O=C([O-])C=Cc1ccc(O)cc1
REMARK SMILES IDX 6 1 7 2 12 3 8 4 11 5 9 6 5 7 4 8 2 9 1 10 3 11 10 12
REMARK H PARENT 10 13
REMARK Flexibility Score: inf
ROOT
ATOM      1  C   UNL     1       5.653   3.439  -7.147  1.00  0.00    -0.025 A 
ATOM      2  C   UNL     1       4.373   4.015  -7.077  1.00  0.00     0.012 A 
ATOM      3  C   UNL     1       6.437   3.663  -8.298  1.00  0.00     0.012 A 
ATOM      4  C   UNL     1       3.875   4.774  -8.140  1.00  0.00     0.047 A 
ATOM      5  C   UNL     1       5.935   4.425  -9.358  1.00  0.00     0.047 A 
ATOM      6  C   UNL     1       4.652   4.981  -9.283  1.00  0.00     0.115 A 
ENDROOT
BRANCH   1   7
ATOM      7  C   UNL     1       6.140   2.649  -5.989  1.00  0.00     0.010 C 
ATOM      8  C   UNL     1       5.717   2.836  -4.730  1.00  0.00     0.025 C 
BRANCH   8   9
ATOM      9  C   UNL     1       6.230   2.040  -3.603  1.00  0.00     0.064 C 
ATOM     10  O   UNL     1       7.406   2.195  -3.176  1.00  0.00    -0.545 OA
ATOM     11  O   UNL     1       5.406   1.099  -3.000  1.00  0.00    -0.545 OA
ENDBRANCH   8   9
ENDBRANCH   1   7
BRANCH   6  12
ATOM     12  O   UNL     1       4.143   5.740 -10.334  1.00  0.00    -0.508 OA
ATOM     13  H   UNL     1       4.672   5.887 -11.185  1.00  0.00     0.293 HD
ENDBRANCH   6  12
TORSDOF 3
ENDMDL
MODEL 2
REMARK VINA RESULT:    -4.848     19.301     20.281
REMARK INTER + INTRA:          -5.706
REMARK INTER:                  -5.571
REMARK INTRA:                  -0.135
REMARK UNBOUND:                -0.149
REMARK SMILES O=C([O-])C=Cc1ccc(O)cc1
REMARK SMILES IDX 6 1 7 2 12 3 8 4 11 5 9 6 5 7 4 8 2 9 1 10 3 11 10 12
REMARK H PARENT 10 13
REMARK Flexibility Score: inf
ROOT
ATOM      1  C   UNL     1      21.157   0.511 -18.669  1.00  0.00    -0.025 A 
ATOM      2  C   UNL     1      20.641  -0.790 -18.797  1.00  0.00     0.012 A 
ATOM      3  C   UNL     1      21.425   1.253 -19.838  1.00  0.00     0.012 A 
ATOM      4  C   UNL     1      20.422  -1.349 -20.060  1.00  0.00     0.047 A 
ATOM      5  C   UNL     1      21.203   0.691 -21.099  1.00  0.00     0.047 A 
ATOM      6  C   UNL     1      20.703  -0.612 -21.213  1.00  0.00     0.115 A 
ENDROOT
BRANCH   1   7
ATOM      7  C   UNL     1      21.362   1.061 -17.307  1.00  0.00     0.010 C 
ATOM      8  C   UNL     1      22.553   1.460 -16.836  1.00  0.00     0.025 C 
BRANCH   8   9
ATOM      9  C   UNL     1      22.722   1.991 -15.474  1.00  0.00     0.064 C 
ATOM     10  O   UNL     1      22.432   1.298 -14.462  1.00  0.00    -0.545 OA
ATOM     11  O   UNL     1      23.206   3.281 -15.300  1.00  0.00    -0.545 OA
ENDBRANCH   8   9
ENDBRANCH   1   7
BRANCH   6  12
ATOM     12  O   UNL     1      20.481  -1.181 -22.465  1.00  0.00    -0.508 OA
ATOM     13  H   UNL     1      21.231  -1.614 -22.990  1.00  0.00     0.293 HD
ENDBRANCH   6  12
TORSDOF 3
ENDMDL
MODEL 3
REMARK VINA RESULT:    -4.821     19.269     20.298
REMARK INTER + INTRA:          -5.675
REMARK INTER:                  -5.534
REMARK INTRA:                  -0.141
REMARK UNBOUND:                -0.149
REMARK SMILES O=C([O-])C=Cc1ccc(O)cc1
REMARK SMILES IDX 6 1 7 2 12 3 8 4 11 5 9 6 5 7 4 8 2 9 1 10 3 11 10 12
REMARK H PARENT 10 13
REMARK Flexibility Score: inf
ROOT
ATOM      1  C   UNL     1      21.115   0.477 -18.650  1.00  0.00    -0.025 A 
ATOM      2  C   UNL     1      21.453   1.220 -19.794  1.00  0.00     0.012 A 
ATOM      3  C   UNL     1      20.601  -0.826 -18.813  1.00  0.00     0.012 A 
ATOM      4  C   UNL     1      21.261   0.687 -21.071  1.00  0.00     0.047 A 
ATOM      5  C   UNL     1      20.412  -1.356 -20.094  1.00  0.00     0.047 A 
ATOM      6  C   UNL     1      20.739  -0.600 -21.226  1.00  0.00     0.115 A 
ENDROOT
BRANCH   1   7
ATOM      7  C   UNL     1      21.347   1.084 -17.316  1.00  0.00     0.010 C 
ATOM      8  C   UNL     1      22.545   1.511 -16.890  1.00  0.00     0.025 C 
BRANCH   8   9
ATOM      9  C   UNL     1      22.741   2.098 -15.555  1.00  0.00     0.064 C 
ATOM     10  O   UNL     1      23.295   3.221 -15.410  1.00  0.00    -0.545 OA
ATOM     11  O   UNL     1      22.309   1.402 -14.433  1.00  0.00    -0.545 OA
ENDBRANCH   8   9
ENDBRANCH   1   7
BRANCH   6  12
ATOM     12  O   UNL     1      20.552  -1.118 -22.506  1.00  0.00    -0.508 OA
ATOM     13  H   UNL     1      21.336  -1.325 -23.112  1.00  0.00     0.293 HD
ENDBRANCH   6  12
TORSDOF 3
ENDMDL
MODEL 4
REMARK VINA RESULT:    -4.700     18.661     20.591
REMARK INTER + INTRA:          -5.536
REMARK INTER:                  -5.390
REMARK INTRA:                  -0.145
REMARK UNBOUND:                -0.149
REMARK SMILES O=C([O-])C=Cc1ccc(O)cc1
REMARK SMILES IDX 6 1 7 2 12 3 8 4 11 5 9 6 5 7 4 8 2 9 1 10 3 11 10 12
REMARK H PARENT 10 13
REMARK Flexibility Score: inf
ROOT
ATOM      1  C   UNL     1      20.241  -0.065 -19.160  1.00  0.00    -0.025 A 
ATOM      2  C   UNL     1      20.877   0.690 -18.159  1.00  0.00     0.012 A 
ATOM      3  C   UNL     1      19.026  -0.712 -18.853  1.00  0.00     0.012 A 
ATOM      4  C   UNL     1      20.330   0.776 -16.876  1.00  0.00     0.047 A 
ATOM      5  C   UNL     1      18.481  -0.621 -17.569  1.00  0.00     0.047 A 
ATOM      6  C   UNL     1      19.132   0.122 -16.576  1.00  0.00     0.115 A 
ENDROOT
BRANCH   1   7
ATOM      7  C   UNL     1      20.857  -0.117 -20.508  1.00  0.00     0.010 C 
ATOM      8  C   UNL     1      21.314   0.962 -21.161  1.00  0.00     0.025 C 
BRANCH   8   9
ATOM      9  C   UNL     1      21.911   0.873 -22.504  1.00  0.00     0.064 C 
ATOM     10  O   UNL     1      22.289   1.905 -23.121  1.00  0.00    -0.545 OA
ATOM     11  O   UNL     1      22.059  -0.371 -23.104  1.00  0.00    -0.545 OA
ENDBRANCH   8   9
ENDBRANCH   1   7
BRANCH   6  12
ATOM     12  O   UNL     1      18.598   0.216 -15.293  1.00  0.00    -0.508 OA
ATOM     13  H   UNL     1      17.728  -0.241 -15.047  1.00  0.00     0.293 HD
ENDBRANCH   6  12
TORSDOF 3
ENDMDL
MODEL 5
REMARK VINA RESULT:    -4.694      9.598     11.454
REMARK INTER + INTRA:          -5.529
REMARK INTER:                  -5.392
REMARK INTRA:                  -0.137
REMARK UNBOUND:                -0.149
REMARK SMILES O=C([O-])C=Cc1ccc(O)cc1
REMARK SMILES IDX 6 1 7 2 12 3 8 4 11 5 9 6 5 7 4 8 2 9 1 10 3 11 10 12
REMARK H PARENT 10 13
REMARK Flexibility Score: inf
ROOT
ATOM      1  C   UNL     1       8.666  -5.336 -10.559  1.00  0.00    -0.025 A 
ATOM      2  C   UNL     1      10.040  -5.631 -10.550  1.00  0.00     0.012 A 
ATOM      3  C   UNL     1       7.978  -5.267  -9.330  1.00  0.00     0.012 A 
ATOM      4  C   UNL     1      10.708  -5.876  -9.347  1.00  0.00     0.047 A 
ATOM      5  C   UNL     1       8.651  -5.511  -8.129  1.00  0.00     0.047 A 
ATOM      6  C   UNL     1      10.017  -5.819  -8.134  1.00  0.00     0.115 A 
ENDROOT
BRANCH   1   7
ATOM      7  C   UNL     1       8.005  -5.074 -11.861  1.00  0.00     0.010 C 
ATOM      8  C   UNL     1       7.832  -3.847 -12.375  1.00  0.00     0.025 C 
BRANCH   8   9
ATOM      9  C   UNL     1       7.162  -3.624 -13.667  1.00  0.00     0.064 C 
ATOM     10  O   UNL     1       7.194  -4.493 -14.579  1.00  0.00    -0.545 OA
ATOM     11  O   UNL     1       6.482  -2.433 -13.886  1.00  0.00    -0.545 OA
ENDBRANCH   8   9
ENDBRANCH   1   7
BRANCH   6  12
ATOM     12  O   UNL     1      10.695  -6.067  -6.943  1.00  0.00    -0.508 OA
ATOM     13  H   UNL     1      10.702  -6.987  -6.520  1.00  0.00     0.293 HD
ENDBRANCH   6  12
TORSDOF 3
ENDMDL
MODEL 6
REMARK VINA RESULT:    -4.680      2.295      6.611
REMARK INTER + INTRA:          -5.512
REMARK INTER:                  -5.373
REMARK INTRA:                  -0.139
REMARK UNBOUND:                -0.149
REMARK SMILES O=C([O-])C=Cc1ccc(O)cc1
REMARK SMILES IDX 6 1 7 2 12 3 8 4 11 5 9 6 5 7 4 8 2 9 1 10 3 11 10 12
REMARK H PARENT 10 13
REMARK Flexibility Score: inf
ROOT
ATOM      1  C   UNL     1       4.865   5.241  -8.985  1.00  0.00    -0.025 A 
ATOM      2  C   UNL     1       6.087   4.570  -9.160  1.00  0.00     0.012 A 
ATOM      3  C   UNL     1       4.069   4.920  -7.866  1.00  0.00     0.012 A 
ATOM      4  C   UNL     1       6.495   3.583  -8.257  1.00  0.00     0.047 A 
ATOM      5  C   UNL     1       4.481   3.934  -6.964  1.00  0.00     0.047 A 
ATOM      6  C   UNL     1       5.694   3.261  -7.158  1.00  0.00     0.115 A 
ENDROOT
BRANCH   1   7
ATOM      7  C   UNL     1       4.483   6.286  -9.966  1.00  0.00     0.010 C 
ATOM      8  C   UNL     1       5.028   7.511 -10.000  1.00  0.00     0.025 C 
BRANCH   8   9
ATOM      9  C   UNL     1       4.615   8.527 -10.982  1.00  0.00     0.064 C 
ATOM     10  O   UNL     1       3.875   8.230 -11.958  1.00  0.00    -0.545 OA
ATOM     11  O   UNL     1       5.051   9.837 -10.832  1.00  0.00    -0.545 OA
ENDBRANCH   8   9
ENDBRANCH   1   7
BRANCH   6  12
ATOM     12  O   UNL     1       6.111   2.276  -6.266  1.00  0.00    -0.508 OA
ATOM     13  H   UNL     1       7.067   2.234  -5.935  1.00  0.00     0.293 HD
ENDBRANCH   6  12
TORSDOF 3
ENDMDL
MODEL 7
REMARK VINA RESULT:    -4.602      9.659     10.189
REMARK INTER + INTRA:          -5.423
REMARK INTER:                  -5.287
REMARK INTRA:                  -0.136
REMARK UNBOUND:                -0.149
REMARK SMILES O=C([O-])C=Cc1ccc(O)cc1
REMARK SMILES IDX 6 1 7 2 12 3 8 4 11 5 9 6 5 7 4 8 2 9 1 10 3 11 10 12
REMARK H PARENT 10 13
REMARK Flexibility Score: inf
ROOT
ATOM      1  C   UNL     1       8.338  -5.792 -10.072  1.00  0.00    -0.025 A 
ATOM      2  C   UNL     1       7.979  -4.529 -10.572  1.00  0.00     0.012 A 
ATOM      3  C   UNL     1       8.385  -6.886 -10.961  1.00  0.00     0.012 A 
ATOM      4  C   UNL     1       7.651  -4.364 -11.921  1.00  0.00     0.047 A 
ATOM      5  C   UNL     1       8.058  -6.716 -12.310  1.00  0.00     0.047 A 
ATOM      6  C   UNL     1       7.688  -5.455 -12.793  1.00  0.00     0.115 A 
ENDROOT
BRANCH   1   7
ATOM      7  C   UNL     1       8.686  -5.913  -8.635  1.00  0.00     0.010 C 
ATOM      8  C   UNL     1       7.782  -5.889  -7.645  1.00  0.00     0.025 C 
BRANCH   8   9
ATOM      9  C   UNL     1       8.166  -6.001  -6.228  1.00  0.00     0.064 C 
ATOM     10  O   UNL     1       7.640  -6.864  -5.475  1.00  0.00    -0.545 OA
ATOM     11  O   UNL     1       9.123  -5.139  -5.710  1.00  0.00    -0.545 OA
ENDBRANCH   8   9
ENDBRANCH   1   7
BRANCH   6  12
ATOM     12  O   UNL     1       7.357  -5.276 -14.134  1.00  0.00    -0.508 OA
ATOM     13  H   UNL     1       7.324  -6.057 -14.779  1.00  0.00     0.293 HD
ENDBRANCH   6  12
TORSDOF 3
ENDMDL
MODEL 8
REMARK VINA RESULT:    -4.598     10.621     12.225
REMARK INTER + INTRA:          -5.419
REMARK INTER:                  -5.284
REMARK INTRA:                  -0.134
REMARK UNBOUND:                -0.149
REMARK SMILES O=C([O-])C=Cc1ccc(O)cc1
REMARK SMILES IDX 6 1 7 2 12 3 8 4 11 5 9 6 5 7 4 8 2 9 1 10 3 11 10 12
REMARK H PARENT 10 13
REMARK Flexibility Score: inf
ROOT
ATOM      1  C   UNL     1       9.191  -6.731  -7.730  1.00  0.00    -0.025 A 
ATOM      2  C   UNL     1       8.530  -5.969  -6.751  1.00  0.00     0.012 A 
ATOM      3  C   UNL     1       8.983  -8.126  -7.759  1.00  0.00     0.012 A 
ATOM      4  C   UNL     1       7.703  -6.584  -5.807  1.00  0.00     0.047 A 
ATOM      5  C   UNL     1       8.153  -8.737  -6.814  1.00  0.00     0.047 A 
ATOM      6  C   UNL     1       7.512  -7.968  -5.834  1.00  0.00     0.115 A 
ENDROOT
BRANCH   1   7
ATOM      7  C   UNL     1      10.050  -6.029  -8.714  1.00  0.00     0.010 C 
ATOM      8  C   UNL     1      11.289  -6.429  -9.040  1.00  0.00     0.025 C 
BRANCH   8   9
ATOM      9  C   UNL     1      12.118  -5.701 -10.015  1.00  0.00     0.064 C 
ATOM     10  O   UNL     1      13.373  -5.666  -9.907  1.00  0.00    -0.545 OA
ATOM     11  O   UNL     1      11.506  -5.038 -11.071  1.00  0.00    -0.545 OA
ENDBRANCH   8   9
ENDBRANCH   1   7
BRANCH   6  12
ATOM     12  O   UNL     1       6.686  -8.568  -4.887  1.00  0.00    -0.508 OA
ATOM     13  H   UNL     1       5.723  -8.279  -4.767  1.00  0.00     0.293 HD
ENDBRANCH   6  12
TORSDOF 3
ENDMDL
MODEL 9
REMARK VINA RESULT:    -4.525      9.703     11.605
REMARK INTER + INTRA:          -5.335
REMARK INTER:                  -5.197
REMARK INTRA:                  -0.138
REMARK UNBOUND:                -0.149
REMARK SMILES O=C([O-])C=Cc1ccc(O)cc1
REMARK SMILES IDX 6 1 7 2 12 3 8 4 11 5 9 6 5 7 4 8 2 9 1 10 3 11 10 12
REMARK H PARENT 10 13
REMARK Flexibility Score: inf
ROOT
ATOM      1  C   UNL     1       8.381  -6.531  -7.464  1.00  0.00    -0.025 A 
ATOM      2  C   UNL     1       8.389  -5.613  -6.400  1.00  0.00     0.012 A 
ATOM      3  C   UNL     1       7.960  -7.854  -7.216  1.00  0.00     0.012 A 
ATOM      4  C   UNL     1       8.012  -6.010  -5.114  1.00  0.00     0.047 A 
ATOM      5  C   UNL     1       7.581  -8.246  -5.929  1.00  0.00     0.047 A 
ATOM      6  C   UNL     1       7.608  -7.326  -4.873  1.00  0.00     0.115 A 
ENDROOT
BRANCH   1   7
ATOM      7  C   UNL     1       8.782  -6.058  -8.811  1.00  0.00     0.010 C 
ATOM      8  C   UNL     1       8.025  -5.257  -9.575  1.00  0.00     0.025 C 
BRANCH   8   9
ATOM      9  C   UNL     1       8.451  -4.816 -10.914  1.00  0.00     0.064 C 
ATOM     10  O   UNL     1       7.617  -4.661 -11.847  1.00  0.00    -0.545 OA
ATOM     11  O   UNL     1       9.796  -4.567 -11.154  1.00  0.00    -0.545 OA
ENDBRANCH   8   9
ENDBRANCH   1   7
BRANCH   6  12
ATOM     12  O   UNL     1       7.234  -7.708  -3.587  1.00  0.00    -0.508 OA
ATOM     13  H   UNL     1       6.726  -8.567  -3.417  1.00  0.00     0.293 HD
ENDBRANCH   6  12
TORSDOF 3
ENDMDL
