MODEL 1
REMARK VINA RESULT:    -4.942      0.000      0.000
REMARK INTER + INTRA:          -5.967
REMARK INTER:                  -5.809
REMARK INTRA:                  -0.158
REMARK UNBOUND:                -0.158
REMARK SMILES O=c1c(O)c(-c2ccc(O)cc2)oc2cc(O)cc(O)c12
REMARK SMILES IDX 5 1 3 2 2 3 1 4 21 5 19 6 18 7 16 8 15 9 14 10 13 11 6 12
REMARK SMILES IDX 7 13 8 14 9 15 12 16 11 17 10 18 4 20 20 22 17 24
REMARK H PARENT 10 19 4 21 20 23 17 25
REMARK Flexibility Score: inf
ROOT
ATOM      1  C   UNL     1      58.438  42.588 123.796  1.00  0.00     0.180 A 
ATOM      2  C   UNL     1      59.333  41.521 123.607  1.00  0.00     0.208 A 
ATOM      3  C   UNL     1      58.818  40.240 123.346  1.00  0.00     0.238 A 
ATOM      4  O   UNL     1      59.624  39.299 123.124  1.00  0.00    -0.285 OA
ATOM      5  C   UNL     1      57.418  40.040 123.295  1.00  0.00     0.111 A 
ATOM      6  C   UNL     1      56.787  38.779 123.077  1.00  0.00     0.134 A 
ATOM      7  C   UNL     1      55.396  38.721 122.915  1.00  0.00     0.093 A 
ATOM      8  C   UNL     1      54.610  39.866 123.026  1.00  0.00     0.123 A 
ATOM      9  C   UNL     1      55.211  41.096 123.298  1.00  0.00     0.094 A 
ATOM     10  C   UNL     1      56.599  41.191 123.429  1.00  0.00     0.146 A 
ATOM     11  O   UNL     1      57.132  42.382 123.676  1.00  0.00    -0.452 OA
ENDROOT
BRANCH   1  12
ATOM     12  C   UNL     1      58.903  43.962 124.100  1.00  0.00     0.021 A 
ATOM     13  C   UNL     1      59.566  44.703 123.108  1.00  0.00     0.016 A 
ATOM     14  C   UNL     1      59.994  46.009 123.366  1.00  0.00     0.047 A 
ATOM     15  C   UNL     1      59.751  46.595 124.612  1.00  0.00     0.115 A 
ATOM     16  C   UNL     1      58.644  44.564 125.345  1.00  0.00     0.016 A 
ATOM     17  C   UNL     1      59.073  45.870 125.601  1.00  0.00     0.047 A 
BRANCH  15  18
ATOM     18  O   UNL     1      60.184  47.897 124.857  1.00  0.00    -0.508 OA
ATOM     19  H   UNL     1      60.471  48.509 124.103  1.00  0.00     0.293 HD
ENDBRANCH  15  18
ENDBRANCH   1  12
BRANCH   2  20
ATOM     20  O   UNL     1      60.712  41.743 123.640  1.00  0.00    -0.502 OA
ATOM     21  H   UNL     1      61.264  41.862 122.801  1.00  0.00     0.293 HD
ENDBRANCH   2  20
BRANCH   6  22
ATOM     22  O   UNL     1      57.470  37.560 123.041  1.00  0.00    -0.507 OA
ATOM     23  H   UNL     1      58.178  37.278 123.702  1.00  0.00     0.293 HD
ENDBRANCH   6  22
BRANCH   8  24
ATOM     24  O   UNL     1      53.228  39.769 122.875  1.00  0.00    -0.508 OA
ATOM     25  H   UNL     1      52.596  39.990 123.635  1.00  0.00     0.293 HD
ENDBRANCH   8  24
TORSDOF 5
ENDMDL
MODEL 2
REMARK VINA RESULT:    -4.770      2.812      7.739
REMARK INTER + INTRA:          -5.764
REMARK INTER:                  -5.717
REMARK INTRA:                  -0.046
REMARK UNBOUND:                -0.158
REMARK SMILES O=c1c(O)c(-c2ccc(O)cc2)oc2cc(O)cc(O)c12
REMARK SMILES IDX 5 1 3 2 2 3 1 4 21 5 19 6 18 7 16 8 15 9 14 10 13 11 6 12
REMARK SMILES IDX 7 13 8 14 9 15 12 16 11 17 10 18 4 20 20 22 17 24
REMARK H PARENT 10 19 4 21 20 23 17 25
REMARK Flexibility Score: inf
ROOT
ATOM      1  C   UNL     1      54.696  38.150 124.053  1.00  0.00     0.180 A 
ATOM      2  C   UNL     1      55.762  37.393 124.567  1.00  0.00     0.208 A 
ATOM      3  C   UNL     1      57.039  37.975 124.635  1.00  0.00     0.238 A 
ATOM      4  O   UNL     1      57.978  37.311 125.147  1.00  0.00    -0.285 OA
ATOM      5  C   UNL     1      57.236  39.298 124.171  1.00  0.00     0.111 A 
ATOM      6  C   UNL     1      58.494  39.971 124.155  1.00  0.00     0.134 A 
ATOM      7  C   UNL     1      58.549  41.324 123.796  1.00  0.00     0.093 A 
ATOM      8  C   UNL     1      57.403  42.009 123.393  1.00  0.00     0.123 A 
ATOM      9  C   UNL     1      56.178  41.343 123.347  1.00  0.00     0.094 A 
ATOM     10  C   UNL     1      56.086  40.004 123.734  1.00  0.00     0.146 A 
ATOM     11  O   UNL     1      54.898  39.411 123.688  1.00  0.00    -0.452 OA
ENDROOT
BRANCH   1  12
ATOM     12  C   UNL     1      53.326  37.599 123.926  1.00  0.00     0.021 A 
ATOM     13  C   UNL     1      52.242  38.311 124.463  1.00  0.00     0.016 A 
ATOM     14  C   UNL     1      50.938  37.821 124.336  1.00  0.00     0.047 A 
ATOM     15  C   UNL     1      50.701  36.620 123.659  1.00  0.00     0.115 A 
ATOM     16  C   UNL     1      53.080  36.402 123.229  1.00  0.00     0.016 A 
ATOM     17  C   UNL     1      51.776  35.913 123.103  1.00  0.00     0.047 A 
BRANCH  15  18
ATOM     18  O   UNL     1      49.399  36.142 123.540  1.00  0.00    -0.508 OA
ATOM     19  H   UNL     1      49.104  35.290 124.003  1.00  0.00     0.293 HD
ENDBRANCH  15  18
ENDBRANCH   1  12
BRANCH   2  20
ATOM     20  O   UNL     1      55.541  36.097 125.040  1.00  0.00    -0.502 OA
ATOM     21  H   UNL     1      54.662  35.613 124.910  1.00  0.00     0.293 HD
ENDBRANCH   2  20
BRANCH   6  22
ATOM     22  O   UNL     1      59.714  39.355 124.452  1.00  0.00    -0.507 OA
ATOM     23  H   UNL     1      60.484  39.805 124.922  1.00  0.00     0.293 HD
ENDBRANCH   6  22
BRANCH   8  24
ATOM     24  O   UNL     1      57.497  43.351 123.027  1.00  0.00    -0.508 OA
ATOM     25  H   UNL     1      58.276  43.696 122.479  1.00  0.00     0.293 HD
ENDBRANCH   8  24
TORSDOF 5
ENDMDL
MODEL 3
REMARK VINA RESULT:    -4.601      3.572      8.359
REMARK INTER + INTRA:          -5.566
REMARK INTER:                  -5.277
REMARK INTRA:                  -0.289
REMARK UNBOUND:                -0.158
REMARK SMILES O=c1c(O)c(-c2ccc(O)cc2)oc2cc(O)cc(O)c12
REMARK SMILES IDX 5 1 3 2 2 3 1 4 21 5 19 6 18 7 16 8 15 9 14 10 13 11 6 12
REMARK SMILES IDX 7 13 8 14 9 15 12 16 11 17 10 18 4 20 20 22 17 24
REMARK H PARENT 10 19 4 21 20 23 17 25
REMARK Flexibility Score: inf
ROOT
ATOM      1  C   UNL     1      52.574  38.321 123.867  1.00  0.00     0.180 A 
ATOM      2  C   UNL     1      53.334  37.139 123.893  1.00  0.00     0.208 A 
ATOM      3  C   UNL     1      54.725  37.220 123.720  1.00  0.00     0.238 A 
ATOM      4  O   UNL     1      55.406  36.164 123.798  1.00  0.00    -0.285 OA
ATOM      5  C   UNL     1      55.336  38.479 123.505  1.00  0.00     0.111 A 
ATOM      6  C   UNL     1      56.731  38.674 123.279  1.00  0.00     0.134 A 
ATOM      7  C   UNL     1      57.245  39.975 123.209  1.00  0.00     0.093 A 
ATOM      8  C   UNL     1      56.406  41.086 123.295  1.00  0.00     0.123 A 
ATOM      9  C   UNL     1      55.032  40.905 123.457  1.00  0.00     0.094 A 
ATOM     10  C   UNL     1      54.495  39.620 123.565  1.00  0.00     0.146 A 
ATOM     11  O   UNL     1      53.183  39.492 123.731  1.00  0.00    -0.452 OA
ENDROOT
BRANCH   1  12
ATOM     12  C   UNL     1      51.100  38.314 124.017  1.00  0.00     0.021 A 
ATOM     13  C   UNL     1      50.290  38.181 122.878  1.00  0.00     0.016 A 
ATOM     14  C   UNL     1      48.897  38.150 122.999  1.00  0.00     0.047 A 
ATOM     15  C   UNL     1      48.298  38.237 124.260  1.00  0.00     0.115 A 
ATOM     16  C   UNL     1      50.492  38.382 125.284  1.00  0.00     0.016 A 
ATOM     17  C   UNL     1      49.100  38.351 125.403  1.00  0.00     0.047 A 
BRANCH  15  18
ATOM     18  O   UNL     1      46.909  38.207 124.366  1.00  0.00    -0.508 OA
ATOM     19  H   UNL     1      46.427  37.409 124.763  1.00  0.00     0.293 HD
ENDBRANCH  15  18
ENDBRANCH   1  12
BRANCH   2  20
ATOM     20  O   UNL     1      52.713  35.908 124.127  1.00  0.00    -0.502 OA
ATOM     21  H   UNL     1      51.881  35.616 123.631  1.00  0.00     0.293 HD
ENDBRANCH   2  20
BRANCH   6  22
ATOM     22  O   UNL     1      57.645  37.632 123.087  1.00  0.00    -0.507 OA
ATOM     23  H   UNL     1      57.396  36.694 122.814  1.00  0.00     0.293 HD
ENDBRANCH   6  22
BRANCH   8  24
ATOM     24  O   UNL     1      56.949  42.366 123.206  1.00  0.00    -0.508 OA
ATOM     25  H   UNL     1      57.562  42.732 123.925  1.00  0.00     0.293 HD
ENDBRANCH   8  24
TORSDOF 5
ENDMDL
MODEL 4
REMARK VINA RESULT:    -4.600      2.188      7.130
REMARK INTER + INTRA:          -5.565
REMARK INTER:                  -5.276
REMARK INTRA:                  -0.289
REMARK UNBOUND:                -0.158
REMARK SMILES O=c1c(O)c(-c2ccc(O)cc2)oc2cc(O)cc(O)c12
REMARK SMILES IDX 5 1 3 2 2 3 1 4 21 5 19 6 18 7 16 8 15 9 14 10 13 11 6 12
REMARK SMILES IDX 7 13 8 14 9 15 12 16 11 17 10 18 4 20 20 22 17 24
REMARK H PARENT 10 19 4 21 20 23 17 25
REMARK Flexibility Score: inf
ROOT
ATOM      1  C   UNL     1      55.727  39.188 123.848  1.00  0.00     0.180 A 
ATOM      2  C   UNL     1      56.946  38.716 123.333  1.00  0.00     0.208 A 
ATOM      3  C   UNL     1      58.048  39.584 123.289  1.00  0.00     0.238 A 
ATOM      4  O   UNL     1      59.151  39.140 122.878  1.00  0.00    -0.285 OA
ATOM      5  C   UNL     1      57.913  40.918 123.745  1.00  0.00     0.111 A 
ATOM      6  C   UNL     1      58.952  41.895 123.711  1.00  0.00     0.134 A 
ATOM      7  C   UNL     1      58.745  43.145 124.309  1.00  0.00     0.093 A 
ATOM      8  C   UNL     1      57.519  43.474 124.883  1.00  0.00     0.123 A 
ATOM      9  C   UNL     1      56.476  42.547 124.869  1.00  0.00     0.094 A 
ATOM     10  C   UNL     1      56.663  41.280 124.312  1.00  0.00     0.146 A 
ATOM     11  O   UNL     1      55.649  40.423 124.329  1.00  0.00    -0.452 OA
ENDROOT
BRANCH   1  12
ATOM     12  C   UNL     1      54.513  38.340 123.904  1.00  0.00     0.021 A 
ATOM     13  C   UNL     1      54.283  37.534 125.030  1.00  0.00     0.016 A 
ATOM     14  C   UNL     1      53.133  36.743 125.113  1.00  0.00     0.047 A 
ATOM     15  C   UNL     1      52.192  36.759 124.079  1.00  0.00     0.115 A 
ATOM     16  C   UNL     1      53.553  38.367 122.875  1.00  0.00     0.016 A 
ATOM     17  C   UNL     1      52.404  37.575 122.960  1.00  0.00     0.047 A 
BRANCH  15  18
ATOM     18  O   UNL     1      51.051  35.965 124.174  1.00  0.00    -0.508 OA
ATOM     19  H   UNL     1      51.073  35.059 124.627  1.00  0.00     0.293 HD
ENDBRANCH  15  18
ENDBRANCH   1  12
BRANCH   2  20
ATOM     20  O   UNL     1      57.064  37.390 122.907  1.00  0.00    -0.502 OA
ATOM     21  H   UNL     1      57.340  37.143 121.965  1.00  0.00     0.293 HD
ENDBRANCH   2  20
BRANCH   6  22
ATOM     22  O   UNL     1      60.186  41.702 123.082  1.00  0.00    -0.507 OA
ATOM     23  H   UNL     1      60.316  41.625 122.085  1.00  0.00     0.293 HD
ENDBRANCH   6  22
BRANCH   8  24
ATOM     24  O   UNL     1      57.343  44.733 125.455  1.00  0.00    -0.508 OA
ATOM     25  H   UNL     1      57.904  45.040 126.241  1.00  0.00     0.293 HD
ENDBRANCH   8  24
TORSDOF 5
ENDMDL
MODEL 5
REMARK VINA RESULT:    -4.424     15.375     16.613
REMARK INTER + INTRA:          -5.358
REMARK INTER:                  -5.109
REMARK INTRA:                  -0.249
REMARK UNBOUND:                -0.158
REMARK SMILES O=c1c(O)c(-c2ccc(O)cc2)oc2cc(O)cc(O)c12
REMARK SMILES IDX 5 1 3 2 2 3 1 4 21 5 19 6 18 7 16 8 15 9 14 10 13 11 6 12
REMARK SMILES IDX 7 13 8 14 9 15 12 16 11 17 10 18 4 20 20 22 17 24
REMARK H PARENT 10 19 4 21 20 23 17 25
REMARK Flexibility Score: inf
ROOT
ATOM      1  C   UNL     1      48.077  37.938 135.465  1.00  0.00     0.180 A 
ATOM      2  C   UNL     1      47.649  37.035 134.477  1.00  0.00     0.208 A 
ATOM      3  C   UNL     1      46.497  37.337 133.733  1.00  0.00     0.238 A 
ATOM      4  O   UNL     1      46.149  36.552 132.813  1.00  0.00    -0.285 OA
ATOM      5  C   UNL     1      45.779  38.529 133.998  1.00  0.00     0.111 A 
ATOM      6  C   UNL     1      44.578  38.915 133.332  1.00  0.00     0.134 A 
ATOM      7  C   UNL     1      44.025  40.178 133.583  1.00  0.00     0.093 A 
ATOM      8  C   UNL     1      44.593  41.039 134.520  1.00  0.00     0.123 A 
ATOM      9  C   UNL     1      45.734  40.646 135.220  1.00  0.00     0.094 A 
ATOM     10  C   UNL     1      46.329  39.409 134.966  1.00  0.00     0.146 A 
ATOM     11  O   UNL     1      47.421  39.078 135.645  1.00  0.00    -0.452 OA
ENDROOT
BRANCH   1  12
ATOM     12  C   UNL     1      49.267  37.677 136.308  1.00  0.00     0.021 A 
ATOM     13  C   UNL     1      50.549  37.924 135.791  1.00  0.00     0.016 A 
ATOM     14  C   UNL     1      51.685  37.707 136.577  1.00  0.00     0.047 A 
ATOM     15  C   UNL     1      51.554  37.253 137.893  1.00  0.00     0.115 A 
ATOM     16  C   UNL     1      49.141  37.240 137.640  1.00  0.00     0.016 A 
ATOM     17  C   UNL     1      50.278  37.023 138.424  1.00  0.00     0.047 A 
BRANCH  15  18
ATOM     18  O   UNL     1      52.694  37.039 138.665  1.00  0.00    -0.508 OA
ATOM     19  H   UNL     1      52.832  37.516 139.548  1.00  0.00     0.293 HD
ENDBRANCH  15  18
ENDBRANCH   1  12
BRANCH   2  20
ATOM     20  O   UNL     1      48.384  35.875 134.217  1.00  0.00    -0.502 OA
ATOM     21  H   UNL     1      48.051  34.953 134.467  1.00  0.00     0.293 HD
ENDBRANCH   2  20
BRANCH   6  22
ATOM     22  O   UNL     1      43.877  38.093 132.445  1.00  0.00    -0.507 OA
ATOM     23  H   UNL     1      44.290  37.609 131.663  1.00  0.00     0.293 HD
ENDBRANCH   6  22
BRANCH   8  24
ATOM     24  O   UNL     1      44.007  42.282 134.756  1.00  0.00    -0.508 OA
ATOM     25  H   UNL     1      43.888  42.641 135.696  1.00  0.00     0.293 HD
ENDBRANCH   8  24
TORSDOF 5
ENDMDL
MODEL 6
REMARK VINA RESULT:    -4.422     14.803     16.910
REMARK INTER + INTRA:          -5.355
REMARK INTER:                  -5.142
REMARK INTRA:                  -0.213
REMARK UNBOUND:                -0.158
REMARK SMILES O=c1c(O)c(-c2ccc(O)cc2)oc2cc(O)cc(O)c12
REMARK SMILES IDX 5 1 3 2 2 3 1 4 21 5 19 6 18 7 16 8 15 9 14 10 13 11 6 12
REMARK SMILES IDX 7 13 8 14 9 15 12 16 11 17 10 18 4 20 20 22 17 24
REMARK H PARENT 10 19 4 21 20 23 17 25
REMARK Flexibility Score: inf
ROOT
ATOM      1  C   UNL     1      46.705  38.038 134.583  1.00  0.00     0.180 A 
ATOM      2  C   UNL     1      47.293  37.389 133.483  1.00  0.00     0.208 A 
ATOM      3  C   UNL     1      48.565  36.814 133.634  1.00  0.00     0.238 A 
ATOM      4  O   UNL     1      49.064  36.188 132.662  1.00  0.00    -0.285 OA
ATOM      5  C   UNL     1      49.240  36.909 134.875  1.00  0.00     0.111 A 
ATOM      6  C   UNL     1      50.548  36.398 135.128  1.00  0.00     0.134 A 
ATOM      7  C   UNL     1      51.064  36.433 136.430  1.00  0.00     0.093 A 
ATOM      8  C   UNL     1      50.347  37.017 137.473  1.00  0.00     0.123 A 
ATOM      9  C   UNL     1      49.092  37.574 137.224  1.00  0.00     0.094 A 
ATOM     10  C   UNL     1      48.536  37.521 135.944  1.00  0.00     0.146 A 
ATOM     11  O   UNL     1      47.333  38.053 135.752  1.00  0.00    -0.452 OA
ENDROOT
BRANCH   1  12
ATOM     12  C   UNL     1      45.378  38.690 134.496  1.00  0.00     0.021 A 
ATOM     13  C   UNL     1      44.218  37.898 134.470  1.00  0.00     0.016 A 
ATOM     14  C   UNL     1      42.954  38.494 134.410  1.00  0.00     0.047 A 
ATOM     15  C   UNL     1      42.833  39.887 134.390  1.00  0.00     0.115 A 
ATOM     16  C   UNL     1      45.249  40.091 134.496  1.00  0.00     0.016 A 
ATOM     17  C   UNL     1      43.984  40.684 134.436  1.00  0.00     0.047 A 
BRANCH  15  18
ATOM     18  O   UNL     1      41.568  40.467 134.329  1.00  0.00    -0.508 OA
ATOM     19  H   UNL     1      40.760  39.942 134.017  1.00  0.00     0.293 HD
ENDBRANCH  15  18
ENDBRANCH   1  12
BRANCH   2  20
ATOM     20  O   UNL     1      46.602  37.288 132.273  1.00  0.00    -0.502 OA
ATOM     21  H   UNL     1      46.834  36.598 131.570  1.00  0.00     0.293 HD
ENDBRANCH   2  20
BRANCH   6  22
ATOM     22  O   UNL     1      51.387  35.875 134.139  1.00  0.00    -0.507 OA
ATOM     23  H   UNL     1      51.683  36.376 133.315  1.00  0.00     0.293 HD
ENDBRANCH   6  22
BRANCH   8  24
ATOM     24  O   UNL     1      50.898  37.049 138.752  1.00  0.00    -0.508 OA
ATOM     25  H   UNL     1      50.506  37.631 139.483  1.00  0.00     0.293 HD
ENDBRANCH   8  24
TORSDOF 5
ENDMDL
MODEL 7
REMARK VINA RESULT:    -2.717      1.747      3.424
REMARK INTER + INTRA:          -3.351
REMARK INTER:                  -3.081
REMARK INTRA:                  -0.271
REMARK UNBOUND:                -0.158
REMARK SMILES O=c1c(O)c(-c2ccc(O)cc2)oc2cc(O)cc(O)c12
REMARK SMILES IDX 5 1 3 2 2 3 1 4 21 5 19 6 18 7 16 8 15 9 14 10 13 11 6 12
REMARK SMILES IDX 7 13 8 14 9 15 12 16 11 17 10 18 4 20 20 22 17 24
REMARK H PARENT 10 19 4 21 20 23 17 25
REMARK Flexibility Score: inf
ROOT
ATOM      1  C   UNL     1      57.028  41.662 123.934  1.00  0.00     0.180 A 
ATOM      2  C   UNL     1      55.738  41.769 123.387  1.00  0.00     0.208 A 
ATOM      3  C   UNL     1      54.932  40.621 123.316  1.00  0.00     0.238 A 
ATOM      4  O   UNL     1      53.758  40.734 122.876  1.00  0.00    -0.285 OA
ATOM      5  C   UNL     1      55.432  39.379 123.776  1.00  0.00     0.111 A 
ATOM      6  C   UNL     1      54.718  38.146 123.714  1.00  0.00     0.134 A 
ATOM      7  C   UNL     1      55.259  37.003 124.318  1.00  0.00     0.093 A 
ATOM      8  C   UNL     1      56.514  37.035 124.923  1.00  0.00     0.123 A 
ATOM      9  C   UNL     1      57.247  38.222 124.936  1.00  0.00     0.094 A 
ATOM     10  C   UNL     1      56.719  39.386 124.374  1.00  0.00     0.146 A 
ATOM     11  O   UNL     1      57.444  40.498 124.418  1.00  0.00    -0.452 OA
ENDROOT
BRANCH   1  12
ATOM     12  C   UNL     1      57.946  42.822 124.021  1.00  0.00     0.021 A 
ATOM     13  C   UNL     1      58.139  43.461 125.256  1.00  0.00     0.016 A 
ATOM     14  C   UNL     1      59.018  44.543 125.366  1.00  0.00     0.047 A 
ATOM     15  C   UNL     1      59.726  44.990 124.245  1.00  0.00     0.115 A 
ATOM     16  C   UNL     1      58.676  43.264 122.902  1.00  0.00     0.016 A 
ATOM     17  C   UNL     1      59.554  44.345 123.013  1.00  0.00     0.047 A 
BRANCH  15  18
ATOM     18  O   UNL     1      60.597  46.070 124.368  1.00  0.00    -0.508 OA
ATOM     19  H   UNL     1      60.551  46.700 125.159  1.00  0.00     0.293 HD
ENDBRANCH  15  18
ENDBRANCH   1  12
BRANCH   2  20
ATOM     20  O   UNL     1      55.255  43.009 122.959  1.00  0.00    -0.502 OA
ATOM     21  H   UNL     1      54.284  43.162 122.722  1.00  0.00     0.293 HD
ENDBRANCH   2  20
BRANCH   6  22
ATOM     22  O   UNL     1      53.496  37.982 123.053  1.00  0.00    -0.507 OA
ATOM     23  H   UNL     1      53.398  37.722 122.084  1.00  0.00     0.293 HD
ENDBRANCH   6  22
BRANCH   8  24
ATOM     24  O   UNL     1      57.029  35.875 125.500  1.00  0.00    -0.508 OA
ATOM     25  H   UNL     1      56.707  34.957 125.219  1.00  0.00     0.293 HD
ENDBRANCH   8  24
TORSDOF 5
ENDMDL
MODEL 8
REMARK VINA RESULT:    -2.154      3.780      5.627
REMARK INTER + INTRA:          -2.690
REMARK INTER:                  -2.394
REMARK INTRA:                  -0.296
REMARK UNBOUND:                -0.158
REMARK SMILES O=c1c(O)c(-c2ccc(O)cc2)oc2cc(O)cc(O)c12
REMARK SMILES IDX 5 1 3 2 2 3 1 4 21 5 19 6 18 7 16 8 15 9 14 10 13 11 6 12
REMARK SMILES IDX 7 13 8 14 9 15 12 16 11 17 10 18 4 20 20 22 17 24
REMARK H PARENT 10 19 4 21 20 23 17 25
REMARK Flexibility Score: inf
ROOT
ATOM      1  C   UNL     1      55.354  38.728 124.003  1.00  0.00     0.180 A 
ATOM      2  C   UNL     1      54.969  37.382 123.887  1.00  0.00     0.208 A 
ATOM      3  C   UNL     1      53.622  37.079 123.629  1.00  0.00     0.238 A 
ATOM      4  O   UNL     1      53.292  35.875 123.471  1.00  0.00    -0.285 OA
ATOM      5  C   UNL     1      52.675  38.126 123.508  1.00  0.00     0.111 A 
ATOM      6  C   UNL     1      51.279  37.933 123.288  1.00  0.00     0.134 A 
ATOM      7  C   UNL     1      50.457  39.043 123.054  1.00  0.00     0.093 A 
ATOM      8  C   UNL     1      50.968  40.339 123.096  1.00  0.00     0.123 A 
ATOM      9  C   UNL     1      52.321  40.542 123.371  1.00  0.00     0.094 A 
ATOM     10  C   UNL     1      53.173  39.453 123.572  1.00  0.00     0.146 A 
ATOM     11  O   UNL     1      54.456  39.689 123.819  1.00  0.00    -0.452 OA
ENDROOT
BRANCH   1  12
ATOM     12  C   UNL     1      56.750  39.125 124.299  1.00  0.00     0.021 A 
ATOM     13  C   UNL     1      57.636  39.381 123.240  1.00  0.00     0.016 A 
ATOM     14  C   UNL     1      58.952  39.779 123.496  1.00  0.00     0.047 A 
ATOM     15  C   UNL     1      59.395  39.940 124.813  1.00  0.00     0.115 A 
ATOM     16  C   UNL     1      57.196  39.309 125.621  1.00  0.00     0.016 A 
ATOM     17  C   UNL     1      58.511  39.707 125.875  1.00  0.00     0.047 A 
BRANCH  15  18
ATOM     18  O   UNL     1      60.708  40.336 125.054  1.00  0.00    -0.508 OA
ATOM     19  H   UNL     1      61.486  39.702 124.912  1.00  0.00     0.293 HD
ENDBRANCH  15  18
ENDBRANCH   1  12
BRANCH   2  20
ATOM     20  O   UNL     1      55.922  36.365 123.988  1.00  0.00    -0.502 OA
ATOM     21  H   UNL     1      56.916  36.552 124.014  1.00  0.00     0.293 HD
ENDBRANCH   2  20
BRANCH   6  22
ATOM     22  O   UNL     1      50.648  36.685 123.316  1.00  0.00    -0.507 OA
ATOM     23  H   UNL     1      50.510  36.131 124.147  1.00  0.00     0.293 HD
ENDBRANCH   6  22
BRANCH   8  24
ATOM     24  O   UNL     1      50.118  41.421 122.875  1.00  0.00    -0.508 OA
ATOM     25  H   UNL     1      50.381  42.363 123.139  1.00  0.00     0.293 HD
ENDBRANCH   8  24
TORSDOF 5
ENDMDL
