MODEL 1
REMARK VINA RESULT:    -5.586      0.000      0.000
REMARK INTER + INTRA:          -7.231
REMARK INTER:                  -6.892
REMARK INTRA:                  -0.339
REMARK UNBOUND:                -0.339
REMARK SMILES Oc1cc(O)c2cc(O)c(-c3cc(O)c(O)c(O)c3)[o+]c2c1.[Cl-]
REMARK SMILES IDX 10 1 20 2 21 3 22 4 2 5 3 6 4 7 6 8 7 9 8 10 11 11 12 12
REMARK SMILES IDX 13 13 19 14 15 15 17 16 14 17 16 19 18 21 9 23 1 25 5 27
REMARK H PARENT 14 18 16 20 18 22 9 24 1 26 5 28
REMARK Flexibility Score: inf
ROOT
ATOM      1  C   UNL     1      18.881  22.085  15.471  1.00  0.00     0.402 A 
ATOM      2  O   UNL     1      19.743  22.042  16.484  1.00  0.00    -0.202 OA
ATOM      3  C   UNL     1      19.405  21.671  17.715  1.00  0.00     0.368 A 
ATOM      4  C   UNL     1      20.381  21.660  18.715  1.00  0.00     0.162 A 
ATOM      5  C   UNL     1      20.052  21.276  20.018  1.00  0.00     0.128 A 
ATOM      6  C   UNL     1      18.741  20.902  20.323  1.00  0.00     0.093 A 
ATOM      7  C   UNL     1      17.745  20.904  19.339  1.00  0.00     0.136 A 
ATOM      8  C   UNL     1      18.074  21.290  18.014  1.00  0.00     0.125 A 
ATOM      9  C   UNL     1      17.144  21.309  16.960  1.00  0.00     0.078 A 
ATOM     10  C   UNL     1      17.545  21.697  15.679  1.00  0.00     0.223 A 
ENDROOT
BRANCH   1  11
ATOM     11  C   UNL     1      19.378  22.526  14.148  1.00  0.00     0.091 A 
ATOM     12  C   UNL     1      19.684  21.568  13.172  1.00  0.00     0.068 A 
ATOM     13  C   UNL     1      20.176  21.948  11.917  1.00  0.00     0.162 A 
ATOM     14  C   UNL     1      19.604  23.882  13.867  1.00  0.00     0.068 A 
ATOM     15  C   UNL     1      20.380  23.319  11.631  1.00  0.00     0.200 A 
ATOM     16  C   UNL     1      20.096  24.279  12.621  1.00  0.00     0.162 A 
BRANCH  13  17
ATOM     17  O   UNL     1      20.445  20.935  10.993  1.00  0.00    -0.504 OA
ATOM     18  H   UNL     1      20.333  21.035   9.995  1.00  0.00     0.293 HD
ENDBRANCH  13  17
BRANCH  15  19
ATOM     19  O   UNL     1      20.860  23.760  10.395  1.00  0.00    -0.502 OA
ATOM     20  H   UNL     1      20.914  23.183   9.569  1.00  0.00     0.293 HD
ENDBRANCH  15  19
BRANCH  16  21
ATOM     21  O   UNL     1      20.299  25.639  12.384  1.00  0.00    -0.504 OA
ATOM     22  H   UNL     1      21.189  26.007  12.070  1.00  0.00     0.293 HD
ENDBRANCH  16  21
ENDBRANCH   1  11
BRANCH  10  23
ATOM     23  O   UNL     1      16.634  21.669  14.622  1.00  0.00    -0.500 OA
ATOM     24  H   UNL     1      16.786  21.089  13.805  1.00  0.00     0.294 HD
ENDBRANCH  10  23
BRANCH   5  25
ATOM     25  O   UNL     1      21.020  21.265  21.020  1.00  0.00    -0.507 OA
ATOM     26  H   UNL     1      20.784  21.461  21.986  1.00  0.00     0.293 HD
ENDBRANCH   5  25
BRANCH   7  27
ATOM     27  O   UNL     1      16.458  20.519  19.726  1.00  0.00    -0.507 OA
ATOM     28  H   UNL     1      16.098  19.577  19.656  1.00  0.00     0.293 HD
ENDBRANCH   7  27
TORSDOF 7
ENDMDL
MODEL 2
REMARK VINA RESULT:    -4.997      1.614      7.428
REMARK INTER + INTRA:          -6.505
REMARK INTER:                  -6.364
REMARK INTRA:                  -0.141
REMARK UNBOUND:                -0.339
REMARK SMILES Oc1cc(O)c2cc(O)c(-c3cc(O)c(O)c(O)c3)[o+]c2c1.[Cl-]
REMARK SMILES IDX 10 1 20 2 21 3 22 4 2 5 3 6 4 7 6 8 7 9 8 10 11 11 12 12
REMARK SMILES IDX 13 13 19 14 15 15 17 16 14 17 16 19 18 21 9 23 1 25 5 27
REMARK H PARENT 14 18 16 20 18 22 9 24 1 26 5 28
REMARK Flexibility Score: inf
ROOT
ATOM      1  C   UNL     1      18.970  22.007  14.387  1.00  0.00     0.402 A 
ATOM      2  O   UNL     1      18.962  21.111  13.404  1.00  0.00    -0.202 OA
ATOM      3  C   UNL     1      19.455  21.351  12.193  1.00  0.00     0.368 A 
ATOM      4  C   UNL     1      19.399  20.346  11.224  1.00  0.00     0.162 A 
ATOM      5  C   UNL     1      19.907  20.573   9.942  1.00  0.00     0.128 A 
ATOM      6  C   UNL     1      20.474  21.810   9.627  1.00  0.00     0.093 A 
ATOM      7  C   UNL     1      20.543  22.834  10.581  1.00  0.00     0.136 A 
ATOM      8  C   UNL     1      20.030  22.607  11.885  1.00  0.00     0.125 A 
ATOM      9  C   UNL     1      20.068  23.570  12.908  1.00  0.00     0.078 A 
ATOM     10  C   UNL     1      19.547  23.272  14.170  1.00  0.00     0.223 A 
ENDROOT
BRANCH   1  11
ATOM     11  C   UNL     1      18.381  21.622  15.690  1.00  0.00     0.091 A 
ATOM     12  C   UNL     1      19.184  21.626  16.838  1.00  0.00     0.068 A 
ATOM     13  C   UNL     1      18.666  21.248  18.083  1.00  0.00     0.162 A 
ATOM     14  C   UNL     1      17.047  21.198  15.792  1.00  0.00     0.068 A 
ATOM     15  C   UNL     1      17.314  20.843  18.184  1.00  0.00     0.200 A 
ATOM     16  C   UNL     1      16.514  20.816  17.026  1.00  0.00     0.162 A 
BRANCH  13  17
ATOM     17  O   UNL     1      19.527  21.289  19.183  1.00  0.00    -0.504 OA
ATOM     18  H   UNL     1      20.095  20.512  19.486  1.00  0.00     0.293 HD
ENDBRANCH  13  17
BRANCH  15  19
ATOM     19  O   UNL     1      16.738  20.462  19.399  1.00  0.00    -0.502 OA
ATOM     20  H   UNL     1      16.596  19.504  19.684  1.00  0.00     0.293 HD
ENDBRANCH  15  19
BRANCH  16  21
ATOM     21  O   UNL     1      15.181  20.408  17.082  1.00  0.00    -0.504 OA
ATOM     22  H   UNL     1      14.549  20.718  17.810  1.00  0.00     0.293 HD
ENDBRANCH  16  21
ENDBRANCH   1  11
BRANCH  10  23
ATOM     23  O   UNL     1      19.629  24.209  15.200  1.00  0.00    -0.500 OA
ATOM     24  H   UNL     1      18.811  24.491  15.729  1.00  0.00     0.294 HD
ENDBRANCH  10  23
BRANCH   5  25
ATOM     25  O   UNL     1      19.854  19.576   8.970  1.00  0.00    -0.507 OA
ATOM     26  H   UNL     1      18.972  19.181   8.666  1.00  0.00     0.293 HD
ENDBRANCH   5  25
BRANCH   7  27
ATOM     27  O   UNL     1      21.122  24.043  10.186  1.00  0.00    -0.507 OA
ATOM     28  H   UNL     1      20.975  24.480   9.287  1.00  0.00     0.293 HD
ENDBRANCH   7  27
TORSDOF 7
ENDMDL
MODEL 3
REMARK VINA RESULT:    -4.938      1.250      2.575
REMARK INTER + INTRA:          -6.432
REMARK INTER:                  -6.258
REMARK INTRA:                  -0.174
REMARK UNBOUND:                -0.339
REMARK SMILES Oc1cc(O)c2cc(O)c(-c3cc(O)c(O)c(O)c3)[o+]c2c1.[Cl-]
REMARK SMILES IDX 10 1 20 2 21 3 22 4 2 5 3 6 4 7 6 8 7 9 8 10 11 11 12 12
REMARK SMILES IDX 13 13 19 14 15 15 17 16 14 17 16 19 18 21 9 23 1 25 5 27
REMARK H PARENT 14 18 16 20 18 22 9 24 1 26 5 28
REMARK Flexibility Score: inf
ROOT
ATOM      1  C   UNL     1      19.400  22.645  15.318  1.00  0.00     0.402 A 
ATOM      2  O   UNL     1      18.399  21.797  15.540  1.00  0.00    -0.202 OA
ATOM      3  C   UNL     1      18.041  21.392  16.754  1.00  0.00     0.368 A 
ATOM      4  C   UNL     1      16.978  20.495  16.886  1.00  0.00     0.162 A 
ATOM      5  C   UNL     1      16.582  20.050  18.152  1.00  0.00     0.128 A 
ATOM      6  C   UNL     1      17.255  20.503  19.289  1.00  0.00     0.093 A 
ATOM      7  C   UNL     1      18.323  21.402  19.184  1.00  0.00     0.136 A 
ATOM      8  C   UNL     1      18.727  21.858  17.902  1.00  0.00     0.125 A 
ATOM      9  C   UNL     1      19.778  22.769  17.701  1.00  0.00     0.078 A 
ATOM     10  C   UNL     1      20.114  23.177  16.407  1.00  0.00     0.223 A 
ENDROOT
BRANCH   1  11
ATOM     11  C   UNL     1      19.708  23.013  13.917  1.00  0.00     0.091 A 
ATOM     12  C   UNL     1      20.146  22.026  13.025  1.00  0.00     0.068 A 
ATOM     13  C   UNL     1      20.466  22.342  11.699  1.00  0.00     0.162 A 
ATOM     14  C   UNL     1      19.627  24.343  13.477  1.00  0.00     0.068 A 
ATOM     15  C   UNL     1      20.359  23.681  11.253  1.00  0.00     0.200 A 
ATOM     16  C   UNL     1      19.943  24.677  12.157  1.00  0.00     0.162 A 
BRANCH  13  17
ATOM     17  O   UNL     1      20.883  21.300  10.867  1.00  0.00    -0.504 OA
ATOM     18  H   UNL     1      20.270  20.786  10.251  1.00  0.00     0.293 HD
ENDBRANCH  13  17
BRANCH  15  19
ATOM     19  O   UNL     1      20.658  24.056   9.941  1.00  0.00    -0.502 OA
ATOM     20  H   UNL     1      20.231  24.836   9.463  1.00  0.00     0.293 HD
ENDBRANCH  15  19
BRANCH  16  21
ATOM     21  O   UNL     1      19.842  26.011  11.761  1.00  0.00    -0.504 OA
ATOM     22  H   UNL     1      20.569  26.475  11.231  1.00  0.00     0.293 HD
ENDBRANCH  16  21
ENDBRANCH   1  11
BRANCH  10  23
ATOM     23  O   UNL     1      21.125  24.118  16.210  1.00  0.00    -0.500 OA
ATOM     24  H   UNL     1      21.659  24.154  15.349  1.00  0.00     0.294 HD
ENDBRANCH  10  23
BRANCH   5  25
ATOM     25  O   UNL     1      15.523  19.156  18.291  1.00  0.00    -0.507 OA
ATOM     26  H   UNL     1      14.622  19.333  17.863  1.00  0.00     0.293 HD
ENDBRANCH   5  25
BRANCH   7  27
ATOM     27  O   UNL     1      18.945  21.805  20.369  1.00  0.00    -0.507 OA
ATOM     28  H   UNL     1      18.522  22.412  21.058  1.00  0.00     0.293 HD
ENDBRANCH   7  27
TORSDOF 7
ENDMDL
MODEL 4
REMARK VINA RESULT:    -4.650      9.011     11.262
REMARK INTER + INTRA:          -6.077
REMARK INTER:                  -5.764
REMARK INTRA:                  -0.313
REMARK UNBOUND:                -0.339
REMARK SMILES Oc1cc(O)c2cc(O)c(-c3cc(O)c(O)c(O)c3)[o+]c2c1.[Cl-]
REMARK SMILES IDX 10 1 20 2 21 3 22 4 2 5 3 6 4 7 6 8 7 9 8 10 11 11 12 12
REMARK SMILES IDX 13 13 19 14 15 15 17 16 14 17 16 19 18 21 9 23 1 25 5 27
REMARK H PARENT 14 18 16 20 18 22 9 24 1 26 5 28
REMARK Flexibility Score: inf
ROOT
ATOM      1  C   UNL     1      16.585  18.972   6.250  1.00  0.00     0.402 A 
ATOM      2  O   UNL     1      16.592  17.708   5.834  1.00  0.00    -0.202 OA
ATOM      3  C   UNL     1      17.003  16.693   6.587  1.00  0.00     0.368 A 
ATOM      4  C   UNL     1      16.977  15.400   6.060  1.00  0.00     0.162 A 
ATOM      5  C   UNL     1      17.405  14.314   6.830  1.00  0.00     0.128 A 
ATOM      6  C   UNL     1      17.862  14.524   8.133  1.00  0.00     0.093 A 
ATOM      7  C   UNL     1      17.897  15.810   8.685  1.00  0.00     0.136 A 
ATOM      8  C   UNL     1      17.461  16.915   7.908  1.00  0.00     0.125 A 
ATOM      9  C   UNL     1      17.449  18.238   8.384  1.00  0.00     0.078 A 
ATOM     10  C   UNL     1      17.000  19.274   7.560  1.00  0.00     0.223 A 
ENDROOT
BRANCH   1  11
ATOM     11  C   UNL     1      16.114  20.016   5.312  1.00  0.00     0.091 A 
ATOM     12  C   UNL     1      17.040  20.899   4.741  1.00  0.00     0.068 A 
ATOM     13  C   UNL     1      16.627  21.912   3.866  1.00  0.00     0.162 A 
ATOM     14  C   UNL     1      14.750  20.178   5.025  1.00  0.00     0.068 A 
ATOM     15  C   UNL     1      15.253  22.056   3.562  1.00  0.00     0.200 A 
ATOM     16  C   UNL     1      14.320  21.184   4.155  1.00  0.00     0.162 A 
BRANCH  13  17
ATOM     17  O   UNL     1      17.612  22.744   3.329  1.00  0.00    -0.504 OA
ATOM     18  H   UNL     1      17.547  23.751   3.300  1.00  0.00     0.293 HD
ENDBRANCH  13  17
BRANCH  15  19
ATOM     19  O   UNL     1      14.781  23.041   2.691  1.00  0.00    -0.502 OA
ATOM     20  H   UNL     1      14.119  23.759   2.950  1.00  0.00     0.293 HD
ENDBRANCH  15  19
BRANCH  16  21
ATOM     21  O   UNL     1      12.955  21.304   3.893  1.00  0.00    -0.504 OA
ATOM     22  H   UNL     1      12.566  22.099   3.401  1.00  0.00     0.293 HD
ENDBRANCH  16  21
ENDBRANCH   1  11
BRANCH  10  23
ATOM     23  O   UNL     1      16.941  20.579   8.048  1.00  0.00    -0.500 OA
ATOM     24  H   UNL     1      17.403  20.847   8.910  1.00  0.00     0.294 HD
ENDBRANCH  10  23
BRANCH   5  25
ATOM     25  O   UNL     1      17.382  13.022   6.310  1.00  0.00    -0.507 OA
ATOM     26  H   UNL     1      17.883  12.785   5.462  1.00  0.00     0.293 HD
ENDBRANCH   5  25
BRANCH   7  27
ATOM     27  O   UNL     1      18.371  15.936   9.995  1.00  0.00    -0.507 OA
ATOM     28  H   UNL     1      18.900  15.226  10.481  1.00  0.00     0.293 HD
ENDBRANCH   7  27
TORSDOF 7
ENDMDL
MODEL 5
REMARK VINA RESULT:    -4.643     10.294     12.368
REMARK INTER + INTRA:          -6.069
REMARK INTER:                  -5.741
REMARK INTRA:                  -0.327
REMARK UNBOUND:                -0.339
REMARK SMILES Oc1cc(O)c2cc(O)c(-c3cc(O)c(O)c(O)c3)[o+]c2c1.[Cl-]
REMARK SMILES IDX 10 1 20 2 21 3 22 4 2 5 3 6 4 7 6 8 7 9 8 10 11 11 12 12
REMARK SMILES IDX 13 13 19 14 15 15 17 16 14 17 16 19 18 21 9 23 1 25 5 27
REMARK H PARENT 14 18 16 20 18 22 9 24 1 26 5 28
REMARK Flexibility Score: inf
ROOT
ATOM      1  C   UNL     1      15.161  18.852   4.575  1.00  0.00     0.402 A 
ATOM      2  O   UNL     1      15.893  18.683   5.673  1.00  0.00    -0.202 OA
ATOM      3  C   UNL     1      16.188  17.489   6.176  1.00  0.00     0.368 A 
ATOM      4  C   UNL     1      16.961  17.413   7.338  1.00  0.00     0.162 A 
ATOM      5  C   UNL     1      17.285  16.169   7.890  1.00  0.00     0.128 A 
ATOM      6  C   UNL     1      16.833  14.998   7.279  1.00  0.00     0.093 A 
ATOM      7  C   UNL     1      16.056  15.047   6.114  1.00  0.00     0.136 A 
ATOM      8  C   UNL     1      15.728  16.307   5.548  1.00  0.00     0.125 A 
ATOM      9  C   UNL     1      14.966  16.452   4.376  1.00  0.00     0.078 A 
ATOM     10  C   UNL     1      14.687  17.726   3.876  1.00  0.00     0.223 A 
ENDROOT
BRANCH   1  11
ATOM     11  C   UNL     1      14.892  20.234   4.119  1.00  0.00     0.091 A 
ATOM     12  C   UNL     1      15.937  21.002   3.588  1.00  0.00     0.068 A 
ATOM     13  C   UNL     1      15.723  22.320   3.167  1.00  0.00     0.162 A 
ATOM     14  C   UNL     1      13.622  20.816   4.259  1.00  0.00     0.068 A 
ATOM     15  C   UNL     1      14.435  22.893   3.289  1.00  0.00     0.200 A 
ATOM     16  C   UNL     1      13.391  22.130   3.845  1.00  0.00     0.162 A 
BRANCH  13  17
ATOM     17  O   UNL     1      16.813  23.016   2.638  1.00  0.00    -0.504 OA
ATOM     18  H   UNL     1      17.508  22.604   2.032  1.00  0.00     0.293 HD
ENDBRANCH  13  17
BRANCH  15  19
ATOM     19  O   UNL     1      14.158  24.200   2.879  1.00  0.00    -0.502 OA
ATOM     20  H   UNL     1      14.865  24.882   2.643  1.00  0.00     0.293 HD
ENDBRANCH  15  19
BRANCH  16  21
ATOM     21  O   UNL     1      12.111  22.665   3.997  1.00  0.00    -0.504 OA
ATOM     22  H   UNL     1      11.493  22.822   3.211  1.00  0.00     0.293 HD
ENDBRANCH  16  21
ENDBRANCH   1  11
BRANCH  10  23
ATOM     23  O   UNL     1      13.973  17.870   2.686  1.00  0.00    -0.500 OA
ATOM     24  H   UNL     1      14.016  17.172   1.952  1.00  0.00     0.294 HD
ENDBRANCH  10  23
BRANCH   5  25
ATOM     25  O   UNL     1      18.055  16.086   9.048  1.00  0.00    -0.507 OA
ATOM     26  H   UNL     1      17.823  15.439   9.792  1.00  0.00     0.293 HD
ENDBRANCH   5  25
BRANCH   7  27
ATOM     27  O   UNL     1      15.641  13.830   5.566  1.00  0.00    -0.507 OA
ATOM     28  H   UNL     1      15.464  13.678   4.583  1.00  0.00     0.293 HD
ENDBRANCH   7  27
TORSDOF 7
ENDMDL
MODEL 6
REMARK VINA RESULT:    -4.633      2.319      7.701
REMARK INTER + INTRA:          -6.056
REMARK INTER:                  -5.681
REMARK INTRA:                  -0.375
REMARK UNBOUND:                -0.339
REMARK SMILES Oc1cc(O)c2cc(O)c(-c3cc(O)c(O)c(O)c3)[o+]c2c1.[Cl-]
REMARK SMILES IDX 10 1 20 2 21 3 22 4 2 5 3 6 4 7 6 8 7 9 8 10 11 11 12 12
REMARK SMILES IDX 13 13 19 14 15 15 17 16 14 17 16 19 18 21 9 23 1 25 5 27
REMARK H PARENT 14 18 16 20 18 22 9 24 1 26 5 28
REMARK Flexibility Score: inf
ROOT
ATOM      1  C   UNL     1      19.453  21.546  12.891  1.00  0.00     0.402 A 
ATOM      2  O   UNL     1      19.349  20.383  12.253  1.00  0.00    -0.202 OA
ATOM      3  C   UNL     1      19.707  20.212  10.985  1.00  0.00     0.368 A 
ATOM      4  C   UNL     1      19.557  18.952  10.400  1.00  0.00     0.162 A 
ATOM      5  C   UNL     1      19.924  18.744   9.066  1.00  0.00     0.128 A 
ATOM      6  C   UNL     1      20.442  19.801   8.315  1.00  0.00     0.093 A 
ATOM      7  C   UNL     1      20.603  21.074   8.878  1.00  0.00     0.136 A 
ATOM      8  C   UNL     1      20.234  21.289  10.232  1.00  0.00     0.125 A 
ATOM      9  C   UNL     1      20.372  22.527  10.883  1.00  0.00     0.078 A 
ATOM     10  C   UNL     1      19.992  22.660  12.221  1.00  0.00     0.223 A 
ENDROOT
BRANCH   1  11
ATOM     11  C   UNL     1      19.010  21.613  14.302  1.00  0.00     0.091 A 
ATOM     12  C   UNL     1      17.675  21.925  14.592  1.00  0.00     0.068 A 
ATOM     13  C   UNL     1      17.226  22.017  15.915  1.00  0.00     0.162 A 
ATOM     14  C   UNL     1      19.912  21.427  15.360  1.00  0.00     0.068 A 
ATOM     15  C   UNL     1      18.135  21.805  16.979  1.00  0.00     0.200 A 
ATOM     16  C   UNL     1      19.482  21.516  16.687  1.00  0.00     0.162 A 
BRANCH  13  17
ATOM     17  O   UNL     1      15.878  22.320  16.123  1.00  0.00    -0.504 OA
ATOM     18  H   UNL     1      15.542  23.217  16.442  1.00  0.00     0.293 HD
ENDBRANCH  13  17
BRANCH  15  19
ATOM     19  O   UNL     1      17.746  21.876  18.319  1.00  0.00    -0.502 OA
ATOM     20  H   UNL     1      18.355  22.160  19.072  1.00  0.00     0.293 HD
ENDBRANCH  15  19
BRANCH  16  21
ATOM     21  O   UNL     1      20.413  21.317  17.707  1.00  0.00    -0.504 OA
ATOM     22  H   UNL     1      21.364  21.661  17.648  1.00  0.00     0.293 HD
ENDBRANCH  16  21
ENDBRANCH   1  11
BRANCH  10  23
ATOM     23  O   UNL     1      20.174  23.875  12.882  1.00  0.00    -0.500 OA
ATOM     24  H   UNL     1      21.093  24.291  12.987  1.00  0.00     0.294 HD
ENDBRANCH  10  23
BRANCH   5  25
ATOM     25  O   UNL     1      19.777  17.490   8.477  1.00  0.00    -0.507 OA
ATOM     26  H   UNL     1      18.944  17.247   7.952  1.00  0.00     0.293 HD
ENDBRANCH   5  25
BRANCH   7  27
ATOM     27  O   UNL     1      21.125  22.079   8.059  1.00  0.00    -0.507 OA
ATOM     28  H   UNL     1      22.062  22.078   7.680  1.00  0.00     0.293 HD
ENDBRANCH   7  27
TORSDOF 7
ENDMDL
MODEL 7
REMARK VINA RESULT:    -4.604     11.405     13.262
REMARK INTER + INTRA:          -6.020
REMARK INTER:                  -5.734
REMARK INTRA:                  -0.286
REMARK UNBOUND:                -0.339
REMARK SMILES Oc1cc(O)c2cc(O)c(-c3cc(O)c(O)c(O)c3)[o+]c2c1.[Cl-]
REMARK SMILES IDX 10 1 20 2 21 3 22 4 2 5 3 6 4 7 6 8 7 9 8 10 11 11 12 12
REMARK SMILES IDX 13 13 19 14 15 15 17 16 14 17 16 19 18 21 9 23 1 25 5 27
REMARK H PARENT 14 18 16 20 18 22 9 24 1 26 5 28
REMARK Flexibility Score: inf
ROOT
ATOM      1  C   UNL     1      15.256  18.027   4.888  1.00  0.00     0.402 A 
ATOM      2  O   UNL     1      15.690  17.138   3.998  1.00  0.00    -0.202 OA
ATOM      3  C   UNL     1      15.927  15.865   4.294  1.00  0.00     0.368 A 
ATOM      4  C   UNL     1      16.386  15.007   3.291  1.00  0.00     0.162 A 
ATOM      5  C   UNL     1      16.645  13.663   3.575  1.00  0.00     0.128 A 
ATOM      6  C   UNL     1      16.446  13.175   4.868  1.00  0.00     0.093 A 
ATOM      7  C   UNL     1      15.987  14.014   5.892  1.00  0.00     0.136 A 
ATOM      8  C   UNL     1      15.720  15.378   5.607  1.00  0.00     0.125 A 
ATOM      9  C   UNL     1      15.244  16.289   6.566  1.00  0.00     0.078 A 
ATOM     10  C   UNL     1      14.999  17.618   6.210  1.00  0.00     0.223 A 
ENDROOT
BRANCH   1  11
ATOM     11  C   UNL     1      15.039  19.420   4.438  1.00  0.00     0.091 A 
ATOM     12  C   UNL     1      14.051  19.690   3.481  1.00  0.00     0.068 A 
ATOM     13  C   UNL     1      13.833  20.993   3.016  1.00  0.00     0.162 A 
ATOM     14  C   UNL     1      15.840  20.472   4.906  1.00  0.00     0.068 A 
ATOM     15  C   UNL     1      14.628  22.054   3.510  1.00  0.00     0.200 A 
ATOM     16  C   UNL     1      15.637  21.779   4.454  1.00  0.00     0.162 A 
BRANCH  13  17
ATOM     17  O   UNL     1      12.822  21.183   2.071  1.00  0.00    -0.504 OA
ATOM     18  H   UNL     1      12.908  21.781   1.262  1.00  0.00     0.293 HD
ENDBRANCH  13  17
BRANCH  15  19
ATOM     19  O   UNL     1      14.453  23.376   3.091  1.00  0.00    -0.502 OA
ATOM     20  H   UNL     1      14.831  23.754   2.235  1.00  0.00     0.293 HD
ENDBRANCH  15  19
BRANCH  16  21
ATOM     21  O   UNL     1      16.453  22.795   4.952  1.00  0.00    -0.504 OA
ATOM     22  H   UNL     1      16.499  23.017   5.939  1.00  0.00     0.293 HD
ENDBRANCH  16  21
ENDBRANCH   1  11
BRANCH  10  23
ATOM     23  O   UNL     1      14.481  18.510   7.148  1.00  0.00    -0.500 OA
ATOM     24  H   UNL     1      13.499  18.765   7.155  1.00  0.00     0.294 HD
ENDBRANCH  10  23
BRANCH   5  25
ATOM     25  O   UNL     1      17.103  12.802   2.580  1.00  0.00    -0.507 OA
ATOM     26  H   UNL     1      16.835  12.924   1.610  1.00  0.00     0.293 HD
ENDBRANCH   5  25
BRANCH   7  27
ATOM     27  O   UNL     1      15.816  13.449   7.159  1.00  0.00    -0.507 OA
ATOM     28  H   UNL     1      15.325  12.584   7.337  1.00  0.00     0.293 HD
ENDBRANCH   7  27
TORSDOF 7
ENDMDL
MODEL 8
REMARK VINA RESULT:    -4.577      7.590     11.869
REMARK INTER + INTRA:          -5.986
REMARK INTER:                  -5.616
REMARK INTRA:                  -0.370
REMARK UNBOUND:                -0.339
REMARK SMILES Oc1cc(O)c2cc(O)c(-c3cc(O)c(O)c(O)c3)[o+]c2c1.[Cl-]
REMARK SMILES IDX 10 1 20 2 21 3 22 4 2 5 3 6 4 7 6 8 7 9 8 10 11 11 12 12
REMARK SMILES IDX 13 13 19 14 15 15 17 16 14 17 16 19 18 21 9 23 1 25 5 27
REMARK H PARENT 14 18 16 20 18 22 9 24 1 26 5 28
REMARK Flexibility Score: inf
ROOT
ATOM      1  C   UNL     1      16.375  19.670   6.566  1.00  0.00     0.402 A 
ATOM      2  O   UNL     1      16.288  20.848   5.954  1.00  0.00    -0.202 OA
ATOM      3  C   UNL     1      15.512  21.067   4.897  1.00  0.00     0.368 A 
ATOM      4  C   UNL     1      15.490  22.340   4.321  1.00  0.00     0.162 A 
ATOM      5  C   UNL     1      14.686  22.597   3.207  1.00  0.00     0.128 A 
ATOM      6  C   UNL     1      13.901  21.576   2.666  1.00  0.00     0.093 A 
ATOM      7  C   UNL     1      13.905  20.292   3.225  1.00  0.00     0.136 A 
ATOM      8  C   UNL     1      14.718  20.027   4.358  1.00  0.00     0.125 A 
ATOM      9  C   UNL     1      14.775  18.774   4.992  1.00  0.00     0.078 A 
ATOM     10  C   UNL     1      15.597  18.590   6.107  1.00  0.00     0.223 A 
ENDROOT
BRANCH   1  11
ATOM     11  C   UNL     1      17.283  19.549   7.729  1.00  0.00     0.091 A 
ATOM     12  C   UNL     1      16.777  19.742   9.021  1.00  0.00     0.068 A 
ATOM     13  C   UNL     1      17.611  19.657  10.143  1.00  0.00     0.162 A 
ATOM     14  C   UNL     1      18.654  19.303   7.563  1.00  0.00     0.068 A 
ATOM     15  C   UNL     1      18.989  19.384   9.971  1.00  0.00     0.200 A 
ATOM     16  C   UNL     1      19.501  19.215   8.670  1.00  0.00     0.162 A 
BRANCH  13  17
ATOM     17  O   UNL     1      17.030  19.849  11.399  1.00  0.00    -0.504 OA
ATOM     18  H   UNL     1      16.089  20.185  11.541  1.00  0.00     0.293 HD
ENDBRANCH  13  17
BRANCH  15  19
ATOM     19  O   UNL     1      19.870  19.280  11.051  1.00  0.00    -0.502 OA
ATOM     20  H   UNL     1      20.747  18.781  11.022  1.00  0.00     0.293 HD
ENDBRANCH  15  19
BRANCH  16  21
ATOM     21  O   UNL     1      20.857  18.962   8.458  1.00  0.00    -0.504 OA
ATOM     22  H   UNL     1      21.299  19.100   7.557  1.00  0.00     0.293 HD
ENDBRANCH  16  21
ENDBRANCH   1  11
BRANCH  10  23
ATOM     23  O   UNL     1      15.617  17.362   6.767  1.00  0.00    -0.500 OA
ATOM     24  H   UNL     1      15.860  16.503   6.285  1.00  0.00     0.294 HD
ENDBRANCH  10  23
BRANCH   5  25
ATOM     25  O   UNL     1      14.659  23.863   2.627  1.00  0.00    -0.507 OA
ATOM     26  H   UNL     1      13.831  24.446   2.666  1.00  0.00     0.293 HD
ENDBRANCH   5  25
BRANCH   7  27
ATOM     27  O   UNL     1      13.093  19.325   2.623  1.00  0.00    -0.507 OA
ATOM     28  H   UNL     1      13.197  19.006   1.671  1.00  0.00     0.293 HD
ENDBRANCH   7  27
TORSDOF 7
ENDMDL
