MODEL 1
REMARK VINA RESULT:    -4.016      0.000      0.000
REMARK INTER + INTRA:         -16.214
REMARK INTER:                 -10.588
REMARK INTRA:                  -5.625
REMARK UNBOUND:                -5.625
REMARK SMILES CCCCCCCCCCCCCCCCCCCCCCCCCCCCCC(=O)[O-]
REMARK SMILES IDX 16 1 17 2 18 3 19 4 20 5 21 6 22 7 23 8 24 9 25 10 26 11
REMARK SMILES IDX 27 12 28 13 29 14 30 15 31 16 32 17 15 18 14 19 13 20 12 21
REMARK SMILES IDX 11 22 10 23 9 24 8 25 7 26 6 27 5 28 4 29 3 30 2 31 1 32
REMARK H PARENT
REMARK Flexibility Score: inf
ROOT
ATOM      1  C   UNL     1     -46.413 -50.525  41.080  1.00  0.00     0.000 C 
ENDROOT
BRANCH   1   2
ATOM      2  C   UNL     1     -47.804 -51.153  41.285  1.00  0.00     0.000 C 
BRANCH   2   3
ATOM      3  C   UNL     1     -47.808 -52.453  42.119  1.00  0.00     0.000 C 
BRANCH   3   4
ATOM      4  C   UNL     1     -48.243 -53.710  41.337  1.00  0.00     0.000 C 
BRANCH   4   5
ATOM      5  C   UNL     1     -48.179 -53.545  39.806  1.00  0.00     0.000 C 
BRANCH   5   6
ATOM      6  C   UNL     1     -46.822 -53.979  39.228  1.00  0.00     0.000 C 
BRANCH   6   7
ATOM      7  C   UNL     1     -46.278 -53.004  38.167  1.00  0.00     0.000 C 
BRANCH   7   8
ATOM      8  C   UNL     1     -47.366 -52.423  37.239  1.00  0.00     0.000 C 
BRANCH   8   9
ATOM      9  C   UNL     1     -47.170 -50.918  36.986  1.00  0.00     0.000 C 
BRANCH   9  10
ATOM     10  C   UNL     1     -45.844 -50.381  37.547  1.00  0.00     0.000 C 
BRANCH  10  11
ATOM     11  C   UNL     1     -45.676 -48.869  37.330  1.00  0.00     0.000 C 
BRANCH  11  12
ATOM     12  C   UNL     1     -44.359 -48.370  37.934  1.00  0.00     0.000 C 
BRANCH  12  13
ATOM     13  C   UNL     1     -44.571 -47.837  39.357  1.00  0.00     0.006 C 
BRANCH  13  14
ATOM     14  C   UNL     1     -43.250 -47.342  39.957  1.00  0.00     0.053 C 
BRANCH  14  15
ATOM     15  C   UNL     1     -43.348 -45.900  40.348  1.00  0.00     0.041 C 
ATOM     16  O   UNL     1     -44.474 -45.373  40.552  1.00  0.00    -0.550 OA
ATOM     17  O   UNL     1     -42.192 -45.143  40.523  1.00  0.00    -0.550 OA
ENDBRANCH  14  15
ENDBRANCH  13  14
ENDBRANCH  12  13
ENDBRANCH  11  12
ENDBRANCH  10  11
ENDBRANCH   9  10
ENDBRANCH   8   9
ENDBRANCH   7   8
ENDBRANCH   6   7
ENDBRANCH   5   6
ENDBRANCH   4   5
ENDBRANCH   3   4
ENDBRANCH   2   3
ENDBRANCH   1   2
BRANCH   1  18
ATOM     18  C   UNL     1     -45.264 -51.476  41.458  1.00  0.00     0.000 C 
BRANCH  18  19
ATOM     19  C   UNL     1     -43.893 -50.979  40.962  1.00  0.00     0.000 C 
BRANCH  19  20
ATOM     20  C   UNL     1     -43.319 -51.751  39.760  1.00  0.00     0.000 C 
BRANCH  20  21
ATOM     21  C   UNL     1     -41.843 -51.416  39.491  1.00  0.00     0.000 C 
BRANCH  21  22
ATOM     22  C   UNL     1     -41.662 -50.431  38.326  1.00  0.00     0.000 C 
BRANCH  22  23
ATOM     23  C   UNL     1     -40.646 -50.936  37.286  1.00  0.00     0.000 C 
BRANCH  23  24
ATOM     24  C   UNL     1     -40.028 -49.795  36.465  1.00  0.00    -0.000 C 
BRANCH  24  25
ATOM     25  C   UNL     1     -40.984 -48.600  36.292  1.00  0.00    -0.000 C 
BRANCH  25  26
ATOM     26  C   UNL     1     -41.306 -48.279  34.822  1.00  0.00    -0.000 C 
BRANCH  26  27
ATOM     27  C   UNL     1     -42.810 -48.308  34.474  1.00  0.00    -0.000 C 
BRANCH  27  28
ATOM     28  C   UNL     1     -43.476 -49.701  34.499  1.00  0.00    -0.000 C 
BRANCH  28  29
ATOM     29  C   UNL     1     -42.986 -50.697  33.431  1.00  0.00    -0.000 C 
BRANCH  29  30
ATOM     30  C   UNL     1     -42.058 -51.783  33.995  1.00  0.00    -0.000 C 
BRANCH  30  31
ATOM     31  C   UNL     1     -40.678 -51.722  33.331  1.00  0.00    -0.003 C 
ATOM     32  C   UNL     1     -39.837 -52.943  33.694  1.00  0.00     0.004 C 
ENDBRANCH  30  31
ENDBRANCH  29  30
ENDBRANCH  28  29
ENDBRANCH  27  28
ENDBRANCH  26  27
ENDBRANCH  25  26
ENDBRANCH  24  25
ENDBRANCH  23  24
ENDBRANCH  22  23
ENDBRANCH  21  22
ENDBRANCH  20  21
ENDBRANCH  19  20
ENDBRANCH  18  19
ENDBRANCH   1  18
TORSDOF 28
ENDMDL
MODEL 2
REMARK VINA RESULT:    -3.943      1.869      5.402
REMARK INTER + INTRA:         -16.021
REMARK INTER:                 -10.898
REMARK INTRA:                  -5.123
REMARK UNBOUND:                -5.625
REMARK SMILES CCCCCCCCCCCCCCCCCCCCCCCCCCCCCC(=O)[O-]
REMARK SMILES IDX 16 1 17 2 18 3 19 4 20 5 21 6 22 7 23 8 24 9 25 10 26 11
REMARK SMILES IDX 27 12 28 13 29 14 30 15 31 16 32 17 15 18 14 19 13 20 12 21
REMARK SMILES IDX 11 22 10 23 9 24 8 25 7 26 6 27 5 28 4 29 3 30 2 31 1 32
REMARK H PARENT
REMARK Flexibility Score: inf
ROOT
ATOM      1  C   UNL     1     -45.217 -49.279  37.597  1.00  0.00     0.000 C 
ENDROOT
BRANCH   1   2
ATOM      2  C   UNL     1     -46.670 -49.519  37.148  1.00  0.00     0.000 C 
BRANCH   2   3
ATOM      3  C   UNL     1     -47.181 -50.961  37.366  1.00  0.00     0.000 C 
BRANCH   3   4
ATOM      4  C   UNL     1     -46.069 -51.999  37.621  1.00  0.00     0.000 C 
BRANCH   4   5
ATOM      5  C   UNL     1     -46.595 -53.413  37.934  1.00  0.00     0.000 C 
BRANCH   5   6
ATOM      6  C   UNL     1     -47.968 -53.386  38.627  1.00  0.00     0.000 C 
BRANCH   6   7
ATOM      7  C   UNL     1     -47.998 -54.194  39.938  1.00  0.00     0.000 C 
BRANCH   7   8
ATOM      8  C   UNL     1     -48.817 -53.525  41.063  1.00  0.00     0.000 C 
BRANCH   8   9
ATOM      9  C   UNL     1     -47.943 -52.640  41.969  1.00  0.00     0.000 C 
BRANCH   9  10
ATOM     10  C   UNL     1     -48.085 -51.141  41.664  1.00  0.00     0.000 C 
BRANCH  10  11
ATOM     11  C   UNL     1     -46.879 -50.572  40.900  1.00  0.00     0.000 C 
BRANCH  11  12
ATOM     12  C   UNL     1     -45.578 -51.249  41.344  1.00  0.00     0.000 C 
BRANCH  12  13
ATOM     13  C   UNL     1     -44.378 -50.308  41.171  1.00  0.00     0.006 C 
BRANCH  13  14
ATOM     14  C   UNL     1     -43.068 -51.024  41.518  1.00  0.00     0.053 C 
BRANCH  14  15
ATOM     15  C   UNL     1     -42.312 -50.275  42.571  1.00  0.00     0.041 C 
ATOM     16  O   UNL     1     -41.278 -49.624  42.266  1.00  0.00    -0.550 OA
ATOM     17  O   UNL     1     -42.768 -50.266  43.886  1.00  0.00    -0.550 OA
ENDBRANCH  14  15
ENDBRANCH  13  14
ENDBRANCH  12  13
ENDBRANCH  11  12
ENDBRANCH  10  11
ENDBRANCH   9  10
ENDBRANCH   8   9
ENDBRANCH   7   8
ENDBRANCH   6   7
ENDBRANCH   5   6
ENDBRANCH   4   5
ENDBRANCH   3   4
ENDBRANCH   2   3
ENDBRANCH   1   2
BRANCH   1  18
ATOM     18  C   UNL     1     -44.303 -48.817  36.449  1.00  0.00     0.000 C 
BRANCH  18  19
ATOM     19  C   UNL     1     -44.082 -49.912  35.388  1.00  0.00     0.000 C 
BRANCH  19  20
ATOM     20  C   UNL     1     -43.101 -49.535  34.262  1.00  0.00     0.000 C 
BRANCH  20  21
ATOM     21  C   UNL     1     -42.508 -48.128  34.439  1.00  0.00     0.000 C 
BRANCH  21  22
ATOM     22  C   UNL     1     -40.998 -48.154  34.721  1.00  0.00     0.000 C 
BRANCH  22  23
ATOM     23  C   UNL     1     -40.432 -49.585  34.742  1.00  0.00     0.000 C 
BRANCH  23  24
ATOM     24  C   UNL     1     -39.880 -49.979  36.120  1.00  0.00    -0.000 C 
BRANCH  24  25
ATOM     25  C   UNL     1     -40.787 -50.980  36.860  1.00  0.00    -0.000 C 
BRANCH  25  26
ATOM     26  C   UNL     1     -41.440 -50.397  38.125  1.00  0.00    -0.000 C 
BRANCH  26  27
ATOM     27  C   UNL     1     -41.168 -48.894  38.353  1.00  0.00    -0.000 C 
BRANCH  27  28
ATOM     28  C   UNL     1     -42.199 -48.154  39.233  1.00  0.00    -0.000 C 
BRANCH  28  29
ATOM     29  C   UNL     1     -41.678 -46.904  39.968  1.00  0.00    -0.000 C 
BRANCH  29  30
ATOM     30  C   UNL     1     -42.797 -45.943  40.397  1.00  0.00    -0.000 C 
BRANCH  30  31
ATOM     31  C   UNL     1     -42.754 -45.695  41.909  1.00  0.00    -0.003 C 
ATOM     32  C   UNL     1     -41.340 -45.868  42.456  1.00  0.00     0.004 C 
ENDBRANCH  30  31
ENDBRANCH  29  30
ENDBRANCH  28  29
ENDBRANCH  27  28
ENDBRANCH  26  27
ENDBRANCH  25  26
ENDBRANCH  24  25
ENDBRANCH  23  24
ENDBRANCH  22  23
ENDBRANCH  21  22
ENDBRANCH  20  21
ENDBRANCH  19  20
ENDBRANCH  18  19
ENDBRANCH   1  18
TORSDOF 28
ENDMDL
MODEL 3
REMARK VINA RESULT:    -3.941      2.972      6.271
REMARK INTER + INTRA:         -16.018
REMARK INTER:                 -10.532
REMARK INTRA:                  -5.486
REMARK UNBOUND:                -5.625
REMARK SMILES CCCCCCCCCCCCCCCCCCCCCCCCCCCCCC(=O)[O-]
REMARK SMILES IDX 16 1 17 2 18 3 19 4 20 5 21 6 22 7 23 8 24 9 25 10 26 11
REMARK SMILES IDX 27 12 28 13 29 14 30 15 31 16 32 17 15 18 14 19 13 20 12 21
REMARK SMILES IDX 11 22 10 23 9 24 8 25 7 26 6 27 5 28 4 29 3 30 2 31 1 32
REMARK H PARENT
REMARK Flexibility Score: inf
ROOT
ATOM      1  C   UNL     1     -45.576 -50.760  36.861  1.00  0.00     0.000 C 
ENDROOT
BRANCH   1   2
ATOM      2  C   UNL     1     -46.974 -51.339  37.142  1.00  0.00     0.000 C 
BRANCH   2   3
ATOM      3  C   UNL     1     -47.001 -52.863  37.396  1.00  0.00     0.000 C 
BRANCH   3   4
ATOM      4  C   UNL     1     -45.648 -53.569  37.169  1.00  0.00     0.000 C 
BRANCH   4   5
ATOM      5  C   UNL     1     -45.210 -54.468  38.342  1.00  0.00     0.000 C 
BRANCH   5   6
ATOM      6  C   UNL     1     -45.448 -53.804  39.709  1.00  0.00     0.000 C 
BRANCH   6   7
ATOM      7  C   UNL     1     -44.452 -52.669  40.010  1.00  0.00     0.000 C 
BRANCH   7   8
ATOM      8  C   UNL     1     -44.911 -51.721  41.139  1.00  0.00     0.000 C 
BRANCH   8   9
ATOM      9  C   UNL     1     -45.743 -50.543  40.605  1.00  0.00     0.000 C 
BRANCH   9  10
ATOM     10  C   UNL     1     -47.257 -50.765  40.739  1.00  0.00     0.000 C 
BRANCH  10  11
ATOM     11  C   UNL     1     -47.640 -51.470  42.050  1.00  0.00     0.000 C 
BRANCH  11  12
ATOM     12  C   UNL     1     -48.621 -52.619  41.790  1.00  0.00     0.000 C 
BRANCH  12  13
ATOM     13  C   UNL     1     -48.039 -53.959  42.259  1.00  0.00     0.006 C 
BRANCH  13  14
ATOM     14  C   UNL     1     -47.002 -53.745  43.368  1.00  0.00     0.053 C 
BRANCH  14  15
ATOM     15  C   UNL     1     -47.611 -53.959  44.719  1.00  0.00     0.041 C 
ATOM     16  O   UNL     1     -47.498 -55.072  45.297  1.00  0.00    -0.550 OA
ATOM     17  O   UNL     1     -48.277 -52.916  45.357  1.00  0.00    -0.550 OA
ENDBRANCH  14  15
ENDBRANCH  13  14
ENDBRANCH  12  13
ENDBRANCH  11  12
ENDBRANCH  10  11
ENDBRANCH   9  10
ENDBRANCH   8   9
ENDBRANCH   7   8
ENDBRANCH   6   7
ENDBRANCH   5   6
ENDBRANCH   4   5
ENDBRANCH   3   4
ENDBRANCH   2   3
ENDBRANCH   1   2
BRANCH   1  18
ATOM     18  C   UNL     1     -45.470 -49.261  37.194  1.00  0.00     0.000 C 
BRANCH  18  19
ATOM     19  C   UNL     1     -44.224 -48.601  36.571  1.00  0.00     0.000 C 
BRANCH  19  20
ATOM     20  C   UNL     1     -43.716 -49.265  35.278  1.00  0.00     0.000 C 
BRANCH  20  21
ATOM     21  C   UNL     1     -42.688 -48.399  34.532  1.00  0.00     0.000 C 
BRANCH  21  22
ATOM     22  C   UNL     1     -41.254 -48.933  34.670  1.00  0.00     0.000 C 
BRANCH  22  23
ATOM     23  C   UNL     1     -40.506 -48.298  35.856  1.00  0.00     0.000 C 
BRANCH  23  24
ATOM     24  C   UNL     1     -39.903 -49.348  36.801  1.00  0.00    -0.000 C 
BRANCH  24  25
ATOM     25  C   UNL     1     -40.723 -50.650  36.844  1.00  0.00    -0.000 C 
BRANCH  25  26
ATOM     26  C   UNL     1     -41.653 -50.750  38.066  1.00  0.00    -0.000 C 
BRANCH  26  27
ATOM     27  C   UNL     1     -41.310 -49.776  39.214  1.00  0.00    -0.000 C 
BRANCH  27  28
ATOM     28  C   UNL     1     -42.515 -49.090  39.893  1.00  0.00    -0.000 C 
BRANCH  28  29
ATOM     29  C   UNL     1     -42.648 -47.575  39.651  1.00  0.00    -0.000 C 
BRANCH  29  30
ATOM     30  C   UNL     1     -44.072 -47.047  39.884  1.00  0.00    -0.000 C 
BRANCH  30  31
ATOM     31  C   UNL     1     -44.040 -45.638  40.488  1.00  0.00    -0.003 C 
ATOM     32  C   UNL     1     -42.876 -45.482  41.463  1.00  0.00     0.004 C 
ENDBRANCH  30  31
ENDBRANCH  29  30
ENDBRANCH  28  29
ENDBRANCH  27  28
ENDBRANCH  26  27
ENDBRANCH  25  26
ENDBRANCH  24  25
ENDBRANCH  23  24
ENDBRANCH  22  23
ENDBRANCH  21  22
ENDBRANCH  20  21
ENDBRANCH  19  20
ENDBRANCH  18  19
ENDBRANCH   1  18
TORSDOF 28
ENDMDL
MODEL 4
REMARK VINA RESULT:    -3.867      1.625      4.043
REMARK INTER + INTRA:         -15.821
REMARK INTER:                 -10.442
REMARK INTRA:                  -5.379
REMARK UNBOUND:                -5.625
REMARK SMILES CCCCCCCCCCCCCCCCCCCCCCCCCCCCCC(=O)[O-]
REMARK SMILES IDX 16 1 17 2 18 3 19 4 20 5 21 6 22 7 23 8 24 9 25 10 26 11
REMARK SMILES IDX 27 12 28 13 29 14 30 15 31 16 32 17 15 18 14 19 13 20 12 21
REMARK SMILES IDX 11 22 10 23 9 24 8 25 7 26 6 27 5 28 4 29 3 30 2 31 1 32
REMARK H PARENT
REMARK Flexibility Score: inf
ROOT
ATOM      1  C   UNL     1     -46.127 -54.163  38.374  1.00  0.00     0.000 C 
ENDROOT
BRANCH   1   2
ATOM      2  C   UNL     1     -47.187 -54.917  39.197  1.00  0.00     0.000 C 
BRANCH   2   3
ATOM      3  C   UNL     1     -47.338 -54.429  40.655  1.00  0.00     0.000 C 
BRANCH   3   4
ATOM      4  C   UNL     1     -48.433 -53.362  40.859  1.00  0.00     0.000 C 
BRANCH   4   5
ATOM      5  C   UNL     1     -47.957 -52.121  41.639  1.00  0.00     0.000 C 
BRANCH   5   6
ATOM      6  C   UNL     1     -47.256 -51.095  40.734  1.00  0.00     0.000 C 
BRANCH   6   7
ATOM      7  C   UNL     1     -45.838 -50.735  41.214  1.00  0.00     0.000 C 
BRANCH   7   8
ATOM      8  C   UNL     1     -44.753 -51.732  40.754  1.00  0.00     0.000 C 
BRANCH   8   9
ATOM      9  C   UNL     1     -43.340 -51.285  41.169  1.00  0.00     0.000 C 
BRANCH   9  10
ATOM     10  C   UNL     1     -43.295 -50.660  42.572  1.00  0.00     0.000 C 
BRANCH  10  11
ATOM     11  C   UNL     1     -42.847 -49.190  42.553  1.00  0.00     0.000 C 
BRANCH  11  12
ATOM     12  C   UNL     1     -41.452 -49.047  41.936  1.00  0.00     0.000 C 
BRANCH  12  13
ATOM     13  C   UNL     1     -40.666 -47.910  42.602  1.00  0.00     0.006 C 
BRANCH  13  14
ATOM     14  C   UNL     1     -40.562 -46.699  41.669  1.00  0.00     0.053 C 
BRANCH  14  15
ATOM     15  C   UNL     1     -41.497 -45.611  42.099  1.00  0.00     0.041 C 
ATOM     16  O   UNL     1     -41.047 -44.567  42.641  1.00  0.00    -0.550 OA
ATOM     17  O   UNL     1     -42.864 -45.734  41.870  1.00  0.00    -0.550 OA
ENDBRANCH  14  15
ENDBRANCH  13  14
ENDBRANCH  12  13
ENDBRANCH  11  12
ENDBRANCH  10  11
ENDBRANCH   9  10
ENDBRANCH   8   9
ENDBRANCH   7   8
ENDBRANCH   6   7
ENDBRANCH   5   6
ENDBRANCH   4   5
ENDBRANCH   3   4
ENDBRANCH   2   3
ENDBRANCH   1   2
BRANCH   1  18
ATOM     18  C   UNL     1     -46.737 -53.125  37.416  1.00  0.00     0.000 C 
BRANCH  18  19
ATOM     19  C   UNL     1     -45.803 -51.925  37.166  1.00  0.00     0.000 C 
BRANCH  19  20
ATOM     20  C   UNL     1     -46.484 -50.547  37.238  1.00  0.00     0.000 C 
BRANCH  20  21
ATOM     21  C   UNL     1     -45.521 -49.392  36.921  1.00  0.00     0.000 C 
BRANCH  21  22
ATOM     22  C   UNL     1     -45.664 -48.216  37.899  1.00  0.00     0.000 C 
BRANCH  22  23
ATOM     23  C   UNL     1     -44.560 -48.211  38.972  1.00  0.00     0.000 C 
BRANCH  23  24
ATOM     24  C   UNL     1     -43.279 -48.915  38.500  1.00  0.00    -0.000 C 
BRANCH  24  25
ATOM     25  C   UNL     1     -42.037 -48.008  38.583  1.00  0.00    -0.000 C 
BRANCH  25  26
ATOM     26  C   UNL     1     -40.712 -48.758  38.357  1.00  0.00    -0.000 C 
BRANCH  26  27
ATOM     27  C   UNL     1     -40.486 -49.237  36.907  1.00  0.00    -0.000 C 
BRANCH  27  28
ATOM     28  C   UNL     1     -40.409 -48.123  35.840  1.00  0.00    -0.000 C 
BRANCH  28  29
ATOM     29  C   UNL     1     -41.157 -48.405  34.522  1.00  0.00    -0.000 C 
BRANCH  29  30
ATOM     30  C   UNL     1     -42.685 -48.370  34.675  1.00  0.00    -0.000 C 
BRANCH  30  31
ATOM     31  C   UNL     1     -43.334 -49.549  33.941  1.00  0.00    -0.003 C 
ATOM     32  C   UNL     1     -43.005 -50.873  34.625  1.00  0.00     0.004 C 
ENDBRANCH  30  31
ENDBRANCH  29  30
ENDBRANCH  28  29
ENDBRANCH  27  28
ENDBRANCH  26  27
ENDBRANCH  25  26
ENDBRANCH  24  25
ENDBRANCH  23  24
ENDBRANCH  22  23
ENDBRANCH  21  22
ENDBRANCH  20  21
ENDBRANCH  19  20
ENDBRANCH  18  19
ENDBRANCH   1  18
TORSDOF 28
ENDMDL
MODEL 5
REMARK VINA RESULT:    -3.862      1.458      7.314
REMARK INTER + INTRA:         -15.809
REMARK INTER:                 -10.630
REMARK INTRA:                  -5.178
REMARK UNBOUND:                -5.625
REMARK SMILES CCCCCCCCCCCCCCCCCCCCCCCCCCCCCC(=O)[O-]
REMARK SMILES IDX 16 1 17 2 18 3 19 4 20 5 21 6 22 7 23 8 24 9 25 10 26 11
REMARK SMILES IDX 27 12 28 13 29 14 30 15 31 16 32 17 15 18 14 19 13 20 12 21
REMARK SMILES IDX 11 22 10 23 9 24 8 25 7 26 6 27 5 28 4 29 3 30 2 31 1 32
REMARK H PARENT
REMARK Flexibility Score: inf
ROOT
ATOM      1  C   UNL     1     -45.469 -49.966  37.371  1.00  0.00     0.000 C 
ENDROOT
BRANCH   1   2
ATOM      2  C   UNL     1     -44.536 -49.353  36.311  1.00  0.00     0.000 C 
BRANCH   2   3
ATOM      3  C   UNL     1     -43.850 -50.382  35.384  1.00  0.00     0.000 C 
BRANCH   3   4
ATOM      4  C   UNL     1     -43.231 -49.775  34.108  1.00  0.00     0.000 C 
BRANCH   4   5
ATOM      5  C   UNL     1     -42.779 -48.310  34.270  1.00  0.00     0.000 C 
BRANCH   5   6
ATOM      6  C   UNL     1     -41.267 -48.189  34.521  1.00  0.00     0.000 C 
BRANCH   6   7
ATOM      7  C   UNL     1     -40.902 -48.173  36.017  1.00  0.00     0.000 C 
BRANCH   7   8
ATOM      8  C   UNL     1     -39.546 -48.840  36.334  1.00  0.00     0.000 C 
BRANCH   8   9
ATOM      9  C   UNL     1     -39.681 -49.955  37.385  1.00  0.00     0.000 C 
BRANCH   9  10
ATOM     10  C   UNL     1     -39.938 -49.420  38.802  1.00  0.00     0.000 C 
BRANCH  10  11
ATOM     11  C   UNL     1     -41.029 -50.206  39.546  1.00  0.00     0.000 C 
BRANCH  11  12
ATOM     12  C   UNL     1     -42.414 -49.606  39.284  1.00  0.00     0.000 C 
BRANCH  12  13
ATOM     13  C   UNL     1     -42.379 -48.074  39.375  1.00  0.00     0.006 C 
BRANCH  13  14
ATOM     14  C   UNL     1     -43.760 -47.518  39.743  1.00  0.00     0.053 C 
BRANCH  14  15
ATOM     15  C   UNL     1     -43.637 -46.192  40.427  1.00  0.00     0.041 C 
ATOM     16  O   UNL     1     -42.553 -45.859  40.975  1.00  0.00    -0.550 OA
ATOM     17  O   UNL     1     -44.710 -45.305  40.429  1.00  0.00    -0.550 OA
ENDBRANCH  14  15
ENDBRANCH  13  14
ENDBRANCH  12  13
ENDBRANCH  11  12
ENDBRANCH  10  11
ENDBRANCH   9  10
ENDBRANCH   8   9
ENDBRANCH   7   8
ENDBRANCH   6   7
ENDBRANCH   5   6
ENDBRANCH   4   5
ENDBRANCH   3   4
ENDBRANCH   2   3
ENDBRANCH   1   2
BRANCH   1  18
ATOM     18  C   UNL     1     -45.723 -51.467  37.150  1.00  0.00     0.000 C 
BRANCH  18  19
ATOM     19  C   UNL     1     -47.217 -51.836  37.232  1.00  0.00     0.000 C 
BRANCH  19  20
ATOM     20  C   UNL     1     -47.512 -53.209  37.863  1.00  0.00     0.000 C 
BRANCH  20  21
ATOM     21  C   UNL     1     -46.258 -53.872  38.453  1.00  0.00     0.000 C 
BRANCH  21  22
ATOM     22  C   UNL     1     -46.260 -55.400  38.284  1.00  0.00     0.000 C 
BRANCH  22  23
ATOM     23  C   UNL     1     -46.030 -56.135  39.616  1.00  0.00     0.000 C 
BRANCH  23  24
ATOM     24  C   UNL     1     -47.124 -55.832  40.652  1.00  0.00    -0.000 C 
BRANCH  24  25
ATOM     25  C   UNL     1     -46.569 -55.166  41.924  1.00  0.00    -0.000 C 
BRANCH  25  26
ATOM     26  C   UNL     1     -47.410 -53.972  42.409  1.00  0.00    -0.000 C 
BRANCH  26  27
ATOM     27  C   UNL     1     -48.603 -53.615  41.495  1.00  0.00    -0.000 C 
BRANCH  27  28
ATOM     28  C   UNL     1     -48.808 -52.110  41.219  1.00  0.00    -0.000 C 
BRANCH  28  29
ATOM     29  C   UNL     1     -47.714 -51.173  41.767  1.00  0.00    -0.000 C 
BRANCH  29  30
ATOM     30  C   UNL     1     -46.621 -50.850  40.737  1.00  0.00    -0.000 C 
BRANCH  30  31
ATOM     31  C   UNL     1     -45.229 -50.932  41.373  1.00  0.00    -0.003 C 
ATOM     32  C   UNL     1     -44.477 -52.173  40.899  1.00  0.00     0.004 C 
ENDBRANCH  30  31
ENDBRANCH  29  30
ENDBRANCH  28  29
ENDBRANCH  27  28
ENDBRANCH  26  27
ENDBRANCH  25  26
ENDBRANCH  24  25
ENDBRANCH  23  24
ENDBRANCH  22  23
ENDBRANCH  21  22
ENDBRANCH  20  21
ENDBRANCH  19  20
ENDBRANCH  18  19
ENDBRANCH   1  18
TORSDOF 28
ENDMDL
MODEL 6
REMARK VINA RESULT:    -3.861      1.595      7.019
REMARK INTER + INTRA:         -15.805
REMARK INTER:                 -10.573
REMARK INTRA:                  -5.233
REMARK UNBOUND:                -5.625
REMARK SMILES CCCCCCCCCCCCCCCCCCCCCCCCCCCCCC(=O)[O-]
REMARK SMILES IDX 16 1 17 2 18 3 19 4 20 5 21 6 22 7 23 8 24 9 25 10 26 11
REMARK SMILES IDX 27 12 28 13 29 14 30 15 31 16 32 17 15 18 14 19 13 20 12 21
REMARK SMILES IDX 11 22 10 23 9 24 8 25 7 26 6 27 5 28 4 29 3 30 2 31 1 32
REMARK H PARENT
REMARK Flexibility Score: inf
ROOT
ATOM      1  C   UNL     1     -41.880 -50.907  38.229  1.00  0.00     0.000 C 
ENDROOT
BRANCH   1   2
ATOM      2  C   UNL     1     -40.608 -50.348  37.567  1.00  0.00     0.000 C 
BRANCH   2   3
ATOM      3  C   UNL     1     -40.740 -48.903  37.035  1.00  0.00     0.000 C 
BRANCH   3   4
ATOM      4  C   UNL     1     -40.077 -48.668  35.662  1.00  0.00     0.000 C 
BRANCH   4   5
ATOM      5  C   UNL     1     -41.021 -48.899  34.466  1.00  0.00     0.000 C 
BRANCH   5   6
ATOM      6  C   UNL     1     -42.462 -48.449  34.762  1.00  0.00     0.000 C 
BRANCH   6   7
ATOM      7  C   UNL     1     -43.470 -49.613  34.761  1.00  0.00     0.000 C 
BRANCH   7   8
ATOM      8  C   UNL     1     -44.464 -49.577  35.942  1.00  0.00     0.000 C 
BRANCH   8   9
ATOM      9  C   UNL     1     -44.145 -48.445  36.934  1.00  0.00     0.000 C 
BRANCH   9  10
ATOM     10  C   UNL     1     -45.288 -48.173  37.924  1.00  0.00     0.000 C 
BRANCH  10  11
ATOM     11  C   UNL     1     -44.784 -47.710  39.300  1.00  0.00     0.000 C 
BRANCH  11  12
ATOM     12  C   UNL     1     -43.253 -47.645  39.332  1.00  0.00     0.000 C 
BRANCH  12  13
ATOM     13  C   UNL     1     -42.750 -47.095  40.673  1.00  0.00     0.006 C 
BRANCH  13  14
ATOM     14  C   UNL     1     -42.685 -45.564  40.645  1.00  0.00     0.053 C 
BRANCH  14  15
ATOM     15  C   UNL     1     -41.771 -45.048  41.713  1.00  0.00     0.041 C 
ATOM     16  O   UNL     1     -41.393 -45.806  42.644  1.00  0.00    -0.550 OA
ATOM     17  O   UNL     1     -41.307 -43.736  41.662  1.00  0.00    -0.550 OA
ENDBRANCH  14  15
ENDBRANCH  13  14
ENDBRANCH  12  13
ENDBRANCH  11  12
ENDBRANCH  10  11
ENDBRANCH   9  10
ENDBRANCH   8   9
ENDBRANCH   7   8
ENDBRANCH   6   7
ENDBRANCH   5   6
ENDBRANCH   4   5
ENDBRANCH   3   4
ENDBRANCH   2   3
ENDBRANCH   1   2
BRANCH   1  18
ATOM     18  C   UNL     1     -41.748 -51.052  39.754  1.00  0.00     0.000 C 
BRANCH  18  19
ATOM     19  C   UNL     1     -43.099 -51.327  40.444  1.00  0.00     0.000 C 
BRANCH  19  20
ATOM     20  C   UNL     1     -44.314 -51.368  39.499  1.00  0.00     0.000 C 
BRANCH  20  21
ATOM     21  C   UNL     1     -45.652 -51.283  40.250  1.00  0.00     0.000 C 
BRANCH  21  22
ATOM     22  C   UNL     1     -46.853 -51.136  39.303  1.00  0.00     0.000 C 
BRANCH  22  23
ATOM     23  C   UNL     1     -46.510 -51.538  37.857  1.00  0.00     0.000 C 
BRANCH  23  24
ATOM     24  C   UNL     1     -47.092 -52.906  37.473  1.00  0.00    -0.000 C 
BRANCH  24  25
ATOM     25  C   UNL     1     -46.041 -54.030  37.507  1.00  0.00    -0.000 C 
BRANCH  25  26
ATOM     26  C   UNL     1     -46.286 -55.066  38.620  1.00  0.00    -0.000 C 
BRANCH  26  27
ATOM     27  C   UNL     1     -47.672 -54.967  39.294  1.00  0.00    -0.000 C 
BRANCH  27  28
ATOM     28  C   UNL     1     -47.663 -54.575  40.787  1.00  0.00    -0.000 C 
BRANCH  28  29
ATOM     29  C   UNL     1     -48.774 -53.604  41.231  1.00  0.00    -0.000 C 
BRANCH  29  30
ATOM     30  C   UNL     1     -48.299 -52.574  42.267  1.00  0.00    -0.000 C 
BRANCH  30  31
ATOM     31  C   UNL     1     -47.851 -53.265  43.560  1.00  0.00    -0.003 C 
ATOM     32  C   UNL     1     -46.377 -52.991  43.848  1.00  0.00     0.004 C 
ENDBRANCH  30  31
ENDBRANCH  29  30
ENDBRANCH  28  29
ENDBRANCH  27  28
ENDBRANCH  26  27
ENDBRANCH  25  26
ENDBRANCH  24  25
ENDBRANCH  23  24
ENDBRANCH  22  23
ENDBRANCH  21  22
ENDBRANCH  20  21
ENDBRANCH  19  20
ENDBRANCH  18  19
ENDBRANCH   1  18
TORSDOF 28
ENDMDL
MODEL 7
REMARK VINA RESULT:    -3.839      1.470      6.982
REMARK INTER + INTRA:         -15.747
REMARK INTER:                 -10.223
REMARK INTRA:                  -5.525
REMARK UNBOUND:                -5.625
REMARK SMILES CCCCCCCCCCCCCCCCCCCCCCCCCCCCCC(=O)[O-]
REMARK SMILES IDX 16 1 17 2 18 3 19 4 20 5 21 6 22 7 23 8 24 9 25 10 26 11
REMARK SMILES IDX 27 12 28 13 29 14 30 15 31 16 32 17 15 18 14 19 13 20 12 21
REMARK SMILES IDX 11 22 10 23 9 24 8 25 7 26 6 27 5 28 4 29 3 30 2 31 1 32
REMARK H PARENT
REMARK Flexibility Score: inf
ROOT
ATOM      1  C   UNL     1     -41.577 -53.746  36.694  1.00  0.00     0.000 C 
ENDROOT
BRANCH   1   2
ATOM      2  C   UNL     1     -41.545 -52.570  35.701  1.00  0.00     0.000 C 
BRANCH   2   3
ATOM      3  C   UNL     1     -42.789 -52.462  34.791  1.00  0.00     0.000 C 
BRANCH   3   4
ATOM      4  C   UNL     1     -43.458 -51.072  34.790  1.00  0.00     0.000 C 
BRANCH   4   5
ATOM      5  C   UNL     1     -42.852 -50.089  33.770  1.00  0.00     0.000 C 
BRANCH   5   6
ATOM      6  C   UNL     1     -42.891 -48.634  34.265  1.00  0.00     0.000 C 
BRANCH   6   7
ATOM      7  C   UNL     1     -41.525 -48.130  34.765  1.00  0.00     0.000 C 
BRANCH   7   8
ATOM      8  C   UNL     1     -40.924 -48.985  35.902  1.00  0.00     0.000 C 
BRANCH   8   9
ATOM      9  C   UNL     1     -41.293 -48.442  37.293  1.00  0.00     0.000 C 
BRANCH   9  10
ATOM     10  C   UNL     1     -42.437 -49.221  37.960  1.00  0.00     0.000 C 
BRANCH  10  11
ATOM     11  C   UNL     1     -43.817 -48.602  37.686  1.00  0.00     0.000 C 
BRANCH  11  12
ATOM     12  C   UNL     1     -44.559 -48.312  38.995  1.00  0.00     0.000 C 
BRANCH  12  13
ATOM     13  C   UNL     1     -43.589 -47.842  40.087  1.00  0.00     0.006 C 
BRANCH  13  14
ATOM     14  C   UNL     1     -43.558 -46.311  40.167  1.00  0.00     0.053 C 
BRANCH  14  15
ATOM     15  C   UNL     1     -42.685 -45.852  41.294  1.00  0.00     0.041 C 
ATOM     16  O   UNL     1     -42.217 -44.683  41.298  1.00  0.00    -0.550 OA
ATOM     17  O   UNL     1     -42.414 -46.706  42.360  1.00  0.00    -0.550 OA
ENDBRANCH  14  15
ENDBRANCH  13  14
ENDBRANCH  12  13
ENDBRANCH  11  12
ENDBRANCH  10  11
ENDBRANCH   9  10
ENDBRANCH   8   9
ENDBRANCH   7   8
ENDBRANCH   6   7
ENDBRANCH   5   6
ENDBRANCH   4   5
ENDBRANCH   3   4
ENDBRANCH   2   3
ENDBRANCH   1   2
BRANCH   1  18
ATOM     18  C   UNL     1     -42.775 -54.685  36.474  1.00  0.00     0.000 C 
BRANCH  18  19
ATOM     19  C   UNL     1     -43.820 -54.592  37.603  1.00  0.00     0.000 C 
BRANCH  19  20
ATOM     20  C   UNL     1     -43.725 -53.323  38.471  1.00  0.00     0.000 C 
BRANCH  20  21
ATOM     21  C   UNL     1     -44.737 -52.244  38.056  1.00  0.00     0.000 C 
BRANCH  21  22
ATOM     22  C   UNL     1     -45.865 -52.799  37.172  1.00  0.00     0.000 C 
BRANCH  22  23
ATOM     23  C   UNL     1     -47.244 -52.236  37.564  1.00  0.00     0.000 C 
BRANCH  23  24
ATOM     24  C   UNL     1     -48.170 -53.308  38.156  1.00  0.00    -0.000 C 
BRANCH  24  25
ATOM     25  C   UNL     1     -47.399 -54.517  38.717  1.00  0.00    -0.000 C 
BRANCH  25  26
ATOM     26  C   UNL     1     -47.415 -54.597  40.254  1.00  0.00    -0.000 C 
BRANCH  26  27
ATOM     27  C   UNL     1     -48.562 -53.810  40.924  1.00  0.00    -0.000 C 
BRANCH  27  28
ATOM     28  C   UNL     1     -48.127 -52.705  41.911  1.00  0.00    -0.000 C 
BRANCH  28  29
ATOM     29  C   UNL     1     -48.077 -51.276  41.337  1.00  0.00    -0.000 C 
BRANCH  29  30
ATOM     30  C   UNL     1     -46.652 -50.802  41.016  1.00  0.00    -0.000 C 
BRANCH  30  31
ATOM     31  C   UNL     1     -45.612 -51.669  41.737  1.00  0.00    -0.003 C 
ATOM     32  C   UNL     1     -44.197 -51.155  41.487  1.00  0.00     0.004 C 
ENDBRANCH  30  31
ENDBRANCH  29  30
ENDBRANCH  28  29
ENDBRANCH  27  28
ENDBRANCH  26  27
ENDBRANCH  25  26
ENDBRANCH  24  25
ENDBRANCH  23  24
ENDBRANCH  22  23
ENDBRANCH  21  22
ENDBRANCH  20  21
ENDBRANCH  19  20
ENDBRANCH  18  19
ENDBRANCH   1  18
TORSDOF 28
ENDMDL
MODEL 8
REMARK VINA RESULT:    -3.810      2.320      6.962
REMARK INTER + INTRA:         -15.673
REMARK INTER:                 -10.066
REMARK INTRA:                  -5.607
REMARK UNBOUND:                -5.625
REMARK SMILES CCCCCCCCCCCCCCCCCCCCCCCCCCCCCC(=O)[O-]
REMARK SMILES IDX 16 1 17 2 18 3 19 4 20 5 21 6 22 7 23 8 24 9 25 10 26 11
REMARK SMILES IDX 27 12 28 13 29 14 30 15 31 16 32 17 15 18 14 19 13 20 12 21
REMARK SMILES IDX 11 22 10 23 9 24 8 25 7 26 6 27 5 28 4 29 3 30 2 31 1 32
REMARK H PARENT
REMARK Flexibility Score: inf
ROOT
ATOM      1  C   UNL     1     -44.453 -53.448  38.390  1.00  0.00     0.000 C 
ENDROOT
BRANCH   1   2
ATOM      2  C   UNL     1     -43.730 -52.140  38.761  1.00  0.00     0.000 C 
BRANCH   2   3
ATOM      3  C   UNL     1     -43.574 -51.898  40.279  1.00  0.00     0.000 C 
BRANCH   3   4
ATOM      4  C   UNL     1     -43.954 -50.476  40.739  1.00  0.00     0.000 C 
BRANCH   4   5
ATOM      5  C   UNL     1     -43.708 -49.389  39.675  1.00  0.00     0.000 C 
BRANCH   5   6
ATOM      6  C   UNL     1     -44.996 -48.640  39.295  1.00  0.00     0.000 C 
BRANCH   6   7
ATOM      7  C   UNL     1     -45.483 -48.961  37.869  1.00  0.00     0.000 C 
BRANCH   7   8
ATOM      8  C   UNL     1     -44.418 -48.718  36.778  1.00  0.00     0.000 C 
BRANCH   8   9
ATOM      9  C   UNL     1     -44.348 -49.876  35.768  1.00  0.00     0.000 C 
BRANCH   9  10
ATOM     10  C   UNL     1     -43.287 -49.662  34.678  1.00  0.00     0.000 C 
BRANCH  10  11
ATOM     11  C   UNL     1     -42.519 -48.341  34.847  1.00  0.00     0.000 C 
BRANCH  11  12
ATOM     12  C   UNL     1     -41.027 -48.532  34.556  1.00  0.00     0.000 C 
BRANCH  12  13
ATOM     13  C   UNL     1     -40.177 -48.204  35.791  1.00  0.00     0.006 C 
BRANCH  13  14
ATOM     14  C   UNL     1     -40.941 -48.525  37.080  1.00  0.00     0.053 C 
BRANCH  14  15
ATOM     15  C   UNL     1     -40.441 -49.795  37.696  1.00  0.00     0.041 C 
ATOM     16  O   UNL     1     -39.563 -49.760  38.598  1.00  0.00    -0.550 OA
ATOM     17  O   UNL     1     -40.969 -51.020  37.297  1.00  0.00    -0.550 OA
ENDBRANCH  14  15
ENDBRANCH  13  14
ENDBRANCH  12  13
ENDBRANCH  11  12
ENDBRANCH  10  11
ENDBRANCH   9  10
ENDBRANCH   8   9
ENDBRANCH   7   8
ENDBRANCH   6   7
ENDBRANCH   5   6
ENDBRANCH   4   5
ENDBRANCH   3   4
ENDBRANCH   2   3
ENDBRANCH   1   2
BRANCH   1  18
ATOM     18  C   UNL     1     -45.283 -53.329  37.101  1.00  0.00     0.000 C 
BRANCH  18  19
ATOM     19  C   UNL     1     -46.531 -52.441  37.276  1.00  0.00     0.000 C 
BRANCH  19  20
ATOM     20  C   UNL     1     -47.776 -53.171  37.812  1.00  0.00     0.000 C 
BRANCH  20  21
ATOM     21  C   UNL     1     -48.009 -52.921  39.311  1.00  0.00     0.000 C 
BRANCH  21  22
ATOM     22  C   UNL     1     -47.317 -51.644  39.813  1.00  0.00     0.000 C 
BRANCH  22  23
ATOM     23  C   UNL     1     -47.489 -51.444  41.329  1.00  0.00     0.000 C 
BRANCH  23  24
ATOM     24  C   UNL     1     -48.418 -52.492  41.959  1.00  0.00    -0.000 C 
BRANCH  24  25
ATOM     25  C   UNL     1     -47.654 -53.553  42.771  1.00  0.00    -0.000 C 
BRANCH  25  26
ATOM     26  C   UNL     1     -46.135 -53.543  42.520  1.00  0.00    -0.000 C 
BRANCH  26  27
ATOM     27  C   UNL     1     -45.562 -54.882  42.006  1.00  0.00    -0.000 C 
BRANCH  27  28
ATOM     28  C   UNL     1     -46.476 -55.677  41.049  1.00  0.00    -0.000 C 
BRANCH  28  29
ATOM     29  C   UNL     1     -45.755 -56.503  39.966  1.00  0.00    -0.000 C 
BRANCH  29  30
ATOM     30  C   UNL     1     -46.490 -56.507  38.617  1.00  0.00    -0.000 C 
BRANCH  30  31
ATOM     31  C   UNL     1     -47.945 -56.959  38.790  1.00  0.00    -0.003 C 
ATOM     32  C   UNL     1     -48.139 -58.392  38.301  1.00  0.00     0.004 C 
ENDBRANCH  30  31
ENDBRANCH  29  30
ENDBRANCH  28  29
ENDBRANCH  27  28
ENDBRANCH  26  27
ENDBRANCH  25  26
ENDBRANCH  24  25
ENDBRANCH  23  24
ENDBRANCH  22  23
ENDBRANCH  21  22
ENDBRANCH  20  21
ENDBRANCH  19  20
ENDBRANCH  18  19
ENDBRANCH   1  18
TORSDOF 28
ENDMDL
MODEL 9
REMARK VINA RESULT:    -3.808      1.552      7.143
REMARK INTER + INTRA:         -15.666
REMARK INTER:                 -10.286
REMARK INTRA:                  -5.380
REMARK UNBOUND:                -5.625
REMARK SMILES CCCCCCCCCCCCCCCCCCCCCCCCCCCCCC(=O)[O-]
REMARK SMILES IDX 16 1 17 2 18 3 19 4 20 5 21 6 22 7 23 8 24 9 25 10 26 11
REMARK SMILES IDX 27 12 28 13 29 14 30 15 31 16 32 17 15 18 14 19 13 20 12 21
REMARK SMILES IDX 11 22 10 23 9 24 8 25 7 26 6 27 5 28 4 29 3 30 2 31 1 32
REMARK H PARENT
REMARK Flexibility Score: inf
ROOT
ATOM      1  C   UNL     1     -42.618 -49.898  38.706  1.00  0.00     0.000 C 
ENDROOT
BRANCH   1   2
ATOM      2  C   UNL     1     -43.118 -51.141  37.948  1.00  0.00     0.000 C 
BRANCH   2   3
ATOM      3  C   UNL     1     -42.498 -51.332  36.545  1.00  0.00     0.000 C 
BRANCH   3   4
ATOM      4  C   UNL     1     -43.480 -51.096  35.378  1.00  0.00     0.000 C 
BRANCH   4   5
ATOM      5  C   UNL     1     -42.919 -50.187  34.267  1.00  0.00     0.000 C 
BRANCH   5   6
ATOM      6  C   UNL     1     -43.032 -48.695  34.618  1.00  0.00     0.000 C 
BRANCH   6   7
ATOM      7  C   UNL     1     -41.669 -48.035  34.900  1.00  0.00     0.000 C 
BRANCH   7   8
ATOM      8  C   UNL     1     -40.468 -48.987  34.717  1.00  0.00     0.000 C 
BRANCH   8   9
ATOM      9  C   UNL     1     -39.280 -48.601  35.616  1.00  0.00     0.000 C 
BRANCH   9  10
ATOM     10  C   UNL     1     -39.433 -49.096  37.062  1.00  0.00     0.000 C 
BRANCH  10  11
ATOM     11  C   UNL     1     -39.319 -47.963  38.094  1.00  0.00     0.000 C 
BRANCH  11  12
ATOM     12  C   UNL     1     -39.391 -48.511  39.523  1.00  0.00     0.000 C 
BRANCH  12  13
ATOM     13  C   UNL     1     -39.621 -47.383  40.537  1.00  0.00     0.006 C 
BRANCH  13  14
ATOM     14  C   UNL     1     -41.097 -46.971  40.570  1.00  0.00     0.053 C 
BRANCH  14  15
ATOM     15  C   UNL     1     -41.250 -45.571  41.081  1.00  0.00     0.041 C 
ATOM     16  O   UNL     1     -42.311 -45.221  41.661  1.00  0.00    -0.550 OA
ATOM     17  O   UNL     1     -40.205 -44.661  40.947  1.00  0.00    -0.550 OA
ENDBRANCH  14  15
ENDBRANCH  13  14
ENDBRANCH  12  13
ENDBRANCH  11  12
ENDBRANCH  10  11
ENDBRANCH   9  10
ENDBRANCH   8   9
ENDBRANCH   7   8
ENDBRANCH   6   7
ENDBRANCH   5   6
ENDBRANCH   4   5
ENDBRANCH   3   4
ENDBRANCH   2   3
ENDBRANCH   1   2
BRANCH   1  18
ATOM     18  C   UNL     1     -43.315 -48.602  38.258  1.00  0.00     0.000 C 
BRANCH  18  19
ATOM     19  C   UNL     1     -44.808 -48.566  38.640  1.00  0.00     0.000 C 
BRANCH  19  20
ATOM     20  C   UNL     1     -45.777 -48.404  37.455  1.00  0.00     0.000 C 
BRANCH  20  21
ATOM     21  C   UNL     1     -47.037 -49.272  37.598  1.00  0.00     0.000 C 
BRANCH  21  22
ATOM     22  C   UNL     1     -46.947 -50.582  36.799  1.00  0.00     0.000 C 
BRANCH  22  23
ATOM     23  C   UNL     1     -46.426 -51.751  37.654  1.00  0.00     0.000 C 
BRANCH  23  24
ATOM     24  C   UNL     1     -47.479 -52.851  37.851  1.00  0.00    -0.000 C 
BRANCH  24  25
ATOM     25  C   UNL     1     -46.885 -54.146  38.434  1.00  0.00    -0.000 C 
BRANCH  25  26
ATOM     26  C   UNL     1     -47.847 -54.894  39.375  1.00  0.00    -0.000 C 
BRANCH  26  27
ATOM     27  C   UNL     1     -47.918 -54.321  40.807  1.00  0.00    -0.000 C 
BRANCH  27  28
ATOM     28  C   UNL     1     -49.150 -53.445  41.117  1.00  0.00    -0.000 C 
BRANCH  28  29
ATOM     29  C   UNL     1     -48.870 -51.944  41.327  1.00  0.00    -0.000 C 
BRANCH  29  30
ATOM     30  C   UNL     1     -47.528 -51.670  42.020  1.00  0.00    -0.000 C 
BRANCH  30  31
ATOM     31  C   UNL     1     -46.630 -50.789  41.144  1.00  0.00    -0.003 C 
ATOM     32  C   UNL     1     -45.195 -51.310  41.125  1.00  0.00     0.004 C 
ENDBRANCH  30  31
ENDBRANCH  29  30
ENDBRANCH  28  29
ENDBRANCH  27  28
ENDBRANCH  26  27
ENDBRANCH  25  26
ENDBRANCH  24  25
ENDBRANCH  23  24
ENDBRANCH  22  23
ENDBRANCH  21  22
ENDBRANCH  20  21
ENDBRANCH  19  20
ENDBRANCH  18  19
ENDBRANCH   1  18
TORSDOF 28
ENDMDL
