MODEL 1
REMARK VINA RESULT:    -1.798      0.000      0.000
REMARK INTER + INTRA:          -2.266
REMARK INTER:                  -3.375
REMARK INTRA:                   1.108
REMARK UNBOUND:                 1.108
REMARK SMILES CCCCCCCCC=CCCCCCCCC(=O)[O-]
REMARK SMILES IDX 10 1 9 2 11 3 12 4 13 5 14 6 15 7 16 8 17 9 18 10 19 11
REMARK SMILES IDX 20 12 8 13 7 14 6 15 5 16 4 17 3 18 2 19 1 20
REMARK H PARENT
REMARK Flexibility Score: inf
ROOT
ATOM      1  C   UNL     1      -9.863 -33.435   3.268  1.00  0.00    -0.031 C 
ATOM      2  C   UNL     1     -10.732 -34.420   2.992  1.00  0.00    -0.031 C 
ENDROOT
BRANCH   1   3
ATOM      3  C   UNL     1      -9.737 -32.862   4.653  1.00  0.00     0.027 C 
BRANCH   3   4
ATOM      4  C   UNL     1     -11.081 -32.912   5.396  1.00  0.00     0.004 C 
BRANCH   4   5
ATOM      5  C   UNL     1     -11.094 -33.950   6.530  1.00  0.00     0.000 C 
BRANCH   5   6
ATOM      6  C   UNL     1     -11.026 -35.395   6.007  1.00  0.00     0.000 C 
BRANCH   6   7
ATOM      7  C   UNL     1      -9.654 -35.740   5.404  1.00  0.00     0.000 C 
BRANCH   7   8
ATOM      8  C   UNL     1      -8.595 -36.049   6.476  1.00  0.00     0.006 C 
BRANCH   8   9
ATOM      9  C   UNL     1      -7.180 -36.124   5.888  1.00  0.00     0.053 C 
BRANCH   9  10
ATOM     10  C   UNL     1      -6.926 -35.022   4.904  1.00  0.00     0.041 C 
ATOM     11  O   UNL     1      -6.264 -34.007   5.249  1.00  0.00    -0.550 OA
ATOM     12  O   UNL     1      -7.447 -35.100   3.620  1.00  0.00    -0.550 OA
ENDBRANCH   9  10
ENDBRANCH   8   9
ENDBRANCH   7   8
ENDBRANCH   6   7
ENDBRANCH   5   6
ENDBRANCH   4   5
ENDBRANCH   3   4
ENDBRANCH   1   3
BRANCH   2  13
ATOM     13  C   UNL     1     -10.853 -34.999   1.609  1.00  0.00     0.027 C 
BRANCH  13  14
ATOM     14  C   UNL     1      -9.488 -35.445   1.072  1.00  0.00     0.004 C 
BRANCH  14  15
ATOM     15  C   UNL     1      -9.602 -35.930  -0.379  1.00  0.00     0.000 C 
BRANCH  15  16
ATOM     16  C   UNL     1     -11.050 -35.848  -0.876  1.00  0.00     0.000 C 
BRANCH  16  17
ATOM     17  C   UNL     1     -11.125 -36.080  -2.391  1.00  0.00    -0.000 C 
BRANCH  17  18
ATOM     18  C   UNL     1     -10.840 -34.808  -3.208  1.00  0.00    -0.000 C 
BRANCH  18  19
ATOM     19  C   UNL     1     -11.033 -33.503  -2.406  1.00  0.00    -0.003 C 
ATOM     20  C   UNL     1     -10.517 -32.277  -3.159  1.00  0.00     0.004 C 
ENDBRANCH  18  19
ENDBRANCH  17  18
ENDBRANCH  16  17
ENDBRANCH  15  16
ENDBRANCH  14  15
ENDBRANCH  13  14
ENDBRANCH   2  13
TORSDOF 15
ENDMDL
MODEL 2
REMARK VINA RESULT:    -1.534      2.086      2.903
REMARK INTER + INTRA:          -1.771
REMARK INTER:                  -3.404
REMARK INTRA:                   1.634
REMARK UNBOUND:                 1.108
REMARK SMILES CCCCCCCCC=CCCCCCCCC(=O)[O-]
REMARK SMILES IDX 10 1 9 2 11 3 12 4 13 5 14 6 15 7 16 8 17 9 18 10 19 11
REMARK SMILES IDX 20 12 8 13 7 14 6 15 5 16 4 17 3 18 2 19 1 20
REMARK H PARENT
REMARK Flexibility Score: inf
ROOT
ATOM      1  C   UNL     1      -8.400 -33.891   2.260  1.00  0.00    -0.031 C 
ATOM      2  C   UNL     1      -7.795 -34.923   1.652  1.00  0.00    -0.031 C 
ENDROOT
BRANCH   1   3
ATOM      3  C   UNL     1      -7.831 -33.267   3.505  1.00  0.00     0.027 C 
BRANCH   3   4
ATOM      4  C   UNL     1      -8.694 -33.596   4.732  1.00  0.00     0.004 C 
BRANCH   4   5
ATOM      5  C   UNL     1     -10.031 -32.837   4.740  1.00  0.00     0.000 C 
BRANCH   5   6
ATOM      6  C   UNL     1     -11.008 -33.353   3.669  1.00  0.00     0.000 C 
BRANCH   6   7
ATOM      7  C   UNL     1     -11.022 -34.887   3.574  1.00  0.00     0.000 C 
BRANCH   7   8
ATOM      8  C   UNL     1     -10.218 -35.559   4.700  1.00  0.00     0.006 C 
BRANCH   8   9
ATOM      9  C   UNL     1     -11.125 -36.125   5.801  1.00  0.00     0.053 C 
BRANCH   9  10
ATOM     10  C   UNL     1     -11.089 -35.284   7.041  1.00  0.00     0.041 C 
ATOM     11  O   UNL     1     -11.074 -34.027   6.953  1.00  0.00    -0.550 OA
ATOM     12  O   UNL     1     -11.036 -35.887   8.291  1.00  0.00    -0.550 OA
ENDBRANCH   9  10
ENDBRANCH   8   9
ENDBRANCH   7   8
ENDBRANCH   6   7
ENDBRANCH   5   6
ENDBRANCH   4   5
ENDBRANCH   3   4
ENDBRANCH   1   3
BRANCH   2  13
ATOM     13  C   UNL     1      -8.360 -35.543   0.404  1.00  0.00     0.027 C 
BRANCH  13  14
ATOM     14  C   UNL     1      -9.774 -36.083   0.642  1.00  0.00     0.004 C 
BRANCH  14  15
ATOM     15  C   UNL     1     -10.797 -35.350  -0.235  1.00  0.00     0.000 C 
BRANCH  15  16
ATOM     16  C   UNL     1     -11.070 -36.125  -1.529  1.00  0.00     0.000 C 
BRANCH  16  17
ATOM     17  C   UNL     1     -10.911 -35.217  -2.757  1.00  0.00    -0.000 C 
BRANCH  17  18
ATOM     18  C   UNL     1     -11.094 -33.726  -2.427  1.00  0.00    -0.000 C 
BRANCH  18  19
ATOM     19  C   UNL     1     -10.482 -32.779  -3.482  1.00  0.00    -0.003 C 
ATOM     20  C   UNL     1     -10.930 -31.330  -3.293  1.00  0.00     0.004 C 
ENDBRANCH  18  19
ENDBRANCH  17  18
ENDBRANCH  16  17
ENDBRANCH  15  16
ENDBRANCH  14  15
ENDBRANCH  13  14
ENDBRANCH   2  13
TORSDOF 15
ENDMDL
MODEL 3
REMARK VINA RESULT:    -1.064      1.894      2.936
REMARK INTER + INTRA:          -0.888
REMARK INTER:                  -3.289
REMARK INTRA:                   2.401
REMARK UNBOUND:                 1.108
REMARK SMILES CCCCCCCCC=CCCCCCCCC(=O)[O-]
REMARK SMILES IDX 10 1 9 2 11 3 12 4 13 5 14 6 15 7 16 8 17 9 18 10 19 11
REMARK SMILES IDX 20 12 8 13 7 14 6 15 5 16 4 17 3 18 2 19 1 20
REMARK H PARENT
REMARK Flexibility Score: inf
ROOT
ATOM      1  C   UNL     1      -8.326 -34.356   2.810  1.00  0.00    -0.031 C 
ATOM      2  C   UNL     1      -8.005 -34.803   1.586  1.00  0.00    -0.031 C 
ENDROOT
BRANCH   1   3
ATOM      3  C   UNL     1      -7.649 -33.155   3.412  1.00  0.00     0.027 C 
BRANCH   3   4
ATOM      4  C   UNL     1      -6.871 -33.537   4.681  1.00  0.00     0.004 C 
BRANCH   4   5
ATOM      5  C   UNL     1      -7.405 -34.818   5.342  1.00  0.00     0.000 C 
BRANCH   5   6
ATOM      6  C   UNL     1      -7.999 -35.805   4.322  1.00  0.00     0.000 C 
BRANCH   6   7
ATOM      7  C   UNL     1      -9.491 -36.082   4.568  1.00  0.00     0.000 C 
BRANCH   7   8
ATOM      8  C   UNL     1      -9.913 -35.808   6.022  1.00  0.00     0.006 C 
BRANCH   8   9
ATOM      9  C   UNL     1     -11.098 -34.837   6.109  1.00  0.00     0.053 C 
BRANCH   9  10
ATOM     10  C   UNL     1     -10.724 -33.458   5.657  1.00  0.00     0.041 C 
ATOM     11  O   UNL     1     -10.078 -32.694   6.423  1.00  0.00    -0.550 OA
ATOM     12  O   UNL     1     -11.118 -33.003   4.405  1.00  0.00    -0.550 OA
ENDBRANCH   9  10
ENDBRANCH   8   9
ENDBRANCH   7   8
ENDBRANCH   6   7
ENDBRANCH   5   6
ENDBRANCH   4   5
ENDBRANCH   3   4
ENDBRANCH   1   3
BRANCH   2  13
ATOM     13  C   UNL     1      -8.686 -35.999   0.980  1.00  0.00     0.027 C 
BRANCH  13  14
ATOM     14  C   UNL     1     -10.132 -36.125   1.474  1.00  0.00     0.004 C 
BRANCH  14  15
ATOM     15  C   UNL     1     -11.125 -35.902   0.327  1.00  0.00     0.000 C 
BRANCH  15  16
ATOM     16  C   UNL     1     -10.984 -34.491  -0.257  1.00  0.00     0.000 C 
BRANCH  16  17
ATOM     17  C   UNL     1     -10.758 -34.545  -1.775  1.00  0.00    -0.000 C 
BRANCH  17  18
ATOM     18  C   UNL     1     -11.059 -35.928  -2.376  1.00  0.00    -0.000 C 
BRANCH  18  19
ATOM     19  C   UNL     1     -10.765 -36.022  -3.889  1.00  0.00    -0.003 C 
ATOM     20  C   UNL     1     -10.807 -34.657  -4.575  1.00  0.00     0.004 C 
ENDBRANCH  18  19
ENDBRANCH  17  18
ENDBRANCH  16  17
ENDBRANCH  15  16
ENDBRANCH  14  15
ENDBRANCH  13  14
ENDBRANCH   2  13
TORSDOF 15
ENDMDL
MODEL 4
REMARK VINA RESULT:    -0.920      2.952      6.762
REMARK INTER + INTRA:          -0.619
REMARK INTER:                  -1.616
REMARK INTRA:                   0.997
REMARK UNBOUND:                 1.108
REMARK SMILES CCCCCCCCC=CCCCCCCCC(=O)[O-]
REMARK SMILES IDX 10 1 9 2 11 3 12 4 13 5 14 6 15 7 16 8 17 9 18 10 19 11
REMARK SMILES IDX 20 12 8 13 7 14 6 15 5 16 4 17 3 18 2 19 1 20
REMARK H PARENT
REMARK Flexibility Score: inf
ROOT
ATOM      1  C   UNL     1      -7.320 -33.357   4.088  1.00  0.00    -0.031 C 
ATOM      2  C   UNL     1      -7.344 -34.695   4.177  1.00  0.00    -0.031 C 
ENDROOT
BRANCH   1   3
ATOM      3  C   UNL     1      -7.679 -32.646   2.812  1.00  0.00     0.027 C 
BRANCH   3   4
ATOM      4  C   UNL     1      -7.960 -33.648   1.682  1.00  0.00     0.004 C 
BRANCH   4   5
ATOM      5  C   UNL     1      -9.455 -33.978   1.539  1.00  0.00     0.000 C 
BRANCH   5   6
ATOM      6  C   UNL     1      -9.740 -35.485   1.655  1.00  0.00     0.000 C 
BRANCH   6   7
ATOM      7  C   UNL     1     -10.987 -35.913   0.863  1.00  0.00     0.000 C 
BRANCH   7   8
ATOM      8  C   UNL     1     -11.125 -35.165  -0.474  1.00  0.00     0.006 C 
BRANCH   8   9
ATOM      9  C   UNL     1     -10.617 -35.999  -1.659  1.00  0.00     0.053 C 
BRANCH   9  10
ATOM     10  C   UNL     1     -10.726 -35.253  -2.954  1.00  0.00     0.041 C 
ATOM     11  O   UNL     1     -10.756 -35.882  -4.045  1.00  0.00    -0.550 OA
ATOM     12  O   UNL     1     -10.759 -33.865  -2.958  1.00  0.00    -0.550 OA
ENDBRANCH   9  10
ENDBRANCH   8   9
ENDBRANCH   7   8
ENDBRANCH   6   7
ENDBRANCH   5   6
ENDBRANCH   4   5
ENDBRANCH   3   4
ENDBRANCH   1   3
BRANCH   2  13
ATOM     13  C   UNL     1      -6.992 -35.406   5.455  1.00  0.00     0.027 C 
BRANCH  13  14
ATOM     14  C   UNL     1      -8.215 -36.107   6.057  1.00  0.00     0.004 C 
BRANCH  14  15
ATOM     15  C   UNL     1      -9.385 -36.116   5.065  1.00  0.00     0.000 C 
BRANCH  15  16
ATOM     16  C   UNL     1     -10.118 -34.769   5.065  1.00  0.00     0.000 C 
BRANCH  16  17
ATOM     17  C   UNL     1     -10.788 -34.509   6.422  1.00  0.00    -0.000 C 
BRANCH  17  18
ATOM     18  C   UNL     1     -10.918 -33.011   6.748  1.00  0.00    -0.000 C 
BRANCH  18  19
ATOM     19  C   UNL     1     -11.062 -32.116   5.499  1.00  0.00    -0.003 C 
ATOM     20  C   UNL     1     -11.068 -32.923   4.202  1.00  0.00     0.004 C 
ENDBRANCH  18  19
ENDBRANCH  17  18
ENDBRANCH  16  17
ENDBRANCH  15  16
ENDBRANCH  14  15
ENDBRANCH  13  14
ENDBRANCH   2  13
TORSDOF 15
ENDMDL
MODEL 5
REMARK VINA RESULT:    -0.826      1.591      3.054
REMARK INTER + INTRA:          -0.442
REMARK INTER:                  -0.558
REMARK INTRA:                   0.117
REMARK UNBOUND:                 1.108
REMARK SMILES CCCCCCCCC=CCCCCCCCC(=O)[O-]
REMARK SMILES IDX 10 1 9 2 11 3 12 4 13 5 14 6 15 7 16 8 17 9 18 10 19 11
REMARK SMILES IDX 20 12 8 13 7 14 6 15 5 16 4 17 3 18 2 19 1 20
REMARK H PARENT
REMARK Flexibility Score: inf
ROOT
ATOM      1  C   UNL     1      -7.517 -33.421   4.266  1.00  0.00    -0.031 C 
ATOM      2  C   UNL     1      -7.779 -33.412   2.949  1.00  0.00    -0.031 C 
ENDROOT
BRANCH   1   3
ATOM      3  C   UNL     1      -6.160 -33.795   4.795  1.00  0.00     0.027 C 
BRANCH   3   4
ATOM      4  C   UNL     1      -6.203 -35.153   5.513  1.00  0.00     0.004 C 
BRANCH   4   5
ATOM      5  C   UNL     1      -7.363 -36.041   5.035  1.00  0.00     0.000 C 
BRANCH   5   6
ATOM      6  C   UNL     1      -8.577 -35.984   5.979  1.00  0.00     0.000 C 
BRANCH   6   7
ATOM      7  C   UNL     1      -9.913 -36.125   5.232  1.00  0.00     0.000 C 
BRANCH   7   8
ATOM      8  C   UNL     1     -11.124 -35.761   6.108  1.00  0.00     0.006 C 
BRANCH   8   9
ATOM      9  C   UNL     1     -10.921 -34.437   6.857  1.00  0.00     0.053 C 
BRANCH   9  10
ATOM     10  C   UNL     1     -10.424 -33.353   5.949  1.00  0.00     0.041 C 
ATOM     11  O   UNL     1     -11.119 -32.984   4.965  1.00  0.00    -0.550 OA
ATOM     12  O   UNL     1      -9.181 -32.775   6.169  1.00  0.00    -0.550 OA
ENDBRANCH   9  10
ENDBRANCH   8   9
ENDBRANCH   7   8
ENDBRANCH   6   7
ENDBRANCH   5   6
ENDBRANCH   4   5
ENDBRANCH   3   4
ENDBRANCH   1   3
BRANCH   2  13
ATOM     13  C   UNL     1      -9.133 -33.029   2.419  1.00  0.00     0.027 C 
BRANCH  13  14
ATOM     14  C   UNL     1     -10.018 -34.264   2.212  1.00  0.00     0.004 C 
BRANCH  14  15
ATOM     15  C   UNL     1      -9.695 -34.953   0.880  1.00  0.00     0.000 C 
BRANCH  15  16
ATOM     16  C   UNL     1     -10.884 -35.788   0.390  1.00  0.00     0.000 C 
BRANCH  16  17
ATOM     17  C   UNL     1     -11.119 -35.580  -1.113  1.00  0.00    -0.000 C 
BRANCH  17  18
ATOM     18  C   UNL     1     -11.075 -34.099  -1.528  1.00  0.00    -0.000 C 
BRANCH  18  19
ATOM     19  C   UNL     1     -10.738 -33.884  -3.019  1.00  0.00    -0.003 C 
ATOM     20  C   UNL     1     -10.324 -32.444  -3.320  1.00  0.00     0.004 C 
ENDBRANCH  18  19
ENDBRANCH  17  18
ENDBRANCH  16  17
ENDBRANCH  15  16
ENDBRANCH  14  15
ENDBRANCH  13  14
ENDBRANCH   2  13
TORSDOF 15
ENDMDL
MODEL 6
REMARK VINA RESULT:    -0.749      3.166      7.149
REMARK INTER + INTRA:          -0.297
REMARK INTER:                   0.181
REMARK INTRA:                  -0.478
REMARK UNBOUND:                 1.108
REMARK SMILES CCCCCCCCC=CCCCCCCCC(=O)[O-]
REMARK SMILES IDX 10 1 9 2 11 3 12 4 13 5 14 6 15 7 16 8 17 9 18 10 19 11
REMARK SMILES IDX 20 12 8 13 7 14 6 15 5 16 4 17 3 18 2 19 1 20
REMARK H PARENT
REMARK Flexibility Score: inf
ROOT
ATOM      1  C   UNL     1      -9.293 -33.028   2.796  1.00  0.00    -0.031 C 
ATOM      2  C   UNL     1      -8.391 -33.748   3.481  1.00  0.00    -0.031 C 
ENDROOT
BRANCH   1   3
ATOM      3  C   UNL     1     -10.655 -33.578   2.471  1.00  0.00     0.027 C 
BRANCH   3   4
ATOM      4  C   UNL     1     -10.622 -35.111   2.368  1.00  0.00     0.004 C 
BRANCH   4   5
ATOM      5  C   UNL     1     -11.041 -35.622   0.980  1.00  0.00     0.000 C 
BRANCH   5   6
ATOM      6  C   UNL     1      -9.847 -36.123   0.150  1.00  0.00     0.000 C 
BRANCH   6   7
ATOM      7  C   UNL     1      -9.954 -35.734  -1.333  1.00  0.00     0.000 C 
BRANCH   7   8
ATOM      8  C   UNL     1     -11.123 -34.774  -1.612  1.00  0.00     0.006 C 
BRANCH   8   9
ATOM      9  C   UNL     1     -10.640 -33.382  -2.039  1.00  0.00     0.053 C 
BRANCH   9  10
ATOM     10  C   UNL     1     -10.484 -33.277  -3.526  1.00  0.00     0.041 C 
ATOM     11  O   UNL     1     -10.663 -34.289  -4.254  1.00  0.00    -0.550 OA
ATOM     12  O   UNL     1     -10.108 -32.071  -4.104  1.00  0.00    -0.550 OA
ENDBRANCH   9  10
ENDBRANCH   8   9
ENDBRANCH   7   8
ENDBRANCH   6   7
ENDBRANCH   5   6
ENDBRANCH   4   5
ENDBRANCH   3   4
ENDBRANCH   1   3
BRANCH   2  13
ATOM     13  C   UNL     1      -7.032 -33.195   3.813  1.00  0.00     0.027 C 
BRANCH  13  14
ATOM     14  C   UNL     1      -6.272 -34.124   4.767  1.00  0.00     0.004 C 
BRANCH  14  15
ATOM     15  C   UNL     1      -7.239 -34.849   5.713  1.00  0.00     0.000 C 
BRANCH  15  16
ATOM     16  C   UNL     1      -7.827 -36.098   5.047  1.00  0.00     0.000 C 
BRANCH  16  17
ATOM     17  C   UNL     1      -9.359 -36.021   4.992  1.00  0.00    -0.000 C 
BRANCH  17  18
ATOM     18  C   UNL     1      -9.987 -35.614   6.336  1.00  0.00    -0.000 C 
BRANCH  18  19
ATOM     19  C   UNL     1     -11.048 -34.499   6.211  1.00  0.00    -0.003 C 
ATOM     20  C   UNL     1     -10.427 -33.103   6.204  1.00  0.00     0.004 C 
ENDBRANCH  18  19
ENDBRANCH  17  18
ENDBRANCH  16  17
ENDBRANCH  15  16
ENDBRANCH  14  15
ENDBRANCH  13  14
ENDBRANCH   2  13
TORSDOF 15
ENDMDL
MODEL 7
REMARK VINA RESULT:    -0.453      1.529      2.849
REMARK INTER + INTRA:           0.259
REMARK INTER:                   0.727
REMARK INTRA:                  -0.469
REMARK UNBOUND:                 1.108
REMARK SMILES CCCCCCCCC=CCCCCCCCC(=O)[O-]
REMARK SMILES IDX 10 1 9 2 11 3 12 4 13 5 14 6 15 7 16 8 17 9 18 10 19 11
REMARK SMILES IDX 20 12 8 13 7 14 6 15 5 16 4 17 3 18 2 19 1 20
REMARK H PARENT
REMARK Flexibility Score: inf
ROOT
ATOM      1  C   UNL     1      -7.372 -35.121   3.790  1.00  0.00    -0.031 C 
ATOM      2  C   UNL     1      -7.157 -36.097   2.894  1.00  0.00    -0.031 C 
ENDROOT
BRANCH   1   3
ATOM      3  C   UNL     1      -6.896 -35.239   5.212  1.00  0.00     0.027 C 
BRANCH   3   4
ATOM      4  C   UNL     1      -7.841 -36.125   6.039  1.00  0.00     0.004 C 
BRANCH   4   5
ATOM      5  C   UNL     1      -8.946 -35.320   6.741  1.00  0.00     0.000 C 
BRANCH   5   6
ATOM      6  C   UNL     1     -10.314 -36.024   6.686  1.00  0.00     0.000 C 
BRANCH   6   7
ATOM      7  C   UNL     1     -11.054 -35.771   5.362  1.00  0.00     0.000 C 
BRANCH   7   8
ATOM      8  C   UNL     1     -11.123 -34.278   4.996  1.00  0.00     0.006 C 
BRANCH   8   9
ATOM      9  C   UNL     1     -10.512 -33.991   3.618  1.00  0.00     0.053 C 
BRANCH   9  10
ATOM     10  C   UNL     1      -9.649 -32.766   3.634  1.00  0.00     0.041 C 
ATOM     11  O   UNL     1      -9.957 -31.784   4.360  1.00  0.00    -0.550 OA
ATOM     12  O   UNL     1      -8.524 -32.696   2.823  1.00  0.00    -0.550 OA
ENDBRANCH   9  10
ENDBRANCH   8   9
ENDBRANCH   7   8
ENDBRANCH   6   7
ENDBRANCH   5   6
ENDBRANCH   4   5
ENDBRANCH   3   4
ENDBRANCH   1   3
BRANCH   2  13
ATOM     13  C   UNL     1      -7.626 -35.976   1.470  1.00  0.00     0.027 C 
BRANCH  13  14
ATOM     14  C   UNL     1      -9.148 -36.123   1.371  1.00  0.00     0.004 C 
BRANCH  14  15
ATOM     15  C   UNL     1      -9.779 -34.881   0.728  1.00  0.00     0.000 C 
BRANCH  15  16
ATOM     16  C   UNL     1     -11.122 -35.222   0.072  1.00  0.00     0.000 C 
BRANCH  16  17
ATOM     17  C   UNL     1     -10.915 -36.048  -1.205  1.00  0.00    -0.000 C 
BRANCH  17  18
ATOM     18  C   UNL     1     -10.501 -35.190  -2.413  1.00  0.00    -0.000 C 
BRANCH  18  19
ATOM     19  C   UNL     1     -10.804 -33.687  -2.237  1.00  0.00    -0.003 C 
ATOM     20  C   UNL     1     -10.593 -32.896  -3.528  1.00  0.00     0.004 C 
ENDBRANCH  18  19
ENDBRANCH  17  18
ENDBRANCH  16  17
ENDBRANCH  15  16
ENDBRANCH  14  15
ENDBRANCH  13  14
ENDBRANCH   2  13
TORSDOF 15
ENDMDL
