MODEL 1
REMARK VINA RESULT:    -7.136      0.000      0.000
REMARK INTER + INTRA:          -8.763
REMARK INTER:                  -8.596
REMARK INTRA:                  -0.166
REMARK UNBOUND:                -0.166
REMARK SMILES O=c1c(O)c(-c2ccc(O)c(O)c2)oc2cc(O)cc(O)c12
REMARK SMILES IDX 5 1 3 2 2 3 1 4 22 5 20 6 19 7 17 8 16 9 15 10 14 11 6 12
REMARK SMILES IDX 7 13 8 14 9 15 13 16 11 17 10 18 12 20 4 22 21 24 18 26
REMARK H PARENT 10 19 12 21 4 23 21 25 18 27
REMARK Flexibility Score: inf
ROOT
ATOM      1  C   UNL     1      -1.015  13.305   5.867  1.00  0.00     0.180 A 
ATOM      2  C   UNL     1      -1.556  12.260   6.638  1.00  0.00     0.208 A 
ATOM      3  C   UNL     1      -2.917  12.303   6.982  1.00  0.00     0.238 A 
ATOM      4  O   UNL     1      -3.382  11.394   7.718  1.00  0.00    -0.285 OA
ATOM      5  C   UNL     1      -3.722  13.378   6.538  1.00  0.00     0.111 A 
ATOM      6  C   UNL     1      -5.122  13.502   6.792  1.00  0.00     0.134 A 
ATOM      7  C   UNL     1      -5.791  14.672   6.417  1.00  0.00     0.093 A 
ATOM      8  C   UNL     1      -5.126  15.696   5.737  1.00  0.00     0.123 A 
ATOM      9  C   UNL     1      -3.775  15.558   5.430  1.00  0.00     0.094 A 
ATOM     10  C   UNL     1      -3.071  14.417   5.825  1.00  0.00     0.146 A 
ATOM     11  O   UNL     1      -1.781  14.332   5.521  1.00  0.00    -0.452 OA
ENDROOT
BRANCH   1  12
ATOM     12  C   UNL     1       0.404  13.318   5.445  1.00  0.00     0.025 A 
ATOM     13  C   UNL     1       1.411  13.475   6.411  1.00  0.00     0.016 A 
ATOM     14  C   UNL     1       2.755  13.511   6.033  1.00  0.00     0.051 A 
ATOM     15  C   UNL     1       3.114  13.408   4.685  1.00  0.00     0.157 A 
ATOM     16  C   UNL     1       0.766  13.235   4.088  1.00  0.00     0.062 A 
ATOM     17  C   UNL     1       2.115  13.274   3.707  1.00  0.00     0.158 A 
BRANCH  15  18
ATOM     18  O   UNL     1       4.464  13.446   4.338  1.00  0.00    -0.504 OA
ATOM     19  H   UNL     1       5.156  12.874   4.809  1.00  0.00     0.293 HD
ENDBRANCH  15  18
BRANCH  17  20
ATOM     20  O   UNL     1       2.464  13.184   2.360  1.00  0.00    -0.504 OA
ATOM     21  H   UNL     1       3.389  12.893   2.069  1.00  0.00     0.293 HD
ENDBRANCH  17  20
ENDBRANCH   1  12
BRANCH   2  22
ATOM     22  O   UNL     1      -0.737  11.220   7.085  1.00  0.00    -0.502 OA
ATOM     23  H   UNL     1      -0.787  10.285   6.699  1.00  0.00     0.293 HD
ENDBRANCH   2  22
BRANCH   6  24
ATOM     24  O   UNL     1      -5.899  12.501   7.382  1.00  0.00    -0.507 OA
ATOM     25  H   UNL     1      -5.578  11.874   8.105  1.00  0.00     0.293 HD
ENDBRANCH   6  24
BRANCH   8  26
ATOM     26  O   UNL     1      -5.804  16.851   5.352  1.00  0.00    -0.508 OA
ATOM     27  H   UNL     1      -6.046  17.025   4.383  1.00  0.00     0.293 HD
ENDBRANCH   8  26
TORSDOF 6
ENDMDL
MODEL 2
REMARK VINA RESULT:    -6.380      4.853      5.908
REMARK INTER + INTRA:          -7.852
REMARK INTER:                  -7.625
REMARK INTRA:                  -0.226
REMARK UNBOUND:                -0.166
REMARK SMILES O=c1c(O)c(-c2ccc(O)c(O)c2)oc2cc(O)cc(O)c12
REMARK SMILES IDX 5 1 3 2 2 3 1 4 22 5 20 6 19 7 17 8 16 9 15 10 14 11 6 12
REMARK SMILES IDX 7 13 8 14 9 15 13 16 11 17 10 18 12 20 4 22 21 24 18 26
REMARK H PARENT 10 19 12 21 4 23 21 25 18 27
REMARK Flexibility Score: inf
ROOT
ATOM      1  C   UNL     1       0.677  14.340   1.059  1.00  0.00     0.180 A 
ATOM      2  C   UNL     1       0.617  13.361   0.051  1.00  0.00     0.208 A 
ATOM      3  C   UNL     1      -0.598  13.151  -0.622  1.00  0.00     0.238 A 
ATOM      4  O   UNL     1      -0.660  12.237  -1.484  1.00  0.00    -0.285 OA
ATOM      5  C   UNL     1      -1.730  13.932  -0.291  1.00  0.00     0.111 A 
ATOM      6  C   UNL     1      -3.000  13.832  -0.935  1.00  0.00     0.134 A 
ATOM      7  C   UNL     1      -4.087  14.562  -0.438  1.00  0.00     0.093 A 
ATOM      8  C   UNL     1      -3.933  15.438   0.640  1.00  0.00     0.123 A 
ATOM      9  C   UNL     1      -2.685  15.587   1.237  1.00  0.00     0.094 A 
ATOM     10  C   UNL     1      -1.590  14.845   0.787  1.00  0.00     0.146 A 
ATOM     11  O   UNL     1      -0.419  15.010   1.392  1.00  0.00    -0.452 OA
ENDROOT
BRANCH   1  12
ATOM     12  C   UNL     1       1.928  14.636   1.795  1.00  0.00     0.025 A 
ATOM     13  C   UNL     1       2.634  15.815   1.512  1.00  0.00     0.016 A 
ATOM     14  C   UNL     1       3.827  16.103   2.179  1.00  0.00     0.051 A 
ATOM     15  C   UNL     1       4.340  15.213   3.126  1.00  0.00     0.157 A 
ATOM     16  C   UNL     1       2.457  13.731   2.733  1.00  0.00     0.062 A 
ATOM     17  C   UNL     1       3.656  14.017   3.402  1.00  0.00     0.158 A 
BRANCH  15  18
ATOM     18  O   UNL     1       5.532  15.529   3.777  1.00  0.00    -0.504 OA
ATOM     19  H   UNL     1       6.265  14.843   3.920  1.00  0.00     0.293 HD
ENDBRANCH  15  18
BRANCH  17  20
ATOM     20  O   UNL     1       4.169  13.117   4.335  1.00  0.00    -0.504 OA
ATOM     21  H   UNL     1       4.651  13.433   5.167  1.00  0.00     0.293 HD
ENDBRANCH  17  20
ENDBRANCH   1  12
BRANCH   2  22
ATOM     22  O   UNL     1       1.742  12.586  -0.245  1.00  0.00    -0.502 OA
ATOM     23  H   UNL     1       2.595  12.986  -0.617  1.00  0.00     0.293 HD
ENDBRANCH   2  22
BRANCH   6  24
ATOM     24  O   UNL     1      -3.239  13.058  -2.074  1.00  0.00    -0.507 OA
ATOM     25  H   UNL     1      -3.922  13.275  -2.785  1.00  0.00     0.293 HD
ENDBRANCH   6  24
BRANCH   8  26
ATOM     26  O   UNL     1      -5.016  16.173   1.118  1.00  0.00    -0.508 OA
ATOM     27  H   UNL     1      -5.473  15.937   1.992  1.00  0.00     0.293 HD
ENDBRANCH   8  26
TORSDOF 6
ENDMDL
MODEL 3
REMARK VINA RESULT:    -6.375      1.818      6.659
REMARK INTER + INTRA:          -7.846
REMARK INTER:                  -7.987
REMARK INTRA:                   0.141
REMARK UNBOUND:                -0.166
REMARK SMILES O=c1c(O)c(-c2ccc(O)c(O)c2)oc2cc(O)cc(O)c12
REMARK SMILES IDX 5 1 3 2 2 3 1 4 22 5 20 6 19 7 17 8 16 9 15 10 14 11 6 12
REMARK SMILES IDX 7 13 8 14 9 15 13 16 11 17 10 18 12 20 4 22 21 24 18 26
REMARK H PARENT 10 19 12 21 4 23 21 25 18 27
REMARK Flexibility Score: inf
ROOT
ATOM      1  C   UNL     1      -0.459  13.298   5.243  1.00  0.00     0.180 A 
ATOM      2  C   UNL     1       0.846  13.130   5.739  1.00  0.00     0.208 A 
ATOM      3  C   UNL     1       1.934  13.497   4.930  1.00  0.00     0.238 A 
ATOM      4  O   UNL     1       3.100  13.294   5.358  1.00  0.00    -0.285 OA
ATOM      5  C   UNL     1       1.704  14.042   3.645  1.00  0.00     0.111 A 
ATOM      6  C   UNL     1       2.729  14.486   2.757  1.00  0.00     0.134 A 
ATOM      7  C   UNL     1       2.393  14.886   1.458  1.00  0.00     0.093 A 
ATOM      8  C   UNL     1       1.062  14.921   1.037  1.00  0.00     0.123 A 
ATOM      9  C   UNL     1       0.048  14.546   1.915  1.00  0.00     0.094 A 
ATOM     10  C   UNL     1       0.356  14.107   3.206  1.00  0.00     0.146 A 
ATOM     11  O   UNL     1      -0.641  13.750   4.008  1.00  0.00    -0.452 OA
ENDROOT
BRANCH   1  12
ATOM     12  C   UNL     1      -1.656  12.956   6.045  1.00  0.00     0.025 A 
ATOM     13  C   UNL     1      -1.686  11.750   6.763  1.00  0.00     0.016 A 
ATOM     14  C   UNL     1      -2.813  11.398   7.509  1.00  0.00     0.051 A 
ATOM     15  C   UNL     1      -3.932  12.235   7.537  1.00  0.00     0.157 A 
ATOM     16  C   UNL     1      -2.791  13.787   6.058  1.00  0.00     0.062 A 
ATOM     17  C   UNL     1      -3.924  13.434   6.804  1.00  0.00     0.158 A 
BRANCH  15  18
ATOM     18  O   UNL     1      -5.042  11.858   8.293  1.00  0.00    -0.504 OA
ATOM     19  H   UNL     1      -5.990  12.023   7.975  1.00  0.00     0.293 HD
ENDBRANCH  15  18
BRANCH  17  20
ATOM     20  O   UNL     1      -5.042  14.267   6.816  1.00  0.00    -0.504 OA
ATOM     21  H   UNL     1      -5.265  14.846   7.616  1.00  0.00     0.293 HD
ENDBRANCH  17  20
ENDBRANCH   1  12
BRANCH   2  22
ATOM     22  O   UNL     1       1.051  12.569   7.002  1.00  0.00    -0.502 OA
ATOM     23  H   UNL     1       0.800  13.050   7.858  1.00  0.00     0.293 HD
ENDBRANCH   2  22
BRANCH   6  24
ATOM     24  O   UNL     1       4.079  14.579   3.108  1.00  0.00    -0.507 OA
ATOM     25  H   UNL     1       4.555  13.945   3.733  1.00  0.00     0.293 HD
ENDBRANCH   6  24
BRANCH   8  26
ATOM     26  O   UNL     1       0.734  15.336  -0.252  1.00  0.00    -0.508 OA
ATOM     27  H   UNL     1       1.246  15.004  -1.062  1.00  0.00     0.293 HD
ENDBRANCH   8  26
TORSDOF 6
ENDMDL
MODEL 4
REMARK VINA RESULT:    -6.288      3.407      7.521
REMARK INTER + INTRA:          -7.741
REMARK INTER:                  -7.608
REMARK INTRA:                  -0.133
REMARK UNBOUND:                -0.166
REMARK SMILES O=c1c(O)c(-c2ccc(O)c(O)c2)oc2cc(O)cc(O)c12
REMARK SMILES IDX 5 1 3 2 2 3 1 4 22 5 20 6 19 7 17 8 16 9 15 10 14 11 6 12
REMARK SMILES IDX 7 13 8 14 9 15 13 16 11 17 10 18 12 20 4 22 21 24 18 26
REMARK H PARENT 10 19 12 21 4 23 21 25 18 27
REMARK Flexibility Score: inf
ROOT
ATOM      1  C   UNL     1      -0.522  14.472   2.426  1.00  0.00     0.180 A 
ATOM      2  C   UNL     1       0.602  14.707   1.613  1.00  0.00     0.208 A 
ATOM      3  C   UNL     1       1.884  14.534   2.159  1.00  0.00     0.238 A 
ATOM      4  O   UNL     1       2.885  14.798   1.444  1.00  0.00    -0.285 OA
ATOM      5  C   UNL     1       2.027  14.113   3.502  1.00  0.00     0.111 A 
ATOM      6  C   UNL     1       3.277  13.866   4.146  1.00  0.00     0.134 A 
ATOM      7  C   UNL     1       3.304  13.580   5.516  1.00  0.00     0.093 A 
ATOM      8  C   UNL     1       2.122  13.467   6.252  1.00  0.00     0.123 A 
ATOM      9  C   UNL     1       0.894  13.646   5.620  1.00  0.00     0.094 A 
ATOM     10  C   UNL     1       0.836  13.969   4.261  1.00  0.00     0.146 A 
ATOM     11  O   UNL     1      -0.355  14.142   3.700  1.00  0.00    -0.452 OA
ENDROOT
BRANCH   1  12
ATOM     12  C   UNL     1      -1.906  14.610   1.915  1.00  0.00     0.025 A 
ATOM     13  C   UNL     1      -2.335  13.796   0.855  1.00  0.00     0.016 A 
ATOM     14  C   UNL     1      -3.628  13.924   0.344  1.00  0.00     0.051 A 
ATOM     15  C   UNL     1      -4.506  14.876   0.871  1.00  0.00     0.157 A 
ATOM     16  C   UNL     1      -2.783  15.581   2.430  1.00  0.00     0.062 A 
ATOM     17  C   UNL     1      -4.081  15.713   1.916  1.00  0.00     0.158 A 
BRANCH  15  18
ATOM     18  O   UNL     1      -5.792  14.979   0.341  1.00  0.00    -0.504 OA
ATOM     19  H   UNL     1      -6.176  15.863   0.029  1.00  0.00     0.293 HD
ENDBRANCH  15  18
BRANCH  17  20
ATOM     20  O   UNL     1      -4.946  16.674   2.437  1.00  0.00    -0.504 OA
ATOM     21  H   UNL     1      -5.330  16.593   3.370  1.00  0.00     0.293 HD
ENDBRANCH  17  20
ENDBRANCH   1  12
BRANCH   2  22
ATOM     22  O   UNL     1       0.437  15.144   0.296  1.00  0.00    -0.502 OA
ATOM     23  H   UNL     1      -0.414  14.981  -0.229  1.00  0.00     0.293 HD
ENDBRANCH   2  22
BRANCH   6  24
ATOM     24  O   UNL     1       4.508  13.864   3.484  1.00  0.00    -0.507 OA
ATOM     25  H   UNL     1       5.089  13.049   3.352  1.00  0.00     0.293 HD
ENDBRANCH   6  24
BRANCH   8  26
ATOM     26  O   UNL     1       2.157  13.165   7.611  1.00  0.00    -0.508 OA
ATOM     27  H   UNL     1       2.717  12.401   7.971  1.00  0.00     0.293 HD
ENDBRANCH   8  26
TORSDOF 6
ENDMDL
MODEL 5
REMARK VINA RESULT:    -6.277      3.116      4.893
REMARK INTER + INTRA:          -7.728
REMARK INTER:                  -7.443
REMARK INTRA:                  -0.285
REMARK UNBOUND:                -0.166
REMARK SMILES O=c1c(O)c(-c2ccc(O)c(O)c2)oc2cc(O)cc(O)c12
REMARK SMILES IDX 5 1 3 2 2 3 1 4 22 5 20 6 19 7 17 8 16 9 15 10 14 11 6 12
REMARK SMILES IDX 7 13 8 14 9 15 13 16 11 17 10 18 12 20 4 22 21 24 18 26
REMARK H PARENT 10 19 12 21 4 23 21 25 18 27
REMARK Flexibility Score: inf
ROOT
ATOM      1  C   UNL     1       1.262  14.487   2.656  1.00  0.00     0.180 A 
ATOM      2  C   UNL     1       1.954  13.621   3.522  1.00  0.00     0.208 A 
ATOM      3  C   UNL     1       1.287  13.106   4.645  1.00  0.00     0.238 A 
ATOM      4  O   UNL     1       1.927  12.376   5.446  1.00  0.00    -0.285 OA
ATOM      5  C   UNL     1      -0.065  13.449   4.880  1.00  0.00     0.111 A 
ATOM      6  C   UNL     1      -0.851  12.954   5.964  1.00  0.00     0.134 A 
ATOM      7  C   UNL     1      -2.139  13.463   6.173  1.00  0.00     0.093 A 
ATOM      8  C   UNL     1      -2.693  14.401   5.299  1.00  0.00     0.123 A 
ATOM      9  C   UNL     1      -1.957  14.846   4.204  1.00  0.00     0.094 A 
ATOM     10  C   UNL     1      -0.656  14.384   3.990  1.00  0.00     0.146 A 
ATOM     11  O   UNL     1       0.015  14.842   2.939  1.00  0.00    -0.452 OA
ENDROOT
BRANCH   1  12
ATOM     12  C   UNL     1       1.890  15.050   1.439  1.00  0.00     0.025 A 
ATOM     13  C   UNL     1       1.635  14.457   0.192  1.00  0.00     0.016 A 
ATOM     14  C   UNL     1       2.233  14.959  -0.966  1.00  0.00     0.051 A 
ATOM     15  C   UNL     1       3.107  16.047  -0.895  1.00  0.00     0.157 A 
ATOM     16  C   UNL     1       2.786  16.131   1.510  1.00  0.00     0.062 A 
ATOM     17  C   UNL     1       3.390  16.634   0.349  1.00  0.00     0.158 A 
BRANCH  15  18
ATOM     18  O   UNL     1       3.688  16.527  -2.069  1.00  0.00    -0.504 OA
ATOM     19  H   UNL     1       3.801  17.518  -2.247  1.00  0.00     0.293 HD
ENDBRANCH  15  18
BRANCH  17  20
ATOM     20  O   UNL     1       4.272  17.712   0.429  1.00  0.00    -0.504 OA
ATOM     21  H   UNL     1       4.043  18.548   0.950  1.00  0.00     0.293 HD
ENDBRANCH  17  20
ENDBRANCH   1  12
BRANCH   2  22
ATOM     22  O   UNL     1       3.296  13.313   3.283  1.00  0.00    -0.502 OA
ATOM     23  H   UNL     1       4.010  14.026   3.192  1.00  0.00     0.293 HD
ENDBRANCH   2  22
BRANCH   6  24
ATOM     24  O   UNL     1      -0.427  11.951   6.841  1.00  0.00    -0.507 OA
ATOM     25  H   UNL     1      -0.868  11.049   6.938  1.00  0.00     0.293 HD
ENDBRANCH   6  24
BRANCH   8  26
ATOM     26  O   UNL     1      -3.981  14.890   5.505  1.00  0.00    -0.508 OA
ATOM     27  H   UNL     1      -4.216  15.439   6.325  1.00  0.00     0.293 HD
ENDBRANCH   8  26
TORSDOF 6
ENDMDL
MODEL 6
REMARK VINA RESULT:    -6.228      3.833      7.032
REMARK INTER + INTRA:          -7.668
REMARK INTER:                  -7.333
REMARK INTRA:                  -0.335
REMARK UNBOUND:                -0.166
REMARK SMILES O=c1c(O)c(-c2ccc(O)c(O)c2)oc2cc(O)cc(O)c12
REMARK SMILES IDX 5 1 3 2 2 3 1 4 22 5 20 6 19 7 17 8 16 9 15 10 14 11 6 12
REMARK SMILES IDX 7 13 8 14 9 15 13 16 11 17 10 18 12 20 4 22 21 24 18 26
REMARK H PARENT 10 19 12 21 4 23 21 25 18 27
REMARK Flexibility Score: inf
ROOT
ATOM      1  C   UNL     1      -0.757  14.487   2.451  1.00  0.00     0.180 A 
ATOM      2  C   UNL     1      -1.283  14.420   3.754  1.00  0.00     0.208 A 
ATOM      3  C   UNL     1      -0.424  14.107   4.819  1.00  0.00     0.238 A 
ATOM      4  O   UNL     1      -0.910  13.995   5.974  1.00  0.00    -0.285 OA
ATOM      5  C   UNL     1       0.951  13.880   4.572  1.00  0.00     0.111 A 
ATOM      6  C   UNL     1       1.920  13.595   5.581  1.00  0.00     0.134 A 
ATOM      7  C   UNL     1       3.227  13.258   5.208  1.00  0.00     0.093 A 
ATOM      8  C   UNL     1       3.617  13.260   3.867  1.00  0.00     0.123 A 
ATOM      9  C   UNL     1       2.694  13.596   2.879  1.00  0.00     0.094 A 
ATOM     10  C   UNL     1       1.373  13.900   3.217  1.00  0.00     0.146 A 
ATOM     11  O   UNL     1       0.523  14.205   2.243  1.00  0.00    -0.452 OA
ENDROOT
BRANCH   1  12
ATOM     12  C   UNL     1      -1.595  14.836   1.281  1.00  0.00     0.025 A 
ATOM     13  C   UNL     1      -2.175  13.811   0.516  1.00  0.00     0.016 A 
ATOM     14  C   UNL     1      -2.951  14.116  -0.604  1.00  0.00     0.051 A 
ATOM     15  C   UNL     1      -3.147  15.446  -0.987  1.00  0.00     0.157 A 
ATOM     16  C   UNL     1      -1.775  16.172   0.881  1.00  0.00     0.062 A 
ATOM     17  C   UNL     1      -2.552  16.480  -0.245  1.00  0.00     0.158 A 
BRANCH  15  18
ATOM     18  O   UNL     1      -3.929  15.721  -2.109  1.00  0.00    -0.504 OA
ATOM     19  H   UNL     1      -4.907  15.973  -2.034  1.00  0.00     0.293 HD
ENDBRANCH  15  18
BRANCH  17  20
ATOM     20  O   UNL     1      -2.731  17.809  -0.629  1.00  0.00    -0.504 OA
ATOM     21  H   UNL     1      -3.159  18.487  -0.012  1.00  0.00     0.293 HD
ENDBRANCH  17  20
ENDBRANCH   1  12
BRANCH   2  22
ATOM     22  O   UNL     1      -2.648  14.626   3.972  1.00  0.00    -0.502 OA
ATOM     23  H   UNL     1      -3.213  15.212   3.368  1.00  0.00     0.293 HD
ENDBRANCH   2  22
BRANCH   6  24
ATOM     24  O   UNL     1       1.658  13.654   6.953  1.00  0.00    -0.507 OA
ATOM     25  H   UNL     1       1.171  12.943   7.477  1.00  0.00     0.293 HD
ENDBRANCH   6  24
BRANCH   8  26
ATOM     26  O   UNL     1       4.924  12.940   3.506  1.00  0.00    -0.508 OA
ATOM     27  H   UNL     1       5.204  12.873   2.534  1.00  0.00     0.293 HD
ENDBRANCH   8  26
TORSDOF 6
ENDMDL
MODEL 7
REMARK VINA RESULT:    -6.152      3.472      7.497
REMARK INTER + INTRA:          -7.577
REMARK INTER:                  -7.414
REMARK INTRA:                  -0.163
REMARK UNBOUND:                -0.166
REMARK SMILES O=c1c(O)c(-c2ccc(O)c(O)c2)oc2cc(O)cc(O)c12
REMARK SMILES IDX 5 1 3 2 2 3 1 4 22 5 20 6 19 7 17 8 16 9 15 10 14 11 6 12
REMARK SMILES IDX 7 13 8 14 9 15 13 16 11 17 10 18 12 20 4 22 21 24 18 26
REMARK H PARENT 10 19 12 21 4 23 21 25 18 27
REMARK Flexibility Score: inf
ROOT
ATOM      1  C   UNL     1       0.504  14.361   2.728  1.00  0.00     0.180 A 
ATOM      2  C   UNL     1      -0.219  14.335   1.521  1.00  0.00     0.208 A 
ATOM      3  C   UNL     1       0.299  15.007   0.403  1.00  0.00     0.238 A 
ATOM      4  O   UNL     1      -0.378  15.026  -0.658  1.00  0.00    -0.285 OA
ATOM      5  C   UNL     1       1.538  15.683   0.499  1.00  0.00     0.111 A 
ATOM      6  C   UNL     1       2.177  16.363  -0.582  1.00  0.00     0.134 A 
ATOM      7  C   UNL     1       3.337  17.109  -0.340  1.00  0.00     0.093 A 
ATOM      8  C   UNL     1       3.918  17.145   0.930  1.00  0.00     0.123 A 
ATOM      9  C   UNL     1       3.337  16.435   1.978  1.00  0.00     0.094 A 
ATOM     10  C   UNL     1       2.158  15.712   1.775  1.00  0.00     0.146 A 
ATOM     11  O   UNL     1       1.630  15.059   2.804  1.00  0.00    -0.452 OA
ENDROOT
BRANCH   1  12
ATOM     12  C   UNL     1       0.034  13.656   3.942  1.00  0.00     0.025 A 
ATOM     13  C   UNL     1       0.753  12.548   4.419  1.00  0.00     0.016 A 
ATOM     14  C   UNL     1       0.317  11.855   5.550  1.00  0.00     0.051 A 
ATOM     15  C   UNL     1      -0.851  12.246   6.212  1.00  0.00     0.157 A 
ATOM     16  C   UNL     1      -1.152  14.034   4.597  1.00  0.00     0.062 A 
ATOM     17  C   UNL     1      -1.593  13.338   5.731  1.00  0.00     0.158 A 
BRANCH  15  18
ATOM     18  O   UNL     1      -1.261  11.536   7.340  1.00  0.00    -0.504 OA
ATOM     19  H   UNL     1      -0.704  10.788   7.737  1.00  0.00     0.293 HD
ENDBRANCH  15  18
BRANCH  17  20
ATOM     20  O   UNL     1      -2.766  13.725   6.378  1.00  0.00    -0.504 OA
ATOM     21  H   UNL     1      -3.313  14.514   6.058  1.00  0.00     0.293 HD
ENDBRANCH  17  20
ENDBRANCH   1  12
BRANCH   2  22
ATOM     22  O   UNL     1      -1.452  13.680   1.455  1.00  0.00    -0.502 OA
ATOM     23  H   UNL     1      -2.292  14.135   1.119  1.00  0.00     0.293 HD
ENDBRANCH   2  22
BRANCH   6  24
ATOM     24  O   UNL     1       1.731  16.317  -1.906  1.00  0.00    -0.507 OA
ATOM     25  H   UNL     1       2.115  16.864  -2.661  1.00  0.00     0.293 HD
ENDBRANCH   6  24
BRANCH   8  26
ATOM     26  O   UNL     1       5.082  17.875   1.159  1.00  0.00    -0.508 OA
ATOM     27  H   UNL     1       5.408  18.074   2.098  1.00  0.00     0.293 HD
ENDBRANCH   8  26
TORSDOF 6
ENDMDL
MODEL 8
REMARK VINA RESULT:    -6.034      3.451      4.645
REMARK INTER + INTRA:          -7.434
REMARK INTER:                  -7.157
REMARK INTRA:                  -0.278
REMARK UNBOUND:                -0.166
REMARK SMILES O=c1c(O)c(-c2ccc(O)c(O)c2)oc2cc(O)cc(O)c12
REMARK SMILES IDX 5 1 3 2 2 3 1 4 22 5 20 6 19 7 17 8 16 9 15 10 14 11 6 12
REMARK SMILES IDX 7 13 8 14 9 15 13 16 11 17 10 18 12 20 4 22 21 24 18 26
REMARK H PARENT 10 19 12 21 4 23 21 25 18 27
REMARK Flexibility Score: inf
ROOT
ATOM      1  C   UNL     1      -0.733  14.526   2.009  1.00  0.00     0.180 A 
ATOM      2  C   UNL     1      -1.199  13.899   0.840  1.00  0.00     0.208 A 
ATOM      3  C   UNL     1      -2.543  14.064   0.469  1.00  0.00     0.238 A 
ATOM      4  O   UNL     1      -2.968  13.456  -0.548  1.00  0.00    -0.285 OA
ATOM      5  C   UNL     1      -3.399  14.865   1.261  1.00  0.00     0.111 A 
ATOM      6  C   UNL     1      -4.768  15.134   0.957  1.00  0.00     0.134 A 
ATOM      7  C   UNL     1      -5.556  15.833   1.880  1.00  0.00     0.093 A 
ATOM      8  C   UNL     1      -5.008  16.329   3.065  1.00  0.00     0.123 A 
ATOM      9  C   UNL     1      -3.659  16.124   3.342  1.00  0.00     0.094 A 
ATOM     10  C   UNL     1      -2.856  15.399   2.458  1.00  0.00     0.146 A 
ATOM     11  O   UNL     1      -1.577  15.218   2.766  1.00  0.00    -0.452 OA
ENDROOT
BRANCH   1  12
ATOM     12  C   UNL     1       0.676  14.419   2.452  1.00  0.00     0.025 A 
ATOM     13  C   UNL     1       1.666  15.163   1.791  1.00  0.00     0.016 A 
ATOM     14  C   UNL     1       3.004  15.061   2.178  1.00  0.00     0.051 A 
ATOM     15  C   UNL     1       3.376  14.205   3.218  1.00  0.00     0.157 A 
ATOM     16  C   UNL     1       1.055  13.542   3.484  1.00  0.00     0.062 A 
ATOM     17  C   UNL     1       2.399  13.437   3.872  1.00  0.00     0.158 A 
BRANCH  15  18
ATOM     18  O   UNL     1       4.720  14.126   3.583  1.00  0.00    -0.504 OA
ATOM     19  H   UNL     1       5.294  14.952   3.707  1.00  0.00     0.293 HD
ENDBRANCH  15  18
BRANCH  17  20
ATOM     20  O   UNL     1       2.764  12.569   4.901  1.00  0.00    -0.504 OA
ATOM     21  H   UNL     1       2.908  11.581   4.736  1.00  0.00     0.293 HD
ENDBRANCH  17  20
ENDBRANCH   1  12
BRANCH   2  22
ATOM     22  O   UNL     1      -0.342  13.094   0.085  1.00  0.00    -0.502 OA
ATOM     23  H   UNL     1      -0.135  13.284  -0.888  1.00  0.00     0.293 HD
ENDBRANCH   2  22
BRANCH   6  24
ATOM     24  O   UNL     1      -5.390  14.763  -0.239  1.00  0.00    -0.507 OA
ATOM     25  H   UNL     1      -6.299  15.083  -0.537  1.00  0.00     0.293 HD
ENDBRANCH   6  24
BRANCH   8  26
ATOM     26  O   UNL     1      -5.795  17.037   3.970  1.00  0.00    -0.508 OA
ATOM     27  H   UNL     1      -5.480  17.223   4.916  1.00  0.00     0.293 HD
ENDBRANCH   8  26
TORSDOF 6
ENDMDL
MODEL 9
REMARK VINA RESULT:    -5.996      3.619      7.456
REMARK INTER + INTRA:          -7.389
REMARK INTER:                  -7.088
REMARK INTRA:                  -0.301
REMARK UNBOUND:                -0.166
REMARK SMILES O=c1c(O)c(-c2ccc(O)c(O)c2)oc2cc(O)cc(O)c12
REMARK SMILES IDX 5 1 3 2 2 3 1 4 22 5 20 6 19 7 17 8 16 9 15 10 14 11 6 12
REMARK SMILES IDX 7 13 8 14 9 15 13 16 11 17 10 18 12 20 4 22 21 24 18 26
REMARK H PARENT 10 19 12 21 4 23 21 25 18 27
REMARK Flexibility Score: inf
ROOT
ATOM      1  C   UNL     1      -0.590  14.491   2.185  1.00  0.00     0.180 A 
ATOM      2  C   UNL     1       0.584  14.732   1.450  1.00  0.00     0.208 A 
ATOM      3  C   UNL     1       1.828  14.514   2.063  1.00  0.00     0.238 A 
ATOM      4  O   UNL     1       2.875  14.782   1.418  1.00  0.00    -0.285 OA
ATOM      5  C   UNL     1       1.883  14.043   3.396  1.00  0.00     0.111 A 
ATOM      6  C   UNL     1       3.088  13.749   4.103  1.00  0.00     0.134 A 
ATOM      7  C   UNL     1       3.028  13.415   5.462  1.00  0.00     0.093 A 
ATOM      8  C   UNL     1       1.802  13.300   6.122  1.00  0.00     0.123 A 
ATOM      9  C   UNL     1       0.617  13.526   5.425  1.00  0.00     0.094 A 
ATOM     10  C   UNL     1       0.647  13.897   4.078  1.00  0.00     0.146 A 
ATOM     11  O   UNL     1      -0.506  14.113   3.455  1.00  0.00    -0.452 OA
ENDROOT
BRANCH   1  12
ATOM     12  C   UNL     1      -1.938  14.675   1.599  1.00  0.00     0.025 A 
ATOM     13  C   UNL     1      -2.699  15.800   1.954  1.00  0.00     0.016 A 
ATOM     14  C   UNL     1      -3.980  15.983   1.430  1.00  0.00     0.051 A 
ATOM     15  C   UNL     1      -4.528  15.038   0.558  1.00  0.00     0.157 A 
ATOM     16  C   UNL     1      -2.499  13.715   0.738  1.00  0.00     0.062 A 
ATOM     17  C   UNL     1      -3.787  13.896   0.212  1.00  0.00     0.158 A 
BRANCH  15  18
ATOM     18  O   UNL     1      -5.810  15.248   0.049  1.00  0.00    -0.504 OA
ATOM     19  H   UNL     1      -6.460  15.894   0.481  1.00  0.00     0.293 HD
ENDBRANCH  15  18
BRANCH  17  20
ATOM     20  O   UNL     1      -4.332  12.942  -0.647  1.00  0.00    -0.504 OA
ATOM     21  H   UNL     1      -3.754  12.407  -1.282  1.00  0.00     0.293 HD
ENDBRANCH  17  20
ENDBRANCH   1  12
BRANCH   2  22
ATOM     22  O   UNL     1       0.506  15.218   0.142  1.00  0.00    -0.502 OA
ATOM     23  H   UNL     1      -0.284  15.757  -0.193  1.00  0.00     0.293 HD
ENDBRANCH   2  22
BRANCH   6  24
ATOM     24  O   UNL     1       4.356  13.745   3.516  1.00  0.00    -0.507 OA
ATOM     25  H   UNL     1       4.875  14.572   3.262  1.00  0.00     0.293 HD
ENDBRANCH   6  24
BRANCH   8  26
ATOM     26  O   UNL     1       1.750  12.950   7.469  1.00  0.00    -0.508 OA
ATOM     27  H   UNL     1       2.524  13.138   8.096  1.00  0.00     0.293 HD
ENDBRANCH   8  26
TORSDOF 6
ENDMDL
