MODEL 1
REMARK VINA RESULT:    15.625      0.000      0.000
REMARK INTER + INTRA:          19.232
REMARK INTER:                  18.822
REMARK INTRA:                   0.410
REMARK UNBOUND:                 0.410
REMARK SMILES O=c1c(O)c(-c2ccc(O)c(O)c2)oc2cc(O)cc(O)c12
REMARK SMILES IDX 5 1 3 2 2 3 1 4 22 5 20 6 19 7 17 8 16 9 15 10 14 11 6 12
REMARK SMILES IDX 7 13 8 14 9 15 13 16 11 17 10 18 12 20 4 22 21 24 18 26
REMARK H PARENT 10 19 12 21 4 23 21 25 18 27
REMARK Flexibility Score: inf
ROOT
ATOM      1  C   UNL     1      13.635   7.253 127.429  1.00  0.00     0.180 A 
ATOM      2  C   UNL     1      14.081   8.425 128.065  1.00  0.00     0.208 A 
ATOM      3  C   UNL     1      14.394   8.380 129.433  1.00  0.00     0.238 A 
ATOM      4  O   UNL     1      14.740   9.445 130.008  1.00  0.00    -0.285 OA
ATOM      5  C   UNL     1      14.271   7.162 130.144  1.00  0.00     0.111 A 
ATOM      6  C   UNL     1      14.597   6.993 131.523  1.00  0.00     0.134 A 
ATOM      7  C   UNL     1      14.313   5.776 132.156  1.00  0.00     0.093 A 
ATOM      8  C   UNL     1      13.774   4.703 131.443  1.00  0.00     0.123 A 
ATOM      9  C   UNL     1      13.507   4.840 130.082  1.00  0.00     0.094 A 
ATOM     10  C   UNL     1      13.746   6.052 129.432  1.00  0.00     0.146 A 
ATOM     11  O   UNL     1      13.467   6.143 128.137  1.00  0.00    -0.452 OA
ENDROOT
BRANCH   1  12
ATOM     12  C   UNL     1      13.311   7.215 125.984  1.00  0.00     0.025 A 
ATOM     13  C   UNL     1      13.855   8.186 125.128  1.00  0.00     0.016 A 
ATOM     14  C   UNL     1      13.545   8.181 123.765  1.00  0.00     0.051 A 
ATOM     15  C   UNL     1      12.679   7.219 123.241  1.00  0.00     0.157 A 
ATOM     16  C   UNL     1      12.422   6.261 125.458  1.00  0.00     0.062 A 
ATOM     17  C   UNL     1      12.110   6.256 124.091  1.00  0.00     0.158 A 
BRANCH  15  18
ATOM     18  O   UNL     1      12.390   7.239 121.877  1.00  0.00    -0.504 OA
ATOM     19  H   UNL     1      11.958   6.452 121.406  1.00  0.00     0.293 HD
ENDBRANCH  15  18
BRANCH  17  20
ATOM     20  O   UNL     1      11.233   5.302 123.576  1.00  0.00    -0.504 OA
ATOM     21  H   UNL     1      11.232   4.345 123.911  1.00  0.00     0.293 HD
ENDBRANCH  17  20
ENDBRANCH   1  12
BRANCH   2  22
ATOM     22  O   UNL     1      14.174   9.621 127.348  1.00  0.00    -0.502 OA
ATOM     23  H   UNL     1      13.490   9.892 126.651  1.00  0.00     0.293 HD
ENDBRANCH   2  22
BRANCH   6  24
ATOM     24  O   UNL     1      15.222   7.970 132.303  1.00  0.00    -0.507 OA
ATOM     25  H   UNL     1      15.295   8.945 132.052  1.00  0.00     0.293 HD
ENDBRANCH   6  24
BRANCH   8  26
ATOM     26  O   UNL     1      13.509   3.491 132.077  1.00  0.00    -0.508 OA
ATOM     27  H   UNL     1      13.800   2.608 131.674  1.00  0.00     0.293 HD
ENDBRANCH   8  26
TORSDOF 6
ENDMDL
MODEL 2
REMARK VINA RESULT:    16.502      1.601      3.166
REMARK INTER + INTRA:          20.289
REMARK INTER:                  19.814
REMARK INTRA:                   0.475
REMARK UNBOUND:                 0.410
REMARK SMILES O=c1c(O)c(-c2ccc(O)c(O)c2)oc2cc(O)cc(O)c12
REMARK SMILES IDX 5 1 3 2 2 3 1 4 22 5 20 6 19 7 17 8 16 9 15 10 14 11 6 12
REMARK SMILES IDX 7 13 8 14 9 15 13 16 11 17 10 18 12 20 4 22 21 24 18 26
REMARK H PARENT 10 19 12 21 4 23 21 25 18 27
REMARK Flexibility Score: inf
ROOT
ATOM      1  C   UNL     1      13.896   7.506 128.211  1.00  0.00     0.180 A 
ATOM      2  C   UNL     1      13.478   6.521 129.123  1.00  0.00     0.208 A 
ATOM      3  C   UNL     1      13.892   6.613 130.461  1.00  0.00     0.238 A 
ATOM      4  O   UNL     1      13.559   5.700 131.260  1.00  0.00    -0.285 OA
ATOM      5  C   UNL     1      14.705   7.696 130.874  1.00  0.00     0.111 A 
ATOM      6  C   UNL     1      15.150   7.911 132.213  1.00  0.00     0.134 A 
ATOM      7  C   UNL     1      16.058   8.943 132.482  1.00  0.00     0.093 A 
ATOM      8  C   UNL     1      16.485   9.807 131.472  1.00  0.00     0.123 A 
ATOM      9  C   UNL     1      16.010   9.642 130.173  1.00  0.00     0.094 A 
ATOM     10  C   UNL     1      15.133   8.600 129.867  1.00  0.00     0.146 A 
ATOM     11  O   UNL     1      14.713   8.472 128.614  1.00  0.00    -0.452 OA
ENDROOT
BRANCH   1  12
ATOM     12  C   UNL     1      13.481   7.490 126.789  1.00  0.00     0.025 A 
ATOM     13  C   UNL     1      13.832   8.563 125.955  1.00  0.00     0.016 A 
ATOM     14  C   UNL     1      13.432   8.578 124.616  1.00  0.00     0.051 A 
ATOM     15  C   UNL     1      12.666   7.533 124.095  1.00  0.00     0.157 A 
ATOM     16  C   UNL     1      12.691   6.449 126.269  1.00  0.00     0.062 A 
ATOM     17  C   UNL     1      12.288   6.464 124.925  1.00  0.00     0.158 A 
BRANCH  15  18
ATOM     18  O   UNL     1      12.283   7.575 122.754  1.00  0.00    -0.504 OA
ATOM     19  H   UNL     1      11.882   6.772 122.283  1.00  0.00     0.293 HD
ENDBRANCH  15  18
BRANCH  17  20
ATOM     20  O   UNL     1      11.511   5.425 124.415  1.00  0.00    -0.504 OA
ATOM     21  H   UNL     1      11.916   4.527 124.176  1.00  0.00     0.293 HD
ENDBRANCH  17  20
ENDBRANCH   1  12
BRANCH   2  22
ATOM     22  O   UNL     1      12.694   5.449 128.689  1.00  0.00    -0.502 OA
ATOM     23  H   UNL     1      12.853   4.498 129.001  1.00  0.00     0.293 HD
ENDBRANCH   2  22
BRANCH   6  24
ATOM     24  O   UNL     1      14.713   7.163 133.310  1.00  0.00    -0.507 OA
ATOM     25  H   UNL     1      15.319   6.643 133.928  1.00  0.00     0.293 HD
ENDBRANCH   6  24
BRANCH   8  26
ATOM     26  O   UNL     1      17.377  10.841 131.751  1.00  0.00    -0.508 OA
ATOM     27  H   UNL     1      18.060  11.150 131.070  1.00  0.00     0.293 HD
ENDBRANCH   8  26
TORSDOF 6
ENDMDL
MODEL 3
REMARK VINA RESULT:    16.859      7.262     11.995
REMARK INTER + INTRA:          20.718
REMARK INTER:                  20.351
REMARK INTRA:                   0.367
REMARK UNBOUND:                 0.410
REMARK SMILES O=c1c(O)c(-c2ccc(O)c(O)c2)oc2cc(O)cc(O)c12
REMARK SMILES IDX 5 1 3 2 2 3 1 4 22 5 20 6 19 7 17 8 16 9 15 10 14 11 6 12
REMARK SMILES IDX 7 13 8 14 9 15 13 16 11 17 10 18 12 20 4 22 21 24 18 26
REMARK H PARENT 10 19 12 21 4 23 21 25 18 27
REMARK Flexibility Score: inf
ROOT
ATOM      1  C   UNL     1      19.861   7.583 135.789  1.00  0.00     0.180 A 
ATOM      2  C   UNL     1      18.922   8.580 135.472  1.00  0.00     0.208 A 
ATOM      3  C   UNL     1      18.573   8.784 134.128  1.00  0.00     0.238 A 
ATOM      4  O   UNL     1      17.773   9.714 133.846  1.00  0.00    -0.285 OA
ATOM      5  C   UNL     1      19.155   7.979 133.118  1.00  0.00     0.111 A 
ATOM      6  C   UNL     1      18.844   8.072 131.729  1.00  0.00     0.134 A 
ATOM      7  C   UNL     1      19.577   7.315 130.806  1.00  0.00     0.093 A 
ATOM      8  C   UNL     1      20.563   6.421 131.229  1.00  0.00     0.123 A 
ATOM      9  C   UNL     1      20.832   6.279 132.588  1.00  0.00     0.094 A 
ATOM     10  C   UNL     1      20.143   7.047 133.530  1.00  0.00     0.146 A 
ATOM     11  O   UNL     1      20.438   6.890 134.815  1.00  0.00    -0.452 OA
ENDROOT
BRANCH   1  12
ATOM     12  C   UNL     1      20.261   7.292 137.185  1.00  0.00     0.025 A 
ATOM     13  C   UNL     1      19.384   7.607 138.235  1.00  0.00     0.016 A 
ATOM     14  C   UNL     1      19.749   7.360 139.561  1.00  0.00     0.051 A 
ATOM     15  C   UNL     1      20.999   6.811 139.859  1.00  0.00     0.157 A 
ATOM     16  C   UNL     1      21.526   6.760 137.488  1.00  0.00     0.062 A 
ATOM     17  C   UNL     1      21.896   6.513 138.818  1.00  0.00     0.158 A 
BRANCH  15  18
ATOM     18  O   UNL     1      21.335   6.574 141.191  1.00  0.00    -0.504 OA
ATOM     19  H   UNL     1      21.408   7.324 141.869  1.00  0.00     0.293 HD
ENDBRANCH  15  18
BRANCH  17  20
ATOM     20  O   UNL     1      23.150   5.978 139.110  1.00  0.00    -0.504 OA
ATOM     21  H   UNL     1      23.509   5.168 138.619  1.00  0.00     0.293 HD
ENDBRANCH  17  20
ENDBRANCH   1  12
BRANCH   2  22
ATOM     22  O   UNL     1      18.377   9.378 136.482  1.00  0.00    -0.502 OA
ATOM     23  H   UNL     1      17.381   9.415 136.667  1.00  0.00     0.293 HD
ENDBRANCH   2  22
BRANCH   6  24
ATOM     24  O   UNL     1      17.817   8.864 131.209  1.00  0.00    -0.507 OA
ATOM     25  H   UNL     1      17.065   8.522 130.629  1.00  0.00     0.293 HD
ENDBRANCH   6  24
BRANCH   8  26
ATOM     26  O   UNL     1      21.276   5.660 130.305  1.00  0.00    -0.508 OA
ATOM     27  H   UNL     1      20.865   5.372 129.425  1.00  0.00     0.293 HD
ENDBRANCH   8  26
TORSDOF 6
ENDMDL
MODEL 4
REMARK VINA RESULT:    18.162      1.241      6.663
REMARK INTER + INTRA:          22.288
REMARK INTER:                  21.737
REMARK INTRA:                   0.551
REMARK UNBOUND:                 0.410
REMARK SMILES O=c1c(O)c(-c2ccc(O)c(O)c2)oc2cc(O)cc(O)c12
REMARK SMILES IDX 5 1 3 2 2 3 1 4 22 5 20 6 19 7 17 8 16 9 15 10 14 11 6 12
REMARK SMILES IDX 7 13 8 14 9 15 13 16 11 17 10 18 12 20 4 22 21 24 18 26
REMARK H PARENT 10 19 12 21 4 23 21 25 18 27
REMARK Flexibility Score: inf
ROOT
ATOM      1  C   UNL     1      13.579   7.512 127.252  1.00  0.00     0.180 A 
ATOM      2  C   UNL     1      13.888   8.669 126.515  1.00  0.00     0.208 A 
ATOM      3  C   UNL     1      13.551   8.717 125.153  1.00  0.00     0.238 A 
ATOM      4  O   UNL     1      13.879   9.733 124.486  1.00  0.00    -0.285 OA
ATOM      5  C   UNL     1      12.897   7.616 124.548  1.00  0.00     0.111 A 
ATOM      6  C   UNL     1      12.474   7.573 123.186  1.00  0.00     0.134 A 
ATOM      7  C   UNL     1      11.954   6.383 122.662  1.00  0.00     0.093 A 
ATOM      8  C   UNL     1      11.782   5.256 123.468  1.00  0.00     0.123 A 
ATOM      9  C   UNL     1      12.137   5.307 124.814  1.00  0.00     0.094 A 
ATOM     10  C   UNL     1      12.692   6.468 125.357  1.00  0.00     0.146 A 
ATOM     11  O   UNL     1      13.026   6.471 126.642  1.00  0.00    -0.452 OA
ENDROOT
BRANCH   1  12
ATOM     12  C   UNL     1      13.880   7.395 128.698  1.00  0.00     0.025 A 
ATOM     13  C   UNL     1      14.491   8.468 129.365  1.00  0.00     0.016 A 
ATOM     14  C   UNL     1      14.803   8.371 130.724  1.00  0.00     0.051 A 
ATOM     15  C   UNL     1      14.524   7.200 131.431  1.00  0.00     0.157 A 
ATOM     16  C   UNL     1      13.620   6.209 129.406  1.00  0.00     0.062 A 
ATOM     17  C   UNL     1      13.933   6.109 130.770  1.00  0.00     0.158 A 
BRANCH  15  18
ATOM     18  O   UNL     1      14.844   7.133 132.787  1.00  0.00    -0.504 OA
ATOM     19  H   UNL     1      14.364   6.508 133.424  1.00  0.00     0.293 HD
ENDBRANCH  15  18
BRANCH  17  20
ATOM     20  O   UNL     1      13.665   4.932 131.467  1.00  0.00    -0.504 OA
ATOM     21  H   UNL     1      14.395   4.260 131.674  1.00  0.00     0.293 HD
ENDBRANCH  17  20
ENDBRANCH   1  12
BRANCH   2  22
ATOM     22  O   UNL     1      14.553   9.734 127.126  1.00  0.00    -0.502 OA
ATOM     23  H   UNL     1      14.159  10.667 127.173  1.00  0.00     0.293 HD
ENDBRANCH   2  22
BRANCH   6  24
ATOM     24  O   UNL     1      12.517   8.670 122.320  1.00  0.00    -0.507 OA
ATOM     25  H   UNL     1      11.717   9.052 121.838  1.00  0.00     0.293 HD
ENDBRANCH   6  24
BRANCH   8  26
ATOM     26  O   UNL     1      11.250   4.081 122.942  1.00  0.00    -0.508 OA
ATOM     27  H   UNL     1      10.427   3.647 123.342  1.00  0.00     0.293 HD
ENDBRANCH   8  26
TORSDOF 6
ENDMDL
MODEL 5
REMARK VINA RESULT:    18.259      6.567     11.422
REMARK INTER + INTRA:          22.405
REMARK INTER:                  21.931
REMARK INTRA:                   0.475
REMARK UNBOUND:                 0.410
REMARK SMILES O=c1c(O)c(-c2ccc(O)c(O)c2)oc2cc(O)cc(O)c12
REMARK SMILES IDX 5 1 3 2 2 3 1 4 22 5 20 6 19 7 17 8 16 9 15 10 14 11 6 12
REMARK SMILES IDX 7 13 8 14 9 15 13 16 11 17 10 18 12 20 4 22 21 24 18 26
REMARK H PARENT 10 19 12 21 4 23 21 25 18 27
REMARK Flexibility Score: inf
ROOT
ATOM      1  C   UNL     1      19.497   7.849 135.171  1.00  0.00     0.180 A 
ATOM      2  C   UNL     1      20.263   7.510 134.041  1.00  0.00     0.208 A 
ATOM      3  C   UNL     1      19.762   7.813 132.765  1.00  0.00     0.238 A 
ATOM      4  O   UNL     1      20.426   7.459 131.756  1.00  0.00    -0.285 OA
ATOM      5  C   UNL     1      18.511   8.464 132.634  1.00  0.00     0.111 A 
ATOM      6  C   UNL     1      17.927   8.854 131.392  1.00  0.00     0.134 A 
ATOM      7  C   UNL     1      16.627   9.374 131.374  1.00  0.00     0.093 A 
ATOM      8  C   UNL     1      15.916   9.578 132.559  1.00  0.00     0.123 A 
ATOM      9  C   UNL     1      16.502   9.255 133.782  1.00  0.00     0.094 A 
ATOM     10  C   UNL     1      17.783   8.701 133.829  1.00  0.00     0.146 A 
ATOM     11  O   UNL     1      18.299   8.398 135.014  1.00  0.00    -0.452 OA
ENDROOT
BRANCH   1  12
ATOM     12  C   UNL     1      19.969   7.585 136.550  1.00  0.00     0.025 A 
ATOM     13  C   UNL     1      19.228   8.070 137.639  1.00  0.00     0.016 A 
ATOM     14  C   UNL     1      19.666   7.850 138.947  1.00  0.00     0.051 A 
ATOM     15  C   UNL     1      20.855   7.157 139.188  1.00  0.00     0.157 A 
ATOM     16  C   UNL     1      21.177   6.906 136.793  1.00  0.00     0.062 A 
ATOM     17  C   UNL     1      21.618   6.685 138.106  1.00  0.00     0.158 A 
BRANCH  15  18
ATOM     18  O   UNL     1      21.266   6.951 140.504  1.00  0.00    -0.504 OA
ATOM     19  H   UNL     1      21.736   7.671 141.041  1.00  0.00     0.293 HD
ENDBRANCH  15  18
BRANCH  17  20
ATOM     20  O   UNL     1      22.813   6.005 138.339  1.00  0.00    -0.504 OA
ATOM     21  H   UNL     1      23.697   6.344 137.976  1.00  0.00     0.293 HD
ENDBRANCH  17  20
ENDBRANCH   1  12
BRANCH   2  22
ATOM     22  O   UNL     1      21.484   6.848 134.192  1.00  0.00    -0.502 OA
ATOM     23  H   UNL     1      21.942   6.371 133.425  1.00  0.00     0.293 HD
ENDBRANCH   2  22
BRANCH   6  24
ATOM     24  O   UNL     1      18.585   8.778 130.162  1.00  0.00    -0.507 OA
ATOM     25  H   UNL     1      19.585   8.692 130.049  1.00  0.00     0.293 HD
ENDBRANCH   6  24
BRANCH   8  26
ATOM     26  O   UNL     1      14.629  10.110 132.533  1.00  0.00    -0.508 OA
ATOM     27  H   UNL     1      13.823   9.537 132.309  1.00  0.00     0.293 HD
ENDBRANCH   8  26
TORSDOF 6
ENDMDL
MODEL 6
REMARK VINA RESULT:    18.489      1.387      7.264
REMARK INTER + INTRA:          22.681
REMARK INTER:                  22.314
REMARK INTRA:                   0.367
REMARK UNBOUND:                 0.410
REMARK SMILES O=c1c(O)c(-c2ccc(O)c(O)c2)oc2cc(O)cc(O)c12
REMARK SMILES IDX 5 1 3 2 2 3 1 4 22 5 20 6 19 7 17 8 16 9 15 10 14 11 6 12
REMARK SMILES IDX 7 13 8 14 9 15 13 16 11 17 10 18 12 20 4 22 21 24 18 26
REMARK H PARENT 10 19 12 21 4 23 21 25 18 27
REMARK Flexibility Score: inf
ROOT
ATOM      1  C   UNL     1      13.591   7.323 127.273  1.00  0.00     0.180 A 
ATOM      2  C   UNL     1      12.718   6.333 126.790  1.00  0.00     0.208 A 
ATOM      3  C   UNL     1      12.437   6.285 125.416  1.00  0.00     0.238 A 
ATOM      4  O   UNL     1      11.613   5.431 124.997  1.00  0.00    -0.285 OA
ATOM      5  C   UNL     1      13.045   7.217 124.539  1.00  0.00     0.111 A 
ATOM      6  C   UNL     1      12.863   7.235 123.124  1.00  0.00     0.134 A 
ATOM      7  C   UNL     1      13.409   8.282 122.371  1.00  0.00     0.093 A 
ATOM      8  C   UNL     1      14.184   9.275 122.975  1.00  0.00     0.123 A 
ATOM      9  C   UNL     1      14.417   9.232 124.348  1.00  0.00     0.094 A 
ATOM     10  C   UNL     1      13.855   8.221 125.130  1.00  0.00     0.146 A 
ATOM     11  O   UNL     1      14.093   8.223 126.437  1.00  0.00    -0.452 OA
ENDROOT
BRANCH   1  12
ATOM     12  C   UNL     1      13.955   7.422 128.706  1.00  0.00     0.025 A 
ATOM     13  C   UNL     1      14.542   8.602 129.190  1.00  0.00     0.016 A 
ATOM     14  C   UNL     1      14.912   8.709 130.533  1.00  0.00     0.051 A 
ATOM     15  C   UNL     1      14.716   7.637 131.407  1.00  0.00     0.157 A 
ATOM     16  C   UNL     1      13.779   6.337 129.582  1.00  0.00     0.062 A 
ATOM     17  C   UNL     1      14.151   6.442 130.930  1.00  0.00     0.158 A 
BRANCH  15  18
ATOM     18  O   UNL     1      15.094   7.774 132.743  1.00  0.00    -0.504 OA
ATOM     19  H   UNL     1      14.532   7.405 133.502  1.00  0.00     0.293 HD
ENDBRANCH  15  18
BRANCH  17  20
ATOM     20  O   UNL     1      13.967   5.363 131.795  1.00  0.00    -0.504 OA
ATOM     21  H   UNL     1      13.822   5.498 132.789  1.00  0.00     0.293 HD
ENDBRANCH  17  20
ENDBRANCH   1  12
BRANCH   2  22
ATOM     22  O   UNL     1      12.112   5.437 127.676  1.00  0.00    -0.502 OA
ATOM     23  H   UNL     1      11.303   5.686 128.232  1.00  0.00     0.293 HD
ENDBRANCH   2  22
BRANCH   6  24
ATOM     24  O   UNL     1      12.184   6.243 122.411  1.00  0.00    -0.507 OA
ATOM     25  H   UNL     1      12.065   5.290 122.724  1.00  0.00     0.293 HD
ENDBRANCH   6  24
BRANCH   8  26
ATOM     26  O   UNL     1      14.737  10.305 122.216  1.00  0.00    -0.508 OA
ATOM     27  H   UNL     1      15.689  10.258 121.874  1.00  0.00     0.293 HD
ENDBRANCH   8  26
TORSDOF 6
ENDMDL
