MODEL 1
REMARK VINA RESULT:    -5.867      0.000      0.000
REMARK INTER + INTRA:          -7.482
REMARK INTER:                  -7.067
REMARK INTRA:                  -0.414
REMARK UNBOUND:                -0.414
REMARK SMILES O=c1c(O)c(-c2ccc(O)cc2O)oc2cc(O)cc(O)c12
REMARK SMILES IDX 5 1 3 2 2 3 1 4 22 5 20 6 19 7 17 8 16 9 15 10 14 11 6 12
REMARK SMILES IDX 8 13 7 14 9 15 11 16 12 17 10 18 13 20 4 22 21 24 18 26
REMARK H PARENT 10 19 13 21 4 23 21 25 18 27
REMARK Flexibility Score: inf
ROOT
ATOM      1  C   UNL     1       2.691  37.703   6.305  1.00  0.00     0.184 A 
ATOM      2  C   UNL     1       3.035  38.660   5.340  1.00  0.00     0.208 A 
ATOM      3  C   UNL     1       4.266  39.326   5.450  1.00  0.00     0.238 A 
ATOM      4  O   UNL     1       4.542  40.227   4.616  1.00  0.00    -0.285 OA
ATOM      5  C   UNL     1       5.148  39.003   6.509  1.00  0.00     0.111 A 
ATOM      6  C   UNL     1       6.438  39.584   6.697  1.00  0.00     0.134 A 
ATOM      7  C   UNL     1       7.174  39.278   7.848  1.00  0.00     0.093 A 
ATOM      8  C   UNL     1       6.694  38.361   8.787  1.00  0.00     0.123 A 
ATOM      9  C   UNL     1       5.462  37.743   8.584  1.00  0.00     0.094 A 
ATOM     10  C   UNL     1       4.689  38.057   7.463  1.00  0.00     0.146 A 
ATOM     11  O   UNL     1       3.513  37.455   7.316  1.00  0.00    -0.451 OA
ENDROOT
BRANCH   1  12
ATOM     12  C   UNL     1       1.418  36.954   6.226  1.00  0.00     0.063 A 
ATOM     13  C   UNL     1       0.218  34.946   5.553  1.00  0.00     0.047 A 
ATOM     14  C   UNL     1       1.393  35.699   5.593  1.00  0.00     0.020 A 
ATOM     15  C   UNL     1      -0.949  35.433   6.152  1.00  0.00     0.119 A 
ATOM     16  C   UNL     1      -0.936  36.678   6.787  1.00  0.00     0.093 A 
ATOM     17  C   UNL     1       0.234  37.448   6.824  1.00  0.00     0.130 A 
BRANCH  15  18
ATOM     18  O   UNL     1      -2.126  34.688   6.123  1.00  0.00    -0.508 OA
ATOM     19  H   UNL     1      -2.118  33.694   5.924  1.00  0.00     0.293 HD
ENDBRANCH  15  18
BRANCH  17  20
ATOM     20  O   UNL     1       0.179  38.700   7.439  1.00  0.00    -0.507 OA
ATOM     21  H   UNL     1       0.721  39.494   7.124  1.00  0.00     0.293 HD
ENDBRANCH  17  20
ENDBRANCH   1  12
BRANCH   2  22
ATOM     22  O   UNL     1       2.146  38.957   4.303  1.00  0.00    -0.502 OA
ATOM     23  H   UNL     1       1.500  39.736   4.348  1.00  0.00     0.293 HD
ENDBRANCH   2  22
BRANCH   6  24
ATOM     24  O   UNL     1       7.050  40.441   5.777  1.00  0.00    -0.507 OA
ATOM     25  H   UNL     1       7.989  40.332   5.424  1.00  0.00     0.293 HD
ENDBRANCH   6  24
BRANCH   8  26
ATOM     26  O   UNL     1       7.439  38.049   9.922  1.00  0.00    -0.508 OA
ATOM     27  H   UNL     1       7.722  38.764  10.583  1.00  0.00     0.293 HD
ENDBRANCH   8  26
TORSDOF 6
ENDMDL
MODEL 2
REMARK VINA RESULT:    -5.512      4.548      7.626
REMARK INTER + INTRA:          -7.054
REMARK INTER:                  -6.856
REMARK INTRA:                  -0.198
REMARK UNBOUND:                -0.414
REMARK SMILES O=c1c(O)c(-c2ccc(O)cc2O)oc2cc(O)cc(O)c12
REMARK SMILES IDX 5 1 3 2 2 3 1 4 22 5 20 6 19 7 17 8 16 9 15 10 14 11 6 12
REMARK SMILES IDX 8 13 7 14 9 15 11 16 12 17 10 18 13 20 4 22 21 24 18 26
REMARK H PARENT 10 19 13 21 4 23 21 25 18 27
REMARK Flexibility Score: inf
ROOT
ATOM      1  C   UNL     1      -2.384  39.596   7.866  1.00  0.00     0.184 A 
ATOM      2  C   UNL     1      -1.051  39.722   7.448  1.00  0.00     0.208 A 
ATOM      3  C   UNL     1      -0.381  38.590   6.958  1.00  0.00     0.238 A 
ATOM      4  O   UNL     1       0.833  38.695   6.642  1.00  0.00    -0.285 OA
ATOM      5  C   UNL     1      -1.065  37.353   6.866  1.00  0.00     0.111 A 
ATOM      6  C   UNL     1      -0.498  36.150   6.347  1.00  0.00     0.134 A 
ATOM      7  C   UNL     1      -1.227  34.957   6.417  1.00  0.00     0.093 A 
ATOM      8  C   UNL     1      -2.528  34.936   6.928  1.00  0.00     0.123 A 
ATOM      9  C   UNL     1      -3.112  36.115   7.382  1.00  0.00     0.094 A 
ATOM     10  C   UNL     1      -2.395  37.315   7.360  1.00  0.00     0.146 A 
ATOM     11  O   UNL     1      -2.986  38.414   7.817  1.00  0.00    -0.451 OA
ENDROOT
BRANCH   1  12
ATOM     12  C   UNL     1      -3.146  40.759   8.369  1.00  0.00     0.063 A 
ATOM     13  C   UNL     1      -3.928  43.040   8.039  1.00  0.00     0.047 A 
ATOM     14  C   UNL     1      -3.171  41.945   7.616  1.00  0.00     0.020 A 
ATOM     15  C   UNL     1      -4.676  42.963   9.219  1.00  0.00     0.119 A 
ATOM     16  C   UNL     1      -4.660  41.788   9.975  1.00  0.00     0.093 A 
ATOM     17  C   UNL     1      -3.897  40.686   9.567  1.00  0.00     0.130 A 
BRANCH  15  18
ATOM     18  O   UNL     1      -5.438  44.047   9.648  1.00  0.00    -0.508 OA
ATOM     19  H   UNL     1      -6.436  43.965   9.803  1.00  0.00     0.293 HD
ENDBRANCH  15  18
BRANCH  17  20
ATOM     20  O   UNL     1      -3.889  39.552  10.380  1.00  0.00    -0.507 OA
ATOM     21  H   UNL     1      -3.751  39.591  11.381  1.00  0.00     0.293 HD
ENDBRANCH  17  20
ENDBRANCH   1  12
BRANCH   2  22
ATOM     22  O   UNL     1      -0.403  40.955   7.548  1.00  0.00    -0.502 OA
ATOM     23  H   UNL     1      -0.535  41.696   6.868  1.00  0.00     0.293 HD
ENDBRANCH   2  22
BRANCH   6  24
ATOM     24  O   UNL     1       0.756  36.078   5.733  1.00  0.00    -0.507 OA
ATOM     25  H   UNL     1       1.365  36.866   5.573  1.00  0.00     0.293 HD
ENDBRANCH   6  24
BRANCH   8  26
ATOM     26  O   UNL     1      -3.253  33.747   6.979  1.00  0.00    -0.508 OA
ATOM     27  H   UNL     1      -3.594  33.372   7.857  1.00  0.00     0.293 HD
ENDBRANCH   8  26
TORSDOF 6
ENDMDL
MODEL 3
REMARK VINA RESULT:    -5.379      3.612      6.564
REMARK INTER + INTRA:          -6.894
REMARK INTER:                  -6.537
REMARK INTRA:                  -0.356
REMARK UNBOUND:                -0.414
REMARK SMILES O=c1c(O)c(-c2ccc(O)cc2O)oc2cc(O)cc(O)c12
REMARK SMILES IDX 5 1 3 2 2 3 1 4 22 5 20 6 19 7 17 8 16 9 15 10 14 11 6 12
REMARK SMILES IDX 8 13 7 14 9 15 11 16 12 17 10 18 13 20 4 22 21 24 18 26
REMARK H PARENT 10 19 13 21 4 23 21 25 18 27
REMARK Flexibility Score: inf
ROOT
ATOM      1  C   UNL     1      -2.088  38.702   7.579  1.00  0.00     0.184 A 
ATOM      2  C   UNL     1      -2.634  37.486   7.145  1.00  0.00     0.208 A 
ATOM      3  C   UNL     1      -1.798  36.549   6.516  1.00  0.00     0.238 A 
ATOM      4  O   UNL     1      -2.305  35.486   6.075  1.00  0.00    -0.285 OA
ATOM      5  C   UNL     1      -0.419  36.833   6.357  1.00  0.00     0.111 A 
ATOM      6  C   UNL     1       0.530  35.942   5.771  1.00  0.00     0.134 A 
ATOM      7  C   UNL     1       1.843  36.376   5.554  1.00  0.00     0.093 A 
ATOM      8  C   UNL     1       2.258  37.647   5.961  1.00  0.00     0.123 A 
ATOM      9  C   UNL     1       1.355  38.503   6.587  1.00  0.00     0.094 A 
ATOM     10  C   UNL     1       0.028  38.111   6.783  1.00  0.00     0.146 A 
ATOM     11  O   UNL     1      -0.804  38.964   7.371  1.00  0.00    -0.451 OA
ENDROOT
BRANCH   1  12
ATOM     12  C   UNL     1      -2.916  39.716   8.267  1.00  0.00     0.063 A 
ATOM     13  C   UNL     1      -4.226  40.366  10.213  1.00  0.00     0.047 A 
ATOM     14  C   UNL     1      -3.486  39.409   9.515  1.00  0.00     0.020 A 
ATOM     15  C   UNL     1      -4.402  41.646   9.676  1.00  0.00     0.119 A 
ATOM     16  C   UNL     1      -3.839  41.963   8.437  1.00  0.00     0.093 A 
ATOM     17  C   UNL     1      -3.104  41.009   7.722  1.00  0.00     0.130 A 
BRANCH  15  18
ATOM     18  O   UNL     1      -5.135  42.610  10.366  1.00  0.00    -0.508 OA
ATOM     19  H   UNL     1      -5.474  42.444  11.306  1.00  0.00     0.293 HD
ENDBRANCH  15  18
BRANCH  17  20
ATOM     20  O   UNL     1      -2.595  41.369   6.473  1.00  0.00    -0.507 OA
ATOM     21  H   UNL     1      -1.610  41.334   6.247  1.00  0.00     0.293 HD
ENDBRANCH  17  20
ENDBRANCH   1  12
BRANCH   2  22
ATOM     22  O   UNL     1      -3.997  37.231   7.318  1.00  0.00    -0.502 OA
ATOM     23  H   UNL     1      -4.630  37.109   6.537  1.00  0.00     0.293 HD
ENDBRANCH   2  22
BRANCH   6  24
ATOM     24  O   UNL     1       0.244  34.621   5.412  1.00  0.00    -0.507 OA
ATOM     25  H   UNL     1      -0.083  34.329   4.504  1.00  0.00     0.293 HD
ENDBRANCH   6  24
BRANCH   8  26
ATOM     26  O   UNL     1       3.571  38.066   5.756  1.00  0.00    -0.508 OA
ATOM     27  H   UNL     1       4.312  37.406   5.554  1.00  0.00     0.293 HD
ENDBRANCH   8  26
TORSDOF 6
ENDMDL
MODEL 4
REMARK VINA RESULT:    -5.316      3.677      5.829
REMARK INTER + INTRA:          -6.818
REMARK INTER:                  -6.543
REMARK INTRA:                  -0.275
REMARK UNBOUND:                -0.414
REMARK SMILES O=c1c(O)c(-c2ccc(O)cc2O)oc2cc(O)cc(O)c12
REMARK SMILES IDX 5 1 3 2 2 3 1 4 22 5 20 6 19 7 17 8 16 9 15 10 14 11 6 12
REMARK SMILES IDX 8 13 7 14 9 15 11 16 12 17 10 18 13 20 4 22 21 24 18 26
REMARK H PARENT 10 19 13 21 4 23 21 25 18 27
REMARK Flexibility Score: inf
ROOT
ATOM      1  C   UNL     1      -0.565  40.098   6.827  1.00  0.00     0.184 A 
ATOM      2  C   UNL     1       0.734  40.603   6.676  1.00  0.00     0.208 A 
ATOM      3  C   UNL     1       1.757  39.737   6.256  1.00  0.00     0.238 A 
ATOM      4  O   UNL     1       2.932  40.180   6.182  1.00  0.00    -0.285 OA
ATOM      5  C   UNL     1       1.457  38.383   5.966  1.00  0.00     0.111 A 
ATOM      6  C   UNL     1       2.405  37.426   5.496  1.00  0.00     0.134 A 
ATOM      7  C   UNL     1       2.023  36.086   5.358  1.00  0.00     0.093 A 
ATOM      8  C   UNL     1       0.710  35.680   5.612  1.00  0.00     0.123 A 
ATOM      9  C   UNL     1      -0.237  36.618   6.015  1.00  0.00     0.094 A 
ATOM     10  C   UNL     1       0.123  37.956   6.197  1.00  0.00     0.146 A 
ATOM     11  O   UNL     1      -0.809  38.814   6.597  1.00  0.00    -0.451 OA
ENDROOT
BRANCH   1  12
ATOM     12  C   UNL     1      -1.685  40.969   7.243  1.00  0.00     0.063 A 
ATOM     13  C   UNL     1      -3.062  42.935   6.834  1.00  0.00     0.047 A 
ATOM     14  C   UNL     1      -1.975  42.124   6.496  1.00  0.00     0.020 A 
ATOM     15  C   UNL     1      -3.878  42.599   7.920  1.00  0.00     0.119 A 
ATOM     16  C   UNL     1      -3.600  41.452   8.668  1.00  0.00     0.093 A 
ATOM     17  C   UNL     1      -2.507  40.636   8.347  1.00  0.00     0.130 A 
BRANCH  15  18
ATOM     18  O   UNL     1      -4.967  43.397   8.263  1.00  0.00    -0.508 OA
ATOM     19  H   UNL     1      -5.536  43.195   9.076  1.00  0.00     0.293 HD
ENDBRANCH  15  18
BRANCH  17  20
ATOM     20  O   UNL     1      -2.255  39.524   9.151  1.00  0.00    -0.507 OA
ATOM     21  H   UNL     1      -2.713  39.370  10.040  1.00  0.00     0.293 HD
ENDBRANCH  17  20
ENDBRANCH   1  12
BRANCH   2  22
ATOM     22  O   UNL     1       1.001  41.943   6.967  1.00  0.00    -0.502 OA
ATOM     23  H   UNL     1       0.285  42.659   6.932  1.00  0.00     0.293 HD
ENDBRANCH   2  22
BRANCH   6  24
ATOM     24  O   UNL     1       3.716  37.740   5.126  1.00  0.00    -0.507 OA
ATOM     25  H   UNL     1       3.969  38.400   4.406  1.00  0.00     0.293 HD
ENDBRANCH   6  24
BRANCH   8  26
ATOM     26  O   UNL     1       0.334  34.348   5.457  1.00  0.00    -0.508 OA
ATOM     27  H   UNL     1      -0.309  33.901   6.100  1.00  0.00     0.293 HD
ENDBRANCH   8  26
TORSDOF 6
ENDMDL
MODEL 5
REMARK VINA RESULT:    -5.282      9.594     11.552
REMARK INTER + INTRA:          -6.777
REMARK INTER:                  -6.370
REMARK INTRA:                  -0.407
REMARK UNBOUND:                -0.414
REMARK SMILES O=c1c(O)c(-c2ccc(O)cc2O)oc2cc(O)cc(O)c12
REMARK SMILES IDX 5 1 3 2 2 3 1 4 22 5 20 6 19 7 17 8 16 9 15 10 14 11 6 12
REMARK SMILES IDX 8 13 7 14 9 15 11 16 12 17 10 18 13 20 4 22 21 24 18 26
REMARK H PARENT 10 19 13 21 4 23 21 25 18 27
REMARK Flexibility Score: inf
ROOT
ATOM      1  C   UNL     1      -4.713  44.557   8.576  1.00  0.00     0.184 A 
ATOM      2  C   UNL     1      -5.734  44.974   7.711  1.00  0.00     0.208 A 
ATOM      3  C   UNL     1      -5.943  46.349   7.517  1.00  0.00     0.238 A 
ATOM      4  O   UNL     1      -6.900  46.718   6.788  1.00  0.00    -0.285 OA
ATOM      5  C   UNL     1      -5.106  47.286   8.171  1.00  0.00     0.111 A 
ATOM      6  C   UNL     1      -5.199  48.702   8.017  1.00  0.00     0.134 A 
ATOM      7  C   UNL     1      -4.399  49.537   8.806  1.00  0.00     0.093 A 
ATOM      8  C   UNL     1      -3.462  49.006   9.697  1.00  0.00     0.123 A 
ATOM      9  C   UNL     1      -3.322  47.625   9.811  1.00  0.00     0.094 A 
ATOM     10  C   UNL     1      -4.133  46.767   9.064  1.00  0.00     0.146 A 
ATOM     11  O   UNL     1      -3.976  45.456   9.215  1.00  0.00    -0.451 OA
ENDROOT
BRANCH   1  12
ATOM     12  C   UNL     1      -4.433  43.121   8.800  1.00  0.00     0.063 A 
ATOM     13  C   UNL     1      -3.226  41.108   8.158  1.00  0.00     0.047 A 
ATOM     14  C   UNL     1      -3.551  42.448   7.937  1.00  0.00     0.020 A 
ATOM     15  C   UNL     1      -3.772  40.424   9.250  1.00  0.00     0.119 A 
ATOM     16  C   UNL     1      -4.647  41.084  10.116  1.00  0.00     0.093 A 
ATOM     17  C   UNL     1      -4.990  42.425   9.899  1.00  0.00     0.130 A 
BRANCH  15  18
ATOM     18  O   UNL     1      -3.450  39.088   9.483  1.00  0.00    -0.508 OA
ATOM     19  H   UNL     1      -3.008  38.518   8.771  1.00  0.00     0.293 HD
ENDBRANCH  15  18
BRANCH  17  20
ATOM     20  O   UNL     1      -5.898  43.023  10.774  1.00  0.00    -0.507 OA
ATOM     21  H   UNL     1      -6.479  42.495  11.413  1.00  0.00     0.293 HD
ENDBRANCH  17  20
ENDBRANCH   1  12
BRANCH   2  22
ATOM     22  O   UNL     1      -6.543  44.027   7.078  1.00  0.00    -0.502 OA
ATOM     23  H   UNL     1      -7.396  43.674   7.495  1.00  0.00     0.293 HD
ENDBRANCH   2  22
BRANCH   6  24
ATOM     24  O   UNL     1      -6.036  49.334   7.092  1.00  0.00    -0.507 OA
ATOM     25  H   UNL     1      -6.870  48.928   6.698  1.00  0.00     0.293 HD
ENDBRANCH   6  24
BRANCH   8  26
ATOM     26  O   UNL     1      -2.658  49.844  10.467  1.00  0.00    -0.508 OA
ATOM     27  H   UNL     1      -2.649  50.847  10.324  1.00  0.00     0.293 HD
ENDBRANCH   8  26
TORSDOF 6
ENDMDL
MODEL 6
REMARK VINA RESULT:    -5.251      2.021      6.758
REMARK INTER + INTRA:          -6.740
REMARK INTER:                  -6.367
REMARK INTRA:                  -0.373
REMARK UNBOUND:                -0.414
REMARK SMILES O=c1c(O)c(-c2ccc(O)cc2O)oc2cc(O)cc(O)c12
REMARK SMILES IDX 5 1 3 2 2 3 1 4 22 5 20 6 19 7 17 8 16 9 15 10 14 11 6 12
REMARK SMILES IDX 8 13 7 14 9 15 11 16 12 17 10 18 13 20 4 22 21 24 18 26
REMARK H PARENT 10 19 13 21 4 23 21 25 18 27
REMARK Flexibility Score: inf
ROOT
ATOM      1  C   UNL     1       2.198  38.293   6.857  1.00  0.00     0.184 A 
ATOM      2  C   UNL     1       1.662  37.239   6.104  1.00  0.00     0.208 A 
ATOM      3  C   UNL     1       0.268  37.143   5.963  1.00  0.00     0.238 A 
ATOM      4  O   UNL     1      -0.210  36.160   5.338  1.00  0.00    -0.285 OA
ATOM      5  C   UNL     1      -0.568  38.121   6.555  1.00  0.00     0.111 A 
ATOM      6  C   UNL     1      -1.991  38.146   6.444  1.00  0.00     0.134 A 
ATOM      7  C   UNL     1      -2.724  39.092   7.172  1.00  0.00     0.093 A 
ATOM      8  C   UNL     1      -2.081  40.054   7.956  1.00  0.00     0.123 A 
ATOM      9  C   UNL     1      -0.691  40.074   8.024  1.00  0.00     0.094 A 
ATOM     10  C   UNL     1       0.066  39.120   7.339  1.00  0.00     0.146 A 
ATOM     11  O   UNL     1       1.390  39.168   7.444  1.00  0.00    -0.451 OA
ENDROOT
BRANCH   1  12
ATOM     12  C   UNL     1       3.659  38.457   7.020  1.00  0.00     0.063 A 
ATOM     13  C   UNL     1       5.715  37.815   8.153  1.00  0.00     0.047 A 
ATOM     14  C   UNL     1       4.328  37.722   8.013  1.00  0.00     0.020 A 
ATOM     15  C   UNL     1       6.453  38.640   7.296  1.00  0.00     0.119 A 
ATOM     16  C   UNL     1       5.798  39.373   6.304  1.00  0.00     0.093 A 
ATOM     17  C   UNL     1       4.406  39.297   6.161  1.00  0.00     0.130 A 
BRANCH  15  18
ATOM     18  O   UNL     1       7.837  38.737   7.423  1.00  0.00    -0.508 OA
ATOM     19  H   UNL     1       8.459  38.448   6.677  1.00  0.00     0.293 HD
ENDBRANCH  15  18
BRANCH  17  20
ATOM     20  O   UNL     1       3.801  40.080   5.176  1.00  0.00    -0.507 OA
ATOM     21  H   UNL     1       3.310  39.688   4.383  1.00  0.00     0.293 HD
ENDBRANCH  17  20
ENDBRANCH   1  12
BRANCH   2  22
ATOM     22  O   UNL     1       2.510  36.289   5.529  1.00  0.00    -0.502 OA
ATOM     23  H   UNL     1       2.173  35.569   4.902  1.00  0.00     0.293 HD
ENDBRANCH   2  22
BRANCH   6  24
ATOM     24  O   UNL     1      -2.726  37.290   5.618  1.00  0.00    -0.507 OA
ATOM     25  H   UNL     1      -2.929  37.462   4.645  1.00  0.00     0.293 HD
ENDBRANCH   6  24
BRANCH   8  26
ATOM     26  O   UNL     1      -2.817  41.001   8.664  1.00  0.00    -0.508 OA
ATOM     27  H   UNL     1      -3.144  40.821   9.607  1.00  0.00     0.293 HD
ENDBRANCH   8  26
TORSDOF 6
ENDMDL
MODEL 7
REMARK VINA RESULT:    -4.996      5.778      9.018
REMARK INTER + INTRA:          -6.433
REMARK INTER:                  -6.036
REMARK INTRA:                  -0.397
REMARK UNBOUND:                -0.414
REMARK SMILES O=c1c(O)c(-c2ccc(O)cc2O)oc2cc(O)cc(O)c12
REMARK SMILES IDX 5 1 3 2 2 3 1 4 22 5 20 6 19 7 17 8 16 9 15 10 14 11 6 12
REMARK SMILES IDX 8 13 7 14 9 15 11 16 12 17 10 18 13 20 4 22 21 24 18 26
REMARK H PARENT 10 19 13 21 4 23 21 25 18 27
REMARK Flexibility Score: inf
ROOT
ATOM      1  C   UNL     1      -2.667  40.549   7.951  1.00  0.00     0.184 A 
ATOM      2  C   UNL     1      -3.391  40.155   9.085  1.00  0.00     0.208 A 
ATOM      3  C   UNL     1      -4.273  41.071   9.682  1.00  0.00     0.238 A 
ATOM      4  O   UNL     1      -4.873  40.733  10.735  1.00  0.00    -0.285 OA
ATOM      5  C   UNL     1      -4.438  42.359   9.117  1.00  0.00     0.111 A 
ATOM      6  C   UNL     1      -5.332  43.354   9.613  1.00  0.00     0.134 A 
ATOM      7  C   UNL     1      -5.324  44.635   9.048  1.00  0.00     0.093 A 
ATOM      8  C   UNL     1      -4.498  44.938   7.961  1.00  0.00     0.123 A 
ATOM      9  C   UNL     1      -3.664  43.957   7.432  1.00  0.00     0.094 A 
ATOM     10  C   UNL     1      -3.624  42.680   7.999  1.00  0.00     0.146 A 
ATOM     11  O   UNL     1      -2.802  41.778   7.471  1.00  0.00    -0.451 OA
ENDROOT
BRANCH   1  12
ATOM     12  C   UNL     1      -1.743  39.618   7.267  1.00  0.00     0.063 A 
ATOM     13  C   UNL     1      -1.312  38.083   5.428  1.00  0.00     0.047 A 
ATOM     14  C   UNL     1      -2.181  38.925   6.126  1.00  0.00     0.020 A 
ATOM     15  C   UNL     1       0.011  37.927   5.858  1.00  0.00     0.119 A 
ATOM     16  C   UNL     1       0.458  38.614   6.990  1.00  0.00     0.093 A 
ATOM     17  C   UNL     1      -0.407  39.453   7.705  1.00  0.00     0.130 A 
BRANCH  15  18
ATOM     18  O   UNL     1       0.888  37.094   5.167  1.00  0.00    -0.508 OA
ATOM     19  H   UNL     1       0.655  36.128   4.970  1.00  0.00     0.293 HD
ENDBRANCH  15  18
BRANCH  17  20
ATOM     20  O   UNL     1       0.084  40.084   8.848  1.00  0.00    -0.507 OA
ATOM     21  H   UNL     1       0.649  39.611   9.541  1.00  0.00     0.293 HD
ENDBRANCH  17  20
ENDBRANCH   1  12
BRANCH   2  22
ATOM     22  O   UNL     1      -3.211  38.877   9.620  1.00  0.00    -0.502 OA
ATOM     23  H   UNL     1      -2.743  38.719  10.505  1.00  0.00     0.293 HD
ENDBRANCH   2  22
BRANCH   6  24
ATOM     24  O   UNL     1      -6.262  43.130  10.633  1.00  0.00    -0.507 OA
ATOM     25  H   UNL     1      -6.046  42.724  11.531  1.00  0.00     0.293 HD
ENDBRANCH   6  24
BRANCH   8  26
ATOM     26  O   UNL     1      -4.507  46.210   7.395  1.00  0.00    -0.508 OA
ATOM     27  H   UNL     1      -5.157  46.923   7.704  1.00  0.00     0.293 HD
ENDBRANCH   8  26
TORSDOF 6
ENDMDL
MODEL 8
REMARK VINA RESULT:    -4.914      3.402      8.146
REMARK INTER + INTRA:          -6.333
REMARK INTER:                  -5.931
REMARK INTRA:                  -0.402
REMARK UNBOUND:                -0.414
REMARK SMILES O=c1c(O)c(-c2ccc(O)cc2O)oc2cc(O)cc(O)c12
REMARK SMILES IDX 5 1 3 2 2 3 1 4 22 5 20 6 19 7 17 8 16 9 15 10 14 11 6 12
REMARK SMILES IDX 8 13 7 14 9 15 11 16 12 17 10 18 13 20 4 22 21 24 18 26
REMARK H PARENT 10 19 13 21 4 23 21 25 18 27
REMARK Flexibility Score: inf
ROOT
ATOM      1  C   UNL     1      -1.345  35.904   6.737  1.00  0.00     0.184 A 
ATOM      2  C   UNL     1      -2.588  35.985   6.095  1.00  0.00     0.208 A 
ATOM      3  C   UNL     1      -3.718  35.438   6.726  1.00  0.00     0.238 A 
ATOM      4  O   UNL     1      -4.819  35.459   6.118  1.00  0.00    -0.285 OA
ATOM      5  C   UNL     1      -3.589  34.844   8.005  1.00  0.00     0.111 A 
ATOM      6  C   UNL     1      -4.671  34.294   8.755  1.00  0.00     0.134 A 
ATOM      7  C   UNL     1      -4.409  33.622   9.956  1.00  0.00     0.093 A 
ATOM      8  C   UNL     1      -3.110  33.537  10.465  1.00  0.00     0.123 A 
ATOM      9  C   UNL     1      -2.055  34.121   9.769  1.00  0.00     0.094 A 
ATOM     10  C   UNL     1      -2.281  34.766   8.550  1.00  0.00     0.146 A 
ATOM     11  O   UNL     1      -1.243  35.297   7.912  1.00  0.00    -0.451 OA
ENDROOT
BRANCH   1  12
ATOM     12  C   UNL     1      -0.126  36.483   6.130  1.00  0.00     0.063 A 
ATOM     13  C   UNL     1       1.256  38.437   5.688  1.00  0.00     0.047 A 
ATOM     14  C   UNL     1       0.088  37.870   6.203  1.00  0.00     0.020 A 
ATOM     15  C   UNL     1       2.230  37.624   5.098  1.00  0.00     0.119 A 
ATOM     16  C   UNL     1       2.028  36.243   5.021  1.00  0.00     0.093 A 
ATOM     17  C   UNL     1       0.856  35.664   5.524  1.00  0.00     0.130 A 
BRANCH  15  18
ATOM     18  O   UNL     1       3.401  38.178   4.585  1.00  0.00    -0.508 OA
ATOM     19  H   UNL     1       4.260  37.643   4.532  1.00  0.00     0.293 HD
ENDBRANCH  15  18
BRANCH  17  20
ATOM     20  O   UNL     1       0.691  34.285   5.388  1.00  0.00    -0.507 OA
ATOM     21  H   UNL     1       0.131  33.730   6.022  1.00  0.00     0.293 HD
ENDBRANCH  17  20
ENDBRANCH   1  12
BRANCH   2  22
ATOM     22  O   UNL     1      -2.686  36.580   4.834  1.00  0.00    -0.502 OA
ATOM     23  H   UNL     1      -2.369  36.119   3.989  1.00  0.00     0.293 HD
ENDBRANCH   2  22
BRANCH   6  24
ATOM     24  O   UNL     1      -6.015  34.402   8.384  1.00  0.00    -0.507 OA
ATOM     25  H   UNL     1      -6.757  33.812   8.728  1.00  0.00     0.293 HD
ENDBRANCH   6  24
BRANCH   8  26
ATOM     26  O   UNL     1      -2.859  32.880  11.667  1.00  0.00    -0.508 OA
ATOM     27  H   UNL     1      -1.979  32.991  12.158  1.00  0.00     0.293 HD
ENDBRANCH   8  26
TORSDOF 6
ENDMDL
MODEL 9
REMARK VINA RESULT:    -4.898      4.753      8.312
REMARK INTER + INTRA:          -6.315
REMARK INTER:                  -6.031
REMARK INTRA:                  -0.284
REMARK UNBOUND:                -0.414
REMARK SMILES O=c1c(O)c(-c2ccc(O)cc2O)oc2cc(O)cc(O)c12
REMARK SMILES IDX 5 1 3 2 2 3 1 4 22 5 20 6 19 7 17 8 16 9 15 10 14 11 6 12
REMARK SMILES IDX 8 13 7 14 9 15 11 16 12 17 10 18 13 20 4 22 21 24 18 26
REMARK H PARENT 10 19 13 21 4 23 21 25 18 27
REMARK Flexibility Score: inf
ROOT
ATOM      1  C   UNL     1      -3.559  38.979   8.038  1.00  0.00     0.184 A 
ATOM      2  C   UNL     1      -4.447  37.895   8.085  1.00  0.00     0.208 A 
ATOM      3  C   UNL     1      -4.009  36.637   7.642  1.00  0.00     0.238 A 
ATOM      4  O   UNL     1      -4.829  35.682   7.629  1.00  0.00    -0.285 OA
ATOM      5  C   UNL     1      -2.678  36.476   7.185  1.00  0.00     0.111 A 
ATOM      6  C   UNL     1      -2.114  35.239   6.750  1.00  0.00     0.134 A 
ATOM      7  C   UNL     1      -0.825  35.222   6.204  1.00  0.00     0.093 A 
ATOM      8  C   UNL     1      -0.055  36.387   6.137  1.00  0.00     0.123 A 
ATOM      9  C   UNL     1      -0.575  37.588   6.612  1.00  0.00     0.094 A 
ATOM     10  C   UNL     1      -1.872  37.643   7.129  1.00  0.00     0.146 A 
ATOM     11  O   UNL     1      -2.334  38.813   7.558  1.00  0.00    -0.451 OA
ENDROOT
BRANCH   1  12
ATOM     12  C   UNL     1      -3.959  40.322   8.514  1.00  0.00     0.063 A 
ATOM     13  C   UNL     1      -4.531  42.631   7.998  1.00  0.00     0.047 A 
ATOM     14  C   UNL     1      -4.101  41.368   7.585  1.00  0.00     0.020 A 
ATOM     15  C   UNL     1      -4.831  42.865   9.344  1.00  0.00     0.119 A 
ATOM     16  C   UNL     1      -4.695  41.832  10.276  1.00  0.00     0.093 A 
ATOM     17  C   UNL     1      -4.255  40.564   9.876  1.00  0.00     0.130 A 
BRANCH  15  18
ATOM     18  O   UNL     1      -5.265  44.120   9.767  1.00  0.00    -0.508 OA
ATOM     19  H   UNL     1      -4.667  44.935   9.705  1.00  0.00     0.293 HD
ENDBRANCH  15  18
BRANCH  17  20
ATOM     20  O   UNL     1      -4.102  39.580  10.855  1.00  0.00    -0.507 OA
ATOM     21  H   UNL     1      -3.224  39.112  11.035  1.00  0.00     0.293 HD
ENDBRANCH  17  20
ENDBRANCH   1  12
BRANCH   2  22
ATOM     22  O   UNL     1      -5.753  38.082   8.544  1.00  0.00    -0.502 OA
ATOM     23  H   UNL     1      -6.508  37.449   8.307  1.00  0.00     0.293 HD
ENDBRANCH   2  22
BRANCH   6  24
ATOM     24  O   UNL     1      -2.761  34.004   6.857  1.00  0.00    -0.507 OA
ATOM     25  H   UNL     1      -3.624  33.848   7.354  1.00  0.00     0.293 HD
ENDBRANCH   6  24
BRANCH   8  26
ATOM     26  O   UNL     1       1.233  36.358   5.607  1.00  0.00    -0.508 OA
ATOM     27  H   UNL     1       1.508  36.974   4.850  1.00  0.00     0.293 HD
ENDBRANCH   8  26
TORSDOF 6
ENDMDL
