MODEL 1
REMARK VINA RESULT:    -5.135      0.000      0.000
REMARK INTER + INTRA:          -6.032
REMARK INTER:                  -5.886
REMARK INTRA:                  -0.146
REMARK UNBOUND:                -0.146
REMARK SMILES O=C([O-])C=Cc1ccc(O)cc1
REMARK SMILES IDX 6 1 7 2 12 3 8 4 11 5 9 6 5 7 4 8 2 9 1 10 3 11 10 12
REMARK H PARENT 10 13
REMARK Flexibility Score: inf
ROOT
ATOM      1  C   UNL     1       6.424  11.166   5.772  1.00  0.00    -0.025 A 
ATOM      2  C   UNL     1       6.480  11.964   4.610  1.00  0.00     0.012 A 
ATOM      3  C   UNL     1       7.628  10.770   6.379  1.00  0.00     0.012 A 
ATOM      4  C   UNL     1       7.714  12.333   4.063  1.00  0.00     0.047 A 
ATOM      5  C   UNL     1       8.859  11.140   5.828  1.00  0.00     0.047 A 
ATOM      6  C   UNL     1       8.905  11.920   4.666  1.00  0.00     0.115 A 
ENDROOT
BRANCH   1   7
ATOM      7  C   UNL     1       5.143  10.758   6.400  1.00  0.00     0.010 C 
ATOM      8  C   UNL     1       4.887  10.869   7.710  1.00  0.00     0.025 C 
BRANCH   8   9
ATOM      9  C   UNL     1       3.596  10.463   8.287  1.00  0.00     0.064 C 
ATOM     10  O   UNL     1       2.573  10.426   7.555  1.00  0.00    -0.545 OA
ATOM     11  O   UNL     1       3.487  10.121   9.630  1.00  0.00    -0.545 OA
ENDBRANCH   8   9
ENDBRANCH   1   7
BRANCH   6  12
ATOM     12  O   UNL     1      10.125  12.294   4.109  1.00  0.00    -0.508 OA
ATOM     13  H   UNL     1      10.828  11.606   3.865  1.00  0.00     0.293 HD
ENDBRANCH   6  12
TORSDOF 3
ENDMDL
MODEL 2
REMARK VINA RESULT:    -5.084      0.882      1.778
REMARK INTER + INTRA:          -5.973
REMARK INTER:                  -5.837
REMARK INTRA:                  -0.136
REMARK UNBOUND:                -0.146
REMARK SMILES O=C([O-])C=Cc1ccc(O)cc1
REMARK SMILES IDX 6 1 7 2 12 3 8 4 11 5 9 6 5 7 4 8 2 9 1 10 3 11 10 12
REMARK H PARENT 10 13
REMARK Flexibility Score: inf
ROOT
ATOM      1  C   UNL     1       6.912  11.020   5.919  1.00  0.00    -0.025 A 
ATOM      2  C   UNL     1       8.265  10.803   6.256  1.00  0.00     0.012 A 
ATOM      3  C   UNL     1       6.614  11.781   4.775  1.00  0.00     0.012 A 
ATOM      4  C   UNL     1       9.286  11.357   5.477  1.00  0.00     0.047 A 
ATOM      5  C   UNL     1       7.638  12.334   4.000  1.00  0.00     0.047 A 
ATOM      6  C   UNL     1       8.978  12.125   4.351  1.00  0.00     0.115 A 
ENDROOT
BRANCH   1   7
ATOM      7  C   UNL     1       5.791  10.446   6.703  1.00  0.00     0.010 C 
ATOM      8  C   UNL     1       5.637  10.623   8.022  1.00  0.00     0.025 C 
BRANCH   8   9
ATOM      9  C   UNL     1       4.502  10.044   8.757  1.00  0.00     0.064 C 
ATOM     10  O   UNL     1       4.125  10.573   9.834  1.00  0.00    -0.545 OA
ATOM     11  O   UNL     1       3.839   8.918   8.282  1.00  0.00    -0.545 OA
ENDBRANCH   8   9
ENDBRANCH   1   7
BRANCH   6  12
ATOM     12  O   UNL     1      10.006  12.671   3.586  1.00  0.00    -0.508 OA
ATOM     13  H   UNL     1      10.547  13.462   3.915  1.00  0.00     0.293 HD
ENDBRANCH   6  12
TORSDOF 3
ENDMDL
MODEL 3
REMARK VINA RESULT:    -5.005      1.361      5.950
REMARK INTER + INTRA:          -5.883
REMARK INTER:                  -5.744
REMARK INTRA:                  -0.139
REMARK UNBOUND:                -0.146
REMARK SMILES O=C([O-])C=Cc1ccc(O)cc1
REMARK SMILES IDX 6 1 7 2 12 3 8 4 11 5 9 6 5 7 4 8 2 9 1 10 3 11 10 12
REMARK H PARENT 10 13
REMARK Flexibility Score: inf
ROOT
ATOM      1  C   UNL     1       5.399  11.085   7.403  1.00  0.00    -0.025 A 
ATOM      2  C   UNL     1       4.956   9.746   7.377  1.00  0.00     0.012 A 
ATOM      3  C   UNL     1       4.852  11.960   8.357  1.00  0.00     0.012 A 
ATOM      4  C   UNL     1       3.973   9.308   8.270  1.00  0.00     0.047 A 
ATOM      5  C   UNL     1       3.868  11.517   9.248  1.00  0.00     0.047 A 
ATOM      6  C   UNL     1       3.425  10.190   9.204  1.00  0.00     0.115 A 
ENDROOT
BRANCH   1   7
ATOM      7  C   UNL     1       6.448  11.598   6.487  1.00  0.00     0.010 C 
ATOM      8  C   UNL     1       7.521  10.890   6.112  1.00  0.00     0.025 C 
BRANCH   8   9
ATOM      9  C   UNL     1       8.530  11.436   5.191  1.00  0.00     0.064 C 
ATOM     10  O   UNL     1       9.748  11.389   5.505  1.00  0.00    -0.545 OA
ATOM     11  O   UNL     1       8.160  12.008   3.979  1.00  0.00    -0.545 OA
ENDBRANCH   8   9
ENDBRANCH   1   7
BRANCH   6  12
ATOM     12  O   UNL     1       2.445   9.739  10.086  1.00  0.00    -0.508 OA
ATOM     13  H   UNL     1       2.440  10.019  11.059  1.00  0.00     0.293 HD
ENDBRANCH   6  12
TORSDOF 3
ENDMDL
MODEL 4
REMARK VINA RESULT:    -3.879     17.686     18.639
REMARK INTER + INTRA:          -4.593
REMARK INTER:                  -4.447
REMARK INTRA:                  -0.146
REMARK UNBOUND:                -0.146
REMARK SMILES O=C([O-])C=Cc1ccc(O)cc1
REMARK SMILES IDX 6 1 7 2 12 3 8 4 11 5 9 6 5 7 4 8 2 9 1 10 3 11 10 12
REMARK H PARENT 10 13
REMARK Flexibility Score: inf
ROOT
ATOM      1  C   UNL     1      -6.262   9.948  -7.157  1.00  0.00    -0.025 A 
ATOM      2  C   UNL     1      -5.270  10.723  -6.522  1.00  0.00     0.012 A 
ATOM      3  C   UNL     1      -6.016   9.465  -8.454  1.00  0.00     0.012 A 
ATOM      4  C   UNL     1      -4.075  11.023  -7.184  1.00  0.00     0.047 A 
ATOM      5  C   UNL     1      -4.820   9.768  -9.112  1.00  0.00     0.047 A 
ATOM      6  C   UNL     1      -3.847  10.550  -8.479  1.00  0.00     0.115 A 
ENDROOT
BRANCH   1   7
ATOM      7  C   UNL     1      -7.542   9.590  -6.496  1.00  0.00     0.010 C 
ATOM      8  C   UNL     1      -8.018   8.340  -6.421  1.00  0.00     0.025 C 
BRANCH   8   9
ATOM      9  C   UNL     1      -9.287   8.031  -5.744  1.00  0.00     0.064 C 
ATOM     10  O   UNL     1     -10.110   8.955  -5.518  1.00  0.00    -0.545 OA
ATOM     11  O   UNL     1      -9.590   6.734  -5.346  1.00  0.00    -0.545 OA
ENDBRANCH   8   9
ENDBRANCH   1   7
BRANCH   6  12
ATOM     12  O   UNL     1      -2.653  10.859  -9.125  1.00  0.00    -0.508 OA
ATOM     13  H   UNL     1      -1.757  10.580  -8.743  1.00  0.00     0.293 HD
ENDBRANCH   6  12
TORSDOF 3
ENDMDL
MODEL 5
REMARK VINA RESULT:    -3.671      1.700      2.116
REMARK INTER + INTRA:          -4.354
REMARK INTER:                  -4.212
REMARK INTRA:                  -0.142
REMARK UNBOUND:                -0.146
REMARK SMILES O=C([O-])C=Cc1ccc(O)cc1
REMARK SMILES IDX 6 1 7 2 12 3 8 4 11 5 9 6 5 7 4 8 2 9 1 10 3 11 10 12
REMARK H PARENT 10 13
REMARK Flexibility Score: inf
ROOT
ATOM      1  C   UNL     1       4.979  11.628   6.539  1.00  0.00    -0.025 A 
ATOM      2  C   UNL     1       5.208  10.936   5.332  1.00  0.00     0.012 A 
ATOM      3  C   UNL     1       5.790  12.733   6.850  1.00  0.00     0.012 A 
ATOM      4  C   UNL     1       6.239  11.331   4.474  1.00  0.00     0.047 A 
ATOM      5  C   UNL     1       6.820  13.125   5.989  1.00  0.00     0.047 A 
ATOM      6  C   UNL     1       7.049  12.422   4.800  1.00  0.00     0.115 A 
ENDROOT
BRANCH   1   7
ATOM      7  C   UNL     1       3.892  11.258   7.479  1.00  0.00     0.010 C 
ATOM      8  C   UNL     1       4.052  11.167   8.806  1.00  0.00     0.025 C 
BRANCH   8   9
ATOM      9  C   UNL     1       2.941  10.808   9.701  1.00  0.00     0.064 C 
ATOM     10  O   UNL     1       2.919   9.671  10.238  1.00  0.00    -0.545 OA
ATOM     11  O   UNL     1       1.911  11.705   9.960  1.00  0.00    -0.545 OA
ENDBRANCH   8   9
ENDBRANCH   1   7
BRANCH   6  12
ATOM     12  O   UNL     1       8.073  12.803   3.935  1.00  0.00    -0.508 OA
ATOM     13  H   UNL     1       8.345  12.224   3.150  1.00  0.00     0.293 HD
ENDBRANCH   6  12
TORSDOF 3
ENDMDL
MODEL 6
REMARK VINA RESULT:    -3.547      5.176      7.330
REMARK INTER + INTRA:          -4.211
REMARK INTER:                  -4.061
REMARK INTRA:                  -0.150
REMARK UNBOUND:                -0.146
REMARK SMILES O=C([O-])C=Cc1ccc(O)cc1
REMARK SMILES IDX 6 1 7 2 12 3 8 4 11 5 9 6 5 7 4 8 2 9 1 10 3 11 10 12
REMARK H PARENT 10 13
REMARK Flexibility Score: inf
ROOT
ATOM      1  C   UNL     1       0.483  12.480   8.966  1.00  0.00    -0.025 A 
ATOM      2  C   UNL     1       1.413  13.125   9.807  1.00  0.00     0.012 A 
ATOM      3  C   UNL     1       0.888  11.333   8.262  1.00  0.00     0.012 A 
ATOM      4  C   UNL     1       2.721  12.641   9.918  1.00  0.00     0.047 A 
ATOM      5  C   UNL     1       2.197  10.854   8.374  1.00  0.00     0.047 A 
ATOM      6  C   UNL     1       3.118  11.509   9.201  1.00  0.00     0.115 A 
ENDROOT
BRANCH   1   7
ATOM      7  C   UNL     1      -0.920  12.943   8.822  1.00  0.00     0.010 C 
ATOM      8  C   UNL     1      -1.904  12.192   8.311  1.00  0.00     0.025 C 
BRANCH   8   9
ATOM      9  C   UNL     1      -3.284  12.690   8.200  1.00  0.00     0.064 C 
ATOM     10  O   UNL     1      -4.017  12.720   9.222  1.00  0.00    -0.545 OA
ATOM     11  O   UNL     1      -3.794  13.125   6.982  1.00  0.00    -0.545 OA
ENDBRANCH   8   9
ENDBRANCH   1   7
BRANCH   6  12
ATOM     12  O   UNL     1       4.424  11.041   9.320  1.00  0.00    -0.508 OA
ATOM     13  H   UNL     1       4.714  10.168   8.897  1.00  0.00     0.293 HD
ENDBRANCH   6  12
TORSDOF 3
ENDMDL
