MODEL 1
REMARK VINA RESULT:    -3.742      0.000      0.000
REMARK INTER + INTRA:          -3.851
REMARK INTER:                  -3.851
REMARK INTRA:                   0.000
REMARK UNBOUND:                 0.000
REMARK SMILES CC1(C)[C@@H]2CC[C@@](C)(C2)[C@H]1O
REMARK SMILES IDX 1 1 2 2 4 3 5 4 6 5 7 6 9 7 10 8 8 9 3 10 11 11
REMARK H PARENT 11 12
REMARK Flexibility Score: inf
ROOT
ATOM      1  C   UNL     1     113.377 115.147 119.769  1.00  0.00     0.014 C 
ATOM      2  C   UNL     1     114.869 115.552 119.895  1.00  0.00    -0.006 C 
ATOM      3  C   UNL     1     115.048 117.056 119.489  1.00  0.00    -0.002 C 
ATOM      4  C   UNL     1     116.538 117.424 119.330  1.00  0.00     0.005 C 
ATOM      5  C   UNL     1     117.063 117.360 120.773  1.00  0.00     0.010 C 
ATOM      6  C   UNL     1     115.784 117.055 121.589  1.00  0.00    -0.006 C 
ATOM      7  C   UNL     1     114.735 117.790 120.781  1.00  0.00     0.013 C 
ATOM      8  C   UNL     1     115.402 115.560 121.371  1.00  0.00     0.126 C 
ATOM      9  C   UNL     1     115.887 117.498 123.055  1.00  0.00     0.014 C 
ATOM     10  C   UNL     1     115.683 114.574 119.013  1.00  0.00     0.014 C 
ENDROOT
BRANCH   8  11
ATOM     11  O   UNL     1     114.466 115.076 122.308  1.00  0.00    -0.392 OA
ATOM     12  H   UNL     1     113.551 115.222 121.955  1.00  0.00     0.211 HD
ENDBRANCH   8  11
TORSDOF 1
ENDMDL
MODEL 2
REMARK VINA RESULT:    -3.721      1.988      2.752
REMARK INTER + INTRA:          -3.830
REMARK INTER:                  -3.830
REMARK INTRA:                   0.000
REMARK UNBOUND:                 0.000
REMARK SMILES CC1(C)[C@@H]2CC[C@@](C)(C2)[C@H]1O
REMARK SMILES IDX 1 1 2 2 4 3 5 4 6 5 7 6 9 7 10 8 8 9 3 10 11 11
REMARK H PARENT 11 12
REMARK Flexibility Score: inf
ROOT
ATOM      1  C   UNL     1     118.074 113.448 119.739  1.00  0.00     0.014 C 
ATOM      2  C   UNL     1     117.642 114.933 119.863  1.00  0.00    -0.006 C 
ATOM      3  C   UNL     1     116.142 115.087 119.433  1.00  0.00    -0.002 C 
ATOM      4  C   UNL     1     115.751 116.572 119.272  1.00  0.00     0.005 C 
ATOM      5  C   UNL     1     115.784 117.093 120.718  1.00  0.00     0.010 C 
ATOM      6  C   UNL     1     116.097 115.818 121.536  1.00  0.00    -0.006 C 
ATOM      7  C   UNL     1     115.393 114.758 120.713  1.00  0.00     0.013 C 
ATOM      8  C   UNL     1     117.602 115.462 121.339  1.00  0.00     0.126 C 
ATOM      9  C   UNL     1     115.630 115.909 122.995  1.00  0.00     0.014 C 
ATOM     10  C   UNL     1     118.620 115.766 118.998  1.00  0.00     0.014 C 
ENDROOT
BRANCH   8  11
ATOM     11  O   UNL     1     118.087 114.531 122.282  1.00  0.00    -0.392 OA
ATOM     12  H   UNL     1     117.693 113.643 122.091  1.00  0.00     0.211 HD
ENDBRANCH   8  11
TORSDOF 1
ENDMDL
MODEL 3
REMARK VINA RESULT:    -3.709      1.996      2.751
REMARK INTER + INTRA:          -3.818
REMARK INTER:                  -3.818
REMARK INTRA:                   0.000
REMARK UNBOUND:                 0.000
REMARK SMILES CC1(C)[C@@H]2CC[C@@](C)(C2)[C@H]1O
REMARK SMILES IDX 1 1 2 2 4 3 5 4 6 5 7 6 9 7 10 8 8 9 3 10 11 11
REMARK H PARENT 11 12
REMARK Flexibility Score: inf
ROOT
ATOM      1  C   UNL     1     115.141 119.799 119.753  1.00  0.00     0.014 C 
ATOM      2  C   UNL     1     115.543 118.305 119.871  1.00  0.00    -0.006 C 
ATOM      3  C   UNL     1     117.044 118.124 119.456  1.00  0.00    -0.002 C 
ATOM      4  C   UNL     1     117.407 116.633 119.288  1.00  0.00     0.005 C 
ATOM      5  C   UNL     1     117.349 116.102 120.729  1.00  0.00     0.010 C 
ATOM      6  C   UNL     1     117.052 117.377 121.553  1.00  0.00    -0.006 C 
ATOM      7  C   UNL     1     117.786 118.429 120.746  1.00  0.00     0.013 C 
ATOM      8  C   UNL     1     115.556 117.764 121.343  1.00  0.00     0.126 C 
ATOM      9  C   UNL     1     117.502 117.266 123.016  1.00  0.00     0.014 C 
ATOM     10  C   UNL     1     114.558 117.497 118.989  1.00  0.00     0.014 C 
ENDROOT
BRANCH   8  11
ATOM     11  O   UNL     1     115.080 118.698 122.287  1.00  0.00    -0.392 OA
ATOM     12  H   UNL     1     115.676 118.691 123.078  1.00  0.00     0.211 HD
ENDBRANCH   8  11
TORSDOF 1
ENDMDL
MODEL 4
REMARK VINA RESULT:    -3.676      1.494      2.390
REMARK INTER + INTRA:          -3.784
REMARK INTER:                  -3.784
REMARK INTRA:                   0.000
REMARK UNBOUND:                 0.000
REMARK SMILES CC1(C)[C@@H]2CC[C@@](C)(C2)[C@H]1O
REMARK SMILES IDX 1 1 2 2 4 3 5 4 6 5 7 6 9 7 10 8 8 9 3 10 11 11
REMARK H PARENT 11 12
REMARK Flexibility Score: inf
ROOT
ATOM      1  C   UNL     1     114.748 118.490 121.313  1.00  0.00     0.014 C 
ATOM      2  C   UNL     1     115.625 117.366 120.702  1.00  0.00    -0.006 C 
ATOM      3  C   UNL     1     117.094 117.881 120.514  1.00  0.00    -0.002 C 
ATOM      4  C   UNL     1     117.929 116.905 119.658  1.00  0.00     0.005 C 
ATOM      5  C   UNL     1     118.075 115.682 120.579  1.00  0.00     0.010 C 
ATOM      6  C   UNL     1     117.384 116.150 121.882  1.00  0.00    -0.006 C 
ATOM      7  C   UNL     1     117.713 117.629 121.877  1.00  0.00     0.013 C 
ATOM      8  C   UNL     1     115.842 116.139 121.655  1.00  0.00     0.126 C 
ATOM      9  C   UNL     1     117.870 115.392 123.125  1.00  0.00     0.014 C 
ATOM     10  C   UNL     1     114.950 116.931 119.377  1.00  0.00     0.014 C 
ENDROOT
BRANCH   8  11
ATOM     11  O   UNL     1     115.097 116.221 122.851  1.00  0.00    -0.392 OA
ATOM     12  H   UNL     1     114.164 115.944 122.669  1.00  0.00     0.211 HD
ENDBRANCH   8  11
TORSDOF 1
ENDMDL
MODEL 5
REMARK VINA RESULT:    -3.671      1.848      3.255
REMARK INTER + INTRA:          -3.778
REMARK INTER:                  -3.778
REMARK INTRA:                   0.000
REMARK UNBOUND:                 0.000
REMARK SMILES CC1(C)[C@@H]2CC[C@@](C)(C2)[C@H]1O
REMARK SMILES IDX 1 1 2 2 4 3 5 4 6 5 7 6 9 7 10 8 8 9 3 10 11 11
REMARK H PARENT 11 12
REMARK Flexibility Score: inf
ROOT
ATOM      1  C   UNL     1     115.469 117.669 122.820  1.00  0.00     0.014 C 
ATOM      2  C   UNL     1     115.769 116.283 122.191  1.00  0.00    -0.006 C 
ATOM      3  C   UNL     1     115.213 116.233 120.725  1.00  0.00    -0.002 C 
ATOM      4  C   UNL     1     115.237 114.796 120.162  1.00  0.00     0.005 C 
ATOM      5  C   UNL     1     116.740 114.515 120.004  1.00  0.00     0.010 C 
ATOM      6  C   UNL     1     117.385 115.862 120.408  1.00  0.00    -0.006 C 
ATOM      7  C   UNL     1     116.344 116.848 119.919  1.00  0.00     0.013 C 
ATOM      8  C   UNL     1     117.295 116.007 121.957  1.00  0.00     0.126 C 
ATOM      9  C   UNL     1     118.784 116.062 119.810  1.00  0.00     0.014 C 
ATOM     10  C   UNL     1     115.145 115.215 123.123  1.00  0.00     0.014 C 
ENDROOT
BRANCH   8  11
ATOM     11  O   UNL     1     118.133 117.017 122.477  1.00  0.00    -0.392 OA
ATOM     12  H   UNL     1     117.737 117.366 123.315  1.00  0.00     0.211 HD
ENDBRANCH   8  11
TORSDOF 1
ENDMDL
MODEL 6
REMARK VINA RESULT:    -3.654      2.352      3.789
REMARK INTER + INTRA:          -3.761
REMARK INTER:                  -3.761
REMARK INTRA:                   0.000
REMARK UNBOUND:                 0.000
REMARK SMILES CC1(C)[C@@H]2CC[C@@](C)(C2)[C@H]1O
REMARK SMILES IDX 1 1 2 2 4 3 5 4 6 5 7 6 9 7 10 8 8 9 3 10 11 11
REMARK H PARENT 11 12
REMARK Flexibility Score: inf
ROOT
ATOM      1  C   UNL     1     119.468 118.126 119.756  1.00  0.00     0.014 C 
ATOM      2  C   UNL     1     118.034 117.568 119.947  1.00  0.00    -0.006 C 
ATOM      3  C   UNL     1     117.990 116.057 119.528  1.00  0.00    -0.002 C 
ATOM      4  C   UNL     1     116.539 115.539 119.434  1.00  0.00     0.005 C 
ATOM      5  C   UNL     1     116.081 115.536 120.901  1.00  0.00     0.010 C 
ATOM      6  C   UNL     1     117.359 115.964 121.661  1.00  0.00    -0.006 C 
ATOM      7  C   UNL     1     118.438 115.348 120.795  1.00  0.00     0.013 C 
ATOM      8  C   UNL     1     117.574 117.492 121.445  1.00  0.00     0.126 C 
ATOM      9  C   UNL     1     117.372 115.500 123.124  1.00  0.00     0.014 C 
ATOM     10  C   UNL     1     117.082 118.465 119.116  1.00  0.00     0.014 C 
ENDROOT
BRANCH   8  11
ATOM     11  O   UNL     1     118.500 118.062 122.344  1.00  0.00    -0.392 OA
ATOM     12  H   UNL     1     118.006 118.552 123.049  1.00  0.00     0.211 HD
ENDBRANCH   8  11
TORSDOF 1
ENDMDL
MODEL 7
REMARK VINA RESULT:    -3.653      1.132      3.329
REMARK INTER + INTRA:          -3.759
REMARK INTER:                  -3.759
REMARK INTRA:                   0.000
REMARK UNBOUND:                 0.000
REMARK SMILES CC1(C)[C@@H]2CC[C@@](C)(C2)[C@H]1O
REMARK SMILES IDX 1 1 2 2 4 3 5 4 6 5 7 6 9 7 10 8 8 9 3 10 11 11
REMARK H PARENT 11 12
REMARK Flexibility Score: inf
ROOT
ATOM      1  C   UNL     1     117.447 117.409 122.986  1.00  0.00     0.014 C 
ATOM      2  C   UNL     1     116.100 117.420 122.217  1.00  0.00    -0.006 C 
ATOM      3  C   UNL     1     116.289 118.118 120.825  1.00  0.00    -0.002 C 
ATOM      4  C   UNL     1     114.931 118.402 120.148  1.00  0.00     0.005 C 
ATOM      5  C   UNL     1     114.422 116.995 119.798  1.00  0.00     0.010 C 
ATOM      6  C   UNL     1     115.596 116.087 120.234  1.00  0.00    -0.006 C 
ATOM      7  C   UNL     1     116.784 116.981 119.948  1.00  0.00     0.013 C 
ATOM      8  C   UNL     1     115.599 115.996 121.790  1.00  0.00     0.126 C 
ATOM      9  C   UNL     1     115.619 114.740 119.499  1.00  0.00     0.014 C 
ATOM     10  C   UNL     1     115.063 118.127 123.125  1.00  0.00     0.014 C 
ENDROOT
BRANCH   8  11
ATOM     11  O   UNL     1     116.400 114.948 122.291  1.00  0.00    -0.392 OA
ATOM     12  H   UNL     1     116.923 114.557 121.546  1.00  0.00     0.211 HD
ENDBRANCH   8  11
TORSDOF 1
ENDMDL
MODEL 8
REMARK VINA RESULT:    -3.647      2.121      3.238
REMARK INTER + INTRA:          -3.754
REMARK INTER:                  -3.754
REMARK INTRA:                   0.000
REMARK UNBOUND:                 0.000
REMARK SMILES CC1(C)[C@@H]2CC[C@@](C)(C2)[C@H]1O
REMARK SMILES IDX 1 1 2 2 4 3 5 4 6 5 7 6 9 7 10 8 8 9 3 10 11 11
REMARK H PARENT 11 12
REMARK Flexibility Score: inf
ROOT
ATOM      1  C   UNL     1     115.665 115.494 122.920  1.00  0.00     0.014 C 
ATOM      2  C   UNL     1     117.026 115.737 122.218  1.00  0.00    -0.006 C 
ATOM      3  C   UNL     1     116.997 115.124 120.775  1.00  0.00    -0.002 C 
ATOM      4  C   UNL     1     118.407 115.093 120.146  1.00  0.00     0.005 C 
ATOM      5  C   UNL     1     118.712 116.582 119.916  1.00  0.00     0.010 C 
ATOM      6  C   UNL     1     117.399 117.272 120.355  1.00  0.00    -0.006 C 
ATOM      7  C   UNL     1     116.370 116.236 119.953  1.00  0.00     0.013 C 
ATOM      8  C   UNL     1     117.324 117.247 121.912  1.00  0.00     0.126 C 
ATOM      9  C   UNL     1     117.202 118.652 119.712  1.00  0.00     0.014 C 
ATOM     10  C   UNL     1     118.123 115.125 123.125  1.00  0.00     0.014 C 
ENDROOT
BRANCH   8  11
ATOM     11  O   UNL     1     116.357 118.126 122.442  1.00  0.00    -0.392 OA
ATOM     12  H   UNL     1     116.786 118.705 123.122  1.00  0.00     0.211 HD
ENDBRANCH   8  11
TORSDOF 1
ENDMDL
MODEL 9
REMARK VINA RESULT:    -3.579      2.084      3.193
REMARK INTER + INTRA:          -3.684
REMARK INTER:                  -3.684
REMARK INTRA:                   0.000
REMARK UNBOUND:                 0.000
REMARK SMILES CC1(C)[C@@H]2CC[C@@](C)(C2)[C@H]1O
REMARK SMILES IDX 1 1 2 2 4 3 5 4 6 5 7 6 9 7 10 8 8 9 3 10 11 11
REMARK H PARENT 11 12
REMARK Flexibility Score: inf
ROOT
ATOM      1  C   UNL     1     117.293 116.620 122.328  1.00  0.00     0.014 C 
ATOM      2  C   UNL     1     116.608 116.658 120.937  1.00  0.00    -0.006 C 
ATOM      3  C   UNL     1     115.050 116.680 121.112  1.00  0.00    -0.002 C 
ATOM      4  C   UNL     1     114.328 116.437 119.770  1.00  0.00     0.005 C 
ATOM      5  C   UNL     1     114.636 117.718 118.978  1.00  0.00     0.010 C 
ATOM      6  C   UNL     1     115.417 118.575 120.002  1.00  0.00    -0.006 C 
ATOM      7  C   UNL     1     114.757 118.159 121.301  1.00  0.00     0.013 C 
ATOM      8  C   UNL     1     116.854 117.988 120.143  1.00  0.00     0.126 C 
ATOM      9  C   UNL     1     115.348 120.078 119.704  1.00  0.00     0.014 C 
ATOM     10  C   UNL     1     117.121 115.431 120.142  1.00  0.00     0.014 C 
ENDROOT
BRANCH   8  11
ATOM     11  O   UNL     1     117.758 118.863 120.782  1.00  0.00    -0.392 OA
ATOM     12  H   UNL     1     118.450 118.329 121.247  1.00  0.00     0.211 HD
ENDBRANCH   8  11
TORSDOF 1
ENDMDL
