MODEL 1
REMARK VINA RESULT:    -6.855      0.000      0.000
REMARK INTER + INTRA:         -13.303
REMARK INTER:                 -11.263
REMARK INTRA:                  -2.040
REMARK UNBOUND:                -2.040
REMARK SMILES C[C@@H]1O[C@@H](OC[C@@H]2O[C@H](Oc3c(-c4ccc(O)c(O)c4)oc4cc(O)cc(O)c4c3=O)[C@H](O)[C@@H](O)[C@H]2O)[C@@H](O)[C@H](O)[C@H]1O
REMARK SMILES IDX 7 1 36 2 34 3 32 4 9 5 8 6 6 7 5 8 4 9 1 10 2 11 42 12 3 13
REMARK SMILES IDX 40 14 38 15 43 16 41 18 39 20 37 22 35 24 10 26 11 27 12 28
REMARK SMILES IDX 30 29 21 30 29 31 31 32 22 33 27 34 23 35 26 36 24 37 13 38
REMARK SMILES IDX 20 39 14 40 18 41 15 42 16 43 19 44 17 46 28 48 25 50 33 52
REMARK H PARENT 43 17 41 19 39 21 37 23 35 25 19 45 17 47 28 49 25 51 33 53
REMARK Flexibility Score: inf
ROOT
ATOM      1  C   UNL     1     -36.944   3.655  82.513  1.00  0.00     0.180 C 
ATOM      2  C   UNL     1     -37.707   3.405  83.832  1.00  0.00     0.177 C 
ATOM      3  C   UNL     1     -39.034   4.183  83.846  1.00  0.00     0.180 C 
ATOM      4  C   UNL     1     -39.844   3.877  82.570  1.00  0.00     0.214 C 
ATOM      5  C   UNL     1     -38.992   4.073  81.307  1.00  0.00     0.339 C 
ATOM      6  O   UNL     1     -37.734   3.401  81.357  1.00  0.00    -0.332 OA
ENDROOT
BRANCH   1   7
ATOM      7  C   UNL     1     -36.192   5.013  82.465  1.00  0.00     0.198 C 
BRANCH   7   8
ATOM      8  O   UNL     1     -35.559   5.154  81.200  1.00  0.00    -0.347 OA
BRANCH   8   9
ATOM      9  C   UNL     1     -34.156   4.934  81.253  1.00  0.00     0.281 C 
ATOM     10  C   UNL     1     -33.211   7.911  83.211  1.00  0.00     0.041 C 
ATOM     11  C   UNL     1     -33.781   7.122  82.028  1.00  0.00     0.150 C 
ATOM     12  C   UNL     1     -33.111   7.565  80.699  1.00  0.00     0.174 C 
ATOM     13  O   UNL     1     -33.561   5.740  82.262  1.00  0.00    -0.344 OA
ATOM     14  C   UNL     1     -33.662   6.718  79.532  1.00  0.00     0.179 C 
ATOM     15  C   UNL     1     -33.531   5.230  79.875  1.00  0.00     0.202 C 
BRANCH  12  16
ATOM     16  O   UNL     1     -33.308   8.935  80.441  1.00  0.00    -0.388 OA
ATOM     17  H   UNL     1     -33.479   9.026  79.461  1.00  0.00     0.211 HD
ENDBRANCH  12  16
BRANCH  14  18
ATOM     18  O   UNL     1     -32.924   6.999  78.372  1.00  0.00    -0.387 OA
ATOM     19  H   UNL     1     -33.587   7.162  77.648  1.00  0.00     0.211 HD
ENDBRANCH  14  18
BRANCH  15  20
ATOM     20  O   UNL     1     -34.176   4.462  78.889  1.00  0.00    -0.385 OA
ATOM     21  H   UNL     1     -33.723   4.667  78.027  1.00  0.00     0.211 HD
ENDBRANCH  15  20
ENDBRANCH   8   9
ENDBRANCH   7   8
ENDBRANCH   1   7
BRANCH   2  22
ATOM     22  O   UNL     1     -37.955   2.018  83.978  1.00  0.00    -0.387 OA
ATOM     23  H   UNL     1     -37.094   1.613  84.259  1.00  0.00     0.211 HD
ENDBRANCH   2  22
BRANCH   3  24
ATOM     24  O   UNL     1     -39.767   3.885  85.010  1.00  0.00    -0.387 OA
ATOM     25  H   UNL     1     -40.605   3.431  84.728  1.00  0.00     0.211 HD
ENDBRANCH   3  24
BRANCH   5  26
ATOM     26  O   UNL     1     -38.840   5.464  81.040  1.00  0.00    -0.454 OA
BRANCH  26  27
ATOM     27  C   UNL     1     -38.753   6.125  79.795  1.00  0.00     0.214 A 
ATOM     28  C   UNL     1     -39.485   5.805  78.614  1.00  0.00     0.180 A 
ATOM     29  C   UNL     1     -37.886   7.233  79.742  1.00  0.00     0.239 A 
ATOM     30  O   UNL     1     -39.359   6.566  77.535  1.00  0.00    -0.452 OA
ATOM     31  C   UNL     1     -37.745   7.982  78.556  1.00  0.00     0.111 A 
ATOM     32  O   UNL     1     -37.238   7.552  80.774  1.00  0.00    -0.285 OA
ATOM     33  C   UNL     1     -38.552   7.611  77.460  1.00  0.00     0.146 A 
ATOM     34  C   UNL     1     -36.868   9.086  78.420  1.00  0.00     0.134 A 
ATOM     35  C   UNL     1     -38.514   8.338  76.266  1.00  0.00     0.094 A 
ATOM     36  C   UNL     1     -36.831   9.800  77.205  1.00  0.00     0.093 A 
ATOM     37  C   UNL     1     -37.656   9.427  76.131  1.00  0.00     0.123 A 
BRANCH  28  38
ATOM     38  C   UNL     1     -40.354   4.631  78.452  1.00  0.00     0.025 A 
ATOM     39  C   UNL     1     -41.576   4.555  79.128  1.00  0.00     0.062 A 
ATOM     40  C   UNL     1     -39.858   3.482  77.806  1.00  0.00     0.016 A 
ATOM     41  C   UNL     1     -42.347   3.385  79.102  1.00  0.00     0.158 A 
ATOM     42  C   UNL     1     -40.589   2.293  77.831  1.00  0.00     0.051 A 
ATOM     43  C   UNL     1     -41.846   2.239  78.441  1.00  0.00     0.157 A 
BRANCH  41  44
ATOM     44  O   UNL     1     -43.580   3.402  79.754  1.00  0.00    -0.504 OA
ATOM     45  H   UNL     1     -43.833   2.769  80.491  1.00  0.00     0.293 HD
ENDBRANCH  41  44
BRANCH  43  46
ATOM     46  O   UNL     1     -42.555   1.043  78.388  1.00  0.00    -0.504 OA
ATOM     47  H   UNL     1     -43.566   0.988  78.454  1.00  0.00     0.293 HD
ENDBRANCH  43  46
ENDBRANCH  28  38
BRANCH  34  48
ATOM     48  O   UNL     1     -36.065   9.501  79.479  1.00  0.00    -0.507 OA
ATOM     49  H   UNL     1     -35.344  10.200  79.341  1.00  0.00     0.293 HD
ENDBRANCH  34  48
BRANCH  37  50
ATOM     50  O   UNL     1     -37.617  10.125  74.922  1.00  0.00    -0.508 OA
ATOM     51  H   UNL     1     -36.850  10.749  74.703  1.00  0.00     0.293 HD
ENDBRANCH  37  50
ENDBRANCH  26  27
ENDBRANCH   5  26
BRANCH   4  52
ATOM     52  O   UNL     1     -40.970   4.719  82.489  1.00  0.00    -0.384 OA
ATOM     53  H   UNL     1     -41.696   4.190  82.079  1.00  0.00     0.211 HD
ENDBRANCH   4  52
TORSDOF 16
ENDMDL
MODEL 2
REMARK VINA RESULT:    -6.492      8.822     13.727
REMARK INTER + INTRA:         -12.707
REMARK INTER:                 -10.678
REMARK INTRA:                  -2.029
REMARK UNBOUND:                -2.040
REMARK SMILES C[C@@H]1O[C@@H](OC[C@@H]2O[C@H](Oc3c(-c4ccc(O)c(O)c4)oc4cc(O)cc(O)c4c3=O)[C@H](O)[C@@H](O)[C@H]2O)[C@@H](O)[C@H](O)[C@H]1O
REMARK SMILES IDX 7 1 36 2 34 3 32 4 9 5 8 6 6 7 5 8 4 9 1 10 2 11 42 12 3 13
REMARK SMILES IDX 40 14 38 15 43 16 41 18 39 20 37 22 35 24 10 26 11 27 12 28
REMARK SMILES IDX 30 29 21 30 29 31 31 32 22 33 27 34 23 35 26 36 24 37 13 38
REMARK SMILES IDX 20 39 14 40 18 41 15 42 16 43 19 44 17 46 28 48 25 50 33 52
REMARK H PARENT 43 17 41 19 39 21 37 23 35 25 19 45 17 47 28 49 25 51 33 53
REMARK Flexibility Score: inf
ROOT
ATOM      1  C   UNL     1     -42.362  -7.669  83.099  1.00  0.00     0.180 C 
ATOM      2  C   UNL     1     -42.411  -8.709  81.959  1.00  0.00     0.177 C 
ATOM      3  C   UNL     1     -41.276  -8.463  80.951  1.00  0.00     0.180 C 
ATOM      4  C   UNL     1     -39.921  -8.382  81.686  1.00  0.00     0.214 C 
ATOM      5  C   UNL     1     -39.978  -7.387  82.854  1.00  0.00     0.339 C 
ATOM      6  O   UNL     1     -41.087  -7.594  83.727  1.00  0.00    -0.332 OA
ENDROOT
BRANCH   1   7
ATOM      7  C   UNL     1     -42.949  -6.284  82.717  1.00  0.00     0.198 C 
BRANCH   7   8
ATOM      8  O   UNL     1     -43.632  -6.391  81.474  1.00  0.00    -0.347 OA
BRANCH   8   9
ATOM      9  C   UNL     1     -43.908  -5.130  80.881  1.00  0.00     0.281 C 
ATOM     10  C   UNL     1     -47.189  -5.928  79.401  1.00  0.00     0.041 C 
ATOM     11  C   UNL     1     -45.677  -6.038  79.626  1.00  0.00     0.150 C 
ATOM     12  C   UNL     1     -44.910  -5.888  78.284  1.00  0.00     0.174 C 
ATOM     13  O   UNL     1     -45.285  -5.027  80.541  1.00  0.00    -0.344 OA
ATOM     14  C   UNL     1     -43.389  -5.948  78.547  1.00  0.00     0.179 C 
ATOM     15  C   UNL     1     -43.020  -4.935  79.636  1.00  0.00     0.202 C 
BRANCH  12  16
ATOM     16  O   UNL     1     -45.281  -6.877  77.354  1.00  0.00    -0.388 OA
ATOM     17  H   UNL     1     -44.754  -7.698  77.573  1.00  0.00     0.211 HD
ENDBRANCH  12  16
BRANCH  14  18
ATOM     18  O   UNL     1     -42.706  -5.633  77.362  1.00  0.00    -0.387 OA
ATOM     19  H   UNL     1     -42.357  -4.709  77.473  1.00  0.00     0.211 HD
ENDBRANCH  14  18
BRANCH  15  20
ATOM     20  O   UNL     1     -41.668  -5.098  79.990  1.00  0.00    -0.385 OA
ATOM     21  H   UNL     1     -41.139  -4.531  79.367  1.00  0.00     0.211 HD
ENDBRANCH  15  20
ENDBRANCH   8   9
ENDBRANCH   7   8
ENDBRANCH   1   7
BRANCH   2  22
ATOM     22  O   UNL     1     -42.304 -10.013  82.503  1.00  0.00    -0.387 OA
ATOM     23  H   UNL     1     -41.915 -10.578  81.786  1.00  0.00     0.211 HD
ENDBRANCH   2  22
BRANCH   3  24
ATOM     24  O   UNL     1     -41.270  -9.463  79.962  1.00  0.00    -0.387 OA
ATOM     25  H   UNL     1     -41.972 -10.126  80.200  1.00  0.00     0.211 HD
ENDBRANCH   3  24
BRANCH   5  26
ATOM     26  O   UNL     1     -39.940  -6.053  82.352  1.00  0.00    -0.454 OA
BRANCH  26  27
ATOM     27  C   UNL     1     -39.389  -4.896  82.947  1.00  0.00     0.214 A 
ATOM     28  C   UNL     1     -38.108  -4.789  83.563  1.00  0.00     0.180 A 
ATOM     29  C   UNL     1     -40.178  -3.732  82.880  1.00  0.00     0.239 A 
ATOM     30  O   UNL     1     -37.690  -3.613  84.011  1.00  0.00    -0.452 OA
ATOM     31  C   UNL     1     -39.713  -2.515  83.417  1.00  0.00     0.111 A 
ATOM     32  O   UNL     1     -41.308  -3.791  82.326  1.00  0.00    -0.285 OA
ATOM     33  C   UNL     1     -38.411  -2.506  83.960  1.00  0.00     0.146 A 
ATOM     34  C   UNL     1     -40.464  -1.314  83.415  1.00  0.00     0.134 A 
ATOM     35  C   UNL     1     -37.854  -1.325  84.461  1.00  0.00     0.094 A 
ATOM     36  C   UNL     1     -39.894  -0.135  83.938  1.00  0.00     0.093 A 
ATOM     37  C   UNL     1     -38.589  -0.141  84.457  1.00  0.00     0.123 A 
BRANCH  28  38
ATOM     38  C   UNL     1     -37.195  -5.913  83.812  1.00  0.00     0.025 A 
ATOM     39  C   UNL     1     -36.329  -6.359  82.809  1.00  0.00     0.062 A 
ATOM     40  C   UNL     1     -37.351  -6.691  84.976  1.00  0.00     0.016 A 
ATOM     41  C   UNL     1     -35.559  -7.519  82.979  1.00  0.00     0.158 A 
ATOM     42  C   UNL     1     -36.638  -7.882  85.125  1.00  0.00     0.051 A 
ATOM     43  C   UNL     1     -35.716  -8.287  84.156  1.00  0.00     0.157 A 
BRANCH  41  44
ATOM     44  O   UNL     1     -34.678  -7.871  81.957  1.00  0.00    -0.504 OA
ATOM     45  H   UNL     1     -34.117  -7.212  81.449  1.00  0.00     0.293 HD
ENDBRANCH  41  44
BRANCH  43  46
ATOM     46  O   UNL     1     -34.991  -9.455  84.382  1.00  0.00    -0.504 OA
ATOM     47  H   UNL     1     -34.205  -9.745  83.809  1.00  0.00     0.293 HD
ENDBRANCH  43  46
ENDBRANCH  28  38
BRANCH  34  48
ATOM     48  O   UNL     1     -41.746  -1.269  82.876  1.00  0.00    -0.507 OA
ATOM     49  H   UNL     1     -42.531  -1.685  83.364  1.00  0.00     0.293 HD
ENDBRANCH  34  48
BRANCH  37  50
ATOM     50  O   UNL     1     -38.021   1.021  84.984  1.00  0.00    -0.508 OA
ATOM     51  H   UNL     1     -38.118   1.251  85.965  1.00  0.00     0.293 HD
ENDBRANCH  37  50
ENDBRANCH  26  27
ENDBRANCH   5  26
BRANCH   4  52
ATOM     52  O   UNL     1     -38.904  -7.978  80.798  1.00  0.00    -0.384 OA
ATOM     53  H   UNL     1     -38.382  -8.785  80.574  1.00  0.00     0.211 HD
ENDBRANCH   4  52
TORSDOF 16
ENDMDL
MODEL 3
REMARK VINA RESULT:    -6.478      1.871      5.298
REMARK INTER + INTRA:         -12.683
REMARK INTER:                 -10.550
REMARK INTRA:                  -2.134
REMARK UNBOUND:                -2.040
REMARK SMILES C[C@@H]1O[C@@H](OC[C@@H]2O[C@H](Oc3c(-c4ccc(O)c(O)c4)oc4cc(O)cc(O)c4c3=O)[C@H](O)[C@@H](O)[C@H]2O)[C@@H](O)[C@H](O)[C@H]1O
REMARK SMILES IDX 7 1 36 2 34 3 32 4 9 5 8 6 6 7 5 8 4 9 1 10 2 11 42 12 3 13
REMARK SMILES IDX 40 14 38 15 43 16 41 18 39 20 37 22 35 24 10 26 11 27 12 28
REMARK SMILES IDX 30 29 21 30 29 31 31 32 22 33 27 34 23 35 26 36 24 37 13 38
REMARK SMILES IDX 20 39 14 40 18 41 15 42 16 43 19 44 17 46 28 48 25 50 33 52
REMARK H PARENT 43 17 41 19 39 21 37 23 35 25 19 45 17 47 28 49 25 51 33 53
REMARK Flexibility Score: inf
ROOT
ATOM      1  C   UNL     1     -40.599   3.400  81.048  1.00  0.00     0.180 C 
ATOM      2  C   UNL     1     -41.837   3.392  80.125  1.00  0.00     0.177 C 
ATOM      3  C   UNL     1     -41.634   4.346  78.936  1.00  0.00     0.180 C 
ATOM      4  C   UNL     1     -40.301   4.034  78.224  1.00  0.00     0.214 C 
ATOM      5  C   UNL     1     -39.134   3.982  79.220  1.00  0.00     0.339 C 
ATOM      6  O   UNL     1     -39.385   3.147  80.350  1.00  0.00    -0.332 OA
ENDROOT
BRANCH   1   7
ATOM      7  C   UNL     1     -40.527   4.627  81.997  1.00  0.00     0.198 C 
BRANCH   7   8
ATOM      8  O   UNL     1     -39.190   4.788  82.452  1.00  0.00    -0.347 OA
BRANCH   8   9
ATOM      9  C   UNL     1     -39.011   4.387  83.803  1.00  0.00     0.281 C 
ATOM     10  C   UNL     1     -37.605   7.528  85.124  1.00  0.00     0.041 C 
ATOM     11  C   UNL     1     -37.678   6.272  84.251  1.00  0.00     0.150 C 
ATOM     12  C   UNL     1     -36.386   5.424  84.400  1.00  0.00     0.174 C 
ATOM     13  O   UNL     1     -38.816   5.520  84.641  1.00  0.00    -0.344 OA
ATOM     14  C   UNL     1     -36.508   4.139  83.553  1.00  0.00     0.179 C 
ATOM     15  C   UNL     1     -37.815   3.419  83.904  1.00  0.00     0.202 C 
BRANCH  12  16
ATOM     16  O   UNL     1     -35.237   6.146  84.024  1.00  0.00    -0.388 OA
ATOM     17  H   UNL     1     -34.446   5.604  84.306  1.00  0.00     0.211 HD
ENDBRANCH  12  16
BRANCH  14  18
ATOM     18  O   UNL     1     -35.420   3.298  83.834  1.00  0.00    -0.387 OA
ATOM     19  H   UNL     1     -34.937   3.164  82.975  1.00  0.00     0.211 HD
ENDBRANCH  14  18
BRANCH  15  20
ATOM     20  O   UNL     1     -38.007   2.338  83.025  1.00  0.00    -0.385 OA
ATOM     21  H   UNL     1     -37.362   1.631  83.297  1.00  0.00     0.211 HD
ENDBRANCH  15  20
ENDBRANCH   8   9
ENDBRANCH   7   8
ENDBRANCH   1   7
BRANCH   2  22
ATOM     22  O   UNL     1     -42.067   2.074  79.655  1.00  0.00    -0.387 OA
ATOM     23  H   UNL     1     -42.172   2.148  78.671  1.00  0.00     0.211 HD
ENDBRANCH   2  22
BRANCH   3  24
ATOM     24  O   UNL     1     -42.725   4.271  78.052  1.00  0.00    -0.387 OA
ATOM     25  H   UNL     1     -43.325   5.039  78.249  1.00  0.00     0.211 HD
ENDBRANCH   3  24
BRANCH   5  26
ATOM     26  O   UNL     1     -38.773   5.305  79.608  1.00  0.00    -0.454 OA
BRANCH  26  27
ATOM     27  C   UNL     1     -37.534   5.967  79.458  1.00  0.00     0.214 A 
ATOM     28  C   UNL     1     -37.314   7.213  78.802  1.00  0.00     0.180 A 
ATOM     29  C   UNL     1     -36.424   5.343  80.058  1.00  0.00     0.239 A 
ATOM     30  O   UNL     1     -36.102   7.755  78.809  1.00  0.00    -0.452 OA
ATOM     31  C   UNL     1     -35.145   5.931  79.995  1.00  0.00     0.111 A 
ATOM     32  O   UNL     1     -36.590   4.248  80.661  1.00  0.00    -0.285 OA
ATOM     33  C   UNL     1     -35.045   7.189  79.365  1.00  0.00     0.146 A 
ATOM     34  C   UNL     1     -33.978   5.345  80.546  1.00  0.00     0.134 A 
ATOM     35  C   UNL     1     -33.822   7.865  79.310  1.00  0.00     0.094 A 
ATOM     36  C   UNL     1     -32.750   6.033  80.470  1.00  0.00     0.093 A 
ATOM     37  C   UNL     1     -32.674   7.294  79.854  1.00  0.00     0.123 A 
BRANCH  28  38
ATOM     38  C   UNL     1     -38.326   7.954  78.038  1.00  0.00     0.025 A 
ATOM     39  C   UNL     1     -39.479   8.434  78.667  1.00  0.00     0.062 A 
ATOM     40  C   UNL     1     -38.253   7.984  76.632  1.00  0.00     0.016 A 
ATOM     41  C   UNL     1     -40.521   9.013  77.928  1.00  0.00     0.158 A 
ATOM     42  C   UNL     1     -39.313   8.498  75.884  1.00  0.00     0.051 A 
ATOM     43  C   UNL     1     -40.433   9.047  76.517  1.00  0.00     0.157 A 
BRANCH  41  44
ATOM     44  O   UNL     1     -41.615   9.517  78.630  1.00  0.00    -0.504 OA
ATOM     45  H   UNL     1     -41.915   9.171  79.524  1.00  0.00     0.293 HD
ENDBRANCH  41  44
BRANCH  43  46
ATOM     46  O   UNL     1     -41.436   9.597  75.724  1.00  0.00    -0.504 OA
ATOM     47  H   UNL     1     -41.450   9.531  74.712  1.00  0.00     0.293 HD
ENDBRANCH  43  46
ENDBRANCH  28  38
BRANCH  34  48
ATOM     48  O   UNL     1     -34.030   4.113  81.192  1.00  0.00    -0.507 OA
ATOM     49  H   UNL     1     -34.894   3.777  81.603  1.00  0.00     0.293 HD
ENDBRANCH  34  48
BRANCH  37  50
ATOM     50  O   UNL     1     -31.460   7.977  79.768  1.00  0.00    -0.508 OA
ATOM     51  H   UNL     1     -31.202   8.480  78.927  1.00  0.00     0.293 HD
ENDBRANCH  37  50
ENDBRANCH  26  27
ENDBRANCH   5  26
BRANCH   4  52
ATOM     52  O   UNL     1     -40.021   5.015  77.252  1.00  0.00    -0.384 OA
ATOM     53  H   UNL     1     -40.526   4.768  76.441  1.00  0.00     0.211 HD
ENDBRANCH   4  52
TORSDOF 16
ENDMDL
MODEL 4
REMARK VINA RESULT:    -6.406      2.115      7.853
REMARK INTER + INTRA:         -12.566
REMARK INTER:                 -10.120
REMARK INTRA:                  -2.446
REMARK UNBOUND:                -2.040
REMARK SMILES C[C@@H]1O[C@@H](OC[C@@H]2O[C@H](Oc3c(-c4ccc(O)c(O)c4)oc4cc(O)cc(O)c4c3=O)[C@H](O)[C@@H](O)[C@H]2O)[C@@H](O)[C@H](O)[C@H]1O
REMARK SMILES IDX 7 1 36 2 34 3 32 4 9 5 8 6 6 7 5 8 4 9 1 10 2 11 42 12 3 13
REMARK SMILES IDX 40 14 38 15 43 16 41 18 39 20 37 22 35 24 10 26 11 27 12 28
REMARK SMILES IDX 30 29 21 30 29 31 31 32 22 33 27 34 23 35 26 36 24 37 13 38
REMARK SMILES IDX 20 39 14 40 18 41 15 42 16 43 19 44 17 46 28 48 25 50 33 52
REMARK H PARENT 43 17 41 19 39 21 37 23 35 25 19 45 17 47 28 49 25 51 33 53
REMARK Flexibility Score: inf
ROOT
ATOM      1  C   UNL     1     -37.024   5.826  79.563  1.00  0.00     0.180 C 
ATOM      2  C   UNL     1     -37.823   6.812  78.685  1.00  0.00     0.177 C 
ATOM      3  C   UNL     1     -37.365   8.258  78.938  1.00  0.00     0.180 C 
ATOM      4  C   UNL     1     -35.833   8.365  78.789  1.00  0.00     0.214 C 
ATOM      5  C   UNL     1     -35.115   7.302  79.631  1.00  0.00     0.339 C 
ATOM      6  O   UNL     1     -35.615   5.980  79.430  1.00  0.00    -0.332 OA
ENDROOT
BRANCH   1   7
ATOM      7  C   UNL     1     -37.505   5.761  81.038  1.00  0.00     0.198 C 
BRANCH   7   8
ATOM      8  O   UNL     1     -38.889   5.438  81.065  1.00  0.00    -0.347 OA
BRANCH   8   9
ATOM      9  C   UNL     1     -39.135   4.073  81.376  1.00  0.00     0.281 C 
ATOM     10  C   UNL     1     -39.910   2.870  77.979  1.00  0.00     0.041 C 
ATOM     11  C   UNL     1     -40.082   3.697  79.257  1.00  0.00     0.150 C 
ATOM     12  C   UNL     1     -41.511   3.521  79.837  1.00  0.00     0.174 C 
ATOM     13  O   UNL     1     -39.106   3.278  80.198  1.00  0.00    -0.344 OA
ATOM     14  C   UNL     1     -41.640   4.320  81.151  1.00  0.00     0.179 C 
ATOM     15  C   UNL     1     -40.494   3.940  82.094  1.00  0.00     0.202 C 
BRANCH  12  16
ATOM     16  O   UNL     1     -42.503   3.925  78.923  1.00  0.00    -0.388 OA
ATOM     17  H   UNL     1     -42.717   4.880  79.128  1.00  0.00     0.211 HD
ENDBRANCH  12  16
BRANCH  14  18
ATOM     18  O   UNL     1     -42.868   4.012  81.758  1.00  0.00    -0.387 OA
ATOM     19  H   UNL     1     -43.334   4.877  81.910  1.00  0.00     0.211 HD
ENDBRANCH  14  18
BRANCH  15  20
ATOM     20  O   UNL     1     -40.515   4.779  83.223  1.00  0.00    -0.385 OA
ATOM     21  H   UNL     1     -40.398   5.709  82.889  1.00  0.00     0.211 HD
ENDBRANCH  15  20
ENDBRANCH   8   9
ENDBRANCH   7   8
ENDBRANCH   1   7
BRANCH   2  22
ATOM     22  O   UNL     1     -37.646   6.478  77.319  1.00  0.00    -0.387 OA
ATOM     23  H   UNL     1     -36.909   7.055  76.989  1.00  0.00     0.211 HD
ENDBRANCH   2  22
BRANCH   3  24
ATOM     24  O   UNL     1     -38.034   9.145  78.073  1.00  0.00    -0.387 OA
ATOM     25  H   UNL     1     -38.187   9.992  78.572  1.00  0.00     0.211 HD
ENDBRANCH   3  24
BRANCH   5  26
ATOM     26  O   UNL     1     -35.144   7.676  81.006  1.00  0.00    -0.454 OA
BRANCH  26  27
ATOM     27  C   UNL     1     -34.079   7.734  81.933  1.00  0.00     0.214 A 
ATOM     28  C   UNL     1     -34.011   7.061  83.187  1.00  0.00     0.180 A 
ATOM     29  C   UNL     1     -32.964   8.502  81.546  1.00  0.00     0.239 A 
ATOM     30  O   UNL     1     -32.908   7.145  83.921  1.00  0.00    -0.452 OA
ATOM     31  C   UNL     1     -31.834   8.604  82.382  1.00  0.00     0.111 A 
ATOM     32  O   UNL     1     -32.987   9.095  80.434  1.00  0.00    -0.285 OA
ATOM     33  C   UNL     1     -31.849   7.859  83.580  1.00  0.00     0.146 A 
ATOM     34  C   UNL     1     -30.692   9.384  82.073  1.00  0.00     0.134 A 
ATOM     35  C   UNL     1     -30.744   7.861  84.437  1.00  0.00     0.094 A 
ATOM     36  C   UNL     1     -29.592   9.387  82.955  1.00  0.00     0.093 A 
ATOM     37  C   UNL     1     -29.618   8.624  84.134  1.00  0.00     0.123 A 
BRANCH  28  38
ATOM     38  C   UNL     1     -35.111   6.302  83.798  1.00  0.00     0.025 A 
ATOM     39  C   UNL     1     -35.178   4.912  83.657  1.00  0.00     0.062 A 
ATOM     40  C   UNL     1     -36.221   6.988  84.326  1.00  0.00     0.016 A 
ATOM     41  C   UNL     1     -36.293   4.190  84.105  1.00  0.00     0.158 A 
ATOM     42  C   UNL     1     -37.363   6.285  84.713  1.00  0.00     0.051 A 
ATOM     43  C   UNL     1     -37.399   4.889  84.643  1.00  0.00     0.157 A 
BRANCH  41  44
ATOM     44  O   UNL     1     -36.264   2.801  83.979  1.00  0.00    -0.504 OA
ATOM     45  H   UNL     1     -35.428   2.251  84.048  1.00  0.00     0.293 HD
ENDBRANCH  41  44
BRANCH  43  46
ATOM     46  O   UNL     1     -38.541   4.234  85.095  1.00  0.00    -0.504 OA
ATOM     47  H   UNL     1     -38.925   4.355  86.027  1.00  0.00     0.293 HD
ENDBRANCH  43  46
ENDBRANCH  28  38
BRANCH  34  48
ATOM     48  O   UNL     1     -30.623  10.123  80.896  1.00  0.00    -0.507 OA
ATOM     49  H   UNL     1     -30.639  11.136  80.917  1.00  0.00     0.293 HD
ENDBRANCH  34  48
BRANCH  37  50
ATOM     50  O   UNL     1     -28.536   8.629  85.016  1.00  0.00    -0.508 OA
ATOM     51  H   UNL     1     -27.737   9.232  84.859  1.00  0.00     0.293 HD
ENDBRANCH  37  50
ENDBRANCH  26  27
ENDBRANCH   5  26
BRANCH   4  52
ATOM     52  O   UNL     1     -35.388   9.639  79.195  1.00  0.00    -0.384 OA
ATOM     53  H   UNL     1     -34.561   9.828  78.690  1.00  0.00     0.211 HD
ENDBRANCH   4  52
TORSDOF 16
ENDMDL
MODEL 5
REMARK VINA RESULT:    -6.340      9.269     14.405
REMARK INTER + INTRA:         -12.458
REMARK INTER:                 -11.541
REMARK INTRA:                  -0.916
REMARK UNBOUND:                -2.040
REMARK SMILES C[C@@H]1O[C@@H](OC[C@@H]2O[C@H](Oc3c(-c4ccc(O)c(O)c4)oc4cc(O)cc(O)c4c3=O)[C@H](O)[C@@H](O)[C@H]2O)[C@@H](O)[C@H](O)[C@H]1O
REMARK SMILES IDX 7 1 36 2 34 3 32 4 9 5 8 6 6 7 5 8 4 9 1 10 2 11 42 12 3 13
REMARK SMILES IDX 40 14 38 15 43 16 41 18 39 20 37 22 35 24 10 26 11 27 12 28
REMARK SMILES IDX 30 29 21 30 29 31 31 32 22 33 27 34 23 35 26 36 24 37 13 38
REMARK SMILES IDX 20 39 14 40 18 41 15 42 16 43 19 44 17 46 28 48 25 50 33 52
REMARK H PARENT 43 17 41 19 39 21 37 23 35 25 19 45 17 47 28 49 25 51 33 53
REMARK Flexibility Score: inf
ROOT
ATOM      1  C   UNL     1     -43.182  -6.351  80.997  1.00  0.00     0.180 C 
ATOM      2  C   UNL     1     -43.759  -7.776  80.857  1.00  0.00     0.177 C 
ATOM      3  C   UNL     1     -42.675  -8.830  81.141  1.00  0.00     0.180 C 
ATOM      4  C   UNL     1     -41.996  -8.544  82.496  1.00  0.00     0.214 C 
ATOM      5  C   UNL     1     -41.522  -7.086  82.587  1.00  0.00     0.339 C 
ATOM      6  O   UNL     1     -42.530  -6.135  82.243  1.00  0.00    -0.332 OA
ENDROOT
BRANCH   1   7
ATOM      7  C   UNL     1     -42.352  -5.882  79.771  1.00  0.00     0.198 C 
BRANCH   7   8
ATOM      8  O   UNL     1     -43.207  -5.774  78.640  1.00  0.00    -0.347 OA
BRANCH   8   9
ATOM      9  C   UNL     1     -43.811  -4.493  78.521  1.00  0.00     0.281 C 
ATOM     10  C   UNL     1     -47.298  -5.466  79.213  1.00  0.00     0.041 C 
ATOM     11  C   UNL     1     -45.961  -5.443  78.466  1.00  0.00     0.150 C 
ATOM     12  C   UNL     1     -46.173  -5.079  76.972  1.00  0.00     0.174 C 
ATOM     13  O   UNL     1     -45.111  -4.497  79.095  1.00  0.00    -0.344 OA
ATOM     14  C   UNL     1     -44.806  -5.010  76.256  1.00  0.00     0.179 C 
ATOM     15  C   UNL     1     -43.868  -4.082  77.035  1.00  0.00     0.202 C 
BRANCH  12  16
ATOM     16  O   UNL     1     -47.016  -5.999  76.321  1.00  0.00    -0.388 OA
ATOM     17  H   UNL     1     -46.896  -5.862  75.338  1.00  0.00     0.211 HD
ENDBRANCH  12  16
BRANCH  14  18
ATOM     18  O   UNL     1     -44.992  -4.507  74.959  1.00  0.00    -0.387 OA
ATOM     19  H   UNL     1     -44.646  -5.199  74.335  1.00  0.00     0.211 HD
ENDBRANCH  14  18
BRANCH  15  20
ATOM     20  O   UNL     1     -42.578  -4.141  76.478  1.00  0.00    -0.385 OA
ATOM     21  H   UNL     1     -42.442  -5.079  76.174  1.00  0.00     0.211 HD
ENDBRANCH  15  20
ENDBRANCH   8   9
ENDBRANCH   7   8
ENDBRANCH   1   7
BRANCH   2  22
ATOM     22  O   UNL     1     -44.841  -7.939  81.757  1.00  0.00    -0.387 OA
ATOM     23  H   UNL     1     -45.346  -7.085  81.735  1.00  0.00     0.211 HD
ENDBRANCH   2  22
BRANCH   3  24
ATOM     24  O   UNL     1     -43.224 -10.125  81.099  1.00  0.00    -0.387 OA
ATOM     25  H   UNL     1     -43.858 -10.158  80.333  1.00  0.00     0.211 HD
ENDBRANCH   3  24
BRANCH   5  26
ATOM     26  O   UNL     1     -40.342  -6.914  81.806  1.00  0.00    -0.454 OA
BRANCH  26  27
ATOM     27  C   UNL     1     -39.015  -6.695  82.238  1.00  0.00     0.214 A 
ATOM     28  C   UNL     1     -38.518  -5.527  82.886  1.00  0.00     0.180 A 
ATOM     29  C   UNL     1     -38.118  -7.761  82.041  1.00  0.00     0.239 A 
ATOM     30  O   UNL     1     -37.261  -5.494  83.310  1.00  0.00    -0.452 OA
ATOM     31  C   UNL     1     -36.776  -7.661  82.461  1.00  0.00     0.111 A 
ATOM     32  O   UNL     1     -38.531  -8.815  81.486  1.00  0.00    -0.285 OA
ATOM     33  C   UNL     1     -36.399  -6.482  83.137  1.00  0.00     0.146 A 
ATOM     34  C   UNL     1     -35.810  -8.679  82.266  1.00  0.00     0.134 A 
ATOM     35  C   UNL     1     -35.102  -6.328  83.636  1.00  0.00     0.094 A 
ATOM     36  C   UNL     1     -34.502  -8.502  82.763  1.00  0.00     0.093 A 
ATOM     37  C   UNL     1     -34.150  -7.328  83.450  1.00  0.00     0.123 A 
BRANCH  28  38
ATOM     38  C   UNL     1     -39.277  -4.285  83.085  1.00  0.00     0.025 A 
ATOM     39  C   UNL     1     -40.583  -4.165  82.598  1.00  0.00     0.062 A 
ATOM     40  C   UNL     1     -38.616  -3.135  83.558  1.00  0.00     0.016 A 
ATOM     41  C   UNL     1     -41.266  -2.942  82.649  1.00  0.00     0.158 A 
ATOM     42  C   UNL     1     -39.266  -1.899  83.551  1.00  0.00     0.051 A 
ATOM     43  C   UNL     1     -40.597  -1.795  83.136  1.00  0.00     0.157 A 
BRANCH  41  44
ATOM     44  O   UNL     1     -42.584  -2.913  82.194  1.00  0.00    -0.504 OA
ATOM     45  H   UNL     1     -43.242  -3.658  82.336  1.00  0.00     0.293 HD
ENDBRANCH  41  44
BRANCH  43  46
ATOM     46  O   UNL     1     -41.214  -0.549  83.202  1.00  0.00    -0.504 OA
ATOM     47  H   UNL     1     -41.118   0.083  83.990  1.00  0.00     0.293 HD
ENDBRANCH  43  46
ENDBRANCH  28  38
BRANCH  34  48
ATOM     48  O   UNL     1     -36.138  -9.867  81.621  1.00  0.00    -0.507 OA
ATOM     49  H   UNL     1     -35.576 -10.701  81.749  1.00  0.00     0.293 HD
ENDBRANCH  34  48
BRANCH  37  50
ATOM     50  O   UNL     1     -32.855  -7.143  83.936  1.00  0.00    -0.508 OA
ATOM     51  H   UNL     1     -32.571  -7.534  84.826  1.00  0.00     0.293 HD
ENDBRANCH  37  50
ENDBRANCH  26  27
ENDBRANCH   5  26
BRANCH   4  52
ATOM     52  O   UNL     1     -40.886  -9.391  82.679  1.00  0.00    -0.384 OA
ATOM     53  H   UNL     1     -40.583  -9.271  83.610  1.00  0.00     0.211 HD
ENDBRANCH   4  52
TORSDOF 16
ENDMDL
MODEL 6
REMARK VINA RESULT:    -6.277     10.761     13.699
REMARK INTER + INTRA:         -12.354
REMARK INTER:                 -11.155
REMARK INTRA:                  -1.199
REMARK UNBOUND:                -2.040
REMARK SMILES C[C@@H]1O[C@@H](OC[C@@H]2O[C@H](Oc3c(-c4ccc(O)c(O)c4)oc4cc(O)cc(O)c4c3=O)[C@H](O)[C@@H](O)[C@H]2O)[C@@H](O)[C@H](O)[C@H]1O
REMARK SMILES IDX 7 1 36 2 34 3 32 4 9 5 8 6 6 7 5 8 4 9 1 10 2 11 42 12 3 13
REMARK SMILES IDX 40 14 38 15 43 16 41 18 39 20 37 22 35 24 10 26 11 27 12 28
REMARK SMILES IDX 30 29 21 30 29 31 31 32 22 33 27 34 23 35 26 36 24 37 13 38
REMARK SMILES IDX 20 39 14 40 18 41 15 42 16 43 19 44 17 46 28 48 25 50 33 52
REMARK H PARENT 43 17 41 19 39 21 37 23 35 25 19 45 17 47 28 49 25 51 33 53
REMARK Flexibility Score: inf
ROOT
ATOM      1  C   UNL     1     -41.311  -5.679  82.416  1.00  0.00     0.180 C 
ATOM      2  C   UNL     1     -41.285  -4.289  83.087  1.00  0.00     0.177 C 
ATOM      3  C   UNL     1     -42.101  -3.276  82.267  1.00  0.00     0.180 C 
ATOM      4  C   UNL     1     -43.515  -3.829  81.993  1.00  0.00     0.214 C 
ATOM      5  C   UNL     1     -43.457  -5.244  81.400  1.00  0.00     0.339 C 
ATOM      6  O   UNL     1     -42.630  -6.140  82.143  1.00  0.00    -0.332 OA
ENDROOT
BRANCH   1   7
ATOM      7  C   UNL     1     -40.342  -5.817  81.210  1.00  0.00     0.198 C 
BRANCH   7   8
ATOM      8  O   UNL     1     -39.415  -6.863  81.472  1.00  0.00    -0.347 OA
BRANCH   8   9
ATOM      9  C   UNL     1     -40.031  -8.139  81.576  1.00  0.00     0.281 C 
ATOM     10  C   UNL     1     -37.291  -9.932  83.269  1.00  0.00     0.041 C 
ATOM     11  C   UNL     1     -37.987  -9.147  82.152  1.00  0.00     0.150 C 
ATOM     12  C   UNL     1     -37.890  -9.910  80.803  1.00  0.00     0.174 C 
ATOM     13  O   UNL     1     -39.343  -8.951  82.519  1.00  0.00    -0.344 OA
ATOM     14  C   UNL     1     -38.644  -9.126  79.708  1.00  0.00     0.179 C 
ATOM     15  C   UNL     1     -40.065  -8.815  80.190  1.00  0.00     0.202 C 
BRANCH  12  16
ATOM     16  O   UNL     1     -36.554 -10.123  80.415  1.00  0.00    -0.388 OA
ATOM     17  H   UNL     1     -36.528 -10.077  79.416  1.00  0.00     0.211 HD
ENDBRANCH  12  16
BRANCH  14  18
ATOM     18  O   UNL     1     -38.705  -9.906  78.543  1.00  0.00    -0.387 OA
ATOM     19  H   UNL     1     -37.781  -9.940  78.177  1.00  0.00     0.211 HD
ENDBRANCH  14  18
BRANCH  15  20
ATOM     20  O   UNL     1     -40.700  -7.966  79.266  1.00  0.00    -0.385 OA
ATOM     21  H   UNL     1     -40.470  -7.034  79.530  1.00  0.00     0.211 HD
ENDBRANCH  15  20
ENDBRANCH   8   9
ENDBRANCH   7   8
ENDBRANCH   1   7
BRANCH   2  22
ATOM     22  O   UNL     1     -41.811  -4.388  84.399  1.00  0.00    -0.387 OA
ATOM     23  H   UNL     1     -42.436  -3.624  84.502  1.00  0.00     0.211 HD
ENDBRANCH   2  22
BRANCH   3  24
ATOM     24  O   UNL     1     -42.149  -2.033  82.925  1.00  0.00    -0.387 OA
ATOM     25  H   UNL     1     -43.092  -1.719  82.906  1.00  0.00     0.211 HD
ENDBRANCH   3  24
BRANCH   5  26
ATOM     26  O   UNL     1     -43.070  -5.177  80.030  1.00  0.00    -0.454 OA
BRANCH  26  27
ATOM     27  C   UNL     1     -43.866  -5.340  78.875  1.00  0.00     0.214 A 
ATOM     28  C   UNL     1     -44.915  -6.289  78.696  1.00  0.00     0.180 A 
ATOM     29  C   UNL     1     -43.615  -4.442  77.820  1.00  0.00     0.239 A 
ATOM     30  O   UNL     1     -45.633  -6.274  77.581  1.00  0.00    -0.452 OA
ATOM     31  C   UNL     1     -44.370  -4.498  76.631  1.00  0.00     0.111 A 
ATOM     32  O   UNL     1     -42.706  -3.580  77.954  1.00  0.00    -0.285 OA
ATOM     33  C   UNL     1     -45.417  -5.441  76.576  1.00  0.00     0.146 A 
ATOM     34  C   UNL     1     -44.152  -3.650  75.517  1.00  0.00     0.134 A 
ATOM     35  C   UNL     1     -46.249  -5.521  75.455  1.00  0.00     0.094 A 
ATOM     36  C   UNL     1     -44.991  -3.753  74.388  1.00  0.00     0.093 A 
ATOM     37  C   UNL     1     -46.040  -4.686  74.360  1.00  0.00     0.123 A 
BRANCH  28  38
ATOM     38  C   UNL     1     -45.251  -7.362  79.641  1.00  0.00     0.025 A 
ATOM     39  C   UNL     1     -46.522  -7.425  80.222  1.00  0.00     0.062 A 
ATOM     40  C   UNL     1     -44.229  -8.192  80.143  1.00  0.00     0.016 A 
ATOM     41  C   UNL     1     -46.812  -8.351  81.233  1.00  0.00     0.158 A 
ATOM     42  C   UNL     1     -44.493  -9.072  81.195  1.00  0.00     0.051 A 
ATOM     43  C   UNL     1     -45.782  -9.188  81.722  1.00  0.00     0.157 A 
BRANCH  41  44
ATOM     44  O   UNL     1     -48.117  -8.390  81.725  1.00  0.00    -0.504 OA
ATOM     45  H   UNL     1     -48.410  -7.935  82.570  1.00  0.00     0.293 HD
ENDBRANCH  41  44
BRANCH  43  46
ATOM     46  O   UNL     1     -46.001 -10.121  82.732  1.00  0.00    -0.504 OA
ATOM     47  H   UNL     1     -46.789 -10.760  82.743  1.00  0.00     0.293 HD
ENDBRANCH  43  46
ENDBRANCH  28  38
BRANCH  34  48
ATOM     48  O   UNL     1     -43.142  -2.692  75.530  1.00  0.00    -0.507 OA
ATOM     49  H   UNL     1     -43.027  -2.047  74.756  1.00  0.00     0.293 HD
ENDBRANCH  34  48
BRANCH  37  50
ATOM     50  O   UNL     1     -46.868  -4.799  73.242  1.00  0.00    -0.508 OA
ATOM     51  H   UNL     1     -47.784  -4.366  73.225  1.00  0.00     0.293 HD
ENDBRANCH  37  50
ENDBRANCH  26  27
ENDBRANCH   5  26
BRANCH   4  52
ATOM     52  O   UNL     1     -44.205  -2.992  81.094  1.00  0.00    -0.384 OA
ATOM     53  H   UNL     1     -45.157  -3.017  81.350  1.00  0.00     0.211 HD
ENDBRANCH   4  52
TORSDOF 16
ENDMDL
MODEL 7
REMARK VINA RESULT:    -6.171      1.853      5.745
REMARK INTER + INTRA:         -12.179
REMARK INTER:                 -10.716
REMARK INTRA:                  -1.463
REMARK UNBOUND:                -2.040
REMARK SMILES C[C@@H]1O[C@@H](OC[C@@H]2O[C@H](Oc3c(-c4ccc(O)c(O)c4)oc4cc(O)cc(O)c4c3=O)[C@H](O)[C@@H](O)[C@H]2O)[C@@H](O)[C@H](O)[C@H]1O
REMARK SMILES IDX 7 1 36 2 34 3 32 4 9 5 8 6 6 7 5 8 4 9 1 10 2 11 42 12 3 13
REMARK SMILES IDX 40 14 38 15 43 16 41 18 39 20 37 22 35 24 10 26 11 27 12 28
REMARK SMILES IDX 30 29 21 30 29 31 31 32 22 33 27 34 23 35 26 36 24 37 13 38
REMARK SMILES IDX 20 39 14 40 18 41 15 42 16 43 19 44 17 46 28 48 25 50 33 52
REMARK H PARENT 43 17 41 19 39 21 37 23 35 25 19 45 17 47 28 49 25 51 33 53
REMARK Flexibility Score: inf
ROOT
ATOM      1  C   UNL     1     -38.815   3.210  78.835  1.00  0.00     0.180 C 
ATOM      2  C   UNL     1     -40.293   3.006  79.231  1.00  0.00     0.177 C 
ATOM      3  C   UNL     1     -40.881   4.301  79.815  1.00  0.00     0.180 C 
ATOM      4  C   UNL     1     -40.633   5.480  78.852  1.00  0.00     0.214 C 
ATOM      5  C   UNL     1     -39.155   5.567  78.443  1.00  0.00     0.339 C 
ATOM      6  O   UNL     1     -38.618   4.329  77.977  1.00  0.00    -0.332 OA
ENDROOT
BRANCH   1   7
ATOM      7  C   UNL     1     -37.827   3.163  80.032  1.00  0.00     0.198 C 
BRANCH   7   8
ATOM      8  O   UNL     1     -38.487   3.629  81.202  1.00  0.00    -0.347 OA
BRANCH   8   9
ATOM      9  C   UNL     1     -38.366   2.736  82.301  1.00  0.00     0.281 C 
ATOM     10  C   UNL     1     -41.788   3.045  83.636  1.00  0.00     0.041 C 
ATOM     11  C   UNL     1     -40.385   3.506  83.228  1.00  0.00     0.150 C 
ATOM     12  C   UNL     1     -39.668   4.200  84.418  1.00  0.00     0.174 C 
ATOM     13  O   UNL     1     -39.649   2.373  82.795  1.00  0.00    -0.344 OA
ATOM     14  C   UNL     1     -38.238   4.605  83.997  1.00  0.00     0.179 C 
ATOM     15  C   UNL     1     -37.516   3.388  83.410  1.00  0.00     0.202 C 
BRANCH  12  16
ATOM     16  O   UNL     1     -40.377   5.328  84.873  1.00  0.00    -0.388 OA
ATOM     17  H   UNL     1     -40.977   5.017  85.610  1.00  0.00     0.211 HD
ENDBRANCH  12  16
BRANCH  14  18
ATOM     18  O   UNL     1     -37.541   5.065  85.124  1.00  0.00    -0.387 OA
ATOM     19  H   UNL     1     -36.625   5.298  84.815  1.00  0.00     0.211 HD
ENDBRANCH  14  18
BRANCH  15  20
ATOM     20  O   UNL     1     -36.275   3.787  82.880  1.00  0.00    -0.385 OA
ATOM     21  H   UNL     1     -35.793   2.955  82.624  1.00  0.00     0.211 HD
ENDBRANCH  15  20
ENDBRANCH   8   9
ENDBRANCH   7   8
ENDBRANCH   1   7
BRANCH   2  22
ATOM     22  O   UNL     1     -41.036   2.605  78.093  1.00  0.00    -0.387 OA
ATOM     23  H   UNL     1     -40.521   2.918  77.305  1.00  0.00     0.211 HD
ENDBRANCH   2  22
BRANCH   3  24
ATOM     24  O   UNL     1     -42.250   4.139  80.094  1.00  0.00    -0.387 OA
ATOM     25  H   UNL     1     -42.458   3.169  80.022  1.00  0.00     0.211 HD
ENDBRANCH   3  24
BRANCH   5  26
ATOM     26  O   UNL     1     -38.390   6.106  79.517  1.00  0.00    -0.454 OA
BRANCH  26  27
ATOM     27  C   UNL     1     -37.293   6.996  79.466  1.00  0.00     0.214 A 
ATOM     28  C   UNL     1     -37.268   8.273  78.834  1.00  0.00     0.180 A 
ATOM     29  C   UNL     1     -36.132   6.584  80.146  1.00  0.00     0.239 A 
ATOM     30  O   UNL     1     -36.188   9.037  78.936  1.00  0.00    -0.452 OA
ATOM     31  C   UNL     1     -34.988   7.407  80.184  1.00  0.00     0.111 A 
ATOM     32  O   UNL     1     -36.128   5.467  80.729  1.00  0.00    -0.285 OA
ATOM     33  C   UNL     1     -35.085   8.673  79.569  1.00  0.00     0.146 A 
ATOM     34  C   UNL     1     -33.775   7.044  80.820  1.00  0.00     0.134 A 
ATOM     35  C   UNL     1     -34.015   9.572  79.612  1.00  0.00     0.094 A 
ATOM     36  C   UNL     1     -32.700   7.957  80.841  1.00  0.00     0.093 A 
ATOM     37  C   UNL     1     -32.822   9.220  80.240  1.00  0.00     0.123 A 
BRANCH  28  38
ATOM     38  C   UNL     1     -38.344   8.822  77.999  1.00  0.00     0.025 A 
ATOM     39  C   UNL     1     -39.546   9.245  78.576  1.00  0.00     0.062 A 
ATOM     40  C   UNL     1     -38.263   8.710  76.597  1.00  0.00     0.016 A 
ATOM     41  C   UNL     1     -40.635   9.633  77.783  1.00  0.00     0.158 A 
ATOM     42  C   UNL     1     -39.364   9.031  75.802  1.00  0.00     0.051 A 
ATOM     43  C   UNL     1     -40.539   9.526  76.376  1.00  0.00     0.157 A 
BRANCH  41  44
ATOM     44  O   UNL     1     -41.781  10.094  78.430  1.00  0.00    -0.504 OA
ATOM     45  H   UNL     1     -42.511   9.495  78.770  1.00  0.00     0.293 HD
ENDBRANCH  41  44
BRANCH  43  46
ATOM     46  O   UNL     1     -41.587   9.883  75.531  1.00  0.00    -0.504 OA
ATOM     47  H   UNL     1     -41.733   9.472  74.615  1.00  0.00     0.293 HD
ENDBRANCH  43  46
ENDBRANCH  28  38
BRANCH  34  48
ATOM     48  O   UNL     1     -33.637   5.814  81.454  1.00  0.00    -0.507 OA
ATOM     49  H   UNL     1     -33.373   5.760  82.432  1.00  0.00     0.293 HD
ENDBRANCH  34  48
BRANCH  37  50
ATOM     50  O   UNL     1     -31.759  10.125  80.250  1.00  0.00    -0.508 OA
ATOM     51  H   UNL     1     -30.811   9.814  80.428  1.00  0.00     0.293 HD
ENDBRANCH  37  50
ENDBRANCH  26  27
ENDBRANCH   5  26
BRANCH   4  52
ATOM     52  O   UNL     1     -41.005   6.697  79.457  1.00  0.00    -0.384 OA
ATOM     53  H   UNL     1     -41.048   7.373  78.740  1.00  0.00     0.211 HD
ENDBRANCH   4  52
TORSDOF 16
ENDMDL
MODEL 8
REMARK VINA RESULT:    -6.131      1.928      6.606
REMARK INTER + INTRA:         -12.114
REMARK INTER:                 -10.981
REMARK INTRA:                  -1.133
REMARK UNBOUND:                -2.040
REMARK SMILES C[C@@H]1O[C@@H](OC[C@@H]2O[C@H](Oc3c(-c4ccc(O)c(O)c4)oc4cc(O)cc(O)c4c3=O)[C@H](O)[C@@H](O)[C@H]2O)[C@@H](O)[C@H](O)[C@H]1O
REMARK SMILES IDX 7 1 36 2 34 3 32 4 9 5 8 6 6 7 5 8 4 9 1 10 2 11 42 12 3 13
REMARK SMILES IDX 40 14 38 15 43 16 41 18 39 20 37 22 35 24 10 26 11 27 12 28
REMARK SMILES IDX 30 29 21 30 29 31 31 32 22 33 27 34 23 35 26 36 24 37 13 38
REMARK SMILES IDX 20 39 14 40 18 41 15 42 16 43 19 44 17 46 28 48 25 50 33 52
REMARK H PARENT 43 17 41 19 39 21 37 23 35 25 19 45 17 47 28 49 25 51 33 53
REMARK Flexibility Score: inf
ROOT
ATOM      1  C   UNL     1     -39.184   5.338  83.124  1.00  0.00     0.180 C 
ATOM      2  C   UNL     1     -39.282   3.868  83.584  1.00  0.00     0.177 C 
ATOM      3  C   UNL     1     -37.897   3.201  83.570  1.00  0.00     0.180 C 
ATOM      4  C   UNL     1     -36.887   4.055  84.365  1.00  0.00     0.214 C 
ATOM      5  C   UNL     1     -36.906   5.519  83.901  1.00  0.00     0.339 C 
ATOM      6  O   UNL     1     -38.215   6.085  83.852  1.00  0.00    -0.332 OA
ENDROOT
BRANCH   1   7
ATOM      7  C   UNL     1     -39.074   5.512  81.585  1.00  0.00     0.198 C 
BRANCH   7   8
ATOM      8  O   UNL     1     -40.299   5.118  80.980  1.00  0.00    -0.347 OA
BRANCH   8   9
ATOM      9  C   UNL     1     -40.526   3.717  81.048  1.00  0.00     0.281 C 
ATOM     10  C   UNL     1     -38.229   2.660  78.366  1.00  0.00     0.041 C 
ATOM     11  C   UNL     1     -39.427   3.377  78.998  1.00  0.00     0.150 C 
ATOM     12  C   UNL     1     -40.741   3.003  78.262  1.00  0.00     0.174 C 
ATOM     13  O   UNL     1     -39.499   3.009  80.367  1.00  0.00    -0.344 OA
ATOM     14  C   UNL     1     -41.937   3.695  78.952  1.00  0.00     0.179 C 
ATOM     15  C   UNL     1     -41.909   3.385  80.452  1.00  0.00     0.202 C 
BRANCH  12  16
ATOM     16  O   UNL     1     -40.698   3.352  76.899  1.00  0.00    -0.388 OA
ATOM     17  H   UNL     1     -41.627   3.252  76.542  1.00  0.00     0.211 HD
ENDBRANCH  12  16
BRANCH  14  18
ATOM     18  O   UNL     1     -43.131   3.211  78.395  1.00  0.00    -0.387 OA
ATOM     19  H   UNL     1     -42.897   2.380  77.901  1.00  0.00     0.211 HD
ENDBRANCH  14  18
BRANCH  15  20
ATOM     20  O   UNL     1     -42.899   4.141  81.106  1.00  0.00    -0.385 OA
ATOM     21  H   UNL     1     -42.434   4.906  81.539  1.00  0.00     0.211 HD
ENDBRANCH  15  20
ENDBRANCH   8   9
ENDBRANCH   7   8
ENDBRANCH   1   7
BRANCH   2  22
ATOM     22  O   UNL     1     -39.832   3.817  84.890  1.00  0.00    -0.387 OA
ATOM     23  H   UNL     1     -39.090   3.542  85.489  1.00  0.00     0.211 HD
ENDBRANCH   2  22
BRANCH   3  24
ATOM     24  O   UNL     1     -37.976   1.889  84.073  1.00  0.00    -0.387 OA
ATOM     25  H   UNL     1     -37.322   1.814  84.819  1.00  0.00     0.211 HD
ENDBRANCH   3  24
BRANCH   5  26
ATOM     26  O   UNL     1     -36.230   5.637  82.652  1.00  0.00    -0.454 OA
BRANCH  26  27
ATOM     27  C   UNL     1     -35.155   6.484  82.302  1.00  0.00     0.214 A 
ATOM     28  C   UNL     1     -35.042   7.259  81.111  1.00  0.00     0.180 A 
ATOM     29  C   UNL     1     -34.122   6.596  83.251  1.00  0.00     0.239 A 
ATOM     30  O   UNL     1     -34.007   8.075  80.952  1.00  0.00    -0.452 OA
ATOM     31  C   UNL     1     -33.015   7.436  83.016  1.00  0.00     0.111 A 
ATOM     32  O   UNL     1     -34.201   5.936  84.322  1.00  0.00    -0.285 OA
ATOM     33  C   UNL     1     -33.025   8.198  81.828  1.00  0.00     0.146 A 
ATOM     34  C   UNL     1     -31.924   7.573  83.910  1.00  0.00     0.134 A 
ATOM     35  C   UNL     1     -31.992   9.098  81.548  1.00  0.00     0.094 A 
ATOM     36  C   UNL     1     -30.883   8.474  83.605  1.00  0.00     0.093 A 
ATOM     37  C   UNL     1     -30.919   9.237  82.426  1.00  0.00     0.123 A 
BRANCH  28  38
ATOM     38  C   UNL     1     -35.967   7.195  79.971  1.00  0.00     0.025 A 
ATOM     39  C   UNL     1     -37.045   8.081  79.881  1.00  0.00     0.062 A 
ATOM     40  C   UNL     1     -35.909   6.098  79.090  1.00  0.00     0.016 A 
ATOM     41  C   UNL     1     -38.019   7.939  78.883  1.00  0.00     0.158 A 
ATOM     42  C   UNL     1     -36.910   5.911  78.134  1.00  0.00     0.051 A 
ATOM     43  C   UNL     1     -37.946   6.840  77.995  1.00  0.00     0.157 A 
BRANCH  41  44
ATOM     44  O   UNL     1     -39.035   8.893  78.823  1.00  0.00    -0.504 OA
ATOM     45  H   UNL     1     -40.000   8.672  78.661  1.00  0.00     0.293 HD
ENDBRANCH  41  44
BRANCH  43  46
ATOM     46  O   UNL     1     -38.886   6.635  76.989  1.00  0.00    -0.504 OA
ATOM     47  H   UNL     1     -38.987   5.759  76.487  1.00  0.00     0.293 HD
ENDBRANCH  43  46
ENDBRANCH  28  38
BRANCH  34  48
ATOM     48  O   UNL     1     -31.877   6.856  85.101  1.00  0.00    -0.507 OA
ATOM     49  H   UNL     1     -31.792   7.333  85.992  1.00  0.00     0.293 HD
ENDBRANCH  34  48
BRANCH  37  50
ATOM     50  O   UNL     1     -29.888  10.125  82.115  1.00  0.00    -0.508 OA
ATOM     51  H   UNL     1     -29.244  10.448  82.827  1.00  0.00     0.293 HD
ENDBRANCH  37  50
ENDBRANCH  26  27
ENDBRANCH   5  26
BRANCH   4  52
ATOM     52  O   UNL     1     -35.582   3.549  84.205  1.00  0.00    -0.384 OA
ATOM     53  H   UNL     1     -35.634   2.573  84.341  1.00  0.00     0.211 HD
ENDBRANCH   4  52
TORSDOF 16
ENDMDL
MODEL 9
REMARK VINA RESULT:    -6.062      2.257      6.223
REMARK INTER + INTRA:         -12.000
REMARK INTER:                 -10.018
REMARK INTRA:                  -1.982
REMARK UNBOUND:                -2.040
REMARK SMILES C[C@@H]1O[C@@H](OC[C@@H]2O[C@H](Oc3c(-c4ccc(O)c(O)c4)oc4cc(O)cc(O)c4c3=O)[C@H](O)[C@@H](O)[C@H]2O)[C@@H](O)[C@H](O)[C@H]1O
REMARK SMILES IDX 7 1 36 2 34 3 32 4 9 5 8 6 6 7 5 8 4 9 1 10 2 11 42 12 3 13
REMARK SMILES IDX 40 14 38 15 43 16 41 18 39 20 37 22 35 24 10 26 11 27 12 28
REMARK SMILES IDX 30 29 21 30 29 31 31 32 22 33 27 34 23 35 26 36 24 37 13 38
REMARK SMILES IDX 20 39 14 40 18 41 15 42 16 43 19 44 17 46 28 48 25 50 33 52
REMARK H PARENT 43 17 41 19 39 21 37 23 35 25 19 45 17 47 28 49 25 51 33 53
REMARK Flexibility Score: inf
ROOT
ATOM      1  C   UNL     1     -34.900   8.664  79.045  1.00  0.00     0.180 C 
ATOM      2  C   UNL     1     -33.649   7.761  78.986  1.00  0.00     0.177 C 
ATOM      3  C   UNL     1     -33.970   6.354  79.515  1.00  0.00     0.180 C 
ATOM      4  C   UNL     1     -35.207   5.782  78.792  1.00  0.00     0.214 C 
ATOM      5  C   UNL     1     -36.381   6.770  78.827  1.00  0.00     0.339 C 
ATOM      6  O   UNL     1     -36.032   8.087  78.402  1.00  0.00    -0.332 OA
ENDROOT
BRANCH   1   7
ATOM      7  C   UNL     1     -35.209   9.225  80.460  1.00  0.00     0.198 C 
BRANCH   7   8
ATOM      8  O   UNL     1     -34.412   8.540  81.419  1.00  0.00    -0.347 OA
BRANCH   8   9
ATOM      9  C   UNL     1     -34.502   9.105  82.720  1.00  0.00     0.281 C 
ATOM     10  C   UNL     1     -31.088   8.341  83.882  1.00  0.00     0.041 C 
ATOM     11  C   UNL     1     -32.506   8.051  83.380  1.00  0.00     0.150 C 
ATOM     12  C   UNL     1     -33.242   7.081  84.345  1.00  0.00     0.174 C 
ATOM     13  O   UNL     1     -33.206   9.281  83.279  1.00  0.00    -0.344 OA
ATOM     14  C   UNL     1     -34.685   6.850  83.846  1.00  0.00     0.179 C 
ATOM     15  C   UNL     1     -35.370   8.202  83.620  1.00  0.00     0.202 C 
BRANCH  12  16
ATOM     16  O   UNL     1     -32.568   5.852  84.469  1.00  0.00    -0.388 OA
ATOM     17  H   UNL     1     -31.688   6.043  84.902  1.00  0.00     0.211 HD
ENDBRANCH  12  16
BRANCH  14  18
ATOM     18  O   UNL     1     -35.394   6.121  84.814  1.00  0.00    -0.387 OA
ATOM     19  H   UNL     1     -35.902   6.786  85.352  1.00  0.00     0.211 HD
ENDBRANCH  14  18
BRANCH  15  20
ATOM     20  O   UNL     1     -36.624   7.999  83.015  1.00  0.00    -0.385 OA
ATOM     21  H   UNL     1     -37.053   7.241  83.497  1.00  0.00     0.211 HD
ENDBRANCH  15  20
ENDBRANCH   8   9
ENDBRANCH   7   8
ENDBRANCH   1   7
BRANCH   2  22
ATOM     22  O   UNL     1     -33.186   7.683  77.649  1.00  0.00    -0.387 OA
ATOM     23  H   UNL     1     -32.827   8.582  77.430  1.00  0.00     0.211 HD
ENDBRANCH   2  22
BRANCH   3  24
ATOM     24  O   UNL     1     -32.852   5.510  79.379  1.00  0.00    -0.387 OA
ATOM     25  H   UNL     1     -32.944   5.028  78.514  1.00  0.00     0.211 HD
ENDBRANCH   3  24
BRANCH   5  26
ATOM     26  O   UNL     1     -36.971   6.771  80.124  1.00  0.00    -0.454 OA
BRANCH  26  27
ATOM     27  C   UNL     1     -38.109   6.069  80.582  1.00  0.00     0.214 A 
ATOM     28  C   UNL     1     -39.425   6.143  80.037  1.00  0.00     0.180 A 
ATOM     29  C   UNL     1     -37.899   5.183  81.655  1.00  0.00     0.239 A 
ATOM     30  O   UNL     1     -40.382   5.363  80.522  1.00  0.00    -0.452 OA
ATOM     31  C   UNL     1     -38.959   4.412  82.171  1.00  0.00     0.111 A 
ATOM     32  O   UNL     1     -36.743   5.082  82.147  1.00  0.00    -0.285 OA
ATOM     33  C   UNL     1     -40.210   4.523  81.528  1.00  0.00     0.146 A 
ATOM     34  C   UNL     1     -38.828   3.525  83.269  1.00  0.00     0.134 A 
ATOM     35  C   UNL     1     -41.298   3.749  81.943  1.00  0.00     0.094 A 
ATOM     36  C   UNL     1     -39.940   2.763  83.684  1.00  0.00     0.093 A 
ATOM     37  C   UNL     1     -41.172   2.874  83.020  1.00  0.00     0.123 A 
BRANCH  28  38
ATOM     38  C   UNL     1     -39.852   7.080  78.989  1.00  0.00     0.025 A 
ATOM     39  C   UNL     1     -39.358   6.961  77.686  1.00  0.00     0.062 A 
ATOM     40  C   UNL     1     -40.576   8.236  79.342  1.00  0.00     0.016 A 
ATOM     41  C   UNL     1     -39.640   7.930  76.713  1.00  0.00     0.158 A 
ATOM     42  C   UNL     1     -40.804   9.237  78.397  1.00  0.00     0.051 A 
ATOM     43  C   UNL     1     -40.376   9.081  77.075  1.00  0.00     0.157 A 
BRANCH  41  44
ATOM     44  O   UNL     1     -39.158   7.715  75.422  1.00  0.00    -0.504 OA
ATOM     45  H   UNL     1     -39.746   7.567  74.622  1.00  0.00     0.293 HD
ENDBRANCH  41  44
BRANCH  43  46
ATOM     46  O   UNL     1     -40.680  10.086  76.160  1.00  0.00    -0.504 OA
ATOM     47  H   UNL     1     -40.126  10.929  76.050  1.00  0.00     0.293 HD
ENDBRANCH  43  46
ENDBRANCH  28  38
BRANCH  34  48
ATOM     48  O   UNL     1     -37.611   3.368  83.925  1.00  0.00    -0.507 OA
ATOM     49  H   UNL     1     -36.768   3.803  83.567  1.00  0.00     0.293 HD
ENDBRANCH  34  48
BRANCH  37  50
ATOM     50  O   UNL     1     -42.278   2.128  83.432  1.00  0.00    -0.508 OA
ATOM     51  H   UNL     1     -43.150   2.580  83.677  1.00  0.00     0.293 HD
ENDBRANCH  37  50
ENDBRANCH  26  27
ENDBRANCH   5  26
BRANCH   4  52
ATOM     52  O   UNL     1     -35.615   4.575  79.395  1.00  0.00    -0.384 OA
ATOM     53  H   UNL     1     -35.858   3.958  78.665  1.00  0.00     0.211 HD
ENDBRANCH   4  52
TORSDOF 16
ENDMDL
