MODEL 1
REMARK VINA RESULT:    -7.877      0.000      0.000
REMARK INTER + INTRA:         -11.578
REMARK INTER:                 -10.409
REMARK INTRA:                  -1.169
REMARK UNBOUND:                -1.169
REMARK SMILES CC[C@H](C=C[C@@H](C)[C@H]1CC[C@H]2C3=CC[C@@H]4C[C@H](O)CC[C@]4(C)[C@H]3CC[C@@]12C)C(C)C
REMARK SMILES IDX 6 1 7 2 5 3 4 4 3 5 2 6 1 7 28 8 29 9 30 10 8 11 9 12 26 13
REMARK SMILES IDX 10 14 11 15 25 16 27 17 12 18 24 19 23 20 13 21 21 22 14 23
REMARK SMILES IDX 15 24 20 25 22 26 16 27 19 28 17 29 18 30
REMARK H PARENT 18 31
REMARK Flexibility Score: inf
ROOT
ATOM      1  C   UNL     1     181.582 179.769 186.318  1.00  0.00     0.012 C 
ATOM      2  C   UNL     1     180.573 180.858 186.713  1.00  0.00     0.012 C 
ENDROOT
BRANCH   1   3
ATOM      3  C   UNL     1     182.821 179.932 187.177  1.00  0.00    -0.028 C 
ATOM      4  C   UNL     1     183.121 181.101 187.764  1.00  0.00    -0.027 C 
BRANCH   4   5
ATOM      5  C   UNL     1     184.356 181.255 188.631  1.00  0.00     0.014 C 
BRANCH   5   6
ATOM      6  C   UNL     1     185.264 179.989 188.614  1.00  0.00     0.004 C 
ATOM      7  C   UNL     1     186.761 180.245 188.841  1.00  0.00     0.004 C 
ENDBRANCH   5   6
BRANCH   5   8
ATOM      8  C   UNL     1     185.094 182.600 188.333  1.00  0.00    -0.011 C 
ATOM      9  C   UNL     1     185.011 183.625 189.474  1.00  0.00     0.008 C 
ATOM     10  C   UNL     1     184.625 183.236 187.014  1.00  0.00     0.008 C 
ENDBRANCH   5   8
ENDBRANCH   4   5
ENDBRANCH   1   3
BRANCH   1  11
ATOM     11  C   UNL     1     181.969 179.819 184.801  1.00  0.00     0.002 C 
ATOM     12  C   UNL     1     183.386 179.286 184.576  1.00  0.00     0.005 C 
ATOM     13  C   UNL     1     181.089 179.074 183.739  1.00  0.00    -0.023 C 
ATOM     14  C   UNL     1     183.500 178.959 183.096  1.00  0.00     0.009 C 
ATOM     15  C   UNL     1     182.073 178.934 182.531  1.00  0.00     0.021 C 
ATOM     16  C   UNL     1     180.525 177.685 184.229  1.00  0.00     0.008 C 
ATOM     17  C   UNL     1     179.896 179.959 183.290  1.00  0.00     0.012 C 
ATOM     18  C   UNL     1     181.830 177.717 181.648  1.00  0.00    -0.067 C 
ATOM     19  C   UNL     1     181.339 176.473 183.767  1.00  0.00     0.009 C 
ATOM     20  C   UNL     1     181.345 176.400 182.226  1.00  0.00     0.021 C 
ATOM     21  C   UNL     1     182.013 177.798 180.321  1.00  0.00    -0.027 C 
ATOM     22  C   UNL     1     182.108 175.152 181.607  1.00  0.00    -0.023 C 
ATOM     23  C   UNL     1     181.698 176.614 179.460  1.00  0.00     0.031 C 
ATOM     24  C   UNL     1     182.353 175.343 180.041  1.00  0.00     0.002 C 
ATOM     25  C   UNL     1     181.250 173.874 181.864  1.00  0.00     0.010 C 
ATOM     26  C   UNL     1     183.487 174.962 182.299  1.00  0.00     0.012 C 
ATOM     27  C   UNL     1     181.927 174.126 179.187  1.00  0.00     0.036 C 
ATOM     28  C   UNL     1     181.818 172.595 181.216  1.00  0.00     0.032 C 
ATOM     29  C   UNL     1     182.420 172.816 179.812  1.00  0.00     0.114 C 
BRANCH  29  30
ATOM     30  O   UNL     1     182.077 171.735 178.983  1.00  0.00    -0.393 OA
ATOM     31  H   UNL     1     182.192 170.909 179.523  1.00  0.00     0.210 HD
ENDBRANCH  29  30
ENDBRANCH   1  11
TORSDOF 6
ENDMDL
MODEL 2
REMARK VINA RESULT:    -7.872      3.300      9.685
REMARK INTER + INTRA:         -11.572
REMARK INTER:                 -10.342
REMARK INTRA:                  -1.230
REMARK UNBOUND:                -1.169
REMARK SMILES CC[C@H](C=C[C@@H](C)[C@H]1CC[C@H]2C3=CC[C@@H]4C[C@H](O)CC[C@]4(C)[C@H]3CC[C@@]12C)C(C)C
REMARK SMILES IDX 6 1 7 2 5 3 4 4 3 5 2 6 1 7 28 8 29 9 30 10 8 11 9 12 26 13
REMARK SMILES IDX 10 14 11 15 25 16 27 17 12 18 24 19 23 20 13 21 21 22 14 23
REMARK SMILES IDX 15 24 20 25 22 26 16 27 19 28 17 29 18 30
REMARK H PARENT 18 31
REMARK Flexibility Score: inf
ROOT
ATOM      1  C   UNL     1     182.151 173.322 180.190  1.00  0.00     0.012 C 
ATOM      2  C   UNL     1     182.922 172.011 179.971  1.00  0.00     0.012 C 
ENDROOT
BRANCH   1   3
ATOM      3  C   UNL     1     181.322 173.601 178.952  1.00  0.00    -0.028 C 
ATOM      4  C   UNL     1     181.240 172.715 177.946  1.00  0.00    -0.027 C 
BRANCH   4   5
ATOM      5  C   UNL     1     180.401 172.996 176.715  1.00  0.00     0.014 C 
BRANCH   5   6
ATOM      6  C   UNL     1     179.143 172.081 176.622  1.00  0.00     0.004 C 
ATOM      7  C   UNL     1     178.938 171.370 175.277  1.00  0.00     0.004 C 
ENDBRANCH   5   6
BRANCH   5   8
ATOM      8  C   UNL     1     180.117 174.524 176.558  1.00  0.00    -0.011 C 
ATOM      9  C   UNL     1     178.628 174.895 176.624  1.00  0.00     0.008 C 
ATOM     10  C   UNL     1     180.750 175.101 175.281  1.00  0.00     0.008 C 
ENDBRANCH   5   8
ENDBRANCH   4   5
ENDBRANCH   1   3
BRANCH   1  11
ATOM     11  C   UNL     1     183.090 174.538 180.495  1.00  0.00     0.002 C 
ATOM     12  C   UNL     1     182.625 175.793 179.752  1.00  0.00     0.005 C 
ATOM     13  C   UNL     1     183.313 175.009 181.974  1.00  0.00    -0.023 C 
ATOM     14  C   UNL     1     183.292 176.975 180.434  1.00  0.00     0.009 C 
ATOM     15  C   UNL     1     183.829 176.473 181.781  1.00  0.00     0.021 C 
ATOM     16  C   UNL     1     182.023 174.931 182.877  1.00  0.00     0.008 C 
ATOM     17  C   UNL     1     184.440 174.185 182.652  1.00  0.00     0.012 C 
ATOM     18  C   UNL     1     183.489 177.424 182.922  1.00  0.00    -0.067 C 
ATOM     19  C   UNL     1     181.274 176.258 183.025  1.00  0.00     0.009 C 
ATOM     20  C   UNL     1     182.188 177.307 183.693  1.00  0.00     0.021 C 
ATOM     21  C   UNL     1     184.361 178.375 183.290  1.00  0.00    -0.027 C 
ATOM     22  C   UNL     1     181.517 178.721 183.963  1.00  0.00    -0.023 C 
ATOM     23  C   UNL     1     184.044 179.252 184.461  1.00  0.00     0.031 C 
ATOM     24  C   UNL     1     182.615 179.820 184.330  1.00  0.00     0.002 C 
ATOM     25  C   UNL     1     180.499 178.566 185.137  1.00  0.00     0.010 C 
ATOM     26  C   UNL     1     180.743 179.202 182.705  1.00  0.00     0.012 C 
ATOM     27  C   UNL     1     182.283 180.638 185.599  1.00  0.00     0.036 C 
ATOM     28  C   UNL     1     179.851 179.892 185.585  1.00  0.00     0.032 C 
ATOM     29  C   UNL     1     180.819 181.094 185.594  1.00  0.00     0.114 C 
BRANCH  29  30
ATOM     30  O   UNL     1     180.564 181.889 186.723  1.00  0.00    -0.393 OA
ATOM     31  H   UNL     1     179.581 182.030 186.761  1.00  0.00     0.210 HD
ENDBRANCH  29  30
ENDBRANCH   1  11
TORSDOF 6
ENDMDL
MODEL 3
REMARK VINA RESULT:    -7.469      4.163      8.215
REMARK INTER + INTRA:         -11.040
REMARK INTER:                  -9.283
REMARK INTRA:                  -1.757
REMARK UNBOUND:                -1.169
REMARK SMILES CC[C@H](C=C[C@@H](C)[C@H]1CC[C@H]2C3=CC[C@@H]4C[C@H](O)CC[C@]4(C)[C@H]3CC[C@@]12C)C(C)C
REMARK SMILES IDX 6 1 7 2 5 3 4 4 3 5 2 6 1 7 28 8 29 9 30 10 8 11 9 12 26 13
REMARK SMILES IDX 10 14 11 15 25 16 27 17 12 18 24 19 23 20 13 21 21 22 14 23
REMARK SMILES IDX 15 24 20 25 22 26 16 27 19 28 17 29 18 30
REMARK H PARENT 18 31
REMARK Flexibility Score: inf
ROOT
ATOM      1  C   UNL     1     183.826 176.758 181.558  1.00  0.00     0.012 C 
ATOM      2  C   UNL     1     184.734 175.524 181.673  1.00  0.00     0.012 C 
ENDROOT
BRANCH   1   3
ATOM      3  C   UNL     1     184.525 177.786 180.691  1.00  0.00    -0.028 C 
ATOM      4  C   UNL     1     183.893 178.392 179.672  1.00  0.00    -0.027 C 
BRANCH   4   5
ATOM      5  C   UNL     1     184.595 179.428 178.814  1.00  0.00     0.014 C 
BRANCH   5   6
ATOM      6  C   UNL     1     184.611 179.046 177.303  1.00  0.00     0.004 C 
ATOM      7  C   UNL     1     184.201 177.603 176.980  1.00  0.00     0.004 C 
ENDBRANCH   5   6
BRANCH   5   8
ATOM      8  C   UNL     1     184.074 180.868 179.125  1.00  0.00    -0.011 C 
ATOM      9  C   UNL     1     184.563 181.937 178.137  1.00  0.00     0.008 C 
ATOM     10  C   UNL     1     184.388 181.296 180.568  1.00  0.00     0.008 C 
ENDBRANCH   5   8
ENDBRANCH   4   5
ENDBRANCH   1   3
BRANCH   1  11
ATOM     11  C   UNL     1     183.467 177.382 182.949  1.00  0.00     0.002 C 
ATOM     12  C   UNL     1     184.299 178.637 183.222  1.00  0.00     0.005 C 
ATOM     13  C   UNL     1     181.990 177.805 183.264  1.00  0.00    -0.023 C 
ATOM     14  C   UNL     1     183.592 179.397 184.332  1.00  0.00     0.009 C 
ATOM     15  C   UNL     1     182.179 178.810 184.448  1.00  0.00     0.021 C 
ATOM     16  C   UNL     1     181.227 178.442 182.040  1.00  0.00     0.008 C 
ATOM     17  C   UNL     1     181.167 176.596 183.783  1.00  0.00     0.012 C 
ATOM     18  C   UNL     1     181.115 179.897 184.537  1.00  0.00    -0.067 C 
ATOM     19  C   UNL     1     181.207 179.973 182.035  1.00  0.00     0.009 C 
ATOM     20  C   UNL     1     180.483 180.495 183.294  1.00  0.00     0.021 C 
ATOM     21  C   UNL     1     180.690 180.329 185.735  1.00  0.00    -0.027 C 
ATOM     22  C   UNL     1     180.336 182.073 183.390  1.00  0.00    -0.023 C 
ATOM     23  C   UNL     1     179.592 181.344 185.804  1.00  0.00     0.031 C 
ATOM     24  C   UNL     1     179.895 182.524 184.857  1.00  0.00     0.002 C 
ATOM     25  C   UNL     1     179.273 182.533 182.344  1.00  0.00     0.010 C 
ATOM     26  C   UNL     1     181.686 182.764 183.051  1.00  0.00     0.012 C 
ATOM     27  C   UNL     1     178.697 183.502 184.877  1.00  0.00     0.036 C 
ATOM     28  C   UNL     1     178.944 184.039 182.403  1.00  0.00     0.032 C 
ATOM     29  C   UNL     1     178.875 184.612 183.835  1.00  0.00     0.114 C 
BRANCH  29  30
ATOM     30  O   UNL     1     177.808 185.521 183.921  1.00  0.00    -0.393 OA
ATOM     31  H   UNL     1     177.025 185.090 183.486  1.00  0.00     0.210 HD
ENDBRANCH  29  30
ENDBRANCH   1  11
TORSDOF 6
ENDMDL
MODEL 4
REMARK VINA RESULT:    -7.306      3.674      6.105
REMARK INTER + INTRA:         -10.824
REMARK INTER:                  -9.236
REMARK INTRA:                  -1.588
REMARK UNBOUND:                -1.169
REMARK SMILES CC[C@H](C=C[C@@H](C)[C@H]1CC[C@H]2C3=CC[C@@H]4C[C@H](O)CC[C@]4(C)[C@H]3CC[C@@]12C)C(C)C
REMARK SMILES IDX 6 1 7 2 5 3 4 4 3 5 2 6 1 7 28 8 29 9 30 10 8 11 9 12 26 13
REMARK SMILES IDX 10 14 11 15 25 16 27 17 12 18 24 19 23 20 13 21 21 22 14 23
REMARK SMILES IDX 15 24 20 25 22 26 16 27 19 28 17 29 18 30
REMARK H PARENT 18 31
REMARK Flexibility Score: inf
ROOT
ATOM      1  C   UNL     1     179.638 183.833 184.154  1.00  0.00     0.012 C 
ATOM      2  C   UNL     1     178.638 184.728 184.901  1.00  0.00     0.012 C 
ENDROOT
BRANCH   1   3
ATOM      3  C   UNL     1     179.691 184.279 182.706  1.00  0.00    -0.028 C 
ATOM      4  C   UNL     1     180.812 184.786 182.167  1.00  0.00    -0.027 C 
BRANCH   4   5
ATOM      5  C   UNL     1     180.862 185.221 180.715  1.00  0.00     0.014 C 
BRANCH   5   6
ATOM      6  C   UNL     1     181.178 186.738 180.553  1.00  0.00     0.004 C 
ATOM      7  C   UNL     1     181.020 187.587 181.822  1.00  0.00     0.004 C 
ENDBRANCH   5   6
BRANCH   5   8
ATOM      8  C   UNL     1     181.762 184.266 179.867  1.00  0.00    -0.011 C 
ATOM      9  C   UNL     1     181.866 184.655 178.385  1.00  0.00     0.008 C 
ATOM     10  C   UNL     1     181.330 182.796 180.001  1.00  0.00     0.008 C 
ENDBRANCH   5   8
ENDBRANCH   4   5
ENDBRANCH   1   3
BRANCH   1  11
ATOM     11  C   UNL     1     179.274 182.312 184.235  1.00  0.00     0.002 C 
ATOM     12  C   UNL     1     178.829 181.778 182.871  1.00  0.00     0.005 C 
ATOM     13  C   UNL     1     180.334 181.274 184.744  1.00  0.00    -0.023 C 
ATOM     14  C   UNL     1     178.931 180.264 182.940  1.00  0.00     0.009 C 
ATOM     15  C   UNL     1     179.778 179.927 184.175  1.00  0.00     0.021 C 
ATOM     16  C   UNL     1     181.807 181.573 184.270  1.00  0.00     0.008 C 
ATOM     17  C   UNL     1     180.322 181.186 186.293  1.00  0.00     0.012 C 
ATOM     18  C   UNL     1     180.839 178.877 183.871  1.00  0.00    -0.067 C 
ATOM     19  C   UNL     1     182.252 180.773 183.043  1.00  0.00     0.009 C 
ATOM     20  C   UNL     1     182.214 179.263 183.356  1.00  0.00     0.021 C 
ATOM     21  C   UNL     1     180.584 177.577 184.085  1.00  0.00    -0.027 C 
ATOM     22  C   UNL     1     182.709 178.312 182.185  1.00  0.00    -0.023 C 
ATOM     23  C   UNL     1     181.664 176.566 183.851  1.00  0.00     0.031 C 
ATOM     24  C   UNL     1     182.315 176.791 182.470  1.00  0.00     0.002 C 
ATOM     25  C   UNL     1     184.258 178.450 182.060  1.00  0.00     0.010 C 
ATOM     26  C   UNL     1     182.070 178.738 180.834  1.00  0.00     0.012 C 
ATOM     27  C   UNL     1     183.488 175.798 182.303  1.00  0.00     0.036 C 
ATOM     28  C   UNL     1     184.894 177.494 181.031  1.00  0.00     0.032 C 
ATOM     29  C   UNL     1     184.271 176.082 181.015  1.00  0.00     0.114 C 
BRANCH  29  30
ATOM     30  O   UNL     1     185.287 175.126 180.855  1.00  0.00    -0.393 OA
ATOM     31  H   UNL     1     184.851 174.291 180.541  1.00  0.00     0.210 HD
ENDBRANCH  29  30
ENDBRANCH   1  11
TORSDOF 6
ENDMDL
MODEL 5
REMARK VINA RESULT:    -7.282      3.832      8.912
REMARK INTER + INTRA:         -10.792
REMARK INTER:                 -10.164
REMARK INTRA:                  -0.629
REMARK UNBOUND:                -1.169
REMARK SMILES CC[C@H](C=C[C@@H](C)[C@H]1CC[C@H]2C3=CC[C@@H]4C[C@H](O)CC[C@]4(C)[C@H]3CC[C@@]12C)C(C)C
REMARK SMILES IDX 6 1 7 2 5 3 4 4 3 5 2 6 1 7 28 8 29 9 30 10 8 11 9 12 26 13
REMARK SMILES IDX 10 14 11 15 25 16 27 17 12 18 24 19 23 20 13 21 21 22 14 23
REMARK SMILES IDX 15 24 20 25 22 26 16 27 19 28 17 29 18 30
REMARK H PARENT 18 31
REMARK Flexibility Score: inf
ROOT
ATOM      1  C   UNL     1     184.016 176.821 181.629  1.00  0.00     0.012 C 
ATOM      2  C   UNL     1     183.962 177.864 180.502  1.00  0.00     0.012 C 
ENDROOT
BRANCH   1   3
ATOM      3  C   UNL     1     183.113 175.663 181.254  1.00  0.00    -0.028 C 
ATOM      4  C   UNL     1     182.873 175.346 179.971  1.00  0.00    -0.027 C 
BRANCH   4   5
ATOM      5  C   UNL     1     181.976 174.180 179.601  1.00  0.00     0.014 C 
BRANCH   5   6
ATOM      6  C   UNL     1     181.473 173.390 180.846  1.00  0.00     0.004 C 
ATOM      7  C   UNL     1     181.543 171.861 180.733  1.00  0.00     0.004 C 
ENDBRANCH   5   6
BRANCH   5   8
ATOM      8  C   UNL     1     180.858 174.619 178.603  1.00  0.00    -0.011 C 
ATOM      9  C   UNL     1     180.794 173.774 177.322  1.00  0.00     0.008 C 
ATOM     10  C   UNL     1     180.955 176.112 178.248  1.00  0.00     0.008 C 
ENDBRANCH   5   8
ENDBRANCH   4   5
ENDBRANCH   1   3
BRANCH   1  11
ATOM     11  C   UNL     1     183.594 177.404 183.020  1.00  0.00     0.002 C 
ATOM     12  C   UNL     1     184.403 178.658 183.362  1.00  0.00     0.005 C 
ATOM     13  C   UNL     1     182.101 177.807 183.284  1.00  0.00    -0.023 C 
ATOM     14  C   UNL     1     183.643 179.381 184.461  1.00  0.00     0.009 C 
ATOM     15  C   UNL     1     182.231 178.781 184.501  1.00  0.00     0.021 C 
ATOM     16  C   UNL     1     181.385 178.472 182.047  1.00  0.00     0.008 C 
ATOM     17  C   UNL     1     181.268 176.578 183.734  1.00  0.00     0.012 C 
ATOM     18  C   UNL     1     181.155 179.857 184.575  1.00  0.00    -0.067 C 
ATOM     19  C   UNL     1     181.351 180.002 182.081  1.00  0.00     0.009 C 
ATOM     20  C   UNL     1     180.570 180.483 183.322  1.00  0.00     0.021 C 
ATOM     21  C   UNL     1     180.676 180.253 185.765  1.00  0.00    -0.027 C 
ATOM     22  C   UNL     1     180.406 182.057 183.455  1.00  0.00    -0.023 C 
ATOM     23  C   UNL     1     179.567 181.256 185.815  1.00  0.00     0.031 C 
ATOM     24  C   UNL     1     179.899 182.464 184.913  1.00  0.00     0.002 C 
ATOM     25  C   UNL     1     179.383 182.537 182.378  1.00  0.00     0.010 C 
ATOM     26  C   UNL     1     181.762 182.768 183.192  1.00  0.00     0.012 C 
ATOM     27  C   UNL     1     178.693 183.431 184.910  1.00  0.00     0.036 C 
ATOM     28  C   UNL     1     179.039 184.038 182.463  1.00  0.00     0.032 C 
ATOM     29  C   UNL     1     178.904 184.571 183.906  1.00  0.00     0.114 C 
BRANCH  29  30
ATOM     30  O   UNL     1     177.826 185.469 183.971  1.00  0.00    -0.393 OA
ATOM     31  H   UNL     1     177.712 185.714 184.927  1.00  0.00     0.210 HD
ENDBRANCH  29  30
ENDBRANCH   1  11
TORSDOF 6
ENDMDL
MODEL 6
REMARK VINA RESULT:    -7.171      4.682      7.478
REMARK INTER + INTRA:         -10.645
REMARK INTER:                  -8.960
REMARK INTRA:                  -1.685
REMARK UNBOUND:                -1.169
REMARK SMILES CC[C@H](C=C[C@@H](C)[C@H]1CC[C@H]2C3=CC[C@@H]4C[C@H](O)CC[C@]4(C)[C@H]3CC[C@@]12C)C(C)C
REMARK SMILES IDX 6 1 7 2 5 3 4 4 3 5 2 6 1 7 28 8 29 9 30 10 8 11 9 12 26 13
REMARK SMILES IDX 10 14 11 15 25 16 27 17 12 18 24 19 23 20 13 21 21 22 14 23
REMARK SMILES IDX 15 24 20 25 22 26 16 27 19 28 17 29 18 30
REMARK H PARENT 18 31
REMARK Flexibility Score: inf
ROOT
ATOM      1  C   UNL     1     181.840 177.891 183.572  1.00  0.00     0.012 C 
ATOM      2  C   UNL     1     181.374 176.427 183.527  1.00  0.00     0.012 C 
ENDROOT
BRANCH   1   3
ATOM      3  C   UNL     1     181.495 178.460 184.935  1.00  0.00    -0.028 C 
ATOM      4  C   UNL     1     182.337 179.275 185.590  1.00  0.00    -0.027 C 
BRANCH   4   5
ATOM      5  C   UNL     1     181.982 179.850 186.948  1.00  0.00     0.014 C 
BRANCH   5   6
ATOM      6  C   UNL     1     183.046 179.521 188.037  1.00  0.00     0.004 C 
ATOM      7  C   UNL     1     183.051 180.449 189.260  1.00  0.00     0.004 C 
ENDBRANCH   5   6
BRANCH   5   8
ATOM      8  C   UNL     1     181.593 181.359 186.840  1.00  0.00    -0.011 C 
ATOM      9  C   UNL     1     180.277 181.615 186.090  1.00  0.00     0.008 C 
ATOM     10  C   UNL     1     182.723 182.205 186.231  1.00  0.00     0.008 C 
ENDBRANCH   5   8
ENDBRANCH   4   5
ENDBRANCH   1   3
BRANCH   1  11
ATOM     11  C   UNL     1     181.200 178.769 182.445  1.00  0.00     0.002 C 
ATOM     12  C   UNL     1     180.053 179.621 182.993  1.00  0.00     0.005 C 
ATOM     13  C   UNL     1     182.089 179.772 181.629  1.00  0.00    -0.023 C 
ATOM     14  C   UNL     1     179.807 180.726 181.979  1.00  0.00     0.009 C 
ATOM     15  C   UNL     1     181.024 180.758 181.045  1.00  0.00     0.021 C 
ATOM     16  C   UNL     1     183.190 180.503 182.488  1.00  0.00     0.008 C 
ATOM     17  C   UNL     1     182.786 179.054 180.442  1.00  0.00     0.012 C 
ATOM     18  C   UNL     1     181.529 182.177 180.814  1.00  0.00    -0.067 C 
ATOM     19  C   UNL     1     182.798 181.907 182.957  1.00  0.00     0.009 C 
ATOM     20  C   UNL     1     182.548 182.819 181.738  1.00  0.00     0.021 C 
ATOM     21  C   UNL     1     181.099 182.883 179.757  1.00  0.00    -0.027 C 
ATOM     22  C   UNL     1     182.188 184.327 182.078  1.00  0.00    -0.023 C 
ATOM     23  C   UNL     1     181.661 184.247 179.503  1.00  0.00     0.031 C 
ATOM     24  C   UNL     1     181.620 185.089 180.795  1.00  0.00     0.002 C 
ATOM     25  C   UNL     1     183.478 185.036 182.596  1.00  0.00     0.010 C 
ATOM     26  C   UNL     1     181.114 184.388 183.200  1.00  0.00     0.012 C 
ATOM     27  C   UNL     1     182.297 186.452 180.525  1.00  0.00     0.036 C 
ATOM     28  C   UNL     1     183.303 186.545 182.860  1.00  0.00     0.032 C 
ATOM     29  C   UNL     1     182.426 187.269 181.817  1.00  0.00     0.114 C 
BRANCH  29  30
ATOM     30  O   UNL     1     182.982 188.526 181.532  1.00  0.00    -0.393 OA
ATOM     31  H   UNL     1     182.889 189.076 182.354  1.00  0.00     0.210 HD
ENDBRANCH  29  30
ENDBRANCH   1  11
TORSDOF 6
ENDMDL
MODEL 7
REMARK VINA RESULT:    -6.901      5.445      8.460
REMARK INTER + INTRA:         -10.289
REMARK INTER:                  -8.989
REMARK INTRA:                  -1.299
REMARK UNBOUND:                -1.169
REMARK SMILES CC[C@H](C=C[C@@H](C)[C@H]1CC[C@H]2C3=CC[C@@H]4C[C@H](O)CC[C@]4(C)[C@H]3CC[C@@]12C)C(C)C
REMARK SMILES IDX 6 1 7 2 5 3 4 4 3 5 2 6 1 7 28 8 29 9 30 10 8 11 9 12 26 13
REMARK SMILES IDX 10 14 11 15 25 16 27 17 12 18 24 19 23 20 13 21 21 22 14 23
REMARK SMILES IDX 15 24 20 25 22 26 16 27 19 28 17 29 18 30
REMARK H PARENT 18 31
REMARK Flexibility Score: inf
ROOT
ATOM      1  C   UNL     1     179.707 180.367 184.266  1.00  0.00     0.012 C 
ATOM      2  C   UNL     1     179.343 179.749 185.624  1.00  0.00     0.012 C 
ENDROOT
BRANCH   1   3
ATOM      3  C   UNL     1     180.739 179.479 183.598  1.00  0.00    -0.028 C 
ATOM      4  C   UNL     1     180.980 178.232 184.034  1.00  0.00    -0.027 C 
BRANCH   4   5
ATOM      5  C   UNL     1     182.006 177.345 183.355  1.00  0.00     0.014 C 
BRANCH   5   6
ATOM      6  C   UNL     1     181.366 176.102 182.668  1.00  0.00     0.004 C 
ATOM      7  C   UNL     1     182.007 174.750 183.012  1.00  0.00     0.004 C 
ENDBRANCH   5   6
BRANCH   5   8
ATOM      8  C   UNL     1     182.966 178.179 182.447  1.00  0.00    -0.011 C 
ATOM      9  C   UNL     1     182.696 178.025 180.943  1.00  0.00     0.008 C 
ATOM     10  C   UNL     1     184.445 177.890 182.752  1.00  0.00     0.008 C 
ENDBRANCH   5   8
ENDBRANCH   4   5
ENDBRANCH   1   3
BRANCH   1  11
ATOM     11  C   UNL     1     180.255 181.829 184.388  1.00  0.00     0.002 C 
ATOM     12  C   UNL     1     181.778 181.861 184.248  1.00  0.00     0.005 C 
ATOM     13  C   UNL     1     179.740 182.946 183.416  1.00  0.00    -0.023 C 
ATOM     14  C   UNL     1     182.158 183.299 183.935  1.00  0.00     0.009 C 
ATOM     15  C   UNL     1     180.870 184.023 183.521  1.00  0.00     0.021 C 
ATOM     16  C   UNL     1     179.503 182.455 181.937  1.00  0.00     0.008 C 
ATOM     17  C   UNL     1     178.423 183.575 183.943  1.00  0.00     0.012 C 
ATOM     18  C   UNL     1     181.067 184.865 182.266  1.00  0.00    -0.067 C 
ATOM     19  C   UNL     1     180.657 182.756 180.977  1.00  0.00     0.009 C 
ATOM     20  C   UNL     1     180.875 184.281 180.879  1.00  0.00     0.021 C 
ATOM     21  C   UNL     1     181.387 186.164 182.368  1.00  0.00    -0.027 C 
ATOM     22  C   UNL     1     182.010 184.742 179.868  1.00  0.00    -0.023 C 
ATOM     23  C   UNL     1     181.504 186.994 181.128  1.00  0.00     0.031 C 
ATOM     24  C   UNL     1     182.390 186.277 180.088  1.00  0.00     0.002 C 
ATOM     25  C   UNL     1     181.491 184.521 178.412  1.00  0.00     0.010 C 
ATOM     26  C   UNL     1     183.292 183.886 180.065  1.00  0.00     0.012 C 
ATOM     27  C   UNL     1     182.408 187.110 178.786  1.00  0.00     0.036 C 
ATOM     28  C   UNL     1     182.450 185.033 177.319  1.00  0.00     0.032 C 
ATOM     29  C   UNL     1     183.145 186.367 177.665  1.00  0.00     0.114 C 
BRANCH  29  30
ATOM     30  O   UNL     1     183.203 187.173 176.517  1.00  0.00    -0.393 OA
ATOM     31  H   UNL     1     183.911 187.852 176.677  1.00  0.00     0.210 HD
ENDBRANCH  29  30
ENDBRANCH   1  11
TORSDOF 6
ENDMDL
MODEL 8
REMARK VINA RESULT:    -6.826      2.759      4.977
REMARK INTER + INTRA:         -10.190
REMARK INTER:                  -8.934
REMARK INTRA:                  -1.256
REMARK UNBOUND:                -1.169
REMARK SMILES CC[C@H](C=C[C@@H](C)[C@H]1CC[C@H]2C3=CC[C@@H]4C[C@H](O)CC[C@]4(C)[C@H]3CC[C@@]12C)C(C)C
REMARK SMILES IDX 6 1 7 2 5 3 4 4 3 5 2 6 1 7 28 8 29 9 30 10 8 11 9 12 26 13
REMARK SMILES IDX 10 14 11 15 25 16 27 17 12 18 24 19 23 20 13 21 21 22 14 23
REMARK SMILES IDX 15 24 20 25 22 26 16 27 19 28 17 29 18 30
REMARK H PARENT 18 31
REMARK Flexibility Score: inf
ROOT
ATOM      1  C   UNL     1     182.420 182.047 183.806  1.00  0.00     0.012 C 
ATOM      2  C   UNL     1     182.955 182.770 185.051  1.00  0.00     0.012 C 
ENDROOT
BRANCH   1   3
ATOM      3  C   UNL     1     181.405 182.948 183.130  1.00  0.00    -0.028 C 
ATOM      4  C   UNL     1     180.921 184.042 183.739  1.00  0.00    -0.027 C 
BRANCH   4   5
ATOM      5  C   UNL     1     179.913 184.945 183.054  1.00  0.00     0.014 C 
BRANCH   5   6
ATOM      6  C   UNL     1     180.107 185.001 181.509  1.00  0.00     0.004 C 
ATOM      7  C   UNL     1     181.015 186.127 180.996  1.00  0.00     0.004 C 
ENDBRANCH   5   6
BRANCH   5   8
ATOM      8  C   UNL     1     178.457 184.629 183.525  1.00  0.00    -0.011 C 
ATOM      9  C   UNL     1     178.363 184.119 184.970  1.00  0.00     0.008 C 
ATOM     10  C   UNL     1     177.741 183.657 182.572  1.00  0.00     0.008 C 
ENDBRANCH   5   8
ENDBRANCH   4   5
ENDBRANCH   1   3
BRANCH   1  11
ATOM     11  C   UNL     1     181.773 180.660 184.137  1.00  0.00     0.002 C 
ATOM     12  C   UNL     1     180.609 180.354 183.192  1.00  0.00     0.005 C 
ATOM     13  C   UNL     1     182.649 179.360 184.126  1.00  0.00    -0.023 C 
ATOM     14  C   UNL     1     180.350 178.860 183.287  1.00  0.00     0.009 C 
ATOM     15  C   UNL     1     181.572 178.235 183.974  1.00  0.00     0.021 C 
ATOM     16  C   UNL     1     183.734 179.323 182.983  1.00  0.00     0.008 C 
ATOM     17  C   UNL     1     183.364 179.162 185.490  1.00  0.00     0.012 C 
ATOM     18  C   UNL     1     182.055 176.983 183.252  1.00  0.00    -0.067 C 
ATOM     19  C   UNL     1     183.317 178.532 181.740  1.00  0.00     0.009 C 
ATOM     20  C   UNL     1     183.058 177.058 182.116  1.00  0.00     0.021 C 
ATOM     21  C   UNL     1     181.619 175.773 183.635  1.00  0.00    -0.027 C 
ATOM     22  C   UNL     1     182.672 176.104 180.906  1.00  0.00    -0.023 C 
ATOM     23  C   UNL     1     182.161 174.549 182.964  1.00  0.00     0.031 C 
ATOM     24  C   UNL     1     182.098 174.710 181.431  1.00  0.00     0.002 C 
ATOM     25  C   UNL     1     183.948 175.868 180.039  1.00  0.00     0.010 C 
ATOM     26  C   UNL     1     181.591 176.773 180.013  1.00  0.00     0.012 C 
ATOM     27  C   UNL     1     182.755 173.475 180.772  1.00  0.00     0.036 C 
ATOM     28  C   UNL     1     183.747 174.865 178.886  1.00  0.00     0.032 C 
ATOM     29  C   UNL     1     182.863 173.653 179.253  1.00  0.00     0.114 C 
BRANCH  29  30
ATOM     30  O   UNL     1     183.401 172.492 178.674  1.00  0.00    -0.393 OA
ATOM     31  H   UNL     1     182.672 172.066 178.151  1.00  0.00     0.210 HD
ENDBRANCH  29  30
ENDBRANCH   1  11
TORSDOF 6
ENDMDL
MODEL 9
REMARK VINA RESULT:    -6.660      3.208      5.856
REMARK INTER + INTRA:          -9.971
REMARK INTER:                  -8.943
REMARK INTRA:                  -1.027
REMARK UNBOUND:                -1.169
REMARK SMILES CC[C@H](C=C[C@@H](C)[C@H]1CC[C@H]2C3=CC[C@@H]4C[C@H](O)CC[C@]4(C)[C@H]3CC[C@@]12C)C(C)C
REMARK SMILES IDX 6 1 7 2 5 3 4 4 3 5 2 6 1 7 28 8 29 9 30 10 8 11 9 12 26 13
REMARK SMILES IDX 10 14 11 15 25 16 27 17 12 18 24 19 23 20 13 21 21 22 14 23
REMARK SMILES IDX 15 24 20 25 22 26 16 27 19 28 17 29 18 30
REMARK H PARENT 18 31
REMARK Flexibility Score: inf
ROOT
ATOM      1  C   UNL     1     182.881 177.471 182.367  1.00  0.00     0.012 C 
ATOM      2  C   UNL     1     184.203 177.911 183.014  1.00  0.00     0.012 C 
ENDROOT
BRANCH   1   3
ATOM      3  C   UNL     1     181.738 178.094 183.144  1.00  0.00    -0.028 C 
ATOM      4  C   UNL     1     181.029 179.121 182.649  1.00  0.00    -0.027 C 
BRANCH   4   5
ATOM      5  C   UNL     1     179.880 179.734 183.427  1.00  0.00     0.014 C 
BRANCH   5   6
ATOM      6  C   UNL     1     179.745 179.146 184.864  1.00  0.00     0.004 C 
ATOM      7  C   UNL     1     180.185 180.074 186.004  1.00  0.00     0.004 C 
ENDBRANCH   5   6
BRANCH   5   8
ATOM      8  C   UNL     1     179.914 181.294 183.354  1.00  0.00    -0.011 C 
ATOM      9  C   UNL     1     178.712 181.913 182.626  1.00  0.00     0.008 C 
ATOM     10  C   UNL     1     181.227 181.815 182.747  1.00  0.00     0.008 C 
ENDBRANCH   5   8
ENDBRANCH   4   5
ENDBRANCH   1   3
BRANCH   1  11
ATOM     11  C   UNL     1     182.714 175.914 182.320  1.00  0.00     0.002 C 
ATOM     12  C   UNL     1     181.251 175.523 182.099  1.00  0.00     0.005 C 
ATOM     13  C   UNL     1     183.517 175.068 181.271  1.00  0.00    -0.023 C 
ATOM     14  C   UNL     1     181.252 174.078 181.630  1.00  0.00     0.009 C 
ATOM     15  C   UNL     1     182.690 173.741 181.214  1.00  0.00     0.021 C 
ATOM     16  C   UNL     1     183.660 175.757 179.861  1.00  0.00     0.008 C 
ATOM     17  C   UNL     1     184.935 174.731 181.802  1.00  0.00     0.012 C 
ATOM     18  C   UNL     1     182.742 173.015 179.876  1.00  0.00    -0.067 C 
ATOM     19  C   UNL     1     182.643 175.284 178.819  1.00  0.00     0.009 C 
ATOM     20  C   UNL     1     182.816 173.773 178.563  1.00  0.00     0.021 C 
ATOM     21  C   UNL     1     182.754 171.674 179.835  1.00  0.00    -0.027 C 
ATOM     22  C   UNL     1     181.859 173.156 177.455  1.00  0.00    -0.023 C 
ATOM     23  C   UNL     1     182.881 170.978 178.516  1.00  0.00     0.031 C 
ATOM     24  C   UNL     1     181.870 171.561 177.506  1.00  0.00     0.002 C 
ATOM     25  C   UNL     1     182.343 173.651 176.056  1.00  0.00     0.010 C 
ATOM     26  C   UNL     1     180.399 173.643 177.669  1.00  0.00     0.012 C 
ATOM     27  C   UNL     1     182.094 170.891 176.131  1.00  0.00     0.036 C 
ATOM     28  C   UNL     1     181.570 173.038 174.871  1.00  0.00     0.032 C 
ATOM     29  C   UNL     1     181.223 171.545 175.052  1.00  0.00     0.114 C 
BRANCH  29  30
ATOM     30  O   UNL     1     181.397 170.876 173.829  1.00  0.00    -0.393 OA
ATOM     31  H   UNL     1     182.366 170.915 173.614  1.00  0.00     0.210 HD
ENDBRANCH  29  30
ENDBRANCH   1  11
TORSDOF 6
ENDMDL
