MODEL 1
REMARK VINA RESULT:    -3.876      0.000      0.000
REMARK INTER + INTRA:          -9.687
REMARK INTER:                  -7.274
REMARK INTRA:                  -2.413
REMARK UNBOUND:                -2.413
REMARK SMILES CCCCCCCCC=CCCCCCCCC(=O)[O-]
REMARK SMILES IDX 10 1 9 2 11 3 12 4 13 5 14 6 15 7 16 8 17 9 18 10 19 11
REMARK SMILES IDX 20 12 8 13 7 14 6 15 5 16 4 17 3 18 2 19 1 20
REMARK H PARENT
REMARK Flexibility Score: inf
ROOT
ATOM      1  C   UNL     1      31.897 169.979 159.471  1.00  0.00    -0.031 C 
ATOM      2  C   UNL     1      31.187 169.824 158.338  1.00  0.00    -0.031 C 
ENDROOT
BRANCH   1   3
ATOM      3  C   UNL     1      32.682 168.883 160.144  1.00  0.00     0.027 C 
BRANCH   3   4
ATOM      4  C   UNL     1      32.532 168.969 161.670  1.00  0.00     0.004 C 
BRANCH   4   5
ATOM      5  C   UNL     1      31.061 168.946 162.119  1.00  0.00     0.000 C 
BRANCH   5   6
ATOM      6  C   UNL     1      30.630 170.270 162.775  1.00  0.00     0.000 C 
BRANCH   6   7
ATOM      7  C   UNL     1      29.230 170.720 162.328  1.00  0.00     0.000 C 
BRANCH   7   8
ATOM      8  C   UNL     1      29.268 171.651 161.104  1.00  0.00     0.006 C 
BRANCH   8   9
ATOM      9  C   UNL     1      29.974 172.979 161.408  1.00  0.00     0.053 C 
BRANCH   9  10
ATOM     10  C   UNL     1      29.094 173.910 162.187  1.00  0.00     0.041 C 
ATOM     11  O   UNL     1      28.182 174.554 161.606  1.00  0.00    -0.550 OA
ATOM     12  O   UNL     1      29.310 174.096 163.546  1.00  0.00    -0.550 OA
ENDBRANCH   9  10
ENDBRANCH   8   9
ENDBRANCH   7   8
ENDBRANCH   6   7
ENDBRANCH   5   6
ENDBRANCH   4   5
ENDBRANCH   3   4
ENDBRANCH   1   3
BRANCH   2  13
ATOM     13  C   UNL     1      31.145 168.557 157.516  1.00  0.00     0.027 C 
BRANCH  13  14
ATOM     14  C   UNL     1      31.299 168.841 156.015  1.00  0.00     0.004 C 
BRANCH  14  15
ATOM     15  C   UNL     1      31.268 170.343 155.703  1.00  0.00     0.000 C 
BRANCH  15  16
ATOM     16  C   UNL     1      32.578 170.790 155.034  1.00  0.00     0.000 C 
BRANCH  16  17
ATOM     17  C   UNL     1      33.725 169.786 155.240  1.00  0.00    -0.000 C 
BRANCH  17  18
ATOM     18  C   UNL     1      34.864 170.280 156.151  1.00  0.00    -0.000 C 
BRANCH  18  19
ATOM     19  C   UNL     1      35.052 169.433 157.427  1.00  0.00    -0.003 C 
ATOM     20  C   UNL     1      34.813 167.942 157.181  1.00  0.00     0.004 C 
ENDBRANCH  18  19
ENDBRANCH  17  18
ENDBRANCH  16  17
ENDBRANCH  15  16
ENDBRANCH  14  15
ENDBRANCH  13  14
ENDBRANCH   2  13
TORSDOF 15
ENDMDL
MODEL 2
REMARK VINA RESULT:    -3.783      1.193      2.026
REMARK INTER + INTRA:          -9.513
REMARK INTER:                  -7.414
REMARK INTRA:                  -2.099
REMARK UNBOUND:                -2.413
REMARK SMILES CCCCCCCCC=CCCCCCCCC(=O)[O-]
REMARK SMILES IDX 10 1 9 2 11 3 12 4 13 5 14 6 15 7 16 8 17 9 18 10 19 11
REMARK SMILES IDX 20 12 8 13 7 14 6 15 5 16 4 17 3 18 2 19 1 20
REMARK H PARENT
REMARK Flexibility Score: inf
ROOT
ATOM      1  C   UNL     1      29.667 170.100 158.057  1.00  0.00    -0.031 C 
ATOM      2  C   UNL     1      28.978 170.446 156.953  1.00  0.00    -0.031 C 
ENDROOT
BRANCH   1   3
ATOM      3  C   UNL     1      31.023 169.443 158.046  1.00  0.00     0.027 C 
BRANCH   3   4
ATOM      4  C   UNL     1      31.918 170.032 159.146  1.00  0.00     0.004 C 
BRANCH   4   5
ATOM      5  C   UNL     1      32.473 168.955 160.093  1.00  0.00     0.000 C 
BRANCH   5   6
ATOM      6  C   UNL     1      32.015 169.163 161.547  1.00  0.00     0.000 C 
BRANCH   6   7
ATOM      7  C   UNL     1      30.548 169.612 161.644  1.00  0.00     0.000 C 
BRANCH   7   8
ATOM      8  C   UNL     1      30.383 170.944 162.397  1.00  0.00     0.006 C 
BRANCH   8   9
ATOM      9  C   UNL     1      29.532 171.951 161.611  1.00  0.00     0.053 C 
BRANCH   9  10
ATOM     10  C   UNL     1      29.433 173.267 162.320  1.00  0.00     0.041 C 
ATOM     11  O   UNL     1      29.020 174.287 161.707  1.00  0.00    -0.550 OA
ATOM     12  O   UNL     1      29.837 173.376 163.644  1.00  0.00    -0.550 OA
ENDBRANCH   9  10
ENDBRANCH   8   9
ENDBRANCH   7   8
ENDBRANCH   6   7
ENDBRANCH   5   6
ENDBRANCH   4   5
ENDBRANCH   3   4
ENDBRANCH   1   3
BRANCH   2  13
ATOM     13  C   UNL     1      29.495 170.316 155.540  1.00  0.00     0.027 C 
BRANCH  13  14
ATOM     14  C   UNL     1      29.873 171.678 154.940  1.00  0.00     0.004 C 
BRANCH  14  15
ATOM     15  C   UNL     1      31.374 171.780 154.635  1.00  0.00     0.000 C 
BRANCH  15  16
ATOM     16  C   UNL     1      31.865 170.539 153.875  1.00  0.00     0.000 C 
BRANCH  16  17
ATOM     17  C   UNL     1      33.054 169.849 154.565  1.00  0.00    -0.000 C 
BRANCH  17  18
ATOM     18  C   UNL     1      33.630 170.607 155.776  1.00  0.00    -0.000 C 
BRANCH  18  19
ATOM     19  C   UNL     1      35.010 170.091 156.234  1.00  0.00    -0.003 C 
ATOM     20  C   UNL     1      34.903 168.899 157.186  1.00  0.00     0.004 C 
ENDBRANCH  18  19
ENDBRANCH  17  18
ENDBRANCH  16  17
ENDBRANCH  15  16
ENDBRANCH  14  15
ENDBRANCH  13  14
ENDBRANCH   2  13
TORSDOF 15
ENDMDL
MODEL 3
REMARK VINA RESULT:    -3.759      1.570      3.180
REMARK INTER + INTRA:          -9.468
REMARK INTER:                  -7.706
REMARK INTRA:                  -1.763
REMARK UNBOUND:                -2.413
REMARK SMILES CCCCCCCCC=CCCCCCCCC(=O)[O-]
REMARK SMILES IDX 10 1 9 2 11 3 12 4 13 5 14 6 15 7 16 8 17 9 18 10 19 11
REMARK SMILES IDX 20 12 8 13 7 14 6 15 5 16 4 17 3 18 2 19 1 20
REMARK H PARENT
REMARK Flexibility Score: inf
ROOT
ATOM      1  C   UNL     1      32.589 169.041 159.981  1.00  0.00    -0.031 C 
ATOM      2  C   UNL     1      33.442 168.314 159.234  1.00  0.00    -0.031 C 
ENDROOT
BRANCH   1   3
ATOM      3  C   UNL     1      31.751 170.177 159.456  1.00  0.00     0.027 C 
BRANCH   3   4
ATOM      4  C   UNL     1      30.261 169.807 159.483  1.00  0.00     0.004 C 
BRANCH   4   5
ATOM      5  C   UNL     1      29.363 171.003 159.839  1.00  0.00     0.000 C 
BRANCH   5   6
ATOM      6  C   UNL     1      29.537 171.450 161.301  1.00  0.00     0.000 C 
BRANCH   6   7
ATOM      7  C   UNL     1      30.116 172.869 161.417  1.00  0.00     0.000 C 
BRANCH   7   8
ATOM      8  C   UNL     1      29.191 173.826 162.190  1.00  0.00     0.006 C 
BRANCH   8   9
ATOM      9  C   UNL     1      28.795 173.265 163.563  1.00  0.00     0.053 C 
BRANCH   9  10
ATOM     10  C   UNL     1      29.966 173.198 164.495  1.00  0.00     0.041 C 
ATOM     11  O   UNL     1      30.364 174.236 165.086  1.00  0.00    -0.550 OA
ATOM     12  O   UNL     1      30.642 171.999 164.677  1.00  0.00    -0.550 OA
ENDBRANCH   9  10
ENDBRANCH   8   9
ENDBRANCH   7   8
ENDBRANCH   6   7
ENDBRANCH   5   6
ENDBRANCH   4   5
ENDBRANCH   3   4
ENDBRANCH   1   3
BRANCH   2  13
ATOM     13  C   UNL     1      33.620 168.462 157.742  1.00  0.00     0.027 C 
BRANCH  13  14
ATOM     14  C   UNL     1      34.996 169.042 157.382  1.00  0.00     0.004 C 
BRANCH  14  15
ATOM     15  C   UNL     1      34.935 169.958 156.152  1.00  0.00     0.000 C 
BRANCH  15  16
ATOM     16  C   UNL     1      33.569 170.655 156.056  1.00  0.00     0.000 C 
BRANCH  16  17
ATOM     17  C   UNL     1      33.003 170.663 154.626  1.00  0.00    -0.000 C 
BRANCH  17  18
ATOM     18  C   UNL     1      31.557 170.148 154.498  1.00  0.00    -0.000 C 
BRANCH  18  19
ATOM     19  C   UNL     1      30.808 170.055 155.843  1.00  0.00    -0.003 C 
ATOM     20  C   UNL     1      29.477 170.809 155.827  1.00  0.00     0.004 C 
ENDBRANCH  18  19
ENDBRANCH  17  18
ENDBRANCH  16  17
ENDBRANCH  15  16
ENDBRANCH  14  15
ENDBRANCH  13  14
ENDBRANCH   2  13
TORSDOF 15
ENDMDL
MODEL 4
REMARK VINA RESULT:    -3.712      1.529      3.687
REMARK INTER + INTRA:          -9.381
REMARK INTER:                  -7.439
REMARK INTRA:                  -1.942
REMARK UNBOUND:                -2.413
REMARK SMILES CCCCCCCCC=CCCCCCCCC(=O)[O-]
REMARK SMILES IDX 10 1 9 2 11 3 12 4 13 5 14 6 15 7 16 8 17 9 18 10 19 11
REMARK SMILES IDX 20 12 8 13 7 14 6 15 5 16 4 17 3 18 2 19 1 20
REMARK H PARENT
REMARK Flexibility Score: inf
ROOT
ATOM      1  C   UNL     1      34.711 168.716 157.254  1.00  0.00    -0.031 C 
ATOM      2  C   UNL     1      34.772 169.831 156.502  1.00  0.00    -0.031 C 
ENDROOT
BRANCH   1   3
ATOM      3  C   UNL     1      33.433 168.030 157.661  1.00  0.00     0.027 C 
BRANCH   3   4
ATOM      4  C   UNL     1      33.363 167.879 159.188  1.00  0.00     0.004 C 
BRANCH   4   5
ATOM      5  C   UNL     1      32.861 169.155 159.883  1.00  0.00     0.000 C 
BRANCH   5   6
ATOM      6  C   UNL     1      31.821 169.911 159.038  1.00  0.00     0.000 C 
BRANCH   6   7
ATOM      7  C   UNL     1      30.459 170.024 159.742  1.00  0.00     0.000 C 
BRANCH   7   8
ATOM      8  C   UNL     1      30.312 171.328 160.545  1.00  0.00     0.006 C 
BRANCH   8   9
ATOM      9  C   UNL     1      28.850 171.626 160.903  1.00  0.00     0.053 C 
BRANCH   9  10
ATOM     10  C   UNL     1      28.679 173.019 161.427  1.00  0.00     0.041 C 
ATOM     11  O   UNL     1      29.688 173.722 161.698  1.00  0.00    -0.550 OA
ATOM     12  O   UNL     1      27.406 173.525 161.655  1.00  0.00    -0.550 OA
ENDBRANCH   9  10
ENDBRANCH   8   9
ENDBRANCH   7   8
ENDBRANCH   6   7
ENDBRANCH   5   6
ENDBRANCH   4   5
ENDBRANCH   3   4
ENDBRANCH   1   3
BRANCH   2  13
ATOM     13  C   UNL     1      33.580 170.510 155.872  1.00  0.00     0.027 C 
BRANCH  13  14
ATOM     14  C   UNL     1      33.544 170.313 154.350  1.00  0.00     0.004 C 
BRANCH  14  15
ATOM     15  C   UNL     1      32.217 169.703 153.875  1.00  0.00     0.000 C 
BRANCH  15  16
ATOM     16  C   UNL     1      31.387 169.204 155.068  1.00  0.00     0.000 C 
BRANCH  16  17
ATOM     17  C   UNL     1      29.957 169.772 155.078  1.00  0.00    -0.000 C 
BRANCH  17  18
ATOM     18  C   UNL     1      29.843 171.234 155.549  1.00  0.00    -0.000 C 
BRANCH  18  19
ATOM     19  C   UNL     1      29.436 172.219 154.433  1.00  0.00    -0.003 C 
ATOM     20  C   UNL     1      30.491 173.300 154.193  1.00  0.00     0.004 C 
ENDBRANCH  18  19
ENDBRANCH  17  18
ENDBRANCH  16  17
ENDBRANCH  15  16
ENDBRANCH  14  15
ENDBRANCH  13  14
ENDBRANCH   2  13
TORSDOF 15
ENDMDL
MODEL 5
REMARK VINA RESULT:    -3.708      2.953      7.107
REMARK INTER + INTRA:          -9.373
REMARK INTER:                  -7.992
REMARK INTRA:                  -1.382
REMARK UNBOUND:                -2.413
REMARK SMILES CCCCCCCCC=CCCCCCCCC(=O)[O-]
REMARK SMILES IDX 10 1 9 2 11 3 12 4 13 5 14 6 15 7 16 8 17 9 18 10 19 11
REMARK SMILES IDX 20 12 8 13 7 14 6 15 5 16 4 17 3 18 2 19 1 20
REMARK H PARENT
REMARK Flexibility Score: inf
ROOT
ATOM      1  C   UNL     1      33.368 169.037 158.846  1.00  0.00    -0.031 C 
ATOM      2  C   UNL     1      32.231 169.426 159.453  1.00  0.00    -0.031 C 
ENDROOT
BRANCH   1   3
ATOM      3  C   UNL     1      33.521 168.850 157.359  1.00  0.00     0.027 C 
BRANCH   3   4
ATOM      4  C   UNL     1      34.672 169.712 156.821  1.00  0.00     0.004 C 
BRANCH   4   5
ATOM      5  C   UNL     1      34.265 170.535 155.588  1.00  0.00     0.000 C 
BRANCH   5   6
ATOM      6  C   UNL     1      33.178 169.837 154.752  1.00  0.00     0.000 C 
BRANCH   6   7
ATOM      7  C   UNL     1      32.204 170.833 154.102  1.00  0.00     0.000 C 
BRANCH   7   8
ATOM      8  C   UNL     1      31.073 171.263 155.052  1.00  0.00     0.006 C 
BRANCH   8   9
ATOM      9  C   UNL     1      29.860 171.819 154.293  1.00  0.00     0.053 C 
BRANCH   9  10
ATOM     10  C   UNL     1      29.849 173.317 154.284  1.00  0.00     0.041 C 
ATOM     11  O   UNL     1      28.766 173.941 154.135  1.00  0.00    -0.550 OA
ATOM     12  O   UNL     1      31.040 174.022 154.398  1.00  0.00    -0.550 OA
ENDBRANCH   9  10
ENDBRANCH   8   9
ENDBRANCH   7   8
ENDBRANCH   6   7
ENDBRANCH   5   6
ENDBRANCH   4   5
ENDBRANCH   3   4
ENDBRANCH   1   3
BRANCH   2  13
ATOM     13  C   UNL     1      30.965 169.827 158.734  1.00  0.00     0.027 C 
BRANCH  13  14
ATOM     14  C   UNL     1      29.985 170.561 159.661  1.00  0.00     0.004 C 
BRANCH  14  15
ATOM     15  C   UNL     1      30.264 170.273 161.143  1.00  0.00     0.000 C 
BRANCH  15  16
ATOM     16  C   UNL     1      29.830 171.457 162.021  1.00  0.00     0.000 C 
BRANCH  16  17
ATOM     17  C   UNL     1      30.223 172.819 161.423  1.00  0.00    -0.000 C 
BRANCH  17  18
ATOM     18  C   UNL     1      29.297 173.988 161.808  1.00  0.00    -0.000 C 
BRANCH  18  19
ATOM     19  C   UNL     1      27.819 173.763 161.426  1.00  0.00    -0.003 C 
ATOM     20  C   UNL     1      26.888 174.802 162.052  1.00  0.00     0.004 C 
ENDBRANCH  18  19
ENDBRANCH  17  18
ENDBRANCH  16  17
ENDBRANCH  15  16
ENDBRANCH  14  15
ENDBRANCH  13  14
ENDBRANCH   2  13
TORSDOF 15
ENDMDL
MODEL 6
REMARK VINA RESULT:    -3.690      1.547      3.095
REMARK INTER + INTRA:          -9.339
REMARK INTER:                  -8.206
REMARK INTRA:                  -1.133
REMARK UNBOUND:                -2.413
REMARK SMILES CCCCCCCCC=CCCCCCCCC(=O)[O-]
REMARK SMILES IDX 10 1 9 2 11 3 12 4 13 5 14 6 15 7 16 8 17 9 18 10 19 11
REMARK SMILES IDX 20 12 8 13 7 14 6 15 5 16 4 17 3 18 2 19 1 20
REMARK H PARENT
REMARK Flexibility Score: inf
ROOT
ATOM      1  C   UNL     1      32.244 169.799 159.247  1.00  0.00    -0.031 C 
ATOM      2  C   UNL     1      32.802 169.730 158.023  1.00  0.00    -0.031 C 
ENDROOT
BRANCH   1   3
ATOM      3  C   UNL     1      32.701 169.000 160.440  1.00  0.00     0.027 C 
BRANCH   3   4
ATOM      4  C   UNL     1      31.590 168.924 161.497  1.00  0.00     0.004 C 
BRANCH   4   5
ATOM      5  C   UNL     1      30.360 169.765 161.120  1.00  0.00     0.000 C 
BRANCH   5   6
ATOM      6  C   UNL     1      30.212 171.015 162.007  1.00  0.00     0.000 C 
BRANCH   6   7
ATOM      7  C   UNL     1      30.288 172.321 161.201  1.00  0.00     0.000 C 
BRANCH   7   8
ATOM      8  C   UNL     1      29.025 173.186 161.351  1.00  0.00     0.006 C 
BRANCH   8   9
ATOM      9  C   UNL     1      29.132 174.167 162.528  1.00  0.00     0.053 C 
BRANCH   9  10
ATOM     10  C   UNL     1      27.890 174.165 163.366  1.00  0.00     0.041 C 
ATOM     11  O   UNL     1      27.974 174.229 164.621  1.00  0.00    -0.550 OA
ATOM     12  O   UNL     1      26.644 174.051 162.765  1.00  0.00    -0.550 OA
ENDBRANCH   9  10
ENDBRANCH   8   9
ENDBRANCH   7   8
ENDBRANCH   6   7
ENDBRANCH   5   6
ENDBRANCH   4   5
ENDBRANCH   3   4
ENDBRANCH   1   3
BRANCH   2  13
ATOM     13  C   UNL     1      34.027 168.915 157.682  1.00  0.00     0.027 C 
BRANCH  13  14
ATOM     14  C   UNL     1      34.844 169.554 156.549  1.00  0.00     0.004 C 
BRANCH  14  15
ATOM     15  C   UNL     1      34.012 170.545 155.723  1.00  0.00     0.000 C 
BRANCH  15  16
ATOM     16  C   UNL     1      33.421 169.862 154.480  1.00  0.00     0.000 C 
BRANCH  16  17
ATOM     17  C   UNL     1      32.235 170.637 153.881  1.00  0.00    -0.000 C 
BRANCH  17  18
ATOM     18  C   UNL     1      31.637 171.719 154.799  1.00  0.00    -0.000 C 
BRANCH  18  19
ATOM     19  C   UNL     1      30.569 172.596 154.114  1.00  0.00    -0.003 C 
ATOM     20  C   UNL     1      30.938 174.081 154.120  1.00  0.00     0.004 C 
ENDBRANCH  18  19
ENDBRANCH  17  18
ENDBRANCH  16  17
ENDBRANCH  15  16
ENDBRANCH  14  15
ENDBRANCH  13  14
ENDBRANCH   2  13
TORSDOF 15
ENDMDL
MODEL 7
REMARK VINA RESULT:    -3.591      2.766      7.286
REMARK INTER + INTRA:          -9.153
REMARK INTER:                  -7.625
REMARK INTRA:                  -1.528
REMARK UNBOUND:                -2.413
REMARK SMILES CCCCCCCCC=CCCCCCCCC(=O)[O-]
REMARK SMILES IDX 10 1 9 2 11 3 12 4 13 5 14 6 15 7 16 8 17 9 18 10 19 11
REMARK SMILES IDX 20 12 8 13 7 14 6 15 5 16 4 17 3 18 2 19 1 20
REMARK H PARENT
REMARK Flexibility Score: inf
ROOT
ATOM      1  C   UNL     1      32.026 169.707 159.319  1.00  0.00    -0.031 C 
ATOM      2  C   UNL     1      31.367 169.847 160.486  1.00  0.00    -0.031 C 
ENDROOT
BRANCH   1   3
ATOM      3  C   UNL     1      33.296 168.915 159.147  1.00  0.00     0.027 C 
BRANCH   3   4
ATOM      4  C   UNL     1      33.482 168.505 157.678  1.00  0.00     0.004 C 
BRANCH   4   5
ATOM      5  C   UNL     1      34.920 168.728 157.182  1.00  0.00     0.000 C 
BRANCH   5   6
ATOM      6  C   UNL     1      35.062 170.025 156.366  1.00  0.00     0.000 C 
BRANCH   6   7
ATOM      7  C   UNL     1      33.706 170.584 155.908  1.00  0.00     0.000 C 
BRANCH   7   8
ATOM      8  C   UNL     1      33.382 170.233 154.446  1.00  0.00     0.006 C 
BRANCH   8   9
ATOM      9  C   UNL     1      31.953 169.696 154.282  1.00  0.00     0.053 C 
BRANCH   9  10
ATOM     10  C   UNL     1      30.967 170.488 155.086  1.00  0.00     0.041 C 
ATOM     11  O   UNL     1      30.426 169.980 156.102  1.00  0.00    -0.550 OA
ATOM     12  O   UNL     1      30.615 171.771 154.687  1.00  0.00    -0.550 OA
ENDBRANCH   9  10
ENDBRANCH   8   9
ENDBRANCH   7   8
ENDBRANCH   6   7
ENDBRANCH   5   6
ENDBRANCH   4   5
ENDBRANCH   3   4
ENDBRANCH   1   3
BRANCH   2  13
ATOM     13  C   UNL     1      31.744 169.156 161.775  1.00  0.00     0.027 C 
BRANCH  13  14
ATOM     14  C   UNL     1      31.166 169.876 163.002  1.00  0.00     0.004 C 
BRANCH  14  15
ATOM     15  C   UNL     1      29.672 170.189 162.840  1.00  0.00     0.000 C 
BRANCH  15  16
ATOM     16  C   UNL     1      29.307 171.501 163.552  1.00  0.00     0.000 C 
BRANCH  16  17
ATOM     17  C   UNL     1      30.123 172.702 163.043  1.00  0.00    -0.000 C 
BRANCH  17  18
ATOM     18  C   UNL     1      29.867 173.083 161.572  1.00  0.00    -0.000 C 
BRANCH  18  19
ATOM     19  C   UNL     1      28.387 173.380 161.255  1.00  0.00    -0.003 C 
ATOM     20  C   UNL     1      27.877 174.636 161.963  1.00  0.00     0.004 C 
ENDBRANCH  18  19
ENDBRANCH  17  18
ENDBRANCH  16  17
ENDBRANCH  15  16
ENDBRANCH  14  15
ENDBRANCH  13  14
ENDBRANCH   2  13
TORSDOF 15
ENDMDL
MODEL 8
REMARK VINA RESULT:    -3.555      2.650      4.984
REMARK INTER + INTRA:          -9.085
REMARK INTER:                  -6.908
REMARK INTRA:                  -2.177
REMARK UNBOUND:                -2.413
REMARK SMILES CCCCCCCCC=CCCCCCCCC(=O)[O-]
REMARK SMILES IDX 10 1 9 2 11 3 12 4 13 5 14 6 15 7 16 8 17 9 18 10 19 11
REMARK SMILES IDX 20 12 8 13 7 14 6 15 5 16 4 17 3 18 2 19 1 20
REMARK H PARENT
REMARK Flexibility Score: inf
ROOT
ATOM      1  C   UNL     1      29.704 173.860 162.058  1.00  0.00    -0.031 C 
ATOM      2  C   UNL     1      29.965 172.749 161.342  1.00  0.00    -0.031 C 
ENDROOT
BRANCH   1   3
ATOM      3  C   UNL     1      28.342 174.241 162.577  1.00  0.00     0.027 C 
BRANCH   3   4
ATOM      4  C   UNL     1      28.207 173.869 164.061  1.00  0.00     0.004 C 
BRANCH   4   5
ATOM      5  C   UNL     1      29.541 173.970 164.818  1.00  0.00     0.000 C 
BRANCH   5   6
ATOM      6  C   UNL     1      29.899 172.663 165.547  1.00  0.00     0.000 C 
BRANCH   6   7
ATOM      7  C   UNL     1      29.203 171.437 164.935  1.00  0.00     0.000 C 
BRANCH   7   8
ATOM      8  C   UNL     1      30.199 170.403 164.381  1.00  0.00     0.006 C 
BRANCH   8   9
ATOM      9  C   UNL     1      31.638 170.938 164.361  1.00  0.00     0.053 C 
BRANCH   9  10
ATOM     10  C   UNL     1      32.643 169.836 164.504  1.00  0.00     0.041 C 
ATOM     11  O   UNL     1      33.066 169.230 163.485  1.00  0.00    -0.550 OA
ATOM     12  O   UNL     1      33.078 169.451 165.765  1.00  0.00    -0.550 OA
ENDBRANCH   9  10
ENDBRANCH   8   9
ENDBRANCH   7   8
ENDBRANCH   6   7
ENDBRANCH   5   6
ENDBRANCH   4   5
ENDBRANCH   3   4
ENDBRANCH   1   3
BRANCH   2  13
ATOM     13  C   UNL     1      28.956 171.670 161.032  1.00  0.00     0.027 C 
BRANCH  13  14
ATOM     14  C   UNL     1      29.619 170.415 160.444  1.00  0.00     0.004 C 
BRANCH  14  15
ATOM     15  C   UNL     1      31.121 170.354 160.755  1.00  0.00     0.000 C 
BRANCH  15  16
ATOM     16  C   UNL     1      31.813 169.280 159.902  1.00  0.00     0.000 C 
BRANCH  16  17
ATOM     17  C   UNL     1      31.905 169.667 158.416  1.00  0.00    -0.000 C 
BRANCH  17  18
ATOM     18  C   UNL     1      33.292 169.462 157.778  1.00  0.00    -0.000 C 
BRANCH  18  19
ATOM     19  C   UNL     1      33.715 170.603 156.829  1.00  0.00    -0.003 C 
ATOM     20  C   UNL     1      34.857 170.195 155.896  1.00  0.00     0.004 C 
ENDBRANCH  18  19
ENDBRANCH  17  18
ENDBRANCH  16  17
ENDBRANCH  15  16
ENDBRANCH  14  15
ENDBRANCH  13  14
ENDBRANCH   2  13
TORSDOF 15
ENDMDL
