MODEL 1
REMARK VINA RESULT:    -7.949      0.000      0.000
REMARK INTER + INTRA:          -9.615
REMARK INTER:                  -9.343
REMARK INTRA:                  -0.272
REMARK UNBOUND:                -0.272
REMARK SMILES O=c1cc(-c2ccc(O)c(O)c2)oc2cc(O)cc(O)c12
REMARK SMILES IDX 4 1 3 2 2 3 1 4 21 5 19 6 18 7 16 8 15 9 14 10 13 11 5 12
REMARK SMILES IDX 6 13 7 14 8 15 12 16 10 17 9 18 11 20 20 22 17 24
REMARK H PARENT 9 19 11 21 20 23 17 25
REMARK Flexibility Score: inf
ROOT
ATOM      1  C   UNL     1      44.421  45.609  44.429  1.00  0.00     0.138 A 
ATOM      2  C   UNL     1      43.955  46.631  45.267  1.00  0.00     0.100 A 
ATOM      3  C   UNL     1      44.417  46.713  46.580  1.00  0.00     0.197 A 
ATOM      4  O   UNL     1      44.027  47.678  47.288  1.00  0.00    -0.289 OA
ATOM      5  C   UNL     1      45.329  45.746  47.067  1.00  0.00     0.107 A 
ATOM      6  C   UNL     1      45.836  45.706  48.399  1.00  0.00     0.134 A 
ATOM      7  C   UNL     1      46.824  44.770  48.734  1.00  0.00     0.093 A 
ATOM      8  C   UNL     1      47.277  43.836  47.799  1.00  0.00     0.123 A 
ATOM      9  C   UNL     1      46.748  43.832  46.511  1.00  0.00     0.094 A 
ATOM     10  C   UNL     1      45.788  44.775  46.137  1.00  0.00     0.146 A 
ATOM     11  O   UNL     1      45.319  44.746  44.894  1.00  0.00    -0.456 OA
ENDROOT
BRANCH   1  12
ATOM     12  C   UNL     1      43.961  45.474  43.024  1.00  0.00     0.021 A 
ATOM     13  C   UNL     1      44.910  45.411  41.989  1.00  0.00     0.016 A 
ATOM     14  C   UNL     1      44.503  45.278  40.659  1.00  0.00     0.051 A 
ATOM     15  C   UNL     1      43.145  45.195  40.339  1.00  0.00     0.157 A 
ATOM     16  C   UNL     1      42.594  45.378  42.699  1.00  0.00     0.062 A 
ATOM     17  C   UNL     1      42.185  45.242  41.363  1.00  0.00     0.158 A 
BRANCH  15  18
ATOM     18  O   UNL     1      42.769  45.064  39.004  1.00  0.00    -0.504 OA
ATOM     19  H   UNL     1      42.049  45.643  38.587  1.00  0.00     0.293 HD
ENDBRANCH  15  18
BRANCH  17  20
ATOM     20  O   UNL     1      40.829  45.148  41.052  1.00  0.00    -0.504 OA
ATOM     21  H   UNL     1      40.504  44.632  40.242  1.00  0.00     0.293 HD
ENDBRANCH  17  20
ENDBRANCH   1  12
BRANCH   6  22
ATOM     22  O   UNL     1      45.392  46.538  49.431  1.00  0.00    -0.507 OA
ATOM     23  H   UNL     1      44.491  46.468  49.881  1.00  0.00     0.293 HD
ENDBRANCH   6  22
BRANCH   8  24
ATOM     24  O   UNL     1      48.248  42.898  48.146  1.00  0.00    -0.508 OA
ATOM     25  H   UNL     1      48.933  42.571  47.474  1.00  0.00     0.293 HD
ENDBRANCH   8  24
TORSDOF 5
ENDMDL
MODEL 2
REMARK VINA RESULT:    -7.728      3.580      6.386
REMARK INTER + INTRA:          -9.356
REMARK INTER:                  -9.093
REMARK INTRA:                  -0.263
REMARK UNBOUND:                -0.272
REMARK SMILES O=c1cc(-c2ccc(O)c(O)c2)oc2cc(O)cc(O)c12
REMARK SMILES IDX 4 1 3 2 2 3 1 4 21 5 19 6 18 7 16 8 15 9 14 10 13 11 5 12
REMARK SMILES IDX 6 13 7 14 8 15 12 16 10 17 9 18 11 20 20 22 17 24
REMARK H PARENT 9 19 11 21 20 23 17 25
REMARK Flexibility Score: inf
ROOT
ATOM      1  C   UNL     1      47.768  43.500  46.905  1.00  0.00     0.138 A 
ATOM      2  C   UNL     1      47.407  43.221  48.230  1.00  0.00     0.100 A 
ATOM      3  C   UNL     1      46.393  43.961  48.840  1.00  0.00     0.197 A 
ATOM      4  O   UNL     1      46.049  43.646  50.009  1.00  0.00    -0.289 OA
ATOM      5  C   UNL     1      45.759  45.007  48.127  1.00  0.00     0.107 A 
ATOM      6  C   UNL     1      44.742  45.853  48.661  1.00  0.00     0.134 A 
ATOM      7  C   UNL     1      44.106  46.779  47.824  1.00  0.00     0.093 A 
ATOM      8  C   UNL     1      44.493  46.929  46.490  1.00  0.00     0.123 A 
ATOM      9  C   UNL     1      45.522  46.145  45.975  1.00  0.00     0.094 A 
ATOM     10  C   UNL     1      46.152  45.189  46.774  1.00  0.00     0.146 A 
ATOM     11  O   UNL     1      47.119  44.451  46.240  1.00  0.00    -0.456 OA
ENDROOT
BRANCH   1  12
ATOM     12  C   UNL     1      48.840  42.746  46.209  1.00  0.00     0.021 A 
ATOM     13  C   UNL     1      50.131  43.298  46.124  1.00  0.00     0.016 A 
ATOM     14  C   UNL     1      51.159  42.606  45.481  1.00  0.00     0.051 A 
ATOM     15  C   UNL     1      50.922  41.348  44.919  1.00  0.00     0.157 A 
ATOM     16  C   UNL     1      48.610  41.473  45.653  1.00  0.00     0.062 A 
ATOM     17  C   UNL     1      49.643  40.776  45.009  1.00  0.00     0.158 A 
BRANCH  15  18
ATOM     18  O   UNL     1      51.968  40.682  44.282  1.00  0.00    -0.504 OA
ATOM     19  H   UNL     1      51.806  39.909  43.646  1.00  0.00     0.293 HD
ENDBRANCH  15  18
BRANCH  17  20
ATOM     20  O   UNL     1      49.403  39.516  44.461  1.00  0.00    -0.504 OA
ATOM     21  H   UNL     1      50.144  38.833  44.354  1.00  0.00     0.293 HD
ENDBRANCH  17  20
ENDBRANCH   1  12
BRANCH   6  22
ATOM     22  O   UNL     1      44.339  45.843  49.999  1.00  0.00    -0.507 OA
ATOM     23  H   UNL     1      44.888  45.480  50.764  1.00  0.00     0.293 HD
ENDBRANCH   6  22
BRANCH   8  24
ATOM     24  O   UNL     1      43.864  47.864  45.669  1.00  0.00    -0.508 OA
ATOM     25  H   UNL     1      43.696  47.679  44.687  1.00  0.00     0.293 HD
ENDBRANCH   8  24
TORSDOF 5
ENDMDL
MODEL 3
REMARK VINA RESULT:    -7.503      8.933     10.464
REMARK INTER + INTRA:          -9.091
REMARK INTER:                  -8.827
REMARK INTRA:                  -0.265
REMARK UNBOUND:                -0.272
REMARK SMILES O=c1cc(-c2ccc(O)c(O)c2)oc2cc(O)cc(O)c12
REMARK SMILES IDX 4 1 3 2 2 3 1 4 21 5 19 6 18 7 16 8 15 9 14 10 13 11 5 12
REMARK SMILES IDX 6 13 7 14 8 15 12 16 10 17 9 18 11 20 20 22 17 24
REMARK H PARENT 9 19 11 21 20 23 17 25
REMARK Flexibility Score: inf
ROOT
ATOM      1  C   UNL     1      49.412  45.043  35.589  1.00  0.00     0.138 A 
ATOM      2  C   UNL     1      50.590  44.344  35.888  1.00  0.00     0.100 A 
ATOM      3  C   UNL     1      51.411  44.785  36.926  1.00  0.00     0.197 A 
ATOM      4  O   UNL     1      52.428  44.102  37.210  1.00  0.00    -0.289 OA
ATOM      5  C   UNL     1      51.065  45.952  37.649  1.00  0.00     0.107 A 
ATOM      6  C   UNL     1      51.846  46.517  38.700  1.00  0.00     0.134 A 
ATOM      7  C   UNL     1      51.344  47.609  39.422  1.00  0.00     0.093 A 
ATOM      8  C   UNL     1      50.118  48.190  39.090  1.00  0.00     0.123 A 
ATOM      9  C   UNL     1      49.373  47.678  38.030  1.00  0.00     0.094 A 
ATOM     10  C   UNL     1      49.830  46.570  37.314  1.00  0.00     0.146 A 
ATOM     11  O   UNL     1      49.082  46.103  36.319  1.00  0.00    -0.456 OA
ENDROOT
BRANCH   1  12
ATOM     12  C   UNL     1      48.505  44.618  34.494  1.00  0.00     0.021 A 
ATOM     13  C   UNL     1      48.308  45.467  33.390  1.00  0.00     0.016 A 
ATOM     14  C   UNL     1      47.465  45.088  32.344  1.00  0.00     0.051 A 
ATOM     15  C   UNL     1      46.810  43.853  32.374  1.00  0.00     0.157 A 
ATOM     16  C   UNL     1      47.853  43.370  34.514  1.00  0.00     0.062 A 
ATOM     17  C   UNL     1      47.007  42.988  33.462  1.00  0.00     0.158 A 
BRANCH  15  18
ATOM     18  O   UNL     1      45.973  43.503  31.316  1.00  0.00    -0.504 OA
ATOM     19  H   UNL     1      45.839  44.107  30.512  1.00  0.00     0.293 HD
ENDBRANCH  15  18
BRANCH  17  20
ATOM     20  O   UNL     1      46.366  41.749  33.492  1.00  0.00    -0.504 OA
ATOM     21  H   UNL     1      46.616  41.006  32.851  1.00  0.00     0.293 HD
ENDBRANCH  17  20
ENDBRANCH   1  12
BRANCH   6  22
ATOM     22  O   UNL     1      53.120  46.067  39.057  1.00  0.00    -0.507 OA
ATOM     23  H   UNL     1      53.747  46.549  39.683  1.00  0.00     0.293 HD
ENDBRANCH   6  22
BRANCH   8  24
ATOM     24  O   UNL     1      49.634  49.285  39.804  1.00  0.00    -0.508 OA
ATOM     25  H   UNL     1      49.115  50.027  39.349  1.00  0.00     0.293 HD
ENDBRANCH   8  24
TORSDOF 5
ENDMDL
MODEL 4
REMARK VINA RESULT:    -7.428      3.011      5.692
REMARK INTER + INTRA:          -9.002
REMARK INTER:                  -8.694
REMARK INTRA:                  -0.309
REMARK UNBOUND:                -0.272
REMARK SMILES O=c1cc(-c2ccc(O)c(O)c2)oc2cc(O)cc(O)c12
REMARK SMILES IDX 4 1 3 2 2 3 1 4 21 5 19 6 18 7 16 8 15 9 14 10 13 11 5 12
REMARK SMILES IDX 6 13 7 14 8 15 12 16 10 17 9 18 11 20 20 22 17 24
REMARK H PARENT 9 19 11 21 20 23 17 25
REMARK Flexibility Score: inf
ROOT
ATOM      1  C   UNL     1      47.383  43.687  46.401  1.00  0.00     0.138 A 
ATOM      2  C   UNL     1      48.483  43.871  47.249  1.00  0.00     0.100 A 
ATOM      3  C   UNL     1      49.398  42.833  47.428  1.00  0.00     0.197 A 
ATOM      4  O   UNL     1      50.409  43.050  48.147  1.00  0.00    -0.289 OA
ATOM      5  C   UNL     1      49.192  41.593  46.778  1.00  0.00     0.107 A 
ATOM      6  C   UNL     1      50.037  40.452  46.918  1.00  0.00     0.134 A 
ATOM      7  C   UNL     1      49.797  39.316  46.133  1.00  0.00     0.093 A 
ATOM      8  C   UNL     1      48.709  39.261  45.259  1.00  0.00     0.123 A 
ATOM      9  C   UNL     1      47.848  40.350  45.155  1.00  0.00     0.094 A 
ATOM     10  C   UNL     1      48.080  41.509  45.898  1.00  0.00     0.146 A 
ATOM     11  O   UNL     1      47.242  42.532  45.759  1.00  0.00    -0.456 OA
ENDROOT
BRANCH   1  12
ATOM     12  C   UNL     1      46.378  44.756  46.177  1.00  0.00     0.021 A 
ATOM     13  C   UNL     1      46.183  45.739  47.163  1.00  0.00     0.016 A 
ATOM     14  C   UNL     1      45.249  46.760  46.973  1.00  0.00     0.051 A 
ATOM     15  C   UNL     1      44.500  46.825  45.794  1.00  0.00     0.157 A 
ATOM     16  C   UNL     1      45.632  44.833  44.985  1.00  0.00     0.062 A 
ATOM     17  C   UNL     1      44.695  45.860  44.793  1.00  0.00     0.158 A 
BRANCH  15  18
ATOM     18  O   UNL     1      43.575  47.855  45.634  1.00  0.00    -0.504 OA
ATOM     19  H   UNL     1      43.386  48.528  46.367  1.00  0.00     0.293 HD
ENDBRANCH  15  18
BRANCH  17  20
ATOM     20  O   UNL     1      43.960  45.926  43.609  1.00  0.00    -0.504 OA
ATOM     21  H   UNL     1      44.141  45.296  42.836  1.00  0.00     0.293 HD
ENDBRANCH  17  20
ENDBRANCH   1  12
BRANCH   6  22
ATOM     22  O   UNL     1      51.099  40.372  47.822  1.00  0.00    -0.507 OA
ATOM     23  H   UNL     1      51.332  41.080  48.503  1.00  0.00     0.293 HD
ENDBRANCH   6  22
BRANCH   8  24
ATOM     24  O   UNL     1      48.470  38.120  44.493  1.00  0.00    -0.508 OA
ATOM     25  H   UNL     1      47.567  37.947  44.068  1.00  0.00     0.293 HD
ENDBRANCH   8  24
TORSDOF 5
ENDMDL
MODEL 5
REMARK VINA RESULT:    -7.409      2.838      7.000
REMARK INTER + INTRA:          -8.980
REMARK INTER:                  -8.712
REMARK INTRA:                  -0.268
REMARK UNBOUND:                -0.272
REMARK SMILES O=c1cc(-c2ccc(O)c(O)c2)oc2cc(O)cc(O)c12
REMARK SMILES IDX 4 1 3 2 2 3 1 4 21 5 19 6 18 7 16 8 15 9 14 10 13 11 5 12
REMARK SMILES IDX 6 13 7 14 8 15 12 16 10 17 9 18 11 20 20 22 17 24
REMARK H PARENT 9 19 11 21 20 23 17 25
REMARK Flexibility Score: inf
ROOT
ATOM      1  C   UNL     1      47.429  42.960  47.032  1.00  0.00     0.138 A 
ATOM      2  C   UNL     1      47.330  43.654  48.245  1.00  0.00     0.100 A 
ATOM      3  C   UNL     1      46.534  44.798  48.324  1.00  0.00     0.197 A 
ATOM      4  O   UNL     1      46.416  45.363  49.442  1.00  0.00    -0.289 OA
ATOM      5  C   UNL     1      45.860  45.266  47.171  1.00  0.00     0.107 A 
ATOM      6  C   UNL     1      45.054  46.443  47.123  1.00  0.00     0.134 A 
ATOM      7  C   UNL     1      44.341  46.743  45.955  1.00  0.00     0.093 A 
ATOM      8  C   UNL     1      44.452  45.942  44.817  1.00  0.00     0.123 A 
ATOM      9  C   UNL     1      45.279  44.821  44.837  1.00  0.00     0.094 A 
ATOM     10  C   UNL     1      45.976  44.476  45.997  1.00  0.00     0.146 A 
ATOM     11  O   UNL     1      46.742  43.390  45.978  1.00  0.00    -0.456 OA
ENDROOT
BRANCH   1  12
ATOM     12  C   UNL     1      48.263  41.740  46.892  1.00  0.00     0.021 A 
ATOM     13  C   UNL     1      47.659  40.531  46.505  1.00  0.00     0.016 A 
ATOM     14  C   UNL     1      48.422  39.370  46.360  1.00  0.00     0.051 A 
ATOM     15  C   UNL     1      49.801  39.396  46.589  1.00  0.00     0.157 A 
ATOM     16  C   UNL     1      49.654  41.764  47.109  1.00  0.00     0.062 A 
ATOM     17  C   UNL     1      50.421  40.599  46.961  1.00  0.00     0.158 A 
BRANCH  15  18
ATOM     18  O   UNL     1      50.535  38.221  46.438  1.00  0.00    -0.504 OA
ATOM     19  H   UNL     1      50.827  37.662  47.231  1.00  0.00     0.293 HD
ENDBRANCH  15  18
BRANCH  17  20
ATOM     20  O   UNL     1      51.798  40.634  47.179  1.00  0.00    -0.504 OA
ATOM     21  H   UNL     1      52.201  40.382  48.074  1.00  0.00     0.293 HD
ENDBRANCH  17  20
ENDBRANCH   1  12
BRANCH   6  22
ATOM     22  O   UNL     1      44.940  47.355  48.176  1.00  0.00    -0.507 OA
ATOM     23  H   UNL     1      44.071  47.632  48.607  1.00  0.00     0.293 HD
ENDBRANCH   6  22
BRANCH   8  24
ATOM     24  O   UNL     1      43.751  46.257  43.654  1.00  0.00    -0.508 OA
ATOM     25  H   UNL     1      42.803  45.933  43.502  1.00  0.00     0.293 HD
ENDBRANCH   8  24
TORSDOF 5
ENDMDL
MODEL 6
REMARK VINA RESULT:    -7.300      9.461     10.339
REMARK INTER + INTRA:          -8.852
REMARK INTER:                  -8.578
REMARK INTRA:                  -0.274
REMARK UNBOUND:                -0.272
REMARK SMILES O=c1cc(-c2ccc(O)c(O)c2)oc2cc(O)cc(O)c12
REMARK SMILES IDX 4 1 3 2 2 3 1 4 21 5 19 6 18 7 16 8 15 9 14 10 13 11 5 12
REMARK SMILES IDX 6 13 7 14 8 15 12 16 10 17 9 18 11 20 20 22 17 24
REMARK H PARENT 9 19 11 21 20 23 17 25
REMARK Flexibility Score: inf
ROOT
ATOM      1  C   UNL     1      49.177  45.328  35.561  1.00  0.00     0.138 A 
ATOM      2  C   UNL     1      48.826  46.519  36.211  1.00  0.00     0.100 A 
ATOM      3  C   UNL     1      49.624  47.001  37.249  1.00  0.00     0.197 A 
ATOM      4  O   UNL     1      49.317  48.104  37.771  1.00  0.00    -0.289 OA
ATOM      5  C   UNL     1      50.763  46.267  37.659  1.00  0.00     0.107 A 
ATOM      6  C   UNL     1      51.626  46.641  38.731  1.00  0.00     0.134 A 
ATOM      7  C   UNL     1      52.790  45.898  38.970  1.00  0.00     0.093 A 
ATOM      8  C   UNL     1      53.088  44.762  38.213  1.00  0.00     0.123 A 
ATOM      9  C   UNL     1      52.223  44.359  37.199  1.00  0.00     0.094 A 
ATOM     10  C   UNL     1      51.073  45.098  36.914  1.00  0.00     0.146 A 
ATOM     11  O   UNL     1      50.282  44.688  35.928  1.00  0.00    -0.456 OA
ENDROOT
BRANCH   1  12
ATOM     12  C   UNL     1      48.363  44.771  34.452  1.00  0.00     0.021 A 
ATOM     13  C   UNL     1      48.238  45.494  33.253  1.00  0.00     0.016 A 
ATOM     14  C   UNL     1      47.484  44.988  32.192  1.00  0.00     0.051 A 
ATOM     15  C   UNL     1      46.847  43.749  32.305  1.00  0.00     0.157 A 
ATOM     16  C   UNL     1      47.731  43.516  34.556  1.00  0.00     0.062 A 
ATOM     17  C   UNL     1      46.974  43.007  33.490  1.00  0.00     0.158 A 
BRANCH  15  18
ATOM     18  O   UNL     1      46.100  43.271  31.230  1.00  0.00    -0.504 OA
ATOM     19  H   UNL     1      45.086  43.295  31.225  1.00  0.00     0.293 HD
ENDBRANCH  15  18
BRANCH  17  20
ATOM     20  O   UNL     1      46.352  41.763  33.603  1.00  0.00    -0.504 OA
ATOM     21  H   UNL     1      46.400  41.075  32.861  1.00  0.00     0.293 HD
ENDBRANCH  17  20
ENDBRANCH   1  12
BRANCH   6  22
ATOM     22  O   UNL     1      51.378  47.707  39.600  1.00  0.00    -0.507 OA
ATOM     23  H   UNL     1      51.984  48.504  39.722  1.00  0.00     0.293 HD
ENDBRANCH   6  22
BRANCH   8  24
ATOM     24  O   UNL     1      54.241  44.021  38.468  1.00  0.00    -0.508 OA
ATOM     25  H   UNL     1      54.360  43.507  39.334  1.00  0.00     0.293 HD
ENDBRANCH   8  24
TORSDOF 5
ENDMDL
MODEL 7
REMARK VINA RESULT:    -7.287     10.923     11.901
REMARK INTER + INTRA:          -8.837
REMARK INTER:                  -8.531
REMARK INTRA:                  -0.306
REMARK UNBOUND:                -0.272
REMARK SMILES O=c1cc(-c2ccc(O)c(O)c2)oc2cc(O)cc(O)c12
REMARK SMILES IDX 4 1 3 2 2 3 1 4 21 5 19 6 18 7 16 8 15 9 14 10 13 11 5 12
REMARK SMILES IDX 6 13 7 14 8 15 12 16 10 17 9 18 11 20 20 22 17 24
REMARK H PARENT 9 19 11 21 20 23 17 25
REMARK Flexibility Score: inf
ROOT
ATOM      1  C   UNL     1      49.822  45.625  35.109  1.00  0.00     0.138 A 
ATOM      2  C   UNL     1      50.784  45.345  36.089  1.00  0.00     0.100 A 
ATOM      3  C   UNL     1      51.524  46.388  36.648  1.00  0.00     0.197 A 
ATOM      4  O   UNL     1      52.336  46.112  37.569  1.00  0.00    -0.289 OA
ATOM      5  C   UNL     1      51.320  47.714  36.200  1.00  0.00     0.107 A 
ATOM      6  C   UNL     1      52.044  48.850  36.669  1.00  0.00     0.134 A 
ATOM      7  C   UNL     1      51.674  50.131  36.237  1.00  0.00     0.093 A 
ATOM      8  C   UNL     1      50.646  50.309  35.308  1.00  0.00     0.123 A 
ATOM      9  C   UNL     1      49.969  49.201  34.804  1.00  0.00     0.094 A 
ATOM     10  C   UNL     1      50.291  47.915  35.241  1.00  0.00     0.146 A 
ATOM     11  O   UNL     1      49.611  46.886  34.745  1.00  0.00    -0.456 OA
ENDROOT
BRANCH   1  12
ATOM     12  C   UNL     1      49.009  44.554  34.480  1.00  0.00     0.021 A 
ATOM     13  C   UNL     1      48.709  43.393  35.212  1.00  0.00     0.016 A 
ATOM     14  C   UNL     1      47.940  42.373  34.646  1.00  0.00     0.051 A 
ATOM     15  C   UNL     1      47.449  42.498  33.343  1.00  0.00     0.157 A 
ATOM     16  C   UNL     1      48.501  44.682  33.172  1.00  0.00     0.062 A 
ATOM     17  C   UNL     1      47.727  43.659  32.603  1.00  0.00     0.158 A 
BRANCH  15  18
ATOM     18  O   UNL     1      46.686  41.464  32.804  1.00  0.00    -0.504 OA
ATOM     19  H   UNL     1      46.283  40.734  33.380  1.00  0.00     0.293 HD
ENDBRANCH  15  18
BRANCH  17  20
ATOM     20  O   UNL     1      47.230  43.795  31.307  1.00  0.00    -0.504 OA
ATOM     21  H   UNL     1      47.026  44.705  30.909  1.00  0.00     0.293 HD
ENDBRANCH  17  20
ENDBRANCH   1  12
BRANCH   6  22
ATOM     22  O   UNL     1      53.141  48.777  37.532  1.00  0.00    -0.507 OA
ATOM     23  H   UNL     1      54.075  48.515  37.256  1.00  0.00     0.293 HD
ENDBRANCH   6  22
BRANCH   8  24
ATOM     24  O   UNL     1      50.295  51.586  34.873  1.00  0.00    -0.508 OA
ATOM     25  H   UNL     1      50.962  52.188  34.404  1.00  0.00     0.293 HD
ENDBRANCH   8  24
TORSDOF 5
ENDMDL
MODEL 8
REMARK VINA RESULT:    -7.265     11.373     11.705
REMARK INTER + INTRA:          -8.811
REMARK INTER:                  -8.538
REMARK INTRA:                  -0.274
REMARK UNBOUND:                -0.272
REMARK SMILES O=c1cc(-c2ccc(O)c(O)c2)oc2cc(O)cc(O)c12
REMARK SMILES IDX 4 1 3 2 2 3 1 4 21 5 19 6 18 7 16 8 15 9 14 10 13 11 5 12
REMARK SMILES IDX 6 13 7 14 8 15 12 16 10 17 9 18 11 20 20 22 17 24
REMARK H PARENT 9 19 11 21 20 23 17 25
REMARK Flexibility Score: inf
ROOT
ATOM      1  C   UNL     1      49.822  45.791  34.832  1.00  0.00     0.138 A 
ATOM      2  C   UNL     1      49.387  47.122  34.768  1.00  0.00     0.100 A 
ATOM      3  C   UNL     1      50.180  48.135  35.307  1.00  0.00     0.197 A 
ATOM      4  O   UNL     1      49.792  49.326  35.179  1.00  0.00    -0.289 OA
ATOM      5  C   UNL     1      51.402  47.809  35.943  1.00  0.00     0.107 A 
ATOM      6  C   UNL     1      52.272  48.754  36.563  1.00  0.00     0.134 A 
ATOM      7  C   UNL     1      53.512  48.328  37.058  1.00  0.00     0.093 A 
ATOM      8  C   UNL     1      53.885  46.983  37.007  1.00  0.00     0.123 A 
ATOM      9  C   UNL     1      53.019  46.045  36.452  1.00  0.00     0.094 A 
ATOM     10  C   UNL     1      51.791  46.443  35.919  1.00  0.00     0.146 A 
ATOM     11  O   UNL     1      51.000  45.518  35.385  1.00  0.00    -0.456 OA
ENDROOT
BRANCH   1  12
ATOM     12  C   UNL     1      49.017  44.675  34.277  1.00  0.00     0.021 A 
ATOM     13  C   UNL     1      48.766  43.542  35.070  1.00  0.00     0.016 A 
ATOM     14  C   UNL     1      48.005  42.481  34.573  1.00  0.00     0.051 A 
ATOM     15  C   UNL     1      47.474  42.535  33.281  1.00  0.00     0.157 A 
ATOM     16  C   UNL     1      48.469  44.731  32.981  1.00  0.00     0.062 A 
ATOM     17  C   UNL     1      47.703  43.666  32.482  1.00  0.00     0.158 A 
BRANCH  15  18
ATOM     18  O   UNL     1      46.721  41.460  32.812  1.00  0.00    -0.504 OA
ATOM     19  H   UNL     1      47.147  40.582  32.539  1.00  0.00     0.293 HD
ENDBRANCH  15  18
BRANCH  17  20
ATOM     20  O   UNL     1      47.166  43.732  31.196  1.00  0.00    -0.504 OA
ATOM     21  H   UNL     1      47.015  42.898  30.641  1.00  0.00     0.293 HD
ENDBRANCH  17  20
ENDBRANCH   1  12
BRANCH   6  22
ATOM     22  O   UNL     1      51.961  50.105  36.740  1.00  0.00    -0.507 OA
ATOM     23  H   UNL     1      51.439  50.479  37.519  1.00  0.00     0.293 HD
ENDBRANCH   6  22
BRANCH   8  24
ATOM     24  O   UNL     1      55.114  46.567  37.517  1.00  0.00    -0.508 OA
ATOM     25  H   UNL     1      55.177  46.014  38.364  1.00  0.00     0.293 HD
ENDBRANCH   8  24
TORSDOF 5
ENDMDL
MODEL 9
REMARK VINA RESULT:    -7.250      4.326      6.979
REMARK INTER + INTRA:          -8.793
REMARK INTER:                  -8.530
REMARK INTRA:                  -0.263
REMARK UNBOUND:                -0.272
REMARK SMILES O=c1cc(-c2ccc(O)c(O)c2)oc2cc(O)cc(O)c12
REMARK SMILES IDX 4 1 3 2 2 3 1 4 21 5 19 6 18 7 16 8 15 9 14 10 13 11 5 12
REMARK SMILES IDX 6 13 7 14 8 15 12 16 10 17 9 18 11 20 20 22 17 24
REMARK H PARENT 9 19 11 21 20 23 17 25
REMARK Flexibility Score: inf
ROOT
ATOM      1  C   UNL     1      47.779  43.100  47.287  1.00  0.00     0.138 A 
ATOM      2  C   UNL     1      47.358  41.859  46.789  1.00  0.00     0.100 A 
ATOM      3  C   UNL     1      48.293  40.845  46.581  1.00  0.00     0.197 A 
ATOM      4  O   UNL     1      47.875  39.723  46.192  1.00  0.00    -0.289 OA
ATOM      5  C   UNL     1      49.662  41.086  46.845  1.00  0.00     0.107 A 
ATOM      6  C   UNL     1      50.708  40.140  46.632  1.00  0.00     0.134 A 
ATOM      7  C   UNL     1      52.012  40.450  47.040  1.00  0.00     0.093 A 
ATOM      8  C   UNL     1      52.316  41.695  47.597  1.00  0.00     0.123 A 
ATOM      9  C   UNL     1      51.311  42.645  47.759  1.00  0.00     0.094 A 
ATOM     10  C   UNL     1      49.995  42.352  47.394  1.00  0.00     0.146 A 
ATOM     11  O   UNL     1      49.063  43.282  47.579  1.00  0.00    -0.456 OA
ENDROOT
BRANCH   1  12
ATOM     12  C   UNL     1      46.827  44.214  47.525  1.00  0.00     0.021 A 
ATOM     13  C   UNL     1      46.610  45.166  46.513  1.00  0.00     0.016 A 
ATOM     14  C   UNL     1      45.715  46.220  46.708  1.00  0.00     0.051 A 
ATOM     15  C   UNL     1      45.013  46.338  47.912  1.00  0.00     0.157 A 
ATOM     16  C   UNL     1      46.109  44.330  48.730  1.00  0.00     0.062 A 
ATOM     17  C   UNL     1      45.207  45.387  48.927  1.00  0.00     0.158 A 
BRANCH  15  18
ATOM     18  O   UNL     1      44.128  47.401  48.079  1.00  0.00    -0.504 OA
ATOM     19  H   UNL     1      44.427  48.367  48.014  1.00  0.00     0.293 HD
ENDBRANCH  15  18
BRANCH  17  20
ATOM     20  O   UNL     1      44.502  45.493  50.125  1.00  0.00    -0.504 OA
ATOM     21  H   UNL     1      44.851  46.045  50.900  1.00  0.00     0.293 HD
ENDBRANCH  17  20
ENDBRANCH   1  12
BRANCH   6  22
ATOM     22  O   UNL     1      50.529  38.902  46.008  1.00  0.00    -0.507 OA
ATOM     23  H   UNL     1      50.053  38.113  46.419  1.00  0.00     0.293 HD
ENDBRANCH   6  22
BRANCH   8  24
ATOM     24  O   UNL     1      53.619  42.000  47.985  1.00  0.00    -0.508 OA
ATOM     25  H   UNL     1      53.895  42.948  48.217  1.00  0.00     0.293 HD
ENDBRANCH   8  24
TORSDOF 5
ENDMDL
