MODEL 1
REMARK VINA RESULT:    -7.522      0.000      0.000
REMARK INTER + INTRA:          -8.346
REMARK INTER:                  -8.842
REMARK INTRA:                   0.496
REMARK UNBOUND:                 0.496
REMARK SMILES O=c1c(O)c(-c2ccc(O)cc2)oc2cc(O)cc(O)c12
REMARK SMILES IDX 5 1 3 2 2 3 1 4 21 5 19 6 18 7 16 8 15 9 14 10 13 11 6 12
REMARK SMILES IDX 7 13 8 14 9 15 12 16 11 17 10 18 4 20 20 22 17 24
REMARK H PARENT 10 19 4 21 20 23 17 25
REMARK Flexibility Score: inf
ROOT
ATOM      1  C   UNL     1      16.410  23.148  40.579  1.00  0.00     0.180 A 
ATOM      2  C   UNL     1      16.943  23.965  39.564  1.00  0.00     0.208 A 
ATOM      3  C   UNL     1      18.081  23.526  38.868  1.00  0.00     0.238 A 
ATOM      4  O   UNL     1      18.561  24.244  37.949  1.00  0.00    -0.285 OA
ATOM      5  C   UNL     1      18.677  22.294  39.210  1.00  0.00     0.111 A 
ATOM      6  C   UNL     1      19.826  21.783  38.561  1.00  0.00     0.134 A 
ATOM      7  C   UNL     1      20.365  20.553  38.967  1.00  0.00     0.093 A 
ATOM      8  C   UNL     1      19.776  19.826  40.008  1.00  0.00     0.123 A 
ATOM      9  C   UNL     1      18.642  20.327  40.651  1.00  0.00     0.094 A 
ATOM     10  C   UNL     1      18.089  21.550  40.260  1.00  0.00     0.146 A 
ATOM     11  O   UNL     1      17.008  21.999  40.885  1.00  0.00    -0.452 OA
ENDROOT
BRANCH   1  12
ATOM     12  C   UNL     1      15.202  23.531  41.345  1.00  0.00     0.021 A 
ATOM     13  C   UNL     1      14.379  24.564  40.867  1.00  0.00     0.016 A 
ATOM     14  C   UNL     1      13.246  24.956  41.585  1.00  0.00     0.047 A 
ATOM     15  C   UNL     1      12.930  24.334  42.796  1.00  0.00     0.115 A 
ATOM     16  C   UNL     1      14.890  22.921  42.575  1.00  0.00     0.016 A 
ATOM     17  C   UNL     1      13.756  23.316  43.291  1.00  0.00     0.047 A 
BRANCH  15  18
ATOM     18  O   UNL     1      11.796  24.734  43.501  1.00  0.00    -0.508 OA
ATOM     19  H   UNL     1      10.873  24.397  43.255  1.00  0.00     0.293 HD
ENDBRANCH  15  18
ENDBRANCH   1  12
BRANCH   2  20
ATOM     20  O   UNL     1      16.364  25.203  39.277  1.00  0.00    -0.502 OA
ATOM     21  H   UNL     1      16.417  25.628  38.359  1.00  0.00     0.293 HD
ENDBRANCH   2  20
BRANCH   6  22
ATOM     22  O   UNL     1      20.435  22.486  37.521  1.00  0.00    -0.507 OA
ATOM     23  H   UNL     1      20.164  22.347  36.554  1.00  0.00     0.293 HD
ENDBRANCH   6  22
BRANCH   8  24
ATOM     24  O   UNL     1      20.311  18.605  40.412  1.00  0.00    -0.508 OA
ATOM     25  H   UNL     1      20.745  17.972  39.750  1.00  0.00     0.293 HD
ENDBRANCH   8  24
TORSDOF 5
ENDMDL
MODEL 2
REMARK VINA RESULT:    -7.488      1.125      6.492
REMARK INTER + INTRA:          -8.305
REMARK INTER:                  -8.547
REMARK INTRA:                   0.242
REMARK UNBOUND:                 0.496
REMARK SMILES O=c1c(O)c(-c2ccc(O)cc2)oc2cc(O)cc(O)c12
REMARK SMILES IDX 5 1 3 2 2 3 1 4 21 5 19 6 18 7 16 8 15 9 14 10 13 11 6 12
REMARK SMILES IDX 7 13 8 14 9 15 12 16 11 17 10 18 4 20 20 22 17 24
REMARK H PARENT 10 19 4 21 20 23 17 25
REMARK Flexibility Score: inf
ROOT
ATOM      1  C   UNL     1      17.638  22.493  40.173  1.00  0.00     0.180 A 
ATOM      2  C   UNL     1      17.352  23.560  39.300  1.00  0.00     0.208 A 
ATOM      3  C   UNL     1      16.229  24.362  39.555  1.00  0.00     0.238 A 
ATOM      4  O   UNL     1      15.969  25.327  38.786  1.00  0.00    -0.285 OA
ATOM      5  C   UNL     1      15.402  24.074  40.660  1.00  0.00     0.111 A 
ATOM      6  C   UNL     1      14.250  24.831  40.984  1.00  0.00     0.134 A 
ATOM      7  C   UNL     1      13.473  24.475  42.096  1.00  0.00     0.093 A 
ATOM      8  C   UNL     1      13.827  23.377  42.890  1.00  0.00     0.123 A 
ATOM      9  C   UNL     1      14.962  22.628  42.574  1.00  0.00     0.094 A 
ATOM     10  C   UNL     1      15.750  22.968  41.471  1.00  0.00     0.146 A 
ATOM     11  O   UNL     1      16.827  22.241  41.198  1.00  0.00    -0.452 OA
ENDROOT
BRANCH   1  12
ATOM     12  C   UNL     1      18.814  21.613  39.984  1.00  0.00     0.021 A 
ATOM     13  C   UNL     1      18.755  20.277  40.412  1.00  0.00     0.016 A 
ATOM     14  C   UNL     1      19.861  19.435  40.263  1.00  0.00     0.047 A 
ATOM     15  C   UNL     1      21.044  19.922  39.699  1.00  0.00     0.115 A 
ATOM     16  C   UNL     1      20.015  22.103  39.435  1.00  0.00     0.016 A 
ATOM     17  C   UNL     1      21.119  21.259  39.288  1.00  0.00     0.047 A 
BRANCH  15  18
ATOM     18  O   UNL     1      22.139  19.071  39.556  1.00  0.00    -0.508 OA
ATOM     19  H   UNL     1      22.592  18.940  38.659  1.00  0.00     0.293 HD
ENDBRANCH  15  18
ENDBRANCH   1  12
BRANCH   2  20
ATOM     20  O   UNL     1      18.159  23.794  38.184  1.00  0.00    -0.502 OA
ATOM     21  H   UNL     1      18.108  24.652  37.648  1.00  0.00     0.293 HD
ENDBRANCH   2  20
BRANCH   6  22
ATOM     22  O   UNL     1      13.872  25.930  40.210  1.00  0.00    -0.507 OA
ATOM     23  H   UNL     1      14.489  26.323  39.509  1.00  0.00     0.293 HD
ENDBRANCH   6  22
BRANCH   8  24
ATOM     24  O   UNL     1      13.055  23.022  43.994  1.00  0.00    -0.508 OA
ATOM     25  H   UNL     1      12.046  22.948  43.933  1.00  0.00     0.293 HD
ENDBRANCH   8  24
TORSDOF 5
ENDMDL
MODEL 3
REMARK VINA RESULT:    -7.349      1.628      6.777
REMARK INTER + INTRA:          -8.142
REMARK INTER:                  -8.394
REMARK INTRA:                   0.252
REMARK UNBOUND:                 0.496
REMARK SMILES O=c1c(O)c(-c2ccc(O)cc2)oc2cc(O)cc(O)c12
REMARK SMILES IDX 5 1 3 2 2 3 1 4 21 5 19 6 18 7 16 8 15 9 14 10 13 11 6 12
REMARK SMILES IDX 7 13 8 14 9 15 12 16 11 17 10 18 4 20 20 22 17 24
REMARK H PARENT 10 19 4 21 20 23 17 25
REMARK Flexibility Score: inf
ROOT
ATOM      1  C   UNL     1      15.547  23.230  41.062  1.00  0.00     0.180 A 
ATOM      2  C   UNL     1      14.899  24.407  40.640  1.00  0.00     0.208 A 
ATOM      3  C   UNL     1      13.900  24.961  41.455  1.00  0.00     0.238 A 
ATOM      4  O   UNL     1      13.320  26.020  41.093  1.00  0.00    -0.285 OA
ATOM      5  C   UNL     1      13.550  24.321  42.663  1.00  0.00     0.111 A 
ATOM      6  C   UNL     1      12.551  24.811  43.538  1.00  0.00     0.134 A 
ATOM      7  C   UNL     1      12.256  24.111  44.718  1.00  0.00     0.093 A 
ATOM      8  C   UNL     1      12.939  22.931  45.036  1.00  0.00     0.123 A 
ATOM      9  C   UNL     1      13.924  22.445  44.176  1.00  0.00     0.094 A 
ATOM     10  C   UNL     1      14.236  23.129  42.997  1.00  0.00     0.146 A 
ATOM     11  O   UNL     1      15.181  22.645  42.200  1.00  0.00    -0.452 OA
ENDROOT
BRANCH   1  12
ATOM     12  C   UNL     1      16.624  22.596  40.268  1.00  0.00     0.021 A 
ATOM     13  C   UNL     1      17.526  23.404  39.556  1.00  0.00     0.016 A 
ATOM     14  C   UNL     1      18.537  22.826  38.783  1.00  0.00     0.047 A 
ATOM     15  C   UNL     1      18.650  21.436  38.698  1.00  0.00     0.115 A 
ATOM     16  C   UNL     1      16.730  21.196  40.162  1.00  0.00     0.016 A 
ATOM     17  C   UNL     1      17.742  20.621  39.388  1.00  0.00     0.047 A 
BRANCH  15  18
ATOM     18  O   UNL     1      19.663  20.873  37.924  1.00  0.00    -0.508 OA
ATOM     19  H   UNL     1      20.641  21.030  38.137  1.00  0.00     0.293 HD
ENDBRANCH  15  18
ENDBRANCH   1  12
BRANCH   2  20
ATOM     20  O   UNL     1      15.229  24.994  39.416  1.00  0.00    -0.502 OA
ATOM     21  H   UNL     1      15.007  24.559  38.528  1.00  0.00     0.293 HD
ENDBRANCH   2  20
BRANCH   6  22
ATOM     22  O   UNL     1      11.853  25.983  43.246  1.00  0.00    -0.507 OA
ATOM     23  H   UNL     1      10.845  26.038  43.335  1.00  0.00     0.293 HD
ENDBRANCH   6  22
BRANCH   8  24
ATOM     24  O   UNL     1      12.645  22.235  46.206  1.00  0.00    -0.508 OA
ATOM     25  H   UNL     1      11.701  22.187  46.572  1.00  0.00     0.293 HD
ENDBRANCH   8  24
TORSDOF 5
ENDMDL
MODEL 4
REMARK VINA RESULT:    -7.020      1.252      2.282
REMARK INTER + INTRA:          -7.756
REMARK INTER:                  -8.195
REMARK INTRA:                   0.439
REMARK UNBOUND:                 0.496
REMARK SMILES O=c1c(O)c(-c2ccc(O)cc2)oc2cc(O)cc(O)c12
REMARK SMILES IDX 5 1 3 2 2 3 1 4 21 5 19 6 18 7 16 8 15 9 14 10 13 11 6 12
REMARK SMILES IDX 7 13 8 14 9 15 12 16 11 17 10 18 4 20 20 22 17 24
REMARK H PARENT 10 19 4 21 20 23 17 25
REMARK Flexibility Score: inf
ROOT
ATOM      1  C   UNL     1      14.998  23.522  41.596  1.00  0.00     0.180 A 
ATOM      2  C   UNL     1      15.118  24.500  40.590  1.00  0.00     0.208 A 
ATOM      3  C   UNL     1      16.150  24.378  39.646  1.00  0.00     0.238 A 
ATOM      4  O   UNL     1      16.261  25.242  38.734  1.00  0.00    -0.285 OA
ATOM      5  C   UNL     1      17.053  23.298  39.734  1.00  0.00     0.111 A 
ATOM      6  C   UNL     1      18.121  23.106  38.826  1.00  0.00     0.134 A 
ATOM      7  C   UNL     1      18.982  22.010  38.987  1.00  0.00     0.093 A 
ATOM      8  C   UNL     1      18.795  21.106  40.038  1.00  0.00     0.123 A 
ATOM      9  C   UNL     1      17.743  21.292  40.936  1.00  0.00     0.094 A 
ATOM     10  C   UNL     1      16.872  22.376  40.792  1.00  0.00     0.146 A 
ATOM     11  O   UNL     1      15.877  22.525  41.657  1.00  0.00    -0.452 OA
ENDROOT
BRANCH   1  12
ATOM     12  C   UNL     1      13.925  23.570  42.616  1.00  0.00     0.021 A 
ATOM     13  C   UNL     1      13.987  22.710  43.725  1.00  0.00     0.016 A 
ATOM     14  C   UNL     1      12.975  22.723  44.689  1.00  0.00     0.047 A 
ATOM     15  C   UNL     1      11.881  23.582  44.549  1.00  0.00     0.115 A 
ATOM     16  C   UNL     1      12.812  24.418  42.470  1.00  0.00     0.016 A 
ATOM     17  C   UNL     1      11.801  24.428  43.435  1.00  0.00     0.047 A 
BRANCH  15  18
ATOM     18  O   UNL     1      10.879  23.584  45.517  1.00  0.00    -0.508 OA
ATOM     19  H   UNL     1      11.064  23.298  46.471  1.00  0.00     0.293 HD
ENDBRANCH  15  18
ENDBRANCH   1  12
BRANCH   2  20
ATOM     20  O   UNL     1      14.242  25.587  40.554  1.00  0.00    -0.502 OA
ATOM     21  H   UNL     1      13.340  25.543  40.093  1.00  0.00     0.293 HD
ENDBRANCH   2  20
BRANCH   6  22
ATOM     22  O   UNL     1      18.333  23.992  37.769  1.00  0.00    -0.507 OA
ATOM     23  H   UNL     1      18.137  23.733  36.809  1.00  0.00     0.293 HD
ENDBRANCH   6  22
BRANCH   8  24
ATOM     24  O   UNL     1      19.650  20.018  40.200  1.00  0.00    -0.508 OA
ATOM     25  H   UNL     1      20.010  19.504  39.404  1.00  0.00     0.293 HD
ENDBRANCH   8  24
TORSDOF 5
ENDMDL
MODEL 5
REMARK VINA RESULT:    -6.678      1.615      2.945
REMARK INTER + INTRA:          -7.353
REMARK INTER:                  -7.174
REMARK INTRA:                  -0.180
REMARK UNBOUND:                 0.496
REMARK SMILES O=c1c(O)c(-c2ccc(O)cc2)oc2cc(O)cc(O)c12
REMARK SMILES IDX 5 1 3 2 2 3 1 4 21 5 19 6 18 7 16 8 15 9 14 10 13 11 6 12
REMARK SMILES IDX 7 13 8 14 9 15 12 16 11 17 10 18 4 20 20 22 17 24
REMARK H PARENT 10 19 4 21 20 23 17 25
REMARK Flexibility Score: inf
ROOT
ATOM      1  C   UNL     1      17.066  22.086  40.909  1.00  0.00     0.180 A 
ATOM      2  C   UNL     1      17.204  20.706  40.669  1.00  0.00     0.208 A 
ATOM      3  C   UNL     1      18.419  20.224  40.157  1.00  0.00     0.238 A 
ATOM      4  O   UNL     1      18.558  18.988  39.947  1.00  0.00    -0.285 OA
ATOM      5  C   UNL     1      19.464  21.128  39.874  1.00  0.00     0.111 A 
ATOM      6  C   UNL     1      20.717  20.725  39.352  1.00  0.00     0.134 A 
ATOM      7  C   UNL     1      21.703  21.687  39.089  1.00  0.00     0.093 A 
ATOM      8  C   UNL     1      21.460  23.043  39.337  1.00  0.00     0.123 A 
ATOM      9  C   UNL     1      20.225  23.445  39.851  1.00  0.00     0.094 A 
ATOM     10  C   UNL     1      19.231  22.501  40.123  1.00  0.00     0.146 A 
ATOM     11  O   UNL     1      18.069  22.911  40.616  1.00  0.00    -0.452 OA
ENDROOT
BRANCH   1  12
ATOM     12  C   UNL     1      15.824  22.669  41.466  1.00  0.00     0.021 A 
ATOM     13  C   UNL     1      15.075  23.571  40.692  1.00  0.00     0.016 A 
ATOM     14  C   UNL     1      13.912  24.149  41.207  1.00  0.00     0.047 A 
ATOM     15  C   UNL     1      13.490  23.847  42.505  1.00  0.00     0.115 A 
ATOM     16  C   UNL     1      15.406  22.383  42.780  1.00  0.00     0.016 A 
ATOM     17  C   UNL     1      14.242  22.964  43.291  1.00  0.00     0.047 A 
BRANCH  15  18
ATOM     18  O   UNL     1      12.328  24.430  43.005  1.00  0.00    -0.508 OA
ATOM     19  H   UNL     1      12.362  25.230  43.627  1.00  0.00     0.293 HD
ENDBRANCH  15  18
ENDBRANCH   1  12
BRANCH   2  20
ATOM     20  O   UNL     1      16.137  19.837  40.910  1.00  0.00    -0.502 OA
ATOM     21  H   UNL     1      15.266  20.150  41.323  1.00  0.00     0.293 HD
ENDBRANCH   2  20
BRANCH   6  22
ATOM     22  O   UNL     1      20.987  19.381  39.093  1.00  0.00    -0.507 OA
ATOM     23  H   UNL     1      20.804  18.659  39.781  1.00  0.00     0.293 HD
ENDBRANCH   6  22
BRANCH   8  24
ATOM     24  O   UNL     1      22.438  23.999  39.074  1.00  0.00    -0.508 OA
ATOM     25  H   UNL     1      22.697  24.246  38.126  1.00  0.00     0.293 HD
ENDBRANCH   8  24
TORSDOF 5
ENDMDL
MODEL 6
REMARK VINA RESULT:    -6.134     16.639     18.411
REMARK INTER + INTRA:          -6.714
REMARK INTER:                  -7.210
REMARK INTRA:                   0.497
REMARK UNBOUND:                 0.496
REMARK SMILES O=c1c(O)c(-c2ccc(O)cc2)oc2cc(O)cc(O)c12
REMARK SMILES IDX 5 1 3 2 2 3 1 4 21 5 19 6 18 7 16 8 15 9 14 10 13 11 6 12
REMARK SMILES IDX 7 13 8 14 9 15 12 16 11 17 10 18 4 20 20 22 17 24
REMARK H PARENT 10 19 4 21 20 23 17 25
REMARK Flexibility Score: inf
ROOT
ATOM      1  C   UNL     1      30.597  11.065  39.771  1.00  0.00     0.180 A 
ATOM      2  C   UNL     1      30.814   9.869  39.060  1.00  0.00     0.208 A 
ATOM      3  C   UNL     1      30.824   9.907  37.656  1.00  0.00     0.238 A 
ATOM      4  O   UNL     1      31.028   8.845  37.009  1.00  0.00    -0.285 OA
ATOM      5  C   UNL     1      30.598  11.130  36.990  1.00  0.00     0.111 A 
ATOM      6  C   UNL     1      30.588  11.253  35.580  1.00  0.00     0.134 A 
ATOM      7  C   UNL     1      30.347  12.504  34.992  1.00  0.00     0.093 A 
ATOM      8  C   UNL     1      30.114  13.631  35.788  1.00  0.00     0.123 A 
ATOM      9  C   UNL     1      30.123  13.514  37.179  1.00  0.00     0.094 A 
ATOM     10  C   UNL     1      30.365  12.278  37.784  1.00  0.00     0.146 A 
ATOM     11  O   UNL     1      30.372  12.197  39.109  1.00  0.00    -0.452 OA
ENDROOT
BRANCH   1  12
ATOM     12  C   UNL     1      30.591  11.110  41.251  1.00  0.00     0.021 A 
ATOM     13  C   UNL     1      31.123  10.033  41.979  1.00  0.00     0.016 A 
ATOM     14  C   UNL     1      31.108  10.045  43.376  1.00  0.00     0.047 A 
ATOM     15  C   UNL     1      30.547  11.125  44.064  1.00  0.00     0.115 A 
ATOM     16  C   UNL     1      30.009  12.186  41.950  1.00  0.00     0.016 A 
ATOM     17  C   UNL     1      29.995  12.195  43.347  1.00  0.00     0.047 A 
BRANCH  15  18
ATOM     18  O   UNL     1      30.539  11.125  45.458  1.00  0.00    -0.508 OA
ATOM     19  H   UNL     1      30.508  10.261  45.987  1.00  0.00     0.293 HD
ENDBRANCH  15  18
ENDBRANCH   1  12
BRANCH   2  20
ATOM     20  O   UNL     1      30.986   8.663  39.742  1.00  0.00    -0.502 OA
ATOM     21  H   UNL     1      30.458   7.829  39.512  1.00  0.00     0.293 HD
ENDBRANCH   2  20
BRANCH   6  22
ATOM     22  O   UNL     1      30.815  10.146  34.761  1.00  0.00    -0.507 OA
ATOM     23  H   UNL     1      30.201   9.339  34.774  1.00  0.00     0.293 HD
ENDBRANCH   6  22
BRANCH   8  24
ATOM     24  O   UNL     1      29.873  14.873  35.205  1.00  0.00    -0.508 OA
ATOM     25  H   UNL     1      29.972  15.734  35.732  1.00  0.00     0.293 HD
ENDBRANCH   8  24
TORSDOF 5
ENDMDL
MODEL 7
REMARK VINA RESULT:    -6.065     13.614     17.789
REMARK INTER + INTRA:          -6.632
REMARK INTER:                  -6.424
REMARK INTRA:                  -0.208
REMARK UNBOUND:                 0.496
REMARK SMILES O=c1c(O)c(-c2ccc(O)cc2)oc2cc(O)cc(O)c12
REMARK SMILES IDX 5 1 3 2 2 3 1 4 21 5 19 6 18 7 16 8 15 9 14 10 13 11 6 12
REMARK SMILES IDX 7 13 8 14 9 15 12 16 11 17 10 18 4 20 20 22 17 24
REMARK H PARENT 10 19 4 21 20 23 17 25
REMARK Flexibility Score: inf
ROOT
ATOM      1  C   UNL     1      28.984  10.539  37.437  1.00  0.00     0.180 A 
ATOM      2  C   UNL     1      29.763  11.313  36.556  1.00  0.00     0.208 A 
ATOM      3  C   UNL     1      29.140  12.332  35.817  1.00  0.00     0.238 A 
ATOM      4  O   UNL     1      29.829  13.038  35.032  1.00  0.00    -0.285 OA
ATOM      5  C   UNL     1      27.753  12.547  35.956  1.00  0.00     0.111 A 
ATOM      6  C   UNL     1      27.050  13.549  35.246  1.00  0.00     0.134 A 
ATOM      7  C   UNL     1      25.667  13.694  35.433  1.00  0.00     0.093 A 
ATOM      8  C   UNL     1      24.976  12.856  36.315  1.00  0.00     0.123 A 
ATOM      9  C   UNL     1      25.666  11.866  37.018  1.00  0.00     0.094 A 
ATOM     10  C   UNL     1      27.044  11.707  36.847  1.00  0.00     0.146 A 
ATOM     11  O   UNL     1      27.675  10.761  37.532  1.00  0.00    -0.452 OA
ENDROOT
BRANCH   1  12
ATOM     12  C   UNL     1      29.569   9.460  38.265  1.00  0.00     0.021 A 
ATOM     13  C   UNL     1      29.215   8.124  38.011  1.00  0.00     0.016 A 
ATOM     14  C   UNL     1      29.739   7.092  38.793  1.00  0.00     0.047 A 
ATOM     15  C   UNL     1      30.609   7.380  39.848  1.00  0.00     0.115 A 
ATOM     16  C   UNL     1      30.431   9.746  39.341  1.00  0.00     0.016 A 
ATOM     17  C   UNL     1      30.952   8.711  40.122  1.00  0.00     0.047 A 
BRANCH  15  18
ATOM     18  O   UNL     1      31.125   6.341  40.620  1.00  0.00    -0.508 OA
ATOM     19  H   UNL     1      30.964   5.371  40.376  1.00  0.00     0.293 HD
ENDBRANCH  15  18
ENDBRANCH   1  12
BRANCH   2  20
ATOM     20  O   UNL     1      31.125  11.048  36.399  1.00  0.00    -0.502 OA
ATOM     21  H   UNL     1      31.629  11.281  35.551  1.00  0.00     0.293 HD
ENDBRANCH   2  20
BRANCH   6  22
ATOM     22  O   UNL     1      27.712  14.399  34.359  1.00  0.00    -0.507 OA
ATOM     23  H   UNL     1      27.344  15.314  34.122  1.00  0.00     0.293 HD
ENDBRANCH   6  22
BRANCH   8  24
ATOM     24  O   UNL     1      23.603  12.998  36.500  1.00  0.00    -0.508 OA
ATOM     25  H   UNL     1      23.214  13.260  37.398  1.00  0.00     0.293 HD
ENDBRANCH   8  24
TORSDOF 5
ENDMDL
MODEL 8
REMARK VINA RESULT:    -5.939     15.252     18.093
REMARK INTER + INTRA:          -6.484
REMARK INTER:                  -6.212
REMARK INTRA:                  -0.272
REMARK UNBOUND:                 0.496
REMARK SMILES O=c1c(O)c(-c2ccc(O)cc2)oc2cc(O)cc(O)c12
REMARK SMILES IDX 5 1 3 2 2 3 1 4 21 5 19 6 18 7 16 8 15 9 14 10 13 11 6 12
REMARK SMILES IDX 7 13 8 14 9 15 12 16 11 17 10 18 4 20 20 22 17 24
REMARK H PARENT 10 19 4 21 20 23 17 25
REMARK Flexibility Score: inf
ROOT
ATOM      1  C   UNL     1      29.683  11.823  37.158  1.00  0.00     0.180 A 
ATOM      2  C   UNL     1      30.211  12.196  38.409  1.00  0.00     0.208 A 
ATOM      3  C   UNL     1      30.526  11.192  39.339  1.00  0.00     0.238 A 
ATOM      4  O   UNL     1      31.009  11.513  40.459  1.00  0.00    -0.285 OA
ATOM      5  C   UNL     1      30.290   9.840  39.013  1.00  0.00     0.111 A 
ATOM      6  C   UNL     1      30.576   8.770  39.894  1.00  0.00     0.134 A 
ATOM      7  C   UNL     1      30.304   7.452  39.498  1.00  0.00     0.093 A 
ATOM      8  C   UNL     1      29.752   7.185  38.240  1.00  0.00     0.123 A 
ATOM      9  C   UNL     1      29.469   8.238  37.368  1.00  0.00     0.094 A 
ATOM     10  C   UNL     1      29.735   9.558  37.742  1.00  0.00     0.146 A 
ATOM     11  O   UNL     1      29.460  10.539  36.891  1.00  0.00    -0.452 OA
ENDROOT
BRANCH   1  12
ATOM     12  C   UNL     1      29.343  12.821  36.118  1.00  0.00     0.021 A 
ATOM     13  C   UNL     1      30.278  13.116  35.112  1.00  0.00     0.016 A 
ATOM     14  C   UNL     1      29.987  14.070  34.133  1.00  0.00     0.047 A 
ATOM     15  C   UNL     1      28.767  14.752  34.155  1.00  0.00     0.115 A 
ATOM     16  C   UNL     1      28.124  13.525  36.147  1.00  0.00     0.016 A 
ATOM     17  C   UNL     1      27.837  14.478  35.167  1.00  0.00     0.047 A 
BRANCH  15  18
ATOM     18  O   UNL     1      28.490  15.700  33.172  1.00  0.00    -0.508 OA
ATOM     19  H   UNL     1      29.182  16.380  32.883  1.00  0.00     0.293 HD
ENDBRANCH  15  18
ENDBRANCH   1  12
BRANCH   2  20
ATOM     20  O   UNL     1      30.388  13.545  38.727  1.00  0.00    -0.502 OA
ATOM     21  H   UNL     1      31.202  13.882  39.228  1.00  0.00     0.293 HD
ENDBRANCH   2  20
BRANCH   6  22
ATOM     22  O   UNL     1      31.125   9.005  41.155  1.00  0.00    -0.507 OA
ATOM     23  H   UNL     1      31.231   8.263  41.837  1.00  0.00     0.293 HD
ENDBRANCH   6  22
BRANCH   8  24
ATOM     24  O   UNL     1      29.481   5.877  37.847  1.00  0.00    -0.508 OA
ATOM     25  H   UNL     1      30.009   5.424  37.109  1.00  0.00     0.293 HD
ENDBRANCH   8  24
TORSDOF 5
ENDMDL
MODEL 9
REMARK VINA RESULT:    -5.790     15.380     18.174
REMARK INTER + INTRA:          -6.310
REMARK INTER:                  -6.030
REMARK INTRA:                  -0.280
REMARK UNBOUND:                 0.496
REMARK SMILES O=c1c(O)c(-c2ccc(O)cc2)oc2cc(O)cc(O)c12
REMARK SMILES IDX 5 1 3 2 2 3 1 4 21 5 19 6 18 7 16 8 15 9 14 10 13 11 6 12
REMARK SMILES IDX 7 13 8 14 9 15 12 16 11 17 10 18 4 20 20 22 17 24
REMARK H PARENT 10 19 4 21 20 23 17 25
REMARK Flexibility Score: inf
ROOT
ATOM      1  C   UNL     1      29.847  11.585  37.461  1.00  0.00     0.180 A 
ATOM      2  C   UNL     1      30.026  10.220  37.164  1.00  0.00     0.208 A 
ATOM      3  C   UNL     1      30.384   9.342  38.199  1.00  0.00     0.238 A 
ATOM      4  O   UNL     1      30.537   8.116  37.946  1.00  0.00    -0.285 OA
ATOM      5  C   UNL     1      30.576   9.842  39.503  1.00  0.00     0.111 A 
ATOM      6  C   UNL     1      30.941   9.025  40.600  1.00  0.00     0.134 A 
ATOM      7  C   UNL     1      31.121   9.601  41.867  1.00  0.00     0.093 A 
ATOM      8  C   UNL     1      30.945  10.976  42.056  1.00  0.00     0.123 A 
ATOM      9  C   UNL     1      30.585  11.786  40.977  1.00  0.00     0.094 A 
ATOM     10  C   UNL     1      30.397  11.231  39.707  1.00  0.00     0.146 A 
ATOM     11  O   UNL     1      30.051  12.024  38.701  1.00  0.00    -0.452 OA
ENDROOT
BRANCH   1  12
ATOM     12  C   UNL     1      29.451  12.571  36.429  1.00  0.00     0.021 A 
ATOM     13  C   UNL     1      30.439  13.166  35.627  1.00  0.00     0.016 A 
ATOM     14  C   UNL     1      30.090  14.115  34.662  1.00  0.00     0.047 A 
ATOM     15  C   UNL     1      28.754  14.492  34.497  1.00  0.00     0.115 A 
ATOM     16  C   UNL     1      28.110  12.969  36.272  1.00  0.00     0.016 A 
ATOM     17  C   UNL     1      27.765  13.918  35.306  1.00  0.00     0.047 A 
BRANCH  15  18
ATOM     18  O   UNL     1      28.420  15.439  33.530  1.00  0.00    -0.508 OA
ATOM     19  H   UNL     1      29.027  15.626  32.741  1.00  0.00     0.293 HD
ENDBRANCH  15  18
ENDBRANCH   1  12
BRANCH   2  20
ATOM     20  O   UNL     1      29.880   9.758  35.854  1.00  0.00    -0.502 OA
ATOM     21  H   UNL     1      29.256  10.201  35.189  1.00  0.00     0.293 HD
ENDBRANCH   2  20
BRANCH   6  22
ATOM     22  O   UNL     1      31.125   7.651  40.441  1.00  0.00    -0.507 OA
ATOM     23  H   UNL     1      31.529   7.080  41.175  1.00  0.00     0.293 HD
ENDBRANCH   6  22
BRANCH   8  24
ATOM     24  O   UNL     1      31.125  11.549  43.313  1.00  0.00    -0.508 OA
ATOM     25  H   UNL     1      31.892  12.184  43.501  1.00  0.00     0.293 HD
ENDBRANCH   8  24
TORSDOF 5
ENDMDL
