MODEL 1
REMARK VINA RESULT:    -6.245      0.000      0.000
REMARK INTER + INTRA:          -8.123
REMARK INTER:                  -7.706
REMARK INTRA:                  -0.418
REMARK UNBOUND:                -0.418
REMARK SMILES C=CC(=C)CCC=C(C)C
REMARK SMILES IDX 5 1 6 2 7 3 9 4 8 5 10 6 3 7 4 8 2 9 1 10
REMARK H PARENT
REMARK Flexibility Score: inf
ROOT
ATOM      1  C   UNL     1       5.279   8.096  14.079  1.00  0.00     0.039 C 
ENDROOT
BRANCH   1   2
ATOM      2  C   UNL     1       3.805   8.399  13.790  1.00  0.00     0.032 C 
BRANCH   2   3
ATOM      3  C   UNL     1       3.643   9.798  13.251  1.00  0.00    -0.028 C 
ATOM      4  C   UNL     1       4.017   9.100  10.875  1.00  0.00     0.039 C 
ATOM      5  C   UNL     1       3.759  10.133  11.947  1.00  0.00    -0.080 C 
ATOM      6  C   UNL     1       3.611  11.583  11.562  1.00  0.00     0.039 C 
ENDBRANCH   2   3
ENDBRANCH   1   2
BRANCH   1   7
ATOM      7  C   UNL     1       5.735   6.870  13.318  1.00  0.00    -0.055 C 
ATOM      8  C   UNL     1       4.825   6.124  12.683  1.00  0.00     0.012 C 
BRANCH   7   9
ATOM      9  C   UNL     1       7.157   6.436  13.291  1.00  0.00    -0.005 C 
ATOM     10  C   UNL     1       7.666   5.606  12.382  1.00  0.00     0.009 C 
ENDBRANCH   7   9
ENDBRANCH   1   7
TORSDOF 4
ENDMDL
MODEL 2
REMARK VINA RESULT:    -6.111      1.127      4.895
REMARK INTER + INTRA:          -7.957
REMARK INTER:                  -7.528
REMARK INTRA:                  -0.429
REMARK UNBOUND:                -0.418
REMARK SMILES C=CC(=C)CCC=C(C)C
REMARK SMILES IDX 5 1 6 2 7 3 9 4 8 5 10 6 3 7 4 8 2 9 1 10
REMARK H PARENT
REMARK Flexibility Score: inf
ROOT
ATOM      1  C   UNL     1       3.622  10.333  13.197  1.00  0.00     0.039 C 
ENDROOT
BRANCH   1   2
ATOM      2  C   UNL     1       3.603   8.898  13.735  1.00  0.00     0.032 C 
BRANCH   2   3
ATOM      3  C   UNL     1       4.996   8.443  14.091  1.00  0.00    -0.028 C 
ATOM      4  C   UNL     1       4.917   6.465  12.557  1.00  0.00     0.039 C 
ATOM      5  C   UNL     1       5.592   7.339  13.589  1.00  0.00    -0.080 C 
ATOM      6  C   UNL     1       6.976   6.987  14.069  1.00  0.00     0.039 C 
ENDBRANCH   2   3
ENDBRANCH   1   2
BRANCH   1   7
ATOM      7  C   UNL     1       3.301  10.357  11.718  1.00  0.00    -0.055 C 
ATOM      8  C   UNL     1       4.029   9.607  10.884  1.00  0.00     0.012 C 
BRANCH   7   9
ATOM      9  C   UNL     1       2.234  11.223  11.152  1.00  0.00    -0.005 C 
ATOM     10  C   UNL     1       0.938  10.914  11.163  1.00  0.00     0.009 C 
ENDBRANCH   7   9
ENDBRANCH   1   7
TORSDOF 4
ENDMDL
MODEL 3
REMARK VINA RESULT:    -6.056      1.028      2.005
REMARK INTER + INTRA:          -7.890
REMARK INTER:                  -7.517
REMARK INTRA:                  -0.373
REMARK UNBOUND:                -0.418
REMARK SMILES C=CC(=C)CCC=C(C)C
REMARK SMILES IDX 5 1 6 2 7 3 9 4 8 5 10 6 3 7 4 8 2 9 1 10
REMARK H PARENT
REMARK Flexibility Score: inf
ROOT
ATOM      1  C   UNL     1       5.231   6.333  12.443  1.00  0.00     0.039 C 
ENDROOT
BRANCH   1   2
ATOM      2  C   UNL     1       4.466   7.529  13.021  1.00  0.00     0.032 C 
BRANCH   2   3
ATOM      3  C   UNL     1       4.340   8.627  11.995  1.00  0.00    -0.028 C 
ATOM      4  C   UNL     1       3.185  10.191  13.574  1.00  0.00     0.039 C 
ATOM      5  C   UNL     1       3.745   9.820  12.221  1.00  0.00    -0.080 C 
ATOM      6  C   UNL     1       3.659  10.806  11.085  1.00  0.00     0.039 C 
ENDBRANCH   2   3
ENDBRANCH   1   2
BRANCH   1   7
ATOM      7  C   UNL     1       6.655   6.307  12.958  1.00  0.00    -0.055 C 
ATOM      8  C   UNL     1       7.547   5.510  12.361  1.00  0.00     0.012 C 
BRANCH   7   9
ATOM      9  C   UNL     1       7.085   7.102  14.138  1.00  0.00    -0.005 C 
ATOM     10  C   UNL     1       8.136   7.921  14.142  1.00  0.00     0.009 C 
ENDBRANCH   7   9
ENDBRANCH   1   7
TORSDOF 4
ENDMDL
MODEL 4
REMARK VINA RESULT:    -5.900      1.064      5.141
REMARK INTER + INTRA:          -7.697
REMARK INTER:                  -7.420
REMARK INTRA:                  -0.276
REMARK UNBOUND:                -0.418
REMARK SMILES C=CC(=C)CCC=C(C)C
REMARK SMILES IDX 5 1 6 2 7 3 9 4 8 5 10 6 3 7 4 8 2 9 1 10
REMARK H PARENT
REMARK Flexibility Score: inf
ROOT
ATOM      1  C   UNL     1       4.383   8.640  11.497  1.00  0.00     0.039 C 
ENDROOT
BRANCH   1   2
ATOM      2  C   UNL     1       4.712   7.883  12.789  1.00  0.00     0.032 C 
BRANCH   2   3
ATOM      3  C   UNL     1       5.492   6.628  12.487  1.00  0.00    -0.028 C 
ATOM      4  C   UNL     1       7.333   7.192  14.088  1.00  0.00     0.039 C 
ATOM      5  C   UNL     1       6.683   6.315  13.044  1.00  0.00    -0.080 C 
ATOM      6  C   UNL     1       7.366   5.042  12.613  1.00  0.00     0.039 C 
ENDBRANCH   2   3
ENDBRANCH   1   2
BRANCH   1   7
ATOM      7  C   UNL     1       3.645   9.926  11.802  1.00  0.00    -0.055 C 
ATOM      8  C   UNL     1       3.651  10.909  10.895  1.00  0.00     0.012 C 
BRANCH   7   9
ATOM      9  C   UNL     1       2.952  10.155  13.097  1.00  0.00    -0.005 C 
ATOM     10  C   UNL     1       1.628  10.177  13.241  1.00  0.00     0.009 C 
ENDBRANCH   7   9
ENDBRANCH   1   7
TORSDOF 4
ENDMDL
MODEL 5
REMARK VINA RESULT:    -5.886      0.937      1.692
REMARK INTER + INTRA:          -7.680
REMARK INTER:                  -7.678
REMARK INTRA:                  -0.002
REMARK UNBOUND:                -0.418
REMARK SMILES C=CC(=C)CCC=C(C)C
REMARK SMILES IDX 5 1 6 2 7 3 9 4 8 5 10 6 3 7 4 8 2 9 1 10
REMARK H PARENT
REMARK Flexibility Score: inf
ROOT
ATOM      1  C   UNL     1       5.048   7.879  13.529  1.00  0.00     0.039 C 
ENDROOT
BRANCH   1   2
ATOM      2  C   UNL     1       4.332   7.719  12.183  1.00  0.00     0.032 C 
BRANCH   2   3
ATOM      3  C   UNL     1       4.290   9.032  11.442  1.00  0.00    -0.028 C 
ATOM      4  C   UNL     1       2.890  10.158  13.187  1.00  0.00     0.039 C 
ATOM      5  C   UNL     1       3.626  10.130  11.868  1.00  0.00    -0.080 C 
ATOM      6  C   UNL     1       3.640  11.361  10.999  1.00  0.00     0.039 C 
ENDBRANCH   2   3
ENDBRANCH   1   2
BRANCH   1   7
ATOM      7  C   UNL     1       6.300   7.030  13.575  1.00  0.00    -0.055 C 
ATOM      8  C   UNL     1       7.355   7.467  14.271  1.00  0.00     0.012 C 
BRANCH   7   9
ATOM      9  C   UNL     1       6.417   5.748  12.832  1.00  0.00    -0.005 C 
ATOM     10  C   UNL     1       7.570   5.240  12.398  1.00  0.00     0.009 C 
ENDBRANCH   7   9
ENDBRANCH   1   7
TORSDOF 4
ENDMDL
MODEL 6
REMARK VINA RESULT:    -5.729      1.069      2.079
REMARK INTER + INTRA:          -7.486
REMARK INTER:                  -7.127
REMARK INTRA:                  -0.359
REMARK UNBOUND:                -0.418
REMARK SMILES C=CC(=C)CCC=C(C)C
REMARK SMILES IDX 5 1 6 2 7 3 9 4 8 5 10 6 3 7 4 8 2 9 1 10
REMARK H PARENT
REMARK Flexibility Score: inf
ROOT
ATOM      1  C   UNL     1       5.461   5.947  13.101  1.00  0.00     0.039 C 
ENDROOT
BRANCH   1   2
ATOM      2  C   UNL     1       4.797   6.982  12.186  1.00  0.00     0.032 C 
BRANCH   2   3
ATOM      3  C   UNL     1       4.212   8.112  12.995  1.00  0.00    -0.028 C 
ATOM      4  C   UNL     1       3.990   9.631  11.017  1.00  0.00     0.039 C 
ATOM      5  C   UNL     1       3.867   9.317  12.490  1.00  0.00    -0.080 C 
ATOM      6  C   UNL     1       3.330  10.364  13.431  1.00  0.00     0.039 C 
ENDBRANCH   2   3
ENDBRANCH   1   2
BRANCH   1   7
ATOM      7  C   UNL     1       6.968   6.010  12.979  1.00  0.00    -0.055 C 
ATOM      8  C   UNL     1       7.615   5.003  12.383  1.00  0.00     0.012 C 
BRANCH   7   9
ATOM      9  C   UNL     1       7.763   7.132  13.544  1.00  0.00    -0.005 C 
ATOM     10  C   UNL     1       7.371   7.878  14.577  1.00  0.00     0.009 C 
ENDBRANCH   7   9
ENDBRANCH   1   7
TORSDOF 4
ENDMDL
MODEL 7
REMARK VINA RESULT:    -5.612      0.991      4.790
REMARK INTER + INTRA:          -7.342
REMARK INTER:                  -7.113
REMARK INTRA:                  -0.229
REMARK UNBOUND:                -0.418
REMARK SMILES C=CC(=C)CCC=C(C)C
REMARK SMILES IDX 5 1 6 2 7 3 9 4 8 5 10 6 3 7 4 8 2 9 1 10
REMARK H PARENT
REMARK Flexibility Score: inf
ROOT
ATOM      1  C   UNL     1       4.355   9.459  13.448  1.00  0.00     0.039 C 
ENDROOT
BRANCH   1   2
ATOM      2  C   UNL     1       4.171   7.969  13.756  1.00  0.00     0.032 C 
BRANCH   2   3
ATOM      3  C   UNL     1       5.110   7.133  12.923  1.00  0.00    -0.028 C 
ATOM      4  C   UNL     1       7.075   7.559  14.415  1.00  0.00     0.039 C 
ATOM      5  C   UNL     1       6.423   6.959  13.191  1.00  0.00    -0.080 C 
ATOM      6  C   UNL     1       7.247   6.126  12.243  1.00  0.00     0.039 C 
ENDBRANCH   2   3
ENDBRANCH   1   2
BRANCH   1   7
ATOM      7  C   UNL     1       3.150  10.008  12.713  1.00  0.00    -0.055 C 
ATOM      8  C   UNL     1       1.977  10.078  13.351  1.00  0.00     0.012 C 
BRANCH   7   9
ATOM      9  C   UNL     1       3.214  10.427  11.289  1.00  0.00    -0.005 C 
ATOM     10  C   UNL     1       3.716  11.591  10.875  1.00  0.00     0.009 C 
ENDBRANCH   7   9
ENDBRANCH   1   7
TORSDOF 4
ENDMDL
MODEL 8
REMARK VINA RESULT:    -4.850      1.078      2.236
REMARK INTER + INTRA:          -6.402
REMARK INTER:                  -6.779
REMARK INTRA:                   0.377
REMARK UNBOUND:                -0.418
REMARK SMILES C=CC(=C)CCC=C(C)C
REMARK SMILES IDX 5 1 6 2 7 3 9 4 8 5 10 6 3 7 4 8 2 9 1 10
REMARK H PARENT
REMARK Flexibility Score: inf
ROOT
ATOM      1  C   UNL     1       6.391   7.265  12.629  1.00  0.00     0.039 C 
ENDROOT
BRANCH   1   2
ATOM      2  C   UNL     1       5.010   7.675  12.105  1.00  0.00     0.032 C 
BRANCH   2   3
ATOM      3  C   UNL     1       4.305   8.563  13.099  1.00  0.00    -0.028 C 
ATOM      4  C   UNL     1       3.601  10.224  11.363  1.00  0.00     0.039 C 
ATOM      5  C   UNL     1       3.688   9.724  12.786  1.00  0.00    -0.080 C 
ATOM      6  C   UNL     1       3.059  10.526  13.895  1.00  0.00     0.039 C 
ENDBRANCH   2   3
ENDBRANCH   1   2
BRANCH   1   7
ATOM      7  C   UNL     1       6.518   5.757  12.686  1.00  0.00    -0.055 C 
ATOM      8  C   UNL     1       7.697   5.194  12.404  1.00  0.00     0.012 C 
BRANCH   7   9
ATOM      9  C   UNL     1       5.362   4.876  12.997  1.00  0.00    -0.005 C 
ATOM     10  C   UNL     1       4.189   4.934  12.368  1.00  0.00     0.009 C 
ENDBRANCH   7   9
ENDBRANCH   1   7
TORSDOF 4
ENDMDL
