MODEL 1
REMARK VINA RESULT:    -4.177      0.000      0.000
REMARK INTER + INTRA:         -10.818
REMARK INTER:                  -8.085
REMARK INTRA:                  -2.733
REMARK UNBOUND:                -2.733
REMARK SMILES CCCCCCCCCCCCCCCCCC(=O)[O-]
REMARK SMILES IDX 10 1 11 2 12 3 13 4 14 5 15 6 16 7 17 8 18 9 19 10 20 11
REMARK SMILES IDX 9 12 8 13 7 14 6 15 5 16 4 17 3 18 2 19 1 20
REMARK H PARENT
REMARK Flexibility Score: inf
ROOT
ATOM      1  C   UNL     1       5.579  37.588  -1.990  1.00  0.00     0.000 C 
ENDROOT
BRANCH   1   2
ATOM      2  C   UNL     1       4.519  36.766  -1.240  1.00  0.00     0.000 C 
BRANCH   2   3
ATOM      3  C   UNL     1       4.965  35.314  -0.991  1.00  0.00     0.000 C 
BRANCH   3   4
ATOM      4  C   UNL     1       4.982  34.480  -2.282  1.00  0.00     0.000 C 
BRANCH   4   5
ATOM      5  C   UNL     1       6.328  33.772  -2.511  1.00  0.00     0.000 C 
BRANCH   5   6
ATOM      6  C   UNL     1       7.269  33.906  -1.294  1.00  0.00     0.000 C 
BRANCH   6   7
ATOM      7  C   UNL     1       8.761  33.830  -1.660  1.00  0.00     0.006 C 
BRANCH   7   8
ATOM      8  C   UNL     1       9.630  33.287  -0.520  1.00  0.00     0.053 C 
BRANCH   8   9
ATOM      9  C   UNL     1       9.980  31.853  -0.767  1.00  0.00     0.041 C 
ATOM     10  O   UNL     1       9.818  30.997   0.142  1.00  0.00    -0.550 OA
ATOM     11  O   UNL     1      10.437  31.455  -2.015  1.00  0.00    -0.550 OA
ENDBRANCH   8   9
ENDBRANCH   7   8
ENDBRANCH   6   7
ENDBRANCH   5   6
ENDBRANCH   4   5
ENDBRANCH   3   4
ENDBRANCH   2   3
ENDBRANCH   1   2
BRANCH   1  12
ATOM     12  C   UNL     1       6.950  37.563  -1.299  1.00  0.00     0.000 C 
BRANCH  12  13
ATOM     13  C   UNL     1       6.946  38.435  -0.037  1.00  0.00    -0.000 C 
BRANCH  13  14
ATOM     14  C   UNL     1       7.244  37.594   1.212  1.00  0.00    -0.000 C 
BRANCH  14  15
ATOM     15  C   UNL     1       8.280  36.487   0.950  1.00  0.00    -0.000 C 
BRANCH  15  16
ATOM     16  C   UNL     1       9.642  36.790   1.595  1.00  0.00    -0.000 C 
BRANCH  16  17
ATOM     17  C   UNL     1      10.793  36.825   0.572  1.00  0.00    -0.000 C 
BRANCH  17  18
ATOM     18  C   UNL     1      10.464  37.522  -0.764  1.00  0.00    -0.000 C 
BRANCH  18  19
ATOM     19  C   UNL     1      11.124  38.898  -0.960  1.00  0.00    -0.003 C 
ATOM     20  C   UNL     1      10.271  40.048  -0.429  1.00  0.00     0.004 C 
ENDBRANCH  18  19
ENDBRANCH  17  18
ENDBRANCH  16  17
ENDBRANCH  15  16
ENDBRANCH  14  15
ENDBRANCH  13  14
ENDBRANCH  12  13
ENDBRANCH   1  12
TORSDOF 16
ENDMDL
MODEL 2
REMARK VINA RESULT:    -4.051      1.421      4.835
REMARK INTER + INTRA:         -10.572
REMARK INTER:                  -8.000
REMARK INTRA:                  -2.572
REMARK UNBOUND:                -2.733
REMARK SMILES CCCCCCCCCCCCCCCCCC(=O)[O-]
REMARK SMILES IDX 10 1 11 2 12 3 13 4 14 5 15 6 16 7 17 8 18 9 19 10 20 11
REMARK SMILES IDX 9 12 8 13 7 14 6 15 5 16 4 17 3 18 2 19 1 20
REMARK H PARENT
REMARK Flexibility Score: inf
ROOT
ATOM      1  C   UNL     1       7.721  36.456   0.446  1.00  0.00     0.000 C 
ENDROOT
BRANCH   1   2
ATOM      2  C   UNL     1       8.275  37.483   1.446  1.00  0.00     0.000 C 
BRANCH   2   3
ATOM      3  C   UNL     1       9.805  37.399   1.593  1.00  0.00     0.000 C 
BRANCH   3   4
ATOM      4  C   UNL     1      10.364  36.051   1.112  1.00  0.00     0.000 C 
BRANCH   4   5
ATOM      5  C   UNL     1      11.230  36.187  -0.153  1.00  0.00     0.000 C 
BRANCH   5   6
ATOM      6  C   UNL     1      11.088  34.968  -1.088  1.00  0.00     0.000 C 
BRANCH   6   7
ATOM      7  C   UNL     1      10.181  33.862  -0.523  1.00  0.00     0.006 C 
BRANCH   7   8
ATOM      8  C   UNL     1       9.894  32.747  -1.536  1.00  0.00     0.053 C 
BRANCH   8   9
ATOM      9  C   UNL     1      10.506  31.459  -1.083  1.00  0.00     0.041 C 
ATOM     10  O   UNL     1      11.543  31.019  -1.644  1.00  0.00    -0.550 OA
ATOM     11  O   UNL     1       9.959  30.770  -0.010  1.00  0.00    -0.550 OA
ENDBRANCH   8   9
ENDBRANCH   7   8
ENDBRANCH   6   7
ENDBRANCH   5   6
ENDBRANCH   4   5
ENDBRANCH   3   4
ENDBRANCH   2   3
ENDBRANCH   1   2
BRANCH   1  12
ATOM     12  C   UNL     1       7.744  36.965  -1.003  1.00  0.00     0.000 C 
BRANCH  12  13
ATOM     13  C   UNL     1       7.557  35.809  -1.995  1.00  0.00    -0.000 C 
BRANCH  13  14
ATOM     14  C   UNL     1       6.722  34.681  -1.371  1.00  0.00    -0.000 C 
BRANCH  14  15
ATOM     15  C   UNL     1       5.778  34.011  -2.384  1.00  0.00    -0.000 C 
BRANCH  15  16
ATOM     16  C   UNL     1       4.303  34.372  -2.143  1.00  0.00    -0.000 C 
BRANCH  16  17
ATOM     17  C   UNL     1       4.096  35.221  -0.875  1.00  0.00    -0.000 C 
BRANCH  17  18
ATOM     18  C   UNL     1       3.297  36.524  -1.080  1.00  0.00    -0.000 C 
BRANCH  18  19
ATOM     19  C   UNL     1       4.132  37.815  -1.028  1.00  0.00    -0.003 C 
ATOM     20  C   UNL     1       4.744  38.184  -2.379  1.00  0.00     0.004 C 
ENDBRANCH  18  19
ENDBRANCH  17  18
ENDBRANCH  16  17
ENDBRANCH  15  16
ENDBRANCH  14  15
ENDBRANCH  13  14
ENDBRANCH  12  13
ENDBRANCH   1  12
TORSDOF 16
ENDMDL
MODEL 3
REMARK VINA RESULT:    -4.033      1.248      1.982
REMARK INTER + INTRA:         -10.539
REMARK INTER:                  -7.842
REMARK INTRA:                  -2.697
REMARK UNBOUND:                -2.733
REMARK SMILES CCCCCCCCCCCCCCCCCC(=O)[O-]
REMARK SMILES IDX 10 1 11 2 12 3 13 4 14 5 15 6 16 7 17 8 18 9 19 10 20 11
REMARK SMILES IDX 9 12 8 13 7 14 6 15 5 16 4 17 3 18 2 19 1 20
REMARK H PARENT
REMARK Flexibility Score: inf
ROOT
ATOM      1  C   UNL     1       5.080  38.450  -0.302  1.00  0.00     0.000 C 
ENDROOT
BRANCH   1   2
ATOM      2  C   UNL     1       5.137  38.473  -1.838  1.00  0.00     0.000 C 
BRANCH   2   3
ATOM      3  C   UNL     1       5.028  37.067  -2.455  1.00  0.00     0.000 C 
BRANCH   3   4
ATOM      4  C   UNL     1       4.786  35.982  -1.394  1.00  0.00     0.000 C 
BRANCH   4   5
ATOM      5  C   UNL     1       5.305  34.601  -1.831  1.00  0.00     0.000 C 
BRANCH   5   6
ATOM      6  C   UNL     1       6.653  34.696  -2.579  1.00  0.00     0.000 C 
BRANCH   6   7
ATOM      7  C   UNL     1       7.595  33.513  -2.301  1.00  0.00     0.006 C 
BRANCH   7   8
ATOM      8  C   UNL     1       8.344  33.644  -0.970  1.00  0.00     0.053 C 
BRANCH   8   9
ATOM      9  C   UNL     1       9.654  32.925  -1.035  1.00  0.00     0.041 C 
ATOM     10  O   UNL     1       9.686  31.668  -1.086  1.00  0.00    -0.550 OA
ATOM     11  O   UNL     1      10.840  33.647  -1.087  1.00  0.00    -0.550 OA
ENDBRANCH   8   9
ENDBRANCH   7   8
ENDBRANCH   6   7
ENDBRANCH   5   6
ENDBRANCH   4   5
ENDBRANCH   3   4
ENDBRANCH   2   3
ENDBRANCH   1   2
BRANCH   1  12
ATOM     12  C   UNL     1       6.424  38.812   0.348  1.00  0.00     0.000 C 
BRANCH  12  13
ATOM     13  C   UNL     1       6.907  37.688   1.273  1.00  0.00    -0.000 C 
BRANCH  13  14
ATOM     14  C   UNL     1       7.966  36.821   0.576  1.00  0.00    -0.000 C 
BRANCH  14  15
ATOM     15  C   UNL     1       8.526  37.477  -0.698  1.00  0.00    -0.000 C 
BRANCH  15  16
ATOM     16  C   UNL     1      10.057  37.373  -0.790  1.00  0.00    -0.000 C 
BRANCH  16  17
ATOM     17  C   UNL     1      10.755  38.741  -0.684  1.00  0.00    -0.000 C 
BRANCH  17  18
ATOM     18  C   UNL     1       9.834  39.923  -0.320  1.00  0.00    -0.000 C 
BRANCH  18  19
ATOM     19  C   UNL     1      10.064  40.522   1.079  1.00  0.00    -0.003 C 
ATOM     20  C   UNL     1      10.157  39.460   2.173  1.00  0.00     0.004 C 
ENDBRANCH  18  19
ENDBRANCH  17  18
ENDBRANCH  16  17
ENDBRANCH  15  16
ENDBRANCH  14  15
ENDBRANCH  13  14
ENDBRANCH  12  13
ENDBRANCH   1  12
TORSDOF 16
ENDMDL
MODEL 4
REMARK VINA RESULT:    -4.018      2.351      4.151
REMARK INTER + INTRA:         -10.509
REMARK INTER:                  -7.486
REMARK INTRA:                  -3.023
REMARK UNBOUND:                -2.733
REMARK SMILES CCCCCCCCCCCCCCCCCC(=O)[O-]
REMARK SMILES IDX 10 1 11 2 12 3 13 4 14 5 15 6 16 7 17 8 18 9 19 10 20 11
REMARK SMILES IDX 9 12 8 13 7 14 6 15 5 16 4 17 3 18 2 19 1 20
REMARK H PARENT
REMARK Flexibility Score: inf
ROOT
ATOM      1  C   UNL     1       4.065  35.427  -1.870  1.00  0.00     0.000 C 
ENDROOT
BRANCH   1   2
ATOM      2  C   UNL     1       4.913  34.163  -2.083  1.00  0.00     0.000 C 
BRANCH   2   3
ATOM      3  C   UNL     1       6.311  34.477  -2.646  1.00  0.00     0.000 C 
BRANCH   3   4
ATOM      4  C   UNL     1       7.307  33.331  -2.405  1.00  0.00     0.000 C 
BRANCH   4   5
ATOM      5  C   UNL     1       8.200  33.573  -1.176  1.00  0.00     0.000 C 
BRANCH   5   6
ATOM      6  C   UNL     1       9.107  34.810  -1.351  1.00  0.00     0.000 C 
BRANCH   6   7
ATOM      7  C   UNL     1      10.525  34.617  -0.787  1.00  0.00     0.006 C 
BRANCH   7   8
ATOM      8  C   UNL     1      11.287  35.937  -0.621  1.00  0.00     0.053 C 
BRANCH   8   9
ATOM      9  C   UNL     1      10.891  36.613   0.653  1.00  0.00     0.041 C 
ATOM     10  O   UNL     1      10.970  37.865   0.757  1.00  0.00    -0.550 OA
ATOM     11  O   UNL     1      10.388  35.864   1.709  1.00  0.00    -0.550 OA
ENDBRANCH   8   9
ENDBRANCH   7   8
ENDBRANCH   6   7
ENDBRANCH   5   6
ENDBRANCH   4   5
ENDBRANCH   3   4
ENDBRANCH   2   3
ENDBRANCH   1   2
BRANCH   1  12
ATOM     12  C   UNL     1       4.633  36.654  -2.599  1.00  0.00     0.000 C 
BRANCH  12  13
ATOM     13  C   UNL     1       4.509  37.914  -1.734  1.00  0.00    -0.000 C 
BRANCH  13  14
ATOM     14  C   UNL     1       5.847  38.666  -1.665  1.00  0.00    -0.000 C 
BRANCH  14  15
ATOM     15  C   UNL     1       6.996  37.786  -1.144  1.00  0.00    -0.000 C 
BRANCH  15  16
ATOM     16  C   UNL     1       7.531  38.261   0.217  1.00  0.00    -0.000 C 
BRANCH  16  17
ATOM     17  C   UNL     1       7.082  37.360   1.382  1.00  0.00    -0.000 C 
BRANCH  17  18
ATOM     18  C   UNL     1       6.536  35.978   0.972  1.00  0.00    -0.000 C 
BRANCH  18  19
ATOM     19  C   UNL     1       5.259  35.536   1.709  1.00  0.00    -0.003 C 
ATOM     20  C   UNL     1       4.186  36.623   1.743  1.00  0.00     0.004 C 
ENDBRANCH  18  19
ENDBRANCH  17  18
ENDBRANCH  16  17
ENDBRANCH  15  16
ENDBRANCH  14  15
ENDBRANCH  13  14
ENDBRANCH  12  13
ENDBRANCH   1  12
TORSDOF 16
ENDMDL
MODEL 5
REMARK VINA RESULT:    -4.015      3.185      5.562
REMARK INTER + INTRA:         -10.502
REMARK INTER:                  -7.509
REMARK INTRA:                  -2.994
REMARK UNBOUND:                -2.733
REMARK SMILES CCCCCCCCCCCCCCCCCC(=O)[O-]
REMARK SMILES IDX 10 1 11 2 12 3 13 4 14 5 15 6 16 7 17 8 18 9 19 10 20 11
REMARK SMILES IDX 9 12 8 13 7 14 6 15 5 16 4 17 3 18 2 19 1 20
REMARK H PARENT
REMARK Flexibility Score: inf
ROOT
ATOM      1  C   UNL     1       6.722  34.224  -2.131  1.00  0.00     0.000 C 
ENDROOT
BRANCH   1   2
ATOM      2  C   UNL     1       7.961  33.344  -1.897  1.00  0.00     0.000 C 
BRANCH   2   3
ATOM      3  C   UNL     1       8.636  33.622  -0.542  1.00  0.00     0.000 C 
BRANCH   3   4
ATOM      4  C   UNL     1      10.060  34.178  -0.705  1.00  0.00     0.000 C 
BRANCH   4   5
ATOM      5  C   UNL     1      10.263  35.510   0.037  1.00  0.00     0.000 C 
BRANCH   5   6
ATOM      6  C   UNL     1      11.422  36.337  -0.561  1.00  0.00     0.000 C 
BRANCH   6   7
ATOM      7  C   UNL     1      11.518  37.763   0.008  1.00  0.00     0.006 C 
BRANCH   7   8
ATOM      8  C   UNL     1      10.764  37.930   1.333  1.00  0.00     0.053 C 
BRANCH   8   9
ATOM      9  C   UNL     1      10.220  39.318   1.454  1.00  0.00     0.041 C 
ATOM     10  O   UNL     1      10.096  40.041   0.431  1.00  0.00    -0.550 OA
ATOM     11  O   UNL     1       9.805  39.796   2.690  1.00  0.00    -0.550 OA
ENDBRANCH   8   9
ENDBRANCH   7   8
ENDBRANCH   6   7
ENDBRANCH   5   6
ENDBRANCH   4   5
ENDBRANCH   3   4
ENDBRANCH   2   3
ENDBRANCH   1   2
BRANCH   1  12
ATOM     12  C   UNL     1       7.083  35.666  -2.517  1.00  0.00     0.000 C 
BRANCH  12  13
ATOM     13  C   UNL     1       5.833  36.555  -2.553  1.00  0.00    -0.000 C 
BRANCH  13  14
ATOM     14  C   UNL     1       6.060  37.854  -1.767  1.00  0.00    -0.000 C 
BRANCH  14  15
ATOM     15  C   UNL     1       7.290  37.782  -0.845  1.00  0.00    -0.000 C 
BRANCH  15  16
ATOM     16  C   UNL     1       6.925  37.953   0.639  1.00  0.00    -0.000 C 
BRANCH  16  17
ATOM     17  C   UNL     1       7.161  36.673   1.463  1.00  0.00    -0.000 C 
BRANCH  17  18
ATOM     18  C   UNL     1       6.129  35.549   1.240  1.00  0.00    -0.000 C 
BRANCH  18  19
ATOM     19  C   UNL     1       4.674  35.926   1.568  1.00  0.00    -0.003 C 
ATOM     20  C   UNL     1       3.731  35.745   0.380  1.00  0.00     0.004 C 
ENDBRANCH  18  19
ENDBRANCH  17  18
ENDBRANCH  16  17
ENDBRANCH  15  16
ENDBRANCH  14  15
ENDBRANCH  13  14
ENDBRANCH  12  13
ENDBRANCH   1  12
TORSDOF 16
ENDMDL
MODEL 6
REMARK VINA RESULT:    -4.015      2.638      4.364
REMARK INTER + INTRA:         -10.502
REMARK INTER:                  -7.759
REMARK INTRA:                  -2.744
REMARK UNBOUND:                -2.733
REMARK SMILES CCCCCCCCCCCCCCCCCC(=O)[O-]
REMARK SMILES IDX 10 1 11 2 12 3 13 4 14 5 15 6 16 7 17 8 18 9 19 10 20 11
REMARK SMILES IDX 9 12 8 13 7 14 6 15 5 16 4 17 3 18 2 19 1 20
REMARK H PARENT
REMARK Flexibility Score: inf
ROOT
ATOM      1  C   UNL     1       7.800  33.953  -1.910  1.00  0.00     0.000 C 
ENDROOT
BRANCH   1   2
ATOM      2  C   UNL     1       6.538  34.057  -2.781  1.00  0.00     0.000 C 
BRANCH   2   3
ATOM      3  C   UNL     1       5.267  34.315  -1.952  1.00  0.00     0.000 C 
BRANCH   3   4
ATOM      4  C   UNL     1       4.566  35.623  -2.352  1.00  0.00     0.000 C 
BRANCH   4   5
ATOM      5  C   UNL     1       5.561  36.732  -2.737  1.00  0.00     0.000 C 
BRANCH   5   6
ATOM      6  C   UNL     1       5.775  37.744  -1.591  1.00  0.00     0.000 C 
BRANCH   6   7
ATOM      7  C   UNL     1       4.704  37.661  -0.490  1.00  0.00     0.006 C 
BRANCH   7   8
ATOM      8  C   UNL     1       5.288  37.331   0.889  1.00  0.00     0.053 C 
BRANCH   8   9
ATOM      9  C   UNL     1       4.722  36.045   1.402  1.00  0.00     0.041 C 
ATOM     10  O   UNL     1       3.549  35.703   1.098  1.00  0.00    -0.550 OA
ATOM     11  O   UNL     1       5.506  35.200   2.177  1.00  0.00    -0.550 OA
ENDBRANCH   8   9
ENDBRANCH   7   8
ENDBRANCH   6   7
ENDBRANCH   5   6
ENDBRANCH   4   5
ENDBRANCH   3   4
ENDBRANCH   2   3
ENDBRANCH   1   2
BRANCH   1  12
ATOM     12  C   UNL     1       7.568  34.433  -0.469  1.00  0.00     0.000 C 
BRANCH  12  13
ATOM     13  C   UNL     1       8.480  35.619  -0.131  1.00  0.00    -0.000 C 
BRANCH  13  14
ATOM     14  C   UNL     1       9.385  35.972  -1.321  1.00  0.00    -0.000 C 
BRANCH  14  15
ATOM     15  C   UNL     1      10.880  35.816  -0.995  1.00  0.00    -0.000 C 
BRANCH  15  16
ATOM     16  C   UNL     1      11.416  36.961  -0.120  1.00  0.00    -0.000 C 
BRANCH  16  17
ATOM     17  C   UNL     1      10.999  38.351  -0.636  1.00  0.00    -0.000 C 
BRANCH  17  18
ATOM     18  C   UNL     1      10.081  39.154   0.307  1.00  0.00    -0.000 C 
BRANCH  18  19
ATOM     19  C   UNL     1      10.228  38.818   1.802  1.00  0.00    -0.003 C 
ATOM     20  C   UNL     1       8.940  38.282   2.422  1.00  0.00     0.004 C 
ENDBRANCH  18  19
ENDBRANCH  17  18
ENDBRANCH  16  17
ENDBRANCH  15  16
ENDBRANCH  14  15
ENDBRANCH  13  14
ENDBRANCH  12  13
ENDBRANCH   1  12
TORSDOF 16
ENDMDL
MODEL 7
REMARK VINA RESULT:    -4.011      1.408      2.558
REMARK INTER + INTRA:         -10.496
REMARK INTER:                  -7.353
REMARK INTRA:                  -3.143
REMARK UNBOUND:                -2.733
REMARK SMILES CCCCCCCCCCCCCCCCCC(=O)[O-]
REMARK SMILES IDX 10 1 11 2 12 3 13 4 14 5 15 6 16 7 17 8 18 9 19 10 20 11
REMARK SMILES IDX 9 12 8 13 7 14 6 15 5 16 4 17 3 18 2 19 1 20
REMARK H PARENT
REMARK Flexibility Score: inf
ROOT
ATOM      1  C   UNL     1       3.335  37.290  -1.094  1.00  0.00     0.000 C 
ENDROOT
BRANCH   1   2
ATOM      2  C   UNL     1       4.273  38.490  -1.293  1.00  0.00     0.000 C 
BRANCH   2   3
ATOM      3  C   UNL     1       5.535  38.129  -2.097  1.00  0.00     0.000 C 
BRANCH   3   4
ATOM      4  C   UNL     1       5.405  36.770  -2.804  1.00  0.00     0.000 C 
BRANCH   4   5
ATOM      5  C   UNL     1       6.638  35.874  -2.593  1.00  0.00     0.000 C 
BRANCH   5   6
ATOM      6  C   UNL     1       6.256  34.384  -2.458  1.00  0.00     0.000 C 
BRANCH   6   7
ATOM      7  C   UNL     1       7.470  33.448  -2.330  1.00  0.00     0.006 C 
BRANCH   7   8
ATOM      8  C   UNL     1       8.392  33.821  -1.163  1.00  0.00     0.053 C 
BRANCH   8   9
ATOM      9  C   UNL     1       9.666  33.040  -1.233  1.00  0.00     0.041 C 
ATOM     10  O   UNL     1       9.635  31.785  -1.323  1.00  0.00    -0.550 OA
ATOM     11  O   UNL     1      10.887  33.701  -1.249  1.00  0.00    -0.550 OA
ENDBRANCH   8   9
ENDBRANCH   7   8
ENDBRANCH   6   7
ENDBRANCH   5   6
ENDBRANCH   4   5
ENDBRANCH   3   4
ENDBRANCH   2   3
ENDBRANCH   1   2
BRANCH   1  12
ATOM     12  C   UNL     1       3.342  36.762   0.349  1.00  0.00     0.000 C 
BRANCH  12  13
ATOM     13  C   UNL     1       4.075  35.418   0.439  1.00  0.00    -0.000 C 
BRANCH  13  14
ATOM     14  C   UNL     1       5.513  35.610   0.943  1.00  0.00    -0.000 C 
BRANCH  14  15
ATOM     15  C   UNL     1       5.660  36.829   1.869  1.00  0.00    -0.000 C 
BRANCH  15  16
ATOM     16  C   UNL     1       6.794  37.770   1.430  1.00  0.00    -0.000 C 
BRANCH  16  17
ATOM     17  C   UNL     1       7.934  37.033   0.705  1.00  0.00    -0.000 C 
BRANCH  17  18
ATOM     18  C   UNL     1       8.757  37.895  -0.274  1.00  0.00    -0.000 C 
BRANCH  18  19
ATOM     19  C   UNL     1       9.969  37.188  -0.905  1.00  0.00    -0.003 C 
ATOM     20  C   UNL     1      11.066  36.867   0.108  1.00  0.00     0.004 C 
ENDBRANCH  18  19
ENDBRANCH  17  18
ENDBRANCH  16  17
ENDBRANCH  15  16
ENDBRANCH  14  15
ENDBRANCH  13  14
ENDBRANCH  12  13
ENDBRANCH   1  12
TORSDOF 16
ENDMDL
MODEL 8
REMARK VINA RESULT:    -4.010      2.660      4.494
REMARK INTER + INTRA:         -10.494
REMARK INTER:                  -7.652
REMARK INTRA:                  -2.842
REMARK UNBOUND:                -2.733
REMARK SMILES CCCCCCCCCCCCCCCCCC(=O)[O-]
REMARK SMILES IDX 10 1 11 2 12 3 13 4 14 5 15 6 16 7 17 8 18 9 19 10 20 11
REMARK SMILES IDX 9 12 8 13 7 14 6 15 5 16 4 17 3 18 2 19 1 20
REMARK H PARENT
REMARK Flexibility Score: inf
ROOT
ATOM      1  C   UNL     1       5.174  34.761  -1.378  1.00  0.00     0.000 C 
ENDROOT
BRANCH   1   2
ATOM      2  C   UNL     1       3.803  35.453  -1.333  1.00  0.00     0.000 C 
BRANCH   2   3
ATOM      3  C   UNL     1       3.888  36.958  -1.646  1.00  0.00     0.000 C 
BRANCH   3   4
ATOM      4  C   UNL     1       5.177  37.324  -2.399  1.00  0.00     0.000 C 
BRANCH   4   5
ATOM      5  C   UNL     1       6.008  38.390  -1.665  1.00  0.00     0.000 C 
BRANCH   5   6
ATOM      6  C   UNL     1       7.277  37.794  -1.018  1.00  0.00     0.000 C 
BRANCH   6   7
ATOM      7  C   UNL     1       7.300  37.915   0.515  1.00  0.00     0.006 C 
BRANCH   7   8
ATOM      8  C   UNL     1       6.943  36.603   1.225  1.00  0.00     0.053 C 
BRANCH   8   9
ATOM      9  C   UNL     1       5.586  36.697   1.847  1.00  0.00     0.041 C 
ATOM     10  O   UNL     1       5.084  37.822   2.104  1.00  0.00    -0.550 OA
ATOM     11  O   UNL     1       4.856  35.543   2.098  1.00  0.00    -0.550 OA
ENDBRANCH   8   9
ENDBRANCH   7   8
ENDBRANCH   6   7
ENDBRANCH   5   6
ENDBRANCH   4   5
ENDBRANCH   3   4
ENDBRANCH   2   3
ENDBRANCH   1   2
BRANCH   1  12
ATOM     12  C   UNL     1       5.280  33.724  -2.506  1.00  0.00     0.000 C 
BRANCH  12  13
ATOM     13  C   UNL     1       6.745  33.462  -2.876  1.00  0.00    -0.000 C 
BRANCH  13  14
ATOM     14  C   UNL     1       7.693  34.215  -1.931  1.00  0.00    -0.000 C 
BRANCH  14  15
ATOM     15  C   UNL     1       8.515  33.270  -1.038  1.00  0.00    -0.000 C 
BRANCH  15  16
ATOM     16  C   UNL     1       9.405  34.028  -0.040  1.00  0.00    -0.000 C 
BRANCH  16  17
ATOM     17  C   UNL     1      10.029  35.300  -0.643  1.00  0.00    -0.000 C 
BRANCH  17  18
ATOM     18  C   UNL     1      10.657  36.272   0.377  1.00  0.00    -0.000 C 
BRANCH  18  19
ATOM     19  C   UNL     1      11.627  37.306  -0.221  1.00  0.00    -0.003 C 
ATOM     20  C   UNL     1      10.920  38.561  -0.730  1.00  0.00     0.004 C 
ENDBRANCH  18  19
ENDBRANCH  17  18
ENDBRANCH  16  17
ENDBRANCH  15  16
ENDBRANCH  14  15
ENDBRANCH  13  14
ENDBRANCH  12  13
ENDBRANCH   1  12
TORSDOF 16
ENDMDL
MODEL 9
REMARK VINA RESULT:    -3.988      3.083      5.307
REMARK INTER + INTRA:         -10.451
REMARK INTER:                  -7.833
REMARK INTRA:                  -2.618
REMARK UNBOUND:                -2.733
REMARK SMILES CCCCCCCCCCCCCCCCCC(=O)[O-]
REMARK SMILES IDX 10 1 11 2 12 3 13 4 14 5 15 6 16 7 17 8 18 9 19 10 20 11
REMARK SMILES IDX 9 12 8 13 7 14 6 15 5 16 4 17 3 18 2 19 1 20
REMARK H PARENT
REMARK Flexibility Score: inf
ROOT
ATOM      1  C   UNL     1       6.025  34.540  -2.180  1.00  0.00     0.000 C 
ENDROOT
BRANCH   1   2
ATOM      2  C   UNL     1       6.906  33.487  -2.869  1.00  0.00     0.000 C 
BRANCH   2   3
ATOM      3  C   UNL     1       8.162  33.137  -2.049  1.00  0.00     0.000 C 
BRANCH   3   4
ATOM      4  C   UNL     1       8.201  33.875  -0.702  1.00  0.00     0.000 C 
BRANCH   4   5
ATOM      5  C   UNL     1       9.323  34.926  -0.636  1.00  0.00     0.000 C 
BRANCH   5   6
ATOM      6  C   UNL     1       9.736  35.246   0.817  1.00  0.00     0.000 C 
BRANCH   6   7
ATOM      7  C   UNL     1      10.550  36.543   0.953  1.00  0.00     0.006 C 
BRANCH   7   8
ATOM      8  C   UNL     1       9.936  37.532   1.951  1.00  0.00     0.053 C 
BRANCH   8   9
ATOM      9  C   UNL     1      10.261  38.939   1.560  1.00  0.00     0.041 C 
ATOM     10  O   UNL     1      10.360  39.253   0.345  1.00  0.00    -0.550 OA
ATOM     11  O   UNL     1      10.407  39.915   2.537  1.00  0.00    -0.550 OA
ENDBRANCH   8   9
ENDBRANCH   7   8
ENDBRANCH   6   7
ENDBRANCH   5   6
ENDBRANCH   4   5
ENDBRANCH   3   4
ENDBRANCH   2   3
ENDBRANCH   1   2
BRANCH   1  12
ATOM     12  C   UNL     1       4.542  34.140  -2.140  1.00  0.00     0.000 C 
BRANCH  12  13
ATOM     13  C   UNL     1       3.639  35.347  -2.422  1.00  0.00    -0.000 C 
BRANCH  13  14
ATOM     14  C   UNL     1       3.529  36.250  -1.185  1.00  0.00    -0.000 C 
BRANCH  14  15
ATOM     15  C   UNL     1       3.145  35.473   0.085  1.00  0.00    -0.000 C 
BRANCH  15  16
ATOM     16  C   UNL     1       3.962  35.909   1.313  1.00  0.00    -0.000 C 
BRANCH  16  17
ATOM     17  C   UNL     1       5.473  35.668   1.140  1.00  0.00    -0.000 C 
BRANCH  17  18
ATOM     18  C   UNL     1       6.379  36.840   1.570  1.00  0.00    -0.000 C 
BRANCH  18  19
ATOM     19  C   UNL     1       6.378  38.049   0.617  1.00  0.00    -0.003 C 
ATOM     20  C   UNL     1       7.037  37.747  -0.727  1.00  0.00     0.004 C 
ENDBRANCH  18  19
ENDBRANCH  17  18
ENDBRANCH  16  17
ENDBRANCH  15  16
ENDBRANCH  14  15
ENDBRANCH  13  14
ENDBRANCH  12  13
ENDBRANCH   1  12
TORSDOF 16
ENDMDL
