MODEL 1
REMARK VINA RESULT:    -7.739      0.000      0.000
REMARK INTER + INTRA:         -11.011
REMARK INTER:                 -10.228
REMARK INTRA:                  -0.783
REMARK UNBOUND:                -0.783
REMARK SMILES CC[C@H](C=C[C@@H](C)[C@H]1CC[C@H]2[C@@H]3CC=C4C[C@H](O)CC[C@@]4(C)[C@H]3CC[C@]12C)C(C)C
REMARK SMILES IDX 6 1 7 2 5 3 4 4 3 5 2 6 1 7 28 8 29 9 30 10 8 11 9 12 26 13
REMARK SMILES IDX 10 14 11 15 25 16 27 17 12 18 24 19 23 20 13 21 21 22 14 23
REMARK SMILES IDX 15 24 20 25 22 26 16 27 19 28 17 29 18 30
REMARK H PARENT 18 31
REMARK Flexibility Score: inf
ROOT
ATOM      1  C   UNL     1     180.852 184.856 180.941  1.00  0.00     0.012 C 
ATOM      2  C   UNL     1     182.149 184.874 180.118  1.00  0.00     0.012 C 
ENDROOT
BRANCH   1   3
ATOM      3  C   UNL     1     180.582 186.255 181.470  1.00  0.00    -0.028 C 
ATOM      4  C   UNL     1     181.494 187.242 181.428  1.00  0.00    -0.027 C 
BRANCH   4   5
ATOM      5  C   UNL     1     181.151 188.668 181.818  1.00  0.00     0.014 C 
BRANCH   5   6
ATOM      6  C   UNL     1     182.263 189.233 182.736  1.00  0.00     0.004 C 
ATOM      7  C   UNL     1     183.507 188.345 182.766  1.00  0.00     0.004 C 
ENDBRANCH   5   6
BRANCH   5   8
ATOM      8  C   UNL     1     180.949 189.526 180.529  1.00  0.00    -0.011 C 
ATOM      9  C   UNL     1     181.274 191.007 180.797  1.00  0.00     0.008 C 
ATOM     10  C   UNL     1     181.808 189.033 179.349  1.00  0.00     0.008 C 
ENDBRANCH   5   8
ENDBRANCH   4   5
ENDBRANCH   1   3
BRANCH   1  11
ATOM     11  C   UNL     1     180.870 183.786 182.082  1.00  0.00     0.002 C 
ATOM     12  C   UNL     1     179.487 183.646 182.774  1.00  0.00     0.005 C 
ATOM     13  C   UNL     1     181.246 182.317 181.706  1.00  0.00    -0.026 C 
ATOM     14  C   UNL     1     179.307 182.168 183.148  1.00  0.00     0.005 C 
ATOM     15  C   UNL     1     180.685 181.571 182.927  1.00  0.00    -0.001 C 
ATOM     16  C   UNL     1     182.762 182.009 181.664  1.00  0.00     0.007 C 
ATOM     17  C   UNL     1     180.562 181.899 180.366  1.00  0.00     0.012 C 
ATOM     18  C   UNL     1     180.807 180.035 182.829  1.00  0.00     0.000 C 
ATOM     19  C   UNL     1     183.022 180.490 181.552  1.00  0.00     0.005 C 
ATOM     20  C   UNL     1     182.305 179.649 182.660  1.00  0.00     0.003 C 
ATOM     21  C   UNL     1     180.285 179.375 184.114  1.00  0.00     0.031 C 
ATOM     22  C   UNL     1     182.492 178.083 182.515  1.00  0.00    -0.008 C 
ATOM     23  C   UNL     1     180.506 177.894 184.090  1.00  0.00    -0.027 C 
ATOM     24  C   UNL     1     181.524 177.303 183.428  1.00  0.00    -0.065 C 
ATOM     25  C   UNL     1     182.222 177.600 181.052  1.00  0.00     0.014 C 
ATOM     26  C   UNL     1     183.950 177.734 182.918  1.00  0.00     0.016 C 
ATOM     27  C   UNL     1     181.526 175.794 183.321  1.00  0.00     0.063 C 
ATOM     28  C   UNL     1     182.176 176.066 180.891  1.00  0.00     0.033 C 
ATOM     29  C   UNL     1     181.200 175.400 181.874  1.00  0.00     0.118 C 
BRANCH  29  30
ATOM     30  O   UNL     1     181.280 174.007 181.727  1.00  0.00    -0.393 OA
ATOM     31  H   UNL     1     180.723 173.769 180.941  1.00  0.00     0.210 HD
ENDBRANCH  29  30
ENDBRANCH   1  11
TORSDOF 6
ENDMDL
MODEL 2
REMARK VINA RESULT:    -7.604      5.093     10.395
REMARK INTER + INTRA:         -10.832
REMARK INTER:                  -9.556
REMARK INTRA:                  -1.275
REMARK UNBOUND:                -0.783
REMARK SMILES CC[C@H](C=C[C@@H](C)[C@H]1CC[C@H]2[C@@H]3CC=C4C[C@H](O)CC[C@@]4(C)[C@H]3CC[C@]12C)C(C)C
REMARK SMILES IDX 6 1 7 2 5 3 4 4 3 5 2 6 1 7 28 8 29 9 30 10 8 11 9 12 26 13
REMARK SMILES IDX 10 14 11 15 25 16 27 17 12 18 24 19 23 20 13 21 21 22 14 23
REMARK SMILES IDX 15 24 20 25 22 26 16 27 19 28 17 29 18 30
REMARK H PARENT 18 31
REMARK Flexibility Score: inf
ROOT
ATOM      1  C   UNL     1     183.689 175.565 179.390  1.00  0.00     0.012 C 
ATOM      2  C   UNL     1     183.794 176.181 177.987  1.00  0.00     0.012 C 
ENDROOT
BRANCH   1   3
ATOM      3  C   UNL     1     183.451 174.070 179.258  1.00  0.00    -0.028 C 
ATOM      4  C   UNL     1     184.337 173.148 179.675  1.00  0.00    -0.027 C 
BRANCH   4   5
ATOM      5  C   UNL     1     184.012 171.665 179.675  1.00  0.00     0.014 C 
BRANCH   5   6
ATOM      6  C   UNL     1     182.550 171.459 179.208  1.00  0.00     0.004 C 
ATOM      7  C   UNL     1     181.584 171.251 180.374  1.00  0.00     0.004 C 
ENDBRANCH   5   6
BRANCH   5   8
ATOM      8  C   UNL     1     185.038 170.907 178.776  1.00  0.00    -0.011 C 
ATOM      9  C   UNL     1     184.567 170.875 177.310  1.00  0.00     0.008 C 
ATOM     10  C   UNL     1     186.447 171.529 178.832  1.00  0.00     0.008 C 
ENDBRANCH   5   8
ENDBRANCH   4   5
ENDBRANCH   1   3
BRANCH   1  11
ATOM     11  C   UNL     1     182.605 176.259 180.280  1.00  0.00     0.002 C 
ATOM     12  C   UNL     1     181.619 175.235 180.905  1.00  0.00     0.005 C 
ATOM     13  C   UNL     1     183.088 177.103 181.502  1.00  0.00    -0.026 C 
ATOM     14  C   UNL     1     181.245 175.752 182.302  1.00  0.00     0.005 C 
ATOM     15  C   UNL     1     181.787 177.169 182.319  1.00  0.00    -0.001 C 
ATOM     16  C   UNL     1     183.480 178.566 181.186  1.00  0.00     0.007 C 
ATOM     17  C   UNL     1     184.245 176.372 182.254  1.00  0.00     0.012 C 
ATOM     18  C   UNL     1     181.942 177.875 183.683  1.00  0.00     0.000 C 
ATOM     19  C   UNL     1     183.681 179.385 182.482  1.00  0.00     0.005 C 
ATOM     20  C   UNL     1     182.457 179.326 183.454  1.00  0.00     0.003 C 
ATOM     21  C   UNL     1     180.586 177.955 184.399  1.00  0.00     0.031 C 
ATOM     22  C   UNL     1     182.673 180.091 184.824  1.00  0.00    -0.008 C 
ATOM     23  C   UNL     1     180.691 178.743 185.669  1.00  0.00    -0.027 C 
ATOM     24  C   UNL     1     181.581 179.742 185.855  1.00  0.00    -0.065 C 
ATOM     25  C   UNL     1     184.046 179.729 185.480  1.00  0.00     0.014 C 
ATOM     26  C   UNL     1     182.621 181.616 184.536  1.00  0.00     0.016 C 
ATOM     27  C   UNL     1     181.717 180.328 187.243  1.00  0.00     0.063 C 
ATOM     28  C   UNL     1     184.224 180.270 186.913  1.00  0.00     0.033 C 
ATOM     29  C   UNL     1     183.059 179.883 187.838  1.00  0.00     0.118 C 
BRANCH  29  30
ATOM     30  O   UNL     1     183.250 180.483 189.092  1.00  0.00    -0.393 OA
ATOM     31  H   UNL     1     182.401 180.373 189.595  1.00  0.00     0.210 HD
ENDBRANCH  29  30
ENDBRANCH   1  11
TORSDOF 6
ENDMDL
MODEL 3
REMARK VINA RESULT:    -7.603      5.075     10.323
REMARK INTER + INTRA:         -10.831
REMARK INTER:                  -9.588
REMARK INTRA:                  -1.243
REMARK UNBOUND:                -0.783
REMARK SMILES CC[C@H](C=C[C@@H](C)[C@H]1CC[C@H]2[C@@H]3CC=C4C[C@H](O)CC[C@@]4(C)[C@H]3CC[C@]12C)C(C)C
REMARK SMILES IDX 6 1 7 2 5 3 4 4 3 5 2 6 1 7 28 8 29 9 30 10 8 11 9 12 26 13
REMARK SMILES IDX 10 14 11 15 25 16 27 17 12 18 24 19 23 20 13 21 21 22 14 23
REMARK SMILES IDX 15 24 20 25 22 26 16 27 19 28 17 29 18 30
REMARK H PARENT 18 31
REMARK Flexibility Score: inf
ROOT
ATOM      1  C   UNL     1     183.685 175.497 179.386  1.00  0.00     0.012 C 
ATOM      2  C   UNL     1     183.645 175.967 177.924  1.00  0.00     0.012 C 
ENDROOT
BRANCH   1   3
ATOM      3  C   UNL     1     183.588 173.981 179.422  1.00  0.00    -0.028 C 
ATOM      4  C   UNL     1     183.226 173.245 178.357  1.00  0.00    -0.027 C 
BRANCH   4   5
ATOM      5  C   UNL     1     183.287 171.729 178.372  1.00  0.00     0.014 C 
BRANCH   5   6
ATOM      6  C   UNL     1     184.317 171.265 179.431  1.00  0.00     0.004 C 
ATOM      7  C   UNL     1     185.660 170.875 178.813  1.00  0.00     0.004 C 
ENDBRANCH   5   6
BRANCH   5   8
ATOM      8  C   UNL     1     181.859 171.154 178.636  1.00  0.00    -0.011 C 
ATOM      9  C   UNL     1     181.625 170.935 180.143  1.00  0.00     0.008 C 
ATOM     10  C   UNL     1     180.744 172.063 178.086  1.00  0.00     0.008 C 
ENDBRANCH   5   8
ENDBRANCH   4   5
ENDBRANCH   1   3
BRANCH   1  11
ATOM     11  C   UNL     1     182.594 176.182 180.274  1.00  0.00     0.002 C 
ATOM     12  C   UNL     1     181.630 175.147 180.916  1.00  0.00     0.005 C 
ATOM     13  C   UNL     1     183.068 177.047 181.485  1.00  0.00    -0.026 C 
ATOM     14  C   UNL     1     181.255 175.672 182.309  1.00  0.00     0.005 C 
ATOM     15  C   UNL     1     181.771 177.099 182.308  1.00  0.00    -0.001 C 
ATOM     16  C   UNL     1     183.432 178.514 181.150  1.00  0.00     0.007 C 
ATOM     17  C   UNL     1     184.242 176.346 182.237  1.00  0.00     0.012 C 
ATOM     18  C   UNL     1     181.921 177.822 183.664  1.00  0.00     0.000 C 
ATOM     19  C   UNL     1     183.625 179.350 182.436  1.00  0.00     0.005 C 
ATOM     20  C   UNL     1     182.408 179.280 183.417  1.00  0.00     0.003 C 
ATOM     21  C   UNL     1     180.568 177.885 184.387  1.00  0.00     0.031 C 
ATOM     22  C   UNL     1     182.618 180.063 184.777  1.00  0.00    -0.008 C 
ATOM     23  C   UNL     1     180.666 178.689 185.648  1.00  0.00    -0.027 C 
ATOM     24  C   UNL     1     181.538 179.705 185.818  1.00  0.00    -0.065 C 
ATOM     25  C   UNL     1     184.001 179.733 185.428  1.00  0.00     0.014 C 
ATOM     26  C   UNL     1     182.536 181.583 184.473  1.00  0.00     0.016 C 
ATOM     27  C   UNL     1     181.672 180.309 187.199  1.00  0.00     0.063 C 
ATOM     28  C   UNL     1     184.178 180.293 186.855  1.00  0.00     0.033 C 
ATOM     29  C   UNL     1     183.025 179.894 187.791  1.00  0.00     0.118 C 
BRANCH  29  30
ATOM     30  O   UNL     1     183.212 180.512 189.037  1.00  0.00    -0.393 OA
ATOM     31  H   UNL     1     183.922 180.001 189.506  1.00  0.00     0.210 HD
ENDBRANCH  29  30
ENDBRANCH   1  11
TORSDOF 6
ENDMDL
MODEL 4
REMARK VINA RESULT:    -7.575      4.918      8.837
REMARK INTER + INTRA:         -10.793
REMARK INTER:                  -9.529
REMARK INTRA:                  -1.264
REMARK UNBOUND:                -0.783
REMARK SMILES CC[C@H](C=C[C@@H](C)[C@H]1CC[C@H]2[C@@H]3CC=C4C[C@H](O)CC[C@@]4(C)[C@H]3CC[C@]12C)C(C)C
REMARK SMILES IDX 6 1 7 2 5 3 4 4 3 5 2 6 1 7 28 8 29 9 30 10 8 11 9 12 26 13
REMARK SMILES IDX 10 14 11 15 25 16 27 17 12 18 24 19 23 20 13 21 21 22 14 23
REMARK SMILES IDX 15 24 20 25 22 26 16 27 19 28 17 29 18 30
REMARK H PARENT 18 31
REMARK Flexibility Score: inf
ROOT
ATOM      1  C   UNL     1     181.169 179.855 181.699  1.00  0.00     0.012 C 
ATOM      2  C   UNL     1     180.213 180.749 180.895  1.00  0.00     0.012 C 
ENDROOT
BRANCH   1   3
ATOM      3  C   UNL     1     180.914 178.402 181.333  1.00  0.00    -0.028 C 
ATOM      4  C   UNL     1     181.903 177.530 181.068  1.00  0.00    -0.027 C 
BRANCH   4   5
ATOM      5  C   UNL     1     181.633 176.051 180.859  1.00  0.00     0.014 C 
BRANCH   5   6
ATOM      6  C   UNL     1     182.061 175.647 179.427  1.00  0.00     0.004 C 
ATOM      7  C   UNL     1     180.868 175.362 178.515  1.00  0.00     0.004 C 
ENDBRANCH   5   6
BRANCH   5   8
ATOM      8  C   UNL     1     182.374 175.227 181.958  1.00  0.00    -0.011 C 
ATOM      9  C   UNL     1     181.983 175.712 183.367  1.00  0.00     0.008 C 
ATOM     10  C   UNL     1     182.092 173.716 181.856  1.00  0.00     0.008 C 
ENDBRANCH   5   8
ENDBRANCH   4   5
ENDBRANCH   1   3
BRANCH   1  11
ATOM     11  C   UNL     1     181.078 180.101 183.241  1.00  0.00     0.002 C 
ATOM     12  C   UNL     1     180.475 178.882 183.993  1.00  0.00     0.005 C 
ATOM     13  C   UNL     1     182.400 180.397 184.018  1.00  0.00    -0.026 C 
ATOM     14  C   UNL     1     181.185 178.783 185.350  1.00  0.00     0.005 C 
ATOM     15  C   UNL     1     181.948 180.091 185.455  1.00  0.00    -0.001 C 
ATOM     16  C   UNL     1     182.858 181.876 184.010  1.00  0.00     0.007 C 
ATOM     17  C   UNL     1     183.550 179.462 183.526  1.00  0.00     0.012 C 
ATOM     18  C   UNL     1     183.080 180.194 186.500  1.00  0.00     0.000 C 
ATOM     19  C   UNL     1     184.009 182.111 185.014  1.00  0.00     0.005 C 
ATOM     20  C   UNL     1     183.679 181.630 186.467  1.00  0.00     0.003 C 
ATOM     21  C   UNL     1     182.528 179.938 187.910  1.00  0.00     0.031 C 
ATOM     22  C   UNL     1     184.875 181.787 187.494  1.00  0.00    -0.008 C 
ATOM     23  C   UNL     1     183.584 180.153 188.951  1.00  0.00    -0.027 C 
ATOM     24  C   UNL     1     184.608 181.021 188.805  1.00  0.00    -0.065 C 
ATOM     25  C   UNL     1     186.216 181.235 186.910  1.00  0.00     0.014 C 
ATOM     26  C   UNL     1     185.032 183.297 187.820  1.00  0.00     0.016 C 
ATOM     27  C   UNL     1     185.711 181.004 189.841  1.00  0.00     0.063 C 
ATOM     28  C   UNL     1     187.367 181.161 187.935  1.00  0.00     0.033 C 
ATOM     29  C   UNL     1     186.972 180.399 189.211  1.00  0.00     0.118 C 
BRANCH  29  30
ATOM     30  O   UNL     1     188.036 180.451 190.125  1.00  0.00    -0.393 OA
ATOM     31  H   UNL     1     188.541 179.602 190.026  1.00  0.00     0.210 HD
ENDBRANCH  29  30
ENDBRANCH   1  11
TORSDOF 6
ENDMDL
MODEL 5
REMARK VINA RESULT:    -7.536      4.402     10.776
REMARK INTER + INTRA:         -10.742
REMARK INTER:                  -9.587
REMARK INTRA:                  -1.155
REMARK UNBOUND:                -0.783
REMARK SMILES CC[C@H](C=C[C@@H](C)[C@H]1CC[C@H]2[C@@H]3CC=C4C[C@H](O)CC[C@@]4(C)[C@H]3CC[C@]12C)C(C)C
REMARK SMILES IDX 6 1 7 2 5 3 4 4 3 5 2 6 1 7 28 8 29 9 30 10 8 11 9 12 26 13
REMARK SMILES IDX 10 14 11 15 25 16 27 17 12 18 24 19 23 20 13 21 21 22 14 23
REMARK SMILES IDX 15 24 20 25 22 26 16 27 19 28 17 29 18 30
REMARK H PARENT 18 31
REMARK Flexibility Score: inf
ROOT
ATOM      1  C   UNL     1     183.132 173.910 180.972  1.00  0.00     0.012 C 
ATOM      2  C   UNL     1     182.234 172.791 181.521  1.00  0.00     0.012 C 
ENDROOT
BRANCH   1   3
ATOM      3  C   UNL     1     184.356 173.288 180.320  1.00  0.00    -0.028 C 
ATOM      4  C   UNL     1     184.389 172.013 179.893  1.00  0.00    -0.027 C 
BRANCH   4   5
ATOM      5  C   UNL     1     185.564 171.461 179.107  1.00  0.00     0.014 C 
BRANCH   5   6
ATOM      6  C   UNL     1     185.068 170.948 177.732  1.00  0.00     0.004 C 
ATOM      7  C   UNL     1     183.543 170.875 177.648  1.00  0.00     0.004 C 
ENDBRANCH   5   6
BRANCH   5   8
ATOM      8  C   UNL     1     186.662 172.563 178.971  1.00  0.00    -0.011 C 
ATOM      9  C   UNL     1     188.011 172.067 179.527  1.00  0.00     0.008 C 
ATOM     10  C   UNL     1     186.863 173.023 177.514  1.00  0.00     0.008 C 
ENDBRANCH   5   8
ENDBRANCH   4   5
ENDBRANCH   1   3
BRANCH   1  11
ATOM     11  C   UNL     1     183.515 174.970 182.058  1.00  0.00     0.002 C 
ATOM     12  C   UNL     1     184.863 175.673 181.738  1.00  0.00     0.005 C 
ATOM     13  C   UNL     1     182.530 176.155 182.307  1.00  0.00    -0.026 C 
ATOM     14  C   UNL     1     184.743 177.130 182.205  1.00  0.00     0.005 C 
ATOM     15  C   UNL     1     183.466 177.142 183.024  1.00  0.00    -0.001 C 
ATOM     16  C   UNL     1     181.371 175.860 183.290  1.00  0.00     0.007 C 
ATOM     17  C   UNL     1     181.978 176.708 180.956  1.00  0.00     0.012 C 
ATOM     18  C   UNL     1     182.812 178.505 183.338  1.00  0.00     0.000 C 
ATOM     19  C   UNL     1     180.620 177.155 183.676  1.00  0.00     0.005 C 
ATOM     20  C   UNL     1     181.556 178.280 184.229  1.00  0.00     0.003 C 
ATOM     21  C   UNL     1     183.792 179.401 184.110  1.00  0.00     0.031 C 
ATOM     22  C   UNL     1     180.819 179.643 184.553  1.00  0.00    -0.008 C 
ATOM     23  C   UNL     1     183.138 180.682 184.530  1.00  0.00    -0.027 C 
ATOM     24  C   UNL     1     181.818 180.793 184.790  1.00  0.00    -0.065 C 
ATOM     25  C   UNL     1     179.883 180.089 183.382  1.00  0.00     0.014 C 
ATOM     26  C   UNL     1     179.977 179.438 185.842  1.00  0.00     0.016 C 
ATOM     27  C   UNL     1     181.249 182.178 185.016  1.00  0.00     0.063 C 
ATOM     28  C   UNL     1     179.304 181.510 183.542  1.00  0.00     0.033 C 
ATOM     29  C   UNL     1     180.393 182.564 183.803  1.00  0.00     0.118 C 
BRANCH  29  30
ATOM     30  O   UNL     1     179.783 183.809 184.024  1.00  0.00    -0.393 OA
ATOM     31  H   UNL     1     180.425 184.501 183.718  1.00  0.00     0.210 HD
ENDBRANCH  29  30
ENDBRANCH   1  11
TORSDOF 6
ENDMDL
MODEL 6
REMARK VINA RESULT:    -7.527      4.724     10.383
REMARK INTER + INTRA:         -10.730
REMARK INTER:                  -9.161
REMARK INTRA:                  -1.569
REMARK UNBOUND:                -0.783
REMARK SMILES CC[C@H](C=C[C@@H](C)[C@H]1CC[C@H]2[C@@H]3CC=C4C[C@H](O)CC[C@@]4(C)[C@H]3CC[C@]12C)C(C)C
REMARK SMILES IDX 6 1 7 2 5 3 4 4 3 5 2 6 1 7 28 8 29 9 30 10 8 11 9 12 26 13
REMARK SMILES IDX 10 14 11 15 25 16 27 17 12 18 24 19 23 20 13 21 21 22 14 23
REMARK SMILES IDX 15 24 20 25 22 26 16 27 19 28 17 29 18 30
REMARK H PARENT 18 31
REMARK Flexibility Score: inf
ROOT
ATOM      1  C   UNL     1     182.797 172.879 179.586  1.00  0.00     0.012 C 
ATOM      2  C   UNL     1     183.914 171.857 179.846  1.00  0.00     0.012 C 
ENDROOT
BRANCH   1   3
ATOM      3  C   UNL     1     182.241 172.660 178.189  1.00  0.00    -0.028 C 
ATOM      4  C   UNL     1     180.927 172.708 177.908  1.00  0.00    -0.027 C 
BRANCH   4   5
ATOM      5  C   UNL     1     180.409 172.642 176.483  1.00  0.00     0.014 C 
BRANCH   5   6
ATOM      6  C   UNL     1     179.169 171.715 176.428  1.00  0.00     0.004 C 
ATOM      7  C   UNL     1     178.868 171.220 175.014  1.00  0.00     0.004 C 
ENDBRANCH   5   6
BRANCH   5   8
ATOM      8  C   UNL     1     180.097 174.086 175.976  1.00  0.00    -0.011 C 
ATOM      9  C   UNL     1     179.680 175.001 177.143  1.00  0.00     0.008 C 
ATOM     10  C   UNL     1     181.291 174.727 175.243  1.00  0.00     0.008 C 
ENDBRANCH   5   8
ENDBRANCH   4   5
ENDBRANCH   1   3
BRANCH   1  11
ATOM     11  C   UNL     1     183.259 174.356 179.814  1.00  0.00     0.002 C 
ATOM     12  C   UNL     1     183.216 175.191 178.505  1.00  0.00     0.005 C 
ATOM     13  C   UNL     1     182.460 175.227 180.835  1.00  0.00    -0.026 C 
ATOM     14  C   UNL     1     182.802 176.619 178.884  1.00  0.00     0.005 C 
ATOM     15  C   UNL     1     182.902 176.634 180.398  1.00  0.00    -0.001 C 
ATOM     16  C   UNL     1     182.886 175.075 182.315  1.00  0.00     0.007 C 
ATOM     17  C   UNL     1     180.924 174.992 180.676  1.00  0.00     0.012 C 
ATOM     18  C   UNL     1     182.199 177.774 181.165  1.00  0.00     0.000 C 
ATOM     19  C   UNL     1     182.232 176.161 183.200  1.00  0.00     0.005 C 
ATOM     20  C   UNL     1     182.480 177.618 182.688  1.00  0.00     0.003 C 
ATOM     21  C   UNL     1     182.746 179.136 180.715  1.00  0.00     0.031 C 
ATOM     22  C   UNL     1     181.751 178.741 183.535  1.00  0.00    -0.008 C 
ATOM     23  C   UNL     1     182.165 180.250 181.532  1.00  0.00    -0.027 C 
ATOM     24  C   UNL     1     181.769 180.104 182.814  1.00  0.00    -0.065 C 
ATOM     25  C   UNL     1     180.250 178.387 183.795  1.00  0.00     0.014 C 
ATOM     26  C   UNL     1     182.496 178.881 184.889  1.00  0.00     0.016 C 
ATOM     27  C   UNL     1     181.023 181.249 183.465  1.00  0.00     0.063 C 
ATOM     28  C   UNL     1     179.431 179.533 184.425  1.00  0.00     0.033 C 
ATOM     29  C   UNL     1     179.553 180.847 183.636  1.00  0.00     0.118 C 
BRANCH  29  30
ATOM     30  O   UNL     1     178.856 181.857 184.316  1.00  0.00    -0.393 OA
ATOM     31  H   UNL     1     177.929 181.528 184.447  1.00  0.00     0.210 HD
ENDBRANCH  29  30
ENDBRANCH   1  11
TORSDOF 6
ENDMDL
MODEL 7
REMARK VINA RESULT:    -7.500      2.809      5.685
REMARK INTER + INTRA:         -10.695
REMARK INTER:                  -9.569
REMARK INTRA:                  -1.126
REMARK UNBOUND:                -0.783
REMARK SMILES CC[C@H](C=C[C@@H](C)[C@H]1CC[C@H]2[C@@H]3CC=C4C[C@H](O)CC[C@@]4(C)[C@H]3CC[C@]12C)C(C)C
REMARK SMILES IDX 6 1 7 2 5 3 4 4 3 5 2 6 1 7 28 8 29 9 30 10 8 11 9 12 26 13
REMARK SMILES IDX 10 14 11 15 25 16 27 17 12 18 24 19 23 20 13 21 21 22 14 23
REMARK SMILES IDX 15 24 20 25 22 26 16 27 19 28 17 29 18 30
REMARK H PARENT 18 31
REMARK Flexibility Score: inf
ROOT
ATOM      1  C   UNL     1     181.238 179.778 184.489  1.00  0.00     0.012 C 
ATOM      2  C   UNL     1     180.391 179.463 185.731  1.00  0.00     0.012 C 
ENDROOT
BRANCH   1   3
ATOM      3  C   UNL     1     181.212 181.277 184.240  1.00  0.00    -0.028 C 
ATOM      4  C   UNL     1     180.095 182.018 184.349  1.00  0.00    -0.027 C 
BRANCH   4   5
ATOM      5  C   UNL     1     180.124 183.532 184.249  1.00  0.00     0.014 C 
BRANCH   5   6
ATOM      6  C   UNL     1     181.516 183.988 183.748  1.00  0.00     0.004 C 
ATOM      7  C   UNL     1     181.428 185.010 182.615  1.00  0.00     0.004 C 
ENDBRANCH   5   6
BRANCH   5   8
ATOM      8  C   UNL     1     178.968 184.013 183.316  1.00  0.00    -0.011 C 
ATOM      9  C   UNL     1     178.321 182.824 182.582  1.00  0.00     0.008 C 
ATOM     10  C   UNL     1     177.872 184.782 184.080  1.00  0.00     0.008 C 
ENDBRANCH   5   8
ENDBRANCH   4   5
ENDBRANCH   1   3
BRANCH   1  11
ATOM     11  C   UNL     1     180.798 178.962 183.229  1.00  0.00     0.002 C 
ATOM     12  C   UNL     1     180.863 179.811 181.931  1.00  0.00     0.005 C 
ATOM     13  C   UNL     1     181.605 177.673 182.870  1.00  0.00    -0.026 C 
ATOM     14  C   UNL     1     181.298 178.877 180.792  1.00  0.00     0.005 C 
ATOM     15  C   UNL     1     181.189 177.491 181.401  1.00  0.00    -0.001 C 
ATOM     16  C   UNL     1     181.167 176.387 183.611  1.00  0.00     0.007 C 
ATOM     17  C   UNL     1     183.137 177.916 183.046  1.00  0.00     0.012 C 
ATOM     18  C   UNL     1     181.905 176.323 180.691  1.00  0.00     0.000 C 
ATOM     19  C   UNL     1     181.833 175.134 182.998  1.00  0.00     0.005 C 
ATOM     20  C   UNL     1     181.611 174.999 181.455  1.00  0.00     0.003 C 
ATOM     21  C   UNL     1     181.383 176.172 179.254  1.00  0.00     0.031 C 
ATOM     22  C   UNL     1     182.353 173.766 180.794  1.00  0.00    -0.008 C 
ATOM     23  C   UNL     1     181.977 174.969 178.586  1.00  0.00    -0.027 C 
ATOM     24  C   UNL     1     182.362 173.861 179.254  1.00  0.00    -0.065 C 
ATOM     25  C   UNL     1     183.847 173.676 181.250  1.00  0.00     0.014 C 
ATOM     26  C   UNL     1     181.602 172.474 181.212  1.00  0.00     0.016 C 
ATOM     27  C   UNL     1     183.122 172.797 178.493  1.00  0.00     0.063 C 
ATOM     28  C   UNL     1     184.680 172.630 180.479  1.00  0.00     0.033 C 
ATOM     29  C   UNL     1     184.585 172.808 178.955  1.00  0.00     0.118 C 
BRANCH  29  30
ATOM     30  O   UNL     1     185.294 171.772 178.327  1.00  0.00    -0.393 OA
ATOM     31  H   UNL     1     184.932 170.920 178.684  1.00  0.00     0.210 HD
ENDBRANCH  29  30
ENDBRANCH   1  11
TORSDOF 6
ENDMDL
MODEL 8
REMARK VINA RESULT:    -7.348      4.663     10.528
REMARK INTER + INTRA:         -10.493
REMARK INTER:                  -9.342
REMARK INTRA:                  -1.151
REMARK UNBOUND:                -0.783
REMARK SMILES CC[C@H](C=C[C@@H](C)[C@H]1CC[C@H]2[C@@H]3CC=C4C[C@H](O)CC[C@@]4(C)[C@H]3CC[C@]12C)C(C)C
REMARK SMILES IDX 6 1 7 2 5 3 4 4 3 5 2 6 1 7 28 8 29 9 30 10 8 11 9 12 26 13
REMARK SMILES IDX 10 14 11 15 25 16 27 17 12 18 24 19 23 20 13 21 21 22 14 23
REMARK SMILES IDX 15 24 20 25 22 26 16 27 19 28 17 29 18 30
REMARK H PARENT 18 31
REMARK Flexibility Score: inf
ROOT
ATOM      1  C   UNL     1     182.657 174.954 179.212  1.00  0.00     0.012 C 
ATOM      2  C   UNL     1     182.343 175.656 177.883  1.00  0.00     0.012 C 
ENDROOT
BRANCH   1   3
ATOM      3  C   UNL     1     182.571 173.450 179.010  1.00  0.00    -0.028 C 
ATOM      4  C   UNL     1     181.904 172.886 177.987  1.00  0.00    -0.027 C 
BRANCH   4   5
ATOM      5  C   UNL     1     181.964 171.393 177.718  1.00  0.00     0.014 C 
BRANCH   5   6
ATOM      6  C   UNL     1     180.544 170.875 177.377  1.00  0.00     0.004 C 
ATOM      7  C   UNL     1     179.584 172.001 176.993  1.00  0.00     0.004 C 
ENDBRANCH   5   6
BRANCH   5   8
ATOM      8  C   UNL     1     182.991 171.111 176.576  1.00  0.00    -0.011 C 
ATOM      9  C   UNL     1     183.024 172.273 175.566  1.00  0.00     0.008 C 
ATOM     10  C   UNL     1     184.417 170.875 177.109  1.00  0.00     0.008 C 
ENDBRANCH   5   8
ENDBRANCH   4   5
ENDBRANCH   1   3
BRANCH   1  11
ATOM     11  C   UNL     1     181.748 175.444 180.388  1.00  0.00     0.002 C 
ATOM     12  C   UNL     1     181.705 174.423 181.558  1.00  0.00     0.005 C 
ATOM     13  C   UNL     1     182.114 176.792 181.087  1.00  0.00    -0.026 C 
ATOM     14  C   UNL     1     181.621 175.225 182.864  1.00  0.00     0.005 C 
ATOM     15  C   UNL     1     181.331 176.641 182.400  1.00  0.00    -0.001 C 
ATOM     16  C   UNL     1     181.569 178.067 180.397  1.00  0.00     0.007 C 
ATOM     17  C   UNL     1     183.656 176.900 181.303  1.00  0.00     0.012 C 
ATOM     18  C   UNL     1     181.557 177.797 183.398  1.00  0.00     0.000 C 
ATOM     19  C   UNL     1     181.751 179.311 181.297  1.00  0.00     0.005 C 
ATOM     20  C   UNL     1     181.144 179.140 182.730  1.00  0.00     0.003 C 
ATOM     21  C   UNL     1     180.689 177.599 184.649  1.00  0.00     0.031 C 
ATOM     22  C   UNL     1     181.391 180.372 183.694  1.00  0.00    -0.008 C 
ATOM     23  C   UNL     1     180.801 178.770 185.577  1.00  0.00    -0.027 C 
ATOM     24  C   UNL     1     181.057 180.028 185.159  1.00  0.00    -0.065 C 
ATOM     25  C   UNL     1     182.883 180.839 183.667  1.00  0.00     0.014 C 
ATOM     26  C   UNL     1     180.473 181.535 183.231  1.00  0.00     0.016 C 
ATOM     27  C   UNL     1     181.337 181.085 186.207  1.00  0.00     0.063 C 
ATOM     28  C   UNL     1     183.235 181.891 184.741  1.00  0.00     0.033 C 
ATOM     29  C   UNL     1     182.827 181.448 186.155  1.00  0.00     0.118 C 
BRANCH  29  30
ATOM     30  O   UNL     1     183.097 182.488 187.058  1.00  0.00    -0.393 OA
ATOM     31  H   UNL     1     183.177 182.075 187.956  1.00  0.00     0.210 HD
ENDBRANCH  29  30
ENDBRANCH   1  11
TORSDOF 6
ENDMDL
MODEL 9
REMARK VINA RESULT:    -7.247      3.856      9.520
REMARK INTER + INTRA:         -10.360
REMARK INTER:                  -9.009
REMARK INTRA:                  -1.351
REMARK UNBOUND:                -0.783
REMARK SMILES CC[C@H](C=C[C@@H](C)[C@H]1CC[C@H]2[C@@H]3CC=C4C[C@H](O)CC[C@@]4(C)[C@H]3CC[C@]12C)C(C)C
REMARK SMILES IDX 6 1 7 2 5 3 4 4 3 5 2 6 1 7 28 8 29 9 30 10 8 11 9 12 26 13
REMARK SMILES IDX 10 14 11 15 25 16 27 17 12 18 24 19 23 20 13 21 21 22 14 23
REMARK SMILES IDX 15 24 20 25 22 26 16 27 19 28 17 29 18 30
REMARK H PARENT 18 31
REMARK Flexibility Score: inf
ROOT
ATOM      1  C   UNL     1     182.956 174.679 182.003  1.00  0.00     0.012 C 
ATOM      2  C   UNL     1     183.523 173.492 182.797  1.00  0.00     0.012 C 
ENDROOT
BRANCH   1   3
ATOM      3  C   UNL     1     183.420 174.577 180.560  1.00  0.00    -0.028 C 
ATOM      4  C   UNL     1     182.598 174.250 179.548  1.00  0.00    -0.027 C 
BRANCH   4   5
ATOM      5  C   UNL     1     183.046 174.306 178.099  1.00  0.00     0.014 C 
BRANCH   5   6
ATOM      6  C   UNL     1     182.670 172.981 177.391  1.00  0.00     0.004 C 
ATOM      7  C   UNL     1     181.816 172.068 178.270  1.00  0.00     0.004 C 
ENDBRANCH   5   6
BRANCH   5   8
ATOM      8  C   UNL     1     182.412 175.554 177.406  1.00  0.00    -0.011 C 
ATOM      9  C   UNL     1     180.945 175.737 177.838  1.00  0.00     0.008 C 
ATOM     10  C   UNL     1     183.185 176.853 177.705  1.00  0.00     0.008 C 
ENDBRANCH   5   8
ENDBRANCH   4   5
ENDBRANCH   1   3
BRANCH   1  11
ATOM     11  C   UNL     1     183.312 176.063 182.642  1.00  0.00     0.002 C 
ATOM     12  C   UNL     1     184.526 176.734 181.944  1.00  0.00     0.005 C 
ATOM     13  C   UNL     1     182.218 177.178 182.635  1.00  0.00    -0.026 C 
ATOM     14  C   UNL     1     184.276 178.248 181.942  1.00  0.00     0.005 C 
ATOM     15  C   UNL     1     183.093 178.419 182.877  1.00  0.00    -0.001 C 
ATOM     16  C   UNL     1     181.206 177.122 183.805  1.00  0.00     0.007 C 
ATOM     17  C   UNL     1     181.474 177.212 181.263  1.00  0.00     0.012 C 
ATOM     18  C   UNL     1     182.313 179.750 182.831  1.00  0.00     0.000 C 
ATOM     19  C   UNL     1     180.344 178.405 183.860  1.00  0.00     0.005 C 
ATOM     20  C   UNL     1     181.187 179.723 183.905  1.00  0.00     0.003 C 
ATOM     21  C   UNL     1     183.247 180.927 183.147  1.00  0.00     0.031 C 
ATOM     22  C   UNL     1     180.324 181.050 183.880  1.00  0.00    -0.008 C 
ATOM     23  C   UNL     1     182.486 182.216 183.227  1.00  0.00    -0.027 C 
ATOM     24  C   UNL     1     181.194 182.294 183.610  1.00  0.00    -0.065 C 
ATOM     25  C   UNL     1     179.231 181.011 182.762  1.00  0.00     0.014 C 
ATOM     26  C   UNL     1     179.644 181.207 185.267  1.00  0.00     0.016 C 
ATOM     27  C   UNL     1     180.486 183.624 183.464  1.00  0.00     0.063 C 
ATOM     28  C   UNL     1     178.502 182.353 182.544  1.00  0.00     0.033 C 
ATOM     29  C   UNL     1     179.474 183.522 182.315  1.00  0.00     0.118 C 
BRANCH  29  30
ATOM     30  O   UNL     1     178.742 184.715 182.214  1.00  0.00    -0.393 OA
ATOM     31  H   UNL     1     179.023 185.289 182.973  1.00  0.00     0.210 HD
ENDBRANCH  29  30
ENDBRANCH   1  11
TORSDOF 6
ENDMDL
