MODEL 1
REMARK VINA RESULT:    -0.911      0.000      0.000
REMARK INTER + INTRA:          -2.835
REMARK INTER:                  -1.977
REMARK INTRA:                  -0.857
REMARK UNBOUND:                -0.857
REMARK SMILES CCCCCCCCCCCCCCCCCCCCCC(=O)[O-]
REMARK SMILES IDX 12 1 11 2 10 3 9 4 8 5 7 6 6 7 5 8 4 9 3 10 2 11 1 12 13 13
REMARK SMILES IDX 14 14 15 15 16 16 17 17 18 18 19 19 20 20 21 21 22 22 23 23
REMARK SMILES IDX 24 24
REMARK H PARENT
REMARK Flexibility Score: inf
ROOT
ATOM      1  C   UNL     1     -12.722 -10.086 -10.946  1.00  0.00     0.000 C 
ENDROOT
BRANCH   1   2
ATOM      2  C   UNL     1     -11.573  -9.656 -11.878  1.00  0.00     0.000 C 
BRANCH   2   3
ATOM      3  C   UNL     1     -10.460 -10.705 -12.077  1.00  0.00     0.000 C 
BRANCH   3   4
ATOM      4  C   UNL     1      -9.048 -10.107 -11.993  1.00  0.00    -0.000 C 
BRANCH   4   5
ATOM      5  C   UNL     1      -7.977 -11.201 -12.122  1.00  0.00    -0.000 C 
BRANCH   5   6
ATOM      6  C   UNL     1      -6.546 -10.636 -12.124  1.00  0.00    -0.000 C 
BRANCH   6   7
ATOM      7  C   UNL     1      -5.647 -11.123 -10.970  1.00  0.00    -0.000 C 
BRANCH   7   8
ATOM      8  C   UNL     1      -4.170 -11.371 -11.341  1.00  0.00    -0.000 C 
BRANCH   8   9
ATOM      9  C   UNL     1      -3.149 -10.867 -10.301  1.00  0.00    -0.000 C 
BRANCH   9  10
ATOM     10  C   UNL     1      -2.282  -9.690 -10.808  1.00  0.00    -0.000 C 
BRANCH  10  11
ATOM     11  C   UNL     1      -0.952  -9.544 -10.053  1.00  0.00    -0.003 C 
ATOM     12  C   UNL     1      -0.948  -8.359  -9.089  1.00  0.00     0.004 C 
ENDBRANCH  10  11
ENDBRANCH   9  10
ENDBRANCH   8   9
ENDBRANCH   7   8
ENDBRANCH   6   7
ENDBRANCH   5   6
ENDBRANCH   4   5
ENDBRANCH   3   4
ENDBRANCH   2   3
ENDBRANCH   1   2
BRANCH   1  13
ATOM     13  C   UNL     1     -13.820 -10.885 -11.668  1.00  0.00     0.000 C 
BRANCH  13  14
ATOM     14  C   UNL     1     -14.249 -12.146 -10.893  1.00  0.00     0.000 C 
BRANCH  14  15
ATOM     15  C   UNL     1     -15.741 -12.514 -11.003  1.00  0.00     0.000 C 
BRANCH  15  16
ATOM     16  C   UNL     1     -16.652 -11.565 -10.207  1.00  0.00     0.000 C 
BRANCH  16  17
ATOM     17  C   UNL     1     -17.634 -10.794 -11.105  1.00  0.00     0.000 C 
BRANCH  17  18
ATOM     18  C   UNL     1     -18.555 -11.722 -11.917  1.00  0.00     0.000 C 
BRANCH  18  19
ATOM     19  C   UNL     1     -19.966 -11.828 -11.317  1.00  0.00     0.000 C 
BRANCH  19  20
ATOM     20  C   UNL     1     -19.962 -12.394  -9.889  1.00  0.00     0.006 C 
BRANCH  20  21
ATOM     21  C   UNL     1     -20.688 -11.451  -8.921  1.00  0.00     0.053 C 
BRANCH  21  22
ATOM     22  C   UNL     1     -20.068 -11.505  -7.559  1.00  0.00     0.041 C 
ATOM     23  O   UNL     1     -18.911 -11.984  -7.407  1.00  0.00    -0.550 OA
ATOM     24  O   UNL     1     -20.778 -11.044  -6.454  1.00  0.00    -0.550 OA
ENDBRANCH  21  22
ENDBRANCH  20  21
ENDBRANCH  19  20
ENDBRANCH  18  19
ENDBRANCH  17  18
ENDBRANCH  16  17
ENDBRANCH  15  16
ENDBRANCH  14  15
ENDBRANCH  13  14
ENDBRANCH   1  13
TORSDOF 20
ENDMDL
MODEL 2
REMARK VINA RESULT:    -0.902      4.732      9.120
REMARK INTER + INTRA:          -2.814
REMARK INTER:                  -1.934
REMARK INTRA:                  -0.880
REMARK UNBOUND:                -0.857
REMARK SMILES CCCCCCCCCCCCCCCCCCCCCC(=O)[O-]
REMARK SMILES IDX 12 1 11 2 10 3 9 4 8 5 7 6 6 7 5 8 4 9 3 10 2 11 1 12 13 13
REMARK SMILES IDX 14 14 15 15 16 16 17 17 18 18 19 19 20 20 21 21 22 22 23 23
REMARK SMILES IDX 24 24
REMARK H PARENT
REMARK Flexibility Score: inf
ROOT
ATOM      1  C   UNL     1     -11.189  -9.229 -11.224  1.00  0.00     0.000 C 
ENDROOT
BRANCH   1   2
ATOM      2  C   UNL     1     -12.060  -8.703 -10.067  1.00  0.00     0.000 C 
BRANCH   2   3
ATOM      3  C   UNL     1     -13.544  -8.473 -10.413  1.00  0.00     0.000 C 
BRANCH   3   4
ATOM      4  C   UNL     1     -13.766  -8.065 -11.876  1.00  0.00    -0.000 C 
BRANCH   4   5
ATOM      5  C   UNL     1     -13.571  -6.552 -12.063  1.00  0.00    -0.000 C 
BRANCH   5   6
ATOM      6  C   UNL     1     -14.892  -5.766 -11.977  1.00  0.00    -0.000 C 
BRANCH   6   7
ATOM      7  C   UNL     1     -14.843  -4.497 -11.104  1.00  0.00    -0.000 C 
BRANCH   7   8
ATOM      8  C   UNL     1     -16.061  -3.558 -11.233  1.00  0.00    -0.000 C 
BRANCH   8   9
ATOM      9  C   UNL     1     -17.269  -4.166 -11.973  1.00  0.00    -0.000 C 
BRANCH   9  10
ATOM     10  C   UNL     1     -18.603  -4.016 -11.205  1.00  0.00    -0.000 C 
BRANCH  10  11
ATOM     11  C   UNL     1     -19.834  -3.981 -12.123  1.00  0.00    -0.003 C 
ATOM     12  C   UNL     1     -21.084  -3.462 -11.414  1.00  0.00     0.004 C 
ENDBRANCH  10  11
ENDBRANCH   9  10
ENDBRANCH   8   9
ENDBRANCH   7   8
ENDBRANCH   6   7
ENDBRANCH   5   6
ENDBRANCH   4   5
ENDBRANCH   3   4
ENDBRANCH   2   3
ENDBRANCH   1   2
BRANCH   1  13
ATOM     13  C   UNL     1     -11.906 -10.277 -12.093  1.00  0.00     0.000 C 
BRANCH  13  14
ATOM     14  C   UNL     1     -12.002 -11.654 -11.409  1.00  0.00     0.000 C 
BRANCH  14  15
ATOM     15  C   UNL     1     -13.190 -11.831 -10.443  1.00  0.00     0.000 C 
BRANCH  15  16
ATOM     16  C   UNL     1     -14.004 -13.105 -10.723  1.00  0.00     0.000 C 
BRANCH  16  17
ATOM     17  C   UNL     1     -14.836 -13.005 -12.013  1.00  0.00     0.000 C 
BRANCH  17  18
ATOM     18  C   UNL     1     -16.351 -12.972 -11.745  1.00  0.00     0.000 C 
BRANCH  18  19
ATOM     19  C   UNL     1     -16.930 -11.549 -11.798  1.00  0.00     0.000 C 
BRANCH  19  20
ATOM     20  C   UNL     1     -16.939 -10.861 -10.424  1.00  0.00     0.006 C 
BRANCH  20  21
ATOM     21  C   UNL     1     -17.485 -11.799  -9.341  1.00  0.00     0.053 C 
BRANCH  21  22
ATOM     22  C   UNL     1     -18.866 -11.392  -8.929  1.00  0.00     0.041 C 
ATOM     23  O   UNL     1     -19.029 -10.496  -8.055  1.00  0.00    -0.550 OA
ATOM     24  O   UNL     1     -19.974 -12.017  -9.493  1.00  0.00    -0.550 OA
ENDBRANCH  21  22
ENDBRANCH  20  21
ENDBRANCH  19  20
ENDBRANCH  18  19
ENDBRANCH  17  18
ENDBRANCH  16  17
ENDBRANCH  15  16
ENDBRANCH  14  15
ENDBRANCH  13  14
ENDBRANCH   1  13
TORSDOF 20
ENDMDL
MODEL 3
REMARK VINA RESULT:    -0.706      5.339     13.406
REMARK INTER + INTRA:          -2.388
REMARK INTER:                  -1.622
REMARK INTRA:                  -0.766
REMARK UNBOUND:                -0.857
REMARK SMILES CCCCCCCCCCCCCCCCCCCCCC(=O)[O-]
REMARK SMILES IDX 12 1 11 2 10 3 9 4 8 5 7 6 6 7 5 8 4 9 3 10 2 11 1 12 13 13
REMARK SMILES IDX 14 14 15 15 16 16 17 17 18 18 19 19 20 20 21 21 22 22 23 23
REMARK SMILES IDX 24 24
REMARK H PARENT
REMARK Flexibility Score: inf
ROOT
ATOM      1  C   UNL     1     -12.951 -11.488 -11.370  1.00  0.00     0.000 C 
ENDROOT
BRANCH   1   2
ATOM      2  C   UNL     1     -14.420 -11.678 -10.945  1.00  0.00     0.000 C 
BRANCH   2   3
ATOM      3  C   UNL     1     -15.218 -12.700 -11.779  1.00  0.00     0.000 C 
BRANCH   3   4
ATOM      4  C   UNL     1     -16.574 -13.060 -11.154  1.00  0.00    -0.000 C 
BRANCH   4   5
ATOM      5  C   UNL     1     -17.727 -12.381 -11.908  1.00  0.00    -0.000 C 
BRANCH   5   6
ATOM      6  C   UNL     1     -19.005 -12.260 -11.058  1.00  0.00    -0.000 C 
BRANCH   6   7
ATOM      7  C   UNL     1     -18.982 -13.037  -9.727  1.00  0.00    -0.000 C 
BRANCH   7   8
ATOM      8  C   UNL     1     -18.950 -12.166  -8.454  1.00  0.00    -0.000 C 
BRANCH   8   9
ATOM      9  C   UNL     1     -19.927 -10.973  -8.463  1.00  0.00    -0.000 C 
BRANCH   9  10
ATOM     10  C   UNL     1     -19.785 -10.050  -7.230  1.00  0.00    -0.000 C 
BRANCH  10  11
ATOM     11  C   UNL     1     -21.125  -9.487  -6.732  1.00  0.00    -0.003 C 
ATOM     12  C   UNL     1     -21.076  -7.981  -6.479  1.00  0.00     0.004 C 
ENDBRANCH  10  11
ENDBRANCH   9  10
ENDBRANCH   8   9
ENDBRANCH   7   8
ENDBRANCH   6   7
ENDBRANCH   5   6
ENDBRANCH   4   5
ENDBRANCH   3   4
ENDBRANCH   2   3
ENDBRANCH   1   2
BRANCH   1  13
ATOM     13  C   UNL     1     -12.219 -10.411 -10.551  1.00  0.00     0.000 C 
BRANCH  13  14
ATOM     14  C   UNL     1     -11.118  -9.694 -11.356  1.00  0.00     0.000 C 
BRANCH  14  15
ATOM     15  C   UNL     1     -10.154 -10.618 -12.125  1.00  0.00     0.000 C 
BRANCH  15  16
ATOM     16  C   UNL     1      -8.699 -10.120 -12.097  1.00  0.00     0.000 C 
BRANCH  16  17
ATOM     17  C   UNL     1      -7.679 -11.271 -12.117  1.00  0.00     0.000 C 
BRANCH  17  18
ATOM     18  C   UNL     1      -6.342 -10.894 -11.454  1.00  0.00     0.000 C 
BRANCH  18  19
ATOM     19  C   UNL     1      -5.518 -12.124 -11.041  1.00  0.00     0.000 C 
BRANCH  19  20
ATOM     20  C   UNL     1      -4.014 -11.827 -10.951  1.00  0.00     0.006 C 
BRANCH  20  21
ATOM     21  C   UNL     1      -3.758 -10.326 -10.770  1.00  0.00     0.053 C 
BRANCH  21  22
ATOM     22  C   UNL     1      -2.530 -10.089  -9.948  1.00  0.00     0.041 C 
ATOM     23  O   UNL     1      -1.822 -11.062  -9.569  1.00  0.00    -0.550 OA
ATOM     24  O   UNL     1      -2.177  -8.793  -9.581  1.00  0.00    -0.550 OA
ENDBRANCH  21  22
ENDBRANCH  20  21
ENDBRANCH  19  20
ENDBRANCH  18  19
ENDBRANCH  17  18
ENDBRANCH  16  17
ENDBRANCH  15  16
ENDBRANCH  14  15
ENDBRANCH  13  14
ENDBRANCH   1  13
TORSDOF 20
ENDMDL
MODEL 4
REMARK VINA RESULT:    -0.695      5.020     13.366
REMARK INTER + INTRA:          -2.365
REMARK INTER:                  -1.665
REMARK INTRA:                  -0.700
REMARK UNBOUND:                -0.857
REMARK SMILES CCCCCCCCCCCCCCCCCCCCCC(=O)[O-]
REMARK SMILES IDX 12 1 11 2 10 3 9 4 8 5 7 6 6 7 5 8 4 9 3 10 2 11 1 12 13 13
REMARK SMILES IDX 14 14 15 15 16 16 17 17 18 18 19 19 20 20 21 21 22 22 23 23
REMARK SMILES IDX 24 24
REMARK H PARENT
REMARK Flexibility Score: inf
ROOT
ATOM      1  C   UNL     1     -12.091 -10.092 -11.931  1.00  0.00     0.000 C 
ENDROOT
BRANCH   1   2
ATOM      2  C   UNL     1     -12.149 -11.301 -10.978  1.00  0.00     0.000 C 
BRANCH   2   3
ATOM      3  C   UNL     1     -13.319 -11.291  -9.974  1.00  0.00     0.000 C 
BRANCH   3   4
ATOM      4  C   UNL     1     -14.335 -12.415 -10.221  1.00  0.00    -0.000 C 
BRANCH   4   5
ATOM      5  C   UNL     1     -14.589 -12.609 -11.724  1.00  0.00    -0.000 C 
BRANCH   5   6
ATOM      6  C   UNL     1     -16.081 -12.783 -12.059  1.00  0.00    -0.000 C 
BRANCH   6   7
ATOM      7  C   UNL     1     -16.995 -13.068 -10.850  1.00  0.00    -0.000 C 
BRANCH   7   8
ATOM      8  C   UNL     1     -17.734 -11.840 -10.276  1.00  0.00    -0.000 C 
BRANCH   8   9
ATOM      9  C   UNL     1     -18.935 -12.176  -9.369  1.00  0.00    -0.000 C 
BRANCH   9  10
ATOM     10  C   UNL     1     -18.855 -11.519  -7.971  1.00  0.00    -0.000 C 
BRANCH  10  11
ATOM     11  C   UNL     1     -19.641 -12.282  -6.893  1.00  0.00    -0.003 C 
ATOM     12  C   UNL     1     -21.033 -11.700  -6.656  1.00  0.00     0.004 C 
ENDBRANCH  10  11
ENDBRANCH   9  10
ENDBRANCH   8   9
ENDBRANCH   7   8
ENDBRANCH   6   7
ENDBRANCH   5   6
ENDBRANCH   4   5
ENDBRANCH   3   4
ENDBRANCH   2   3
ENDBRANCH   1   2
BRANCH   1  13
ATOM     13  C   UNL     1     -10.668  -9.541 -12.123  1.00  0.00     0.000 C 
BRANCH  13  14
ATOM     14  C   UNL     1      -9.586 -10.633 -12.020  1.00  0.00     0.000 C 
BRANCH  14  15
ATOM     15  C   UNL     1      -8.131 -10.133 -12.111  1.00  0.00     0.000 C 
BRANCH  15  16
ATOM     16  C   UNL     1      -7.104 -11.278 -12.125  1.00  0.00     0.000 C 
BRANCH  16  17
ATOM     17  C   UNL     1      -5.667 -10.788 -11.877  1.00  0.00     0.000 C 
BRANCH  17  18
ATOM     18  C   UNL     1      -4.776 -11.861 -11.228  1.00  0.00     0.000 C 
BRANCH  18  19
ATOM     19  C   UNL     1      -3.350 -11.872 -11.802  1.00  0.00     0.000 C 
BRANCH  19  20
ATOM     20  C   UNL     1      -2.275 -12.020 -10.715  1.00  0.00     0.006 C 
BRANCH  20  21
ATOM     21  C   UNL     1      -1.506 -10.708 -10.518  1.00  0.00     0.053 C 
BRANCH  21  22
ATOM     22  C   UNL     1      -2.081  -9.917  -9.384  1.00  0.00     0.041 C 
ATOM     23  O   UNL     1      -1.395  -9.705  -8.346  1.00  0.00    -0.550 OA
ATOM     24  O   UNL     1      -3.383  -9.432  -9.464  1.00  0.00    -0.550 OA
ENDBRANCH  21  22
ENDBRANCH  20  21
ENDBRANCH  19  20
ENDBRANCH  18  19
ENDBRANCH  17  18
ENDBRANCH  16  17
ENDBRANCH  15  16
ENDBRANCH  14  15
ENDBRANCH  13  14
ENDBRANCH   1  13
TORSDOF 20
ENDMDL
MODEL 5
REMARK VINA RESULT:    -0.621      1.379      2.530
REMARK INTER + INTRA:          -2.205
REMARK INTER:                  -1.636
REMARK INTRA:                  -0.569
REMARK UNBOUND:                -0.857
REMARK SMILES CCCCCCCCCCCCCCCCCCCCCC(=O)[O-]
REMARK SMILES IDX 12 1 11 2 10 3 9 4 8 5 7 6 6 7 5 8 4 9 3 10 2 11 1 12 13 13
REMARK SMILES IDX 14 14 15 15 16 16 17 17 18 18 19 19 20 20 21 21 22 22 23 23
REMARK SMILES IDX 24 24
REMARK H PARENT
REMARK Flexibility Score: inf
ROOT
ATOM      1  C   UNL     1      -9.750 -11.236 -12.123  1.00  0.00     0.000 C 
ENDROOT
BRANCH   1   2
ATOM      2  C   UNL     1      -8.251 -11.588 -12.125  1.00  0.00     0.000 C 
BRANCH   2   3
ATOM      3  C   UNL     1      -7.292 -10.383 -12.043  1.00  0.00     0.000 C 
BRANCH   3   4
ATOM      4  C   UNL     1      -5.926 -10.740 -11.441  1.00  0.00    -0.000 C 
BRANCH   4   5
ATOM      5  C   UNL     1      -5.909 -12.187 -10.927  1.00  0.00    -0.000 C 
BRANCH   5   6
ATOM      6  C   UNL     1      -4.541 -12.868 -11.108  1.00  0.00    -0.000 C 
BRANCH   6   7
ATOM      7  C   UNL     1      -3.360 -11.909 -11.357  1.00  0.00    -0.000 C 
BRANCH   7   8
ATOM      8  C   UNL     1      -2.964 -11.022 -10.158  1.00  0.00    -0.000 C 
BRANCH   8   9
ATOM      9  C   UNL     1      -2.600  -9.569 -10.522  1.00  0.00    -0.000 C 
BRANCH   9  10
ATOM     10  C   UNL     1      -1.173  -9.161 -10.084  1.00  0.00    -0.000 C 
BRANCH  10  11
ATOM     11  C   UNL     1      -1.142  -8.378  -8.762  1.00  0.00    -0.003 C 
ATOM     12  C   UNL     1      -1.373  -9.268  -7.543  1.00  0.00     0.004 C 
ENDBRANCH  10  11
ENDBRANCH   9  10
ENDBRANCH   8   9
ENDBRANCH   7   8
ENDBRANCH   6   7
ENDBRANCH   5   6
ENDBRANCH   4   5
ENDBRANCH   3   4
ENDBRANCH   2   3
ENDBRANCH   1   2
BRANCH   1  13
ATOM     13  C   UNL     1     -10.661 -12.471 -12.016  1.00  0.00     0.000 C 
BRANCH  13  14
ATOM     14  C   UNL     1     -12.151 -12.104 -11.877  1.00  0.00     0.000 C 
BRANCH  14  15
ATOM     15  C   UNL     1     -12.912 -12.839 -10.756  1.00  0.00     0.000 C 
BRANCH  15  16
ATOM     16  C   UNL     1     -14.415 -12.983 -11.048  1.00  0.00     0.000 C 
BRANCH  16  17
ATOM     17  C   UNL     1     -15.177 -11.656 -10.898  1.00  0.00     0.000 C 
BRANCH  17  18
ATOM     18  C   UNL     1     -16.698 -11.819 -11.070  1.00  0.00     0.000 C 
BRANCH  18  19
ATOM     19  C   UNL     1     -17.327 -12.693  -9.973  1.00  0.00     0.000 C 
BRANCH  19  20
ATOM     20  C   UNL     1     -18.621 -12.092  -9.405  1.00  0.00     0.006 C 
BRANCH  20  21
ATOM     21  C   UNL     1     -18.751 -12.378  -7.905  1.00  0.00     0.053 C 
BRANCH  21  22
ATOM     22  C   UNL     1     -20.152 -12.142  -7.435  1.00  0.00     0.041 C 
ATOM     23  O   UNL     1     -20.497 -12.479  -6.268  1.00  0.00    -0.550 OA
ATOM     24  O   UNL     1     -21.087 -11.570  -8.294  1.00  0.00    -0.550 OA
ENDBRANCH  21  22
ENDBRANCH  20  21
ENDBRANCH  19  20
ENDBRANCH  18  19
ENDBRANCH  17  18
ENDBRANCH  16  17
ENDBRANCH  15  16
ENDBRANCH  14  15
ENDBRANCH  13  14
ENDBRANCH   1  13
TORSDOF 20
ENDMDL
MODEL 6
REMARK VINA RESULT:    -0.118      5.279     13.444
REMARK INTER + INTRA:          -1.113
REMARK INTER:                  -0.279
REMARK INTRA:                  -0.834
REMARK UNBOUND:                -0.857
REMARK SMILES CCCCCCCCCCCCCCCCCCCCCC(=O)[O-]
REMARK SMILES IDX 12 1 11 2 10 3 9 4 8 5 7 6 6 7 5 8 4 9 3 10 2 11 1 12 13 13
REMARK SMILES IDX 14 14 15 15 16 16 17 17 18 18 19 19 20 20 21 21 22 22 23 23
REMARK SMILES IDX 24 24
REMARK H PARENT
REMARK Flexibility Score: inf
ROOT
ATOM      1  C   UNL     1     -12.792 -11.294 -11.244  1.00  0.00     0.000 C 
ENDROOT
BRANCH   1   2
ATOM      2  C   UNL     1     -14.240 -10.784 -11.107  1.00  0.00     0.000 C 
BRANCH   2   3
ATOM      3  C   UNL     1     -14.979 -11.237  -9.833  1.00  0.00     0.000 C 
BRANCH   3   4
ATOM      4  C   UNL     1     -16.497 -11.021  -9.908  1.00  0.00    -0.000 C 
BRANCH   4   5
ATOM      5  C   UNL     1     -17.140 -11.964 -10.936  1.00  0.00    -0.000 C 
BRANCH   5   6
ATOM      6  C   UNL     1     -18.413 -11.377 -11.570  1.00  0.00    -0.000 C 
BRANCH   6   7
ATOM      7  C   UNL     1     -19.482 -12.413 -11.973  1.00  0.00    -0.000 C 
BRANCH   7   8
ATOM      8  C   UNL     1     -20.877 -12.202 -11.347  1.00  0.00    -0.000 C 
BRANCH   8   9
ATOM      9  C   UNL     1     -20.878 -12.032  -9.815  1.00  0.00    -0.000 C 
BRANCH   9  10
ATOM     10  C   UNL     1     -19.817 -12.898  -9.097  1.00  0.00    -0.000 C 
BRANCH  10  11
ATOM     11  C   UNL     1     -19.521 -12.435  -7.662  1.00  0.00    -0.003 C 
ATOM     12  C   UNL     1     -20.109 -11.059  -7.353  1.00  0.00     0.004 C 
ENDBRANCH  10  11
ENDBRANCH   9  10
ENDBRANCH   8   9
ENDBRANCH   7   8
ENDBRANCH   6   7
ENDBRANCH   5   6
ENDBRANCH   4   5
ENDBRANCH   3   4
ENDBRANCH   2   3
ENDBRANCH   1   2
BRANCH   1  13
ATOM     13  C   UNL     1     -11.740 -10.226 -10.901  1.00  0.00     0.000 C 
BRANCH  13  14
ATOM     14  C   UNL     1     -10.715 -10.014 -12.032  1.00  0.00     0.000 C 
BRANCH  14  15
ATOM     15  C   UNL     1      -9.574 -11.049 -12.093  1.00  0.00     0.000 C 
BRANCH  15  16
ATOM     16  C   UNL     1      -8.180 -10.402 -12.125  1.00  0.00     0.000 C 
BRANCH  16  17
ATOM     17  C   UNL     1      -7.149 -11.174 -11.284  1.00  0.00     0.000 C 
BRANCH  17  18
ATOM     18  C   UNL     1      -6.404 -12.249 -12.094  1.00  0.00     0.000 C 
BRANCH  18  19
ATOM     19  C   UNL     1      -4.960 -12.458 -11.612  1.00  0.00     0.000 C 
BRANCH  19  20
ATOM     20  C   UNL     1      -4.459 -11.309 -10.724  1.00  0.00     0.006 C 
BRANCH  20  21
ATOM     21  C   UNL     1      -2.926 -11.273 -10.681  1.00  0.00     0.053 C 
BRANCH  21  22
ATOM     22  C   UNL     1      -2.431  -9.881 -10.439  1.00  0.00     0.041 C 
ATOM     23  O   UNL     1      -2.188  -9.116 -11.413  1.00  0.00    -0.550 OA
ATOM     24  O   UNL     1      -2.217  -9.435  -9.138  1.00  0.00    -0.550 OA
ENDBRANCH  21  22
ENDBRANCH  20  21
ENDBRANCH  19  20
ENDBRANCH  18  19
ENDBRANCH  17  18
ENDBRANCH  16  17
ENDBRANCH  15  16
ENDBRANCH  14  15
ENDBRANCH  13  14
ENDBRANCH   1  13
TORSDOF 20
ENDMDL
MODEL 7
REMARK VINA RESULT:    -0.046      5.950     10.274
REMARK INTER + INTRA:          -0.957
REMARK INTER:                  -0.485
REMARK INTRA:                  -0.471
REMARK UNBOUND:                -0.857
REMARK SMILES CCCCCCCCCCCCCCCCCCCCCC(=O)[O-]
REMARK SMILES IDX 12 1 11 2 10 3 9 4 8 5 7 6 6 7 5 8 4 9 3 10 2 11 1 12 13 13
REMARK SMILES IDX 14 14 15 15 16 16 17 17 18 18 19 19 20 20 21 21 22 22 23 23
REMARK SMILES IDX 24 24
REMARK H PARENT
REMARK Flexibility Score: inf
ROOT
ATOM      1  C   UNL     1     -12.833  -8.134 -10.022  1.00  0.00     0.000 C 
ENDROOT
BRANCH   1   2
ATOM      2  C   UNL     1     -12.058  -9.358  -9.498  1.00  0.00     0.000 C 
BRANCH   2   3
ATOM      3  C   UNL     1     -12.771 -10.713  -9.676  1.00  0.00     0.000 C 
BRANCH   3   4
ATOM      4  C   UNL     1     -12.722 -11.236 -11.119  1.00  0.00    -0.000 C 
BRANCH   4   5
ATOM      5  C   UNL     1     -14.121 -11.634 -11.611  1.00  0.00    -0.000 C 
BRANCH   5   6
ATOM      6  C   UNL     1     -14.996 -12.236 -10.498  1.00  0.00    -0.000 C 
BRANCH   6   7
ATOM      7  C   UNL     1     -16.517 -12.107 -10.717  1.00  0.00    -0.000 C 
BRANCH   7   8
ATOM      8  C   UNL     1     -17.387 -12.338  -9.465  1.00  0.00    -0.000 C 
BRANCH   8   9
ATOM      9  C   UNL     1     -18.836 -11.824  -9.582  1.00  0.00    -0.000 C 
BRANCH   9  10
ATOM     10  C   UNL     1     -19.335 -11.090  -8.315  1.00  0.00    -0.000 C 
BRANCH  10  11
ATOM     11  C   UNL     1     -20.468 -11.829  -7.587  1.00  0.00    -0.003 C 
ATOM     12  C   UNL     1     -20.982 -11.068  -6.367  1.00  0.00     0.004 C 
ENDBRANCH  10  11
ENDBRANCH   9  10
ENDBRANCH   8   9
ENDBRANCH   7   8
ENDBRANCH   6   7
ENDBRANCH   5   6
ENDBRANCH   4   5
ENDBRANCH   3   4
ENDBRANCH   2   3
ENDBRANCH   1   2
BRANCH   1  13
ATOM     13  C   UNL     1     -13.443  -8.356 -11.417  1.00  0.00     0.000 C 
BRANCH  13  14
ATOM     14  C   UNL     1     -13.911  -7.046 -12.080  1.00  0.00     0.000 C 
BRANCH  14  15
ATOM     15  C   UNL     1     -14.440  -5.969 -11.113  1.00  0.00     0.000 C 
BRANCH  15  16
ATOM     16  C   UNL     1     -14.718  -4.626 -11.808  1.00  0.00     0.000 C 
BRANCH  16  17
ATOM     17  C   UNL     1     -16.221  -4.324 -11.934  1.00  0.00     0.000 C 
BRANCH  17  18
ATOM     18  C   UNL     1     -17.103  -5.541 -11.604  1.00  0.00     0.000 C 
BRANCH  18  19
ATOM     19  C   UNL     1     -18.548  -5.378 -12.104  1.00  0.00     0.000 C 
BRANCH  19  20
ATOM     20  C   UNL     1     -19.049  -3.929 -12.006  1.00  0.00     0.006 C 
BRANCH  20  21
ATOM     21  C   UNL     1     -20.525  -3.883 -11.594  1.00  0.00     0.053 C 
BRANCH  21  22
ATOM     22  C   UNL     1     -20.917  -2.502 -11.169  1.00  0.00     0.041 C 
ATOM     23  O   UNL     1     -21.113  -2.245  -9.949  1.00  0.00    -0.550 OA
ATOM     24  O   UNL     1     -21.090  -1.503 -12.123  1.00  0.00    -0.550 OA
ENDBRANCH  21  22
ENDBRANCH  20  21
ENDBRANCH  19  20
ENDBRANCH  18  19
ENDBRANCH  17  18
ENDBRANCH  16  17
ENDBRANCH  15  16
ENDBRANCH  14  15
ENDBRANCH  13  14
ENDBRANCH   1  13
TORSDOF 20
ENDMDL
